MODEL 1
REMARK VINA RESULT:      -9.9      0.000      0.000
REMARK SMILES CN(C)C(=O)Nc1cccc(/C=C/C(=O)OCCOC(=O)c2ccc(-c3c4nc(c(-c5ccccc5)c5ccc([nH]5)c(-c5ccccc5)c5nc(c(-c6ccccc6)c6ccc3[nH]6)C=C5)C=C4)cc2)n1
REMARK SMILES IDX 17 1 16 2 14 3 15 4 13 5 12 6 11 7 7 8 8 9 70 10 9 11 10 12
REMARK SMILES IDX 6 13 1 14 2 15 3 16 4 17 5 18 18 20 19 21 20 22 21 23 22 24
REMARK SMILES IDX 23 25 69 26 24 27 68 28 25 29 26 30 27 31 62 32 28 33 67 34
REMARK SMILES IDX 61 35 63 36 29 37 66 38 60 39 59 40 30 42 52 43 37 44 51 45
REMARK SMILES IDX 38 46 41 47 50 48 64 49 39 50 40 51 49 53 65 54 42 55 31 56
REMARK SMILES IDX 32 57 36 58 33 59 35 60 34 61 53 62 54 63 58 64 55 65 57 66
REMARK SMILES IDX 56 67 43 68 44 69 48 70 45 71 47 72 46 73
REMARK H PARENT 6 19 63 41 41 52
REMARK Flexibility Score: inf
ROOT
ATOM      1  C   UNL A   1      44.665  18.642  25.722  1.00  0.00     0.275 C 
ENDROOT
BRANCH   1   2
ATOM      2  O   UNL A   1      44.785  19.804  24.881  1.00  0.00    -0.459 OA
BRANCH   2   3
ATOM      3  C   UNL A   1      45.999  20.401  24.881  1.00  0.00     0.330 C 
ATOM      4  O   UNL A   1      47.073  19.857  24.670  1.00  0.00    -0.247 OA
BRANCH   3   5
ATOM      5  C   UNL A   1      45.906  21.854  25.094  1.00  0.00     0.095 C 
ATOM      6  C   UNL A   1      46.347  22.805  24.253  1.00  0.00     0.036 C 
BRANCH   6   7
ATOM      7  C   UNL A   1      46.272  24.229  24.604  1.00  0.00     0.066 A 
ATOM      8  C   UNL A   1      47.441  26.188  25.005  1.00  0.00     0.134 A 
ATOM      9  C   UNL A   1      46.285  26.857  25.375  1.00  0.00     0.047 A 
ATOM     10  N   UNL A   1      47.440  24.911  24.578  1.00  0.00    -0.231 NA
ATOM     11  C   UNL A   1      45.079  26.162  25.347  1.00  0.00     0.006 A 
ATOM     12  C   UNL A   1      45.071  24.821  24.966  1.00  0.00     0.028 A 
BRANCH   8  13
ATOM     13  N   UNL A   1      48.699  26.775  25.032  1.00  0.00    -0.292 N 
ATOM     14  C   UNL A   1      50.233  27.496  21.771  1.00  0.00     0.148 C 
ATOM     15  N   UNL A   1      49.204  27.306  22.778  1.00  0.00    -0.331 N 
ATOM     16  C   UNL A   1      47.880  27.796  22.412  1.00  0.00     0.148 C 
ATOM     17  C   UNL A   1      49.615  26.995  24.059  1.00  0.00     0.322 C 
ATOM     18  O   UNL A   1      50.806  27.019  24.380  1.00  0.00    -0.248 OA
ATOM     19  H   UNL A   1      48.976  27.091  25.922  1.00  0.00     0.173 HD
ENDBRANCH   8  13
ENDBRANCH   6   7
ENDBRANCH   3   5
ENDBRANCH   2   3
ENDBRANCH   1   2
BRANCH   1  20
ATOM     20  C   UNL A   1      43.204  18.391  26.109  1.00  0.00     0.275 C 
BRANCH  20  21
ATOM     21  O   UNL A   1      42.288  19.053  25.216  1.00  0.00    -0.458 OA
BRANCH  21  22
ATOM     22  C   UNL A   1      41.230  19.653  25.816  1.00  0.00     0.338 C 
ATOM     23  O   UNL A   1      40.115  19.186  25.971  1.00  0.00    -0.246 OA
BRANCH  22  24
ATOM     24  C   UNL A   1      41.641  20.953  26.384  1.00  0.00     0.060 A 
ATOM     25  C   UNL A   1      41.471  21.146  27.758  1.00  0.00     0.016 A 
ATOM     26  C   UNL A   1      42.128  21.988  25.581  1.00  0.00     0.016 A 
ATOM     27  C   UNL A   1      41.791  22.374  28.334  1.00  0.00     0.010 A 
ATOM     28  C   UNL A   1      42.443  23.224  26.161  1.00  0.00     0.010 A 
ATOM     29  C   UNL A   1      42.267  23.426  27.540  1.00  0.00    -0.014 A 
BRANCH  29  30
ATOM     30  C   UNL A   1      42.548  24.738  28.172  1.00  0.00     0.031 A 
ATOM     31  C   UNL A   1      43.946  25.100  28.585  1.00  0.00     0.074 A 
ATOM     32  C   UNL A   1      41.554  25.633  28.321  1.00  0.00     0.049 A 
ATOM     33  N   UNL A   1      44.399  26.229  29.070  1.00  0.00    -0.248 NA
ATOM     34  C   UNL A   1      44.970  24.055  28.431  1.00  0.00     0.031 C 
ATOM     35  C   UNL A   1      40.156  25.413  27.946  1.00  0.00     0.029 A 
ATOM     36  N   UNL A   1      41.573  26.915  28.812  1.00  0.00    -0.354 N 
ATOM     37  C   UNL A   1      45.759  26.036  29.274  1.00  0.00     0.074 A 
ATOM     38  C   UNL A   1      46.051  24.669  28.892  1.00  0.00     0.031 C 
ATOM     39  C   UNL A   1      39.457  26.532  28.199  1.00  0.00     0.029 A 
ATOM     40  C   UNL A   1      40.350  27.536  28.771  1.00  0.00     0.049 A 
ATOM     41  H   UNL A   1      42.386  27.347  29.159  1.00  0.00     0.167 HD
ATOM     42  C   UNL A   1      46.683  26.916  29.728  1.00  0.00     0.031 A 
ATOM     43  C   UNL A   1      39.988  28.776  29.149  1.00  0.00     0.031 A 
ATOM     44  C   UNL A   1      46.397  28.270  30.122  1.00  0.00     0.049 A 
ATOM     45  C   UNL A   1      41.026  29.719  29.692  1.00  0.00     0.074 A 
ATOM     46  C   UNL A   1      47.274  29.240  30.581  1.00  0.00     0.029 A 
ATOM     47  N   UNL A   1      45.137  28.847  30.113  1.00  0.00    -0.354 N 
ATOM     48  N   UNL A   1      42.313  29.532  29.846  1.00  0.00    -0.248 NA
ATOM     49  C   UNL A   1      40.555  31.050  30.103  1.00  0.00     0.031 C 
ATOM     50  C   UNL A   1      46.536  30.388  30.892  1.00  0.00     0.029 A 
ATOM     51  C   UNL A   1      45.208  30.149  30.582  1.00  0.00     0.049 A 
ATOM     52  H   UNL A   1      44.313  28.397  29.816  1.00  0.00     0.167 HD
ATOM     53  C   UNL A   1      42.810  30.725  30.355  1.00  0.00     0.074 A 
ATOM     54  C   UNL A   1      41.689  31.635  30.463  1.00  0.00     0.031 C 
ATOM     55  C   UNL A   1      44.082  31.039  30.702  1.00  0.00     0.031 A 
BRANCH  42  56
ATOM     56  C   UNL A   1      48.099  26.427  29.844  1.00  0.00    -0.014 A 
ATOM     57  C   UNL A   1      48.572  25.848  31.032  1.00  0.00     0.009 A 
ATOM     58  C   UNL A   1      48.960  26.517  28.739  1.00  0.00     0.009 A 
ATOM     59  C   UNL A   1      49.891  25.396  31.121  1.00  0.00     0.001 A 
ATOM     60  C   UNL A   1      50.271  26.044  28.824  1.00  0.00     0.001 A 
ATOM     61  C   UNL A   1      50.737  25.492  30.017  1.00  0.00     0.000 A 
ENDBRANCH  42  56
BRANCH  43  62
ATOM     62  C   UNL A   1      38.572  29.205  29.024  1.00  0.00    -0.014 A 
ATOM     63  C   UNL A   1      38.084  29.718  27.813  1.00  0.00     0.009 A 
ATOM     64  C   UNL A   1      37.705  29.114  30.124  1.00  0.00     0.009 A 
ATOM     65  C   UNL A   1      36.760  30.152  27.713  1.00  0.00     0.001 A 
ATOM     66  C   UNL A   1      36.376  29.525  30.013  1.00  0.00     0.001 A 
ATOM     67  C   UNL A   1      35.907  30.051  28.811  1.00  0.00     0.000 A 
ENDBRANCH  43  62
BRANCH  55  68
ATOM     68  C   UNL A   1      44.324  32.428  31.222  1.00  0.00    -0.014 A 
ATOM     69  C   UNL A   1      44.584  33.494  30.346  1.00  0.00     0.009 A 
ATOM     70  C   UNL A   1      44.281  32.674  32.603  1.00  0.00     0.009 A 
ATOM     71  C   UNL A   1      44.835  34.773  30.848  1.00  0.00     0.001 A 
ATOM     72  C   UNL A   1      44.508  33.959  33.099  1.00  0.00     0.001 A 
ATOM     73  C   UNL A   1      44.796  35.005  32.222  1.00  0.00     0.000 A 
ENDBRANCH  55  68
ENDBRANCH  29  30
ENDBRANCH  22  24
ENDBRANCH  21  22
ENDBRANCH  20  21
ENDBRANCH   1  20
TORSDOF 13
ENDMDL
MODEL 2
REMARK VINA RESULT:      -9.7      1.631      2.270
REMARK SMILES CN(C)C(=O)Nc1cccc(/C=C/C(=O)OCCOC(=O)c2ccc(-c3c4nc(c(-c5ccccc5)c5ccc([nH]5)c(-c5ccccc5)c5nc(c(-c6ccccc6)c6ccc3[nH]6)C=C5)C=C4)cc2)n1
REMARK SMILES IDX 17 1 16 2 14 3 15 4 13 5 12 6 11 7 7 8 8 9 70 10 9 11 10 12
REMARK SMILES IDX 6 13 1 14 2 15 3 16 4 17 5 18 18 20 19 21 20 22 21 23 22 24
REMARK SMILES IDX 23 25 69 26 24 27 68 28 25 29 26 30 27 31 62 32 28 33 67 34
REMARK SMILES IDX 61 35 63 36 29 37 66 38 60 39 59 40 30 42 52 43 37 44 51 45
REMARK SMILES IDX 38 46 41 47 50 48 64 49 39 50 40 51 49 53 65 54 42 55 31 56
REMARK SMILES IDX 32 57 36 58 33 59 35 60 34 61 53 62 54 63 58 64 55 65 57 66
REMARK SMILES IDX 56 67 43 68 44 69 48 70 45 71 47 72 46 73
REMARK H PARENT 6 19 63 41 41 52
REMARK Flexibility Score: inf
ROOT
ATOM      1  C   UNL A   1      44.723  18.930  25.336  1.00  0.00     0.275 C 
ENDROOT
BRANCH   1   2
ATOM      2  O   UNL A   1      44.970  20.342  25.451  1.00  0.00    -0.459 OA
BRANCH   2   3
ATOM      3  C   UNL A   1      45.031  21.021  24.282  1.00  0.00     0.330 C 
ATOM      4  O   UNL A   1      44.730  20.590  23.179  1.00  0.00    -0.247 OA
BRANCH   3   5
ATOM      5  C   UNL A   1      45.442  22.422  24.470  1.00  0.00     0.095 C 
ATOM      6  C   UNL A   1      46.121  22.912  25.521  1.00  0.00     0.036 C 
BRANCH   6   7
ATOM      7  C   UNL A   1      46.410  24.346  25.642  1.00  0.00     0.066 A 
ATOM      8  C   UNL A   1      45.709  26.507  25.189  1.00  0.00     0.134 A 
ATOM      9  C   UNL A   1      46.888  27.042  25.684  1.00  0.00     0.047 A 
ATOM     10  N   UNL A   1      45.443  25.187  25.209  1.00  0.00    -0.231 NA
ATOM     11  C   UNL A   1      47.856  26.172  26.178  1.00  0.00     0.006 A 
ATOM     12  C   UNL A   1      47.620  24.798  26.147  1.00  0.00     0.028 A 
BRANCH   8  13
ATOM     13  N   UNL A   1      44.694  27.281  24.641  1.00  0.00    -0.292 N 
ATOM     14  C   UNL A   1      42.669  29.231  27.008  1.00  0.00     0.148 C 
ATOM     15  N   UNL A   1      43.823  28.556  26.438  1.00  0.00    -0.331 N 
ATOM     16  C   UNL A   1      45.101  28.880  27.061  1.00  0.00     0.148 C 
ATOM     17  C   UNL A   1      43.664  27.952  25.207  1.00  0.00     0.322 C 
ATOM     18  O   UNL A   1      42.634  28.098  24.543  1.00  0.00    -0.248 OA
ATOM     19  H   UNL A   1      44.732  27.356  23.661  1.00  0.00     0.173 HD
ENDBRANCH   8  13
ENDBRANCH   6   7
ENDBRANCH   3   5
ENDBRANCH   2   3
ENDBRANCH   1   2
BRANCH   1  20
ATOM     20  C   UNL A   1      43.315  18.575  25.825  1.00  0.00     0.275 C 
BRANCH  20  21
ATOM     21  O   UNL A   1      42.296  19.284  25.094  1.00  0.00    -0.458 OA
BRANCH  21  22
ATOM     22  C   UNL A   1      41.268  19.753  25.845  1.00  0.00     0.338 C 
ATOM     23  O   UNL A   1      40.213  19.188  26.077  1.00  0.00    -0.246 OA
BRANCH  22  24
ATOM     24  C   UNL A   1      41.644  21.038  26.467  1.00  0.00     0.060 A 
ATOM     25  C   UNL A   1      41.602  21.123  27.862  1.00  0.00     0.016 A 
ATOM     26  C   UNL A   1      41.974  22.160  25.702  1.00  0.00     0.016 A 
ATOM     27  C   UNL A   1      41.892  22.329  28.496  1.00  0.00     0.010 A 
ATOM     28  C   UNL A   1      42.259  23.374  26.341  1.00  0.00     0.010 A 
ATOM     29  C   UNL A   1      42.211  23.468  27.741  1.00  0.00    -0.014 A 
BRANCH  29  30
ATOM     30  C   UNL A   1      42.462  24.751  28.441  1.00  0.00     0.031 A 
ATOM     31  C   UNL A   1      43.835  25.080  28.957  1.00  0.00     0.074 A 
ATOM     32  C   UNL A   1      41.469  25.650  28.562  1.00  0.00     0.049 A 
ATOM     33  N   UNL A   1      44.266  26.184  29.514  1.00  0.00    -0.248 NA
ATOM     34  C   UNL A   1      44.856  24.030  28.827  1.00  0.00     0.031 C 
ATOM     35  C   UNL A   1      40.097  25.461  28.091  1.00  0.00     0.029 A 
ATOM     36  N   UNL A   1      41.469  26.912  29.103  1.00  0.00    -0.354 N 
ATOM     37  C   UNL A   1      45.608  25.967  29.795  1.00  0.00     0.074 A 
ATOM     38  C   UNL A   1      45.912  24.613  29.379  1.00  0.00     0.031 C 
ATOM     39  C   UNL A   1      39.393  26.578  28.343  1.00  0.00     0.029 A 
ATOM     40  C   UNL A   1      40.257  27.548  29.010  1.00  0.00     0.049 A 
ATOM     41  H   UNL A   1      42.262  27.321  29.519  1.00  0.00     0.167 HD
ATOM     42  C   UNL A   1      46.509  26.819  30.341  1.00  0.00     0.031 A 
ATOM     43  C   UNL A   1      39.882  28.777  29.413  1.00  0.00     0.031 A 
ATOM     44  C   UNL A   1      46.211  28.160  30.770  1.00  0.00     0.049 A 
ATOM     45  C   UNL A   1      40.891  29.686  30.057  1.00  0.00     0.074 A 
ATOM     46  C   UNL A   1      47.066  29.101  31.321  1.00  0.00     0.029 A 
ATOM     47  N   UNL A   1      44.959  28.751  30.703  1.00  0.00    -0.354 N 
ATOM     48  N   UNL A   1      42.165  29.478  30.285  1.00  0.00    -0.248 NA
ATOM     49  C   UNL A   1      40.408  31.005  30.489  1.00  0.00     0.031 C 
ATOM     50  C   UNL A   1      46.320  30.244  31.629  1.00  0.00     0.029 A 
ATOM     51  C   UNL A   1      45.012  30.033  31.226  1.00  0.00     0.049 A 
ATOM     52  H   UNL A   1      44.152  28.323  30.337  1.00  0.00     0.167 HD
ATOM     53  C   UNL A   1      42.639  30.645  30.871  1.00  0.00     0.074 A 
ATOM     54  C   UNL A   1      41.522  31.563  30.944  1.00  0.00     0.031 C 
ATOM     55  C   UNL A   1      43.889  30.930  31.310  1.00  0.00     0.031 A 
BRANCH  42  56
ATOM     56  C   UNL A   1      47.910  26.309  30.527  1.00  0.00    -0.014 A 
ATOM     57  C   UNL A   1      48.316  25.725  31.738  1.00  0.00     0.009 A 
ATOM     58  C   UNL A   1      48.827  26.385  29.467  1.00  0.00     0.009 A 
ATOM     59  C   UNL A   1      49.622  25.255  31.892  1.00  0.00     0.001 A 
ATOM     60  C   UNL A   1      50.125  25.893  29.616  1.00  0.00     0.001 A 
ATOM     61  C   UNL A   1      50.523  25.336  30.832  1.00  0.00     0.000 A 
ENDBRANCH  42  56
BRANCH  43  62
ATOM     62  C   UNL A   1      38.481  29.226  29.215  1.00  0.00    -0.014 A 
ATOM     63  C   UNL A   1      37.544  29.126  30.255  1.00  0.00     0.009 A 
ATOM     64  C   UNL A   1      38.072  29.747  27.978  1.00  0.00     0.009 A 
ATOM     65  C   UNL A   1      36.219  29.518  30.051  1.00  0.00     0.001 A 
ATOM     66  C   UNL A   1      36.753  30.162  27.786  1.00  0.00     0.001 A 
ATOM     67  C   UNL A   1      35.827  30.039  28.819  1.00  0.00     0.000 A 
ENDBRANCH  43  62
BRANCH  55  68
ATOM     68  C   UNL A   1      44.109  32.295  31.898  1.00  0.00    -0.014 A 
ATOM     69  C   UNL A   1      44.487  33.380  31.091  1.00  0.00     0.009 A 
ATOM     70  C   UNL A   1      43.928  32.500  33.275  1.00  0.00     0.009 A 
ATOM     71  C   UNL A   1      44.716  34.635  31.659  1.00  0.00     0.001 A 
ATOM     72  C   UNL A   1      44.134  33.762  33.834  1.00  0.00     0.001 A 
ATOM     73  C   UNL A   1      44.538  34.826  33.028  1.00  0.00     0.000 A 
ENDBRANCH  55  68
ENDBRANCH  29  30
ENDBRANCH  22  24
ENDBRANCH  21  22
ENDBRANCH  20  21
ENDBRANCH   1  20
TORSDOF 13
ENDMDL
MODEL 3
REMARK VINA RESULT:      -8.9      4.142      9.581
REMARK SMILES CN(C)C(=O)Nc1cccc(/C=C/C(=O)OCCOC(=O)c2ccc(-c3c4nc(c(-c5ccccc5)c5ccc([nH]5)c(-c5ccccc5)c5nc(c(-c6ccccc6)c6ccc3[nH]6)C=C5)C=C4)cc2)n1
REMARK SMILES IDX 17 1 16 2 14 3 15 4 13 5 12 6 11 7 7 8 8 9 70 10 9 11 10 12
REMARK SMILES IDX 6 13 1 14 2 15 3 16 4 17 5 18 18 20 19 21 20 22 21 23 22 24
REMARK SMILES IDX 23 25 69 26 24 27 68 28 25 29 26 30 27 31 62 32 28 33 67 34
REMARK SMILES IDX 61 35 63 36 29 37 66 38 60 39 59 40 30 42 52 43 37 44 51 45
REMARK SMILES IDX 38 46 41 47 50 48 64 49 39 50 40 51 49 53 65 54 42 55 31 56
REMARK SMILES IDX 32 57 36 58 33 59 35 60 34 61 53 62 54 63 58 64 55 65 57 66
REMARK SMILES IDX 56 67 43 68 44 69 48 70 45 71 47 72 46 73
REMARK H PARENT 6 19 63 41 41 52
REMARK Flexibility Score: inf
ROOT
ATOM      1  C   UNL A   1      38.920  20.735  25.376  1.00  0.00     0.275 C 
ENDROOT
BRANCH   1   2
ATOM      2  O   UNL A   1      39.138  21.939  26.133  1.00  0.00    -0.459 OA
BRANCH   2   3
ATOM      3  C   UNL A   1      38.159  22.869  26.042  1.00  0.00     0.330 C 
ATOM      4  O   UNL A   1      38.258  24.053  26.330  1.00  0.00    -0.247 OA
BRANCH   3   5
ATOM      5  C   UNL A   1      36.921  22.323  25.464  1.00  0.00     0.095 C 
ATOM      6  C   UNL A   1      35.684  22.820  25.634  1.00  0.00     0.036 C 
BRANCH   6   7
ATOM      7  C   UNL A   1      34.507  22.145  25.071  1.00  0.00     0.066 A 
ATOM      8  C   UNL A   1      33.083  20.323  25.184  1.00  0.00     0.134 A 
ATOM      9  C   UNL A   1      32.408  20.721  24.040  1.00  0.00     0.047 A 
ATOM     10  N   UNL A   1      34.084  21.041  25.727  1.00  0.00    -0.231 NA
ATOM     11  C   UNL A   1      32.816  21.889  23.402  1.00  0.00     0.006 A 
ATOM     12  C   UNL A   1      33.892  22.610  23.918  1.00  0.00     0.028 A 
BRANCH   8  13
ATOM     13  N   UNL A   1      32.781  19.157  25.876  1.00  0.00    -0.292 N 
ATOM     14  C   UNL A   1      33.698  15.999  24.237  1.00  0.00     0.148 C 
ATOM     15  N   UNL A   1      33.755  17.399  24.623  1.00  0.00    -0.331 N 
ATOM     16  C   UNL A   1      35.007  18.078  24.309  1.00  0.00     0.148 C 
ATOM     17  C   UNL A   1      32.798  17.855  25.506  1.00  0.00     0.322 C 
ATOM     18  O   UNL A   1      32.012  17.085  26.064  1.00  0.00    -0.248 OA
ATOM     19  H   UNL A   1      32.505  19.305  26.809  1.00  0.00     0.173 HD
ENDBRANCH   8  13
ENDBRANCH   6   7
ENDBRANCH   3   5
ENDBRANCH   2   3
ENDBRANCH   1   2
BRANCH   1  20
ATOM     20  C   UNL A   1      39.680  19.554  25.988  1.00  0.00     0.275 C 
BRANCH  20  21
ATOM     21  O   UNL A   1      40.947  19.333  25.338  1.00  0.00    -0.458 OA
BRANCH  21  22
ATOM     22  C   UNL A   1      42.027  19.359  26.158  1.00  0.00     0.338 C 
ATOM     23  O   UNL A   1      42.754  18.423  26.441  1.00  0.00    -0.246 OA
BRANCH  22  24
ATOM     24  C   UNL A   1      42.297  20.744  26.594  1.00  0.00     0.060 A 
ATOM     25  C   UNL A   1      42.710  21.664  25.626  1.00  0.00     0.016 A 
ATOM     26  C   UNL A   1      42.206  21.126  27.936  1.00  0.00     0.016 A 
ATOM     27  C   UNL A   1      43.031  22.968  25.996  1.00  0.00     0.010 A 
ATOM     28  C   UNL A   1      42.535  22.436  28.307  1.00  0.00     0.010 A 
ATOM     29  C   UNL A   1      42.958  23.362  27.340  1.00  0.00    -0.014 A 
BRANCH  29  30
ATOM     30  C   UNL A   1      43.358  24.742  27.710  1.00  0.00     0.031 A 
ATOM     31  C   UNL A   1      42.314  25.784  27.997  1.00  0.00     0.074 A 
ATOM     32  C   UNL A   1      44.661  25.044  27.848  1.00  0.00     0.049 A 
ATOM     33  N   UNL A   1      42.469  27.014  28.420  1.00  0.00    -0.248 NA
ATOM     34  C   UNL A   1      40.914  25.391  27.783  1.00  0.00     0.031 C 
ATOM     35  C   UNL A   1      45.772  24.119  27.616  1.00  0.00     0.029 A 
ATOM     36  N   UNL A   1      45.270  26.211  28.236  1.00  0.00    -0.354 N 
ATOM     37  C   UNL A   1      41.189  27.541  28.528  1.00  0.00     0.074 A 
ATOM     38  C   UNL A   1      40.271  26.509  28.094  1.00  0.00     0.031 C 
ATOM     39  C   UNL A   1      46.926  24.750  27.889  1.00  0.00     0.029 A 
ATOM     40  C   UNL A   1      46.638  26.124  28.294  1.00  0.00     0.049 A 
ATOM     41  H   UNL A   1      44.773  27.033  28.453  1.00  0.00     0.167 HD
ATOM     42  C   UNL A   1      40.810  28.769  28.959  1.00  0.00     0.031 A 
ATOM     43  C   UNL A   1      47.559  27.044  28.637  1.00  0.00     0.031 A 
ATOM     44  C   UNL A   1      41.718  29.805  29.378  1.00  0.00     0.049 A 
ATOM     45  C   UNL A   1      47.113  28.414  29.069  1.00  0.00     0.074 A 
ATOM     46  C   UNL A   1      41.423  31.075  29.844  1.00  0.00     0.029 A 
ATOM     47  N   UNL A   1      43.100  29.693  29.375  1.00  0.00    -0.354 N 
ATOM     48  N   UNL A   1      45.898  28.885  29.198  1.00  0.00    -0.248 NA
ATOM     49  C   UNL A   1      48.173  29.374  29.410  1.00  0.00     0.031 C 
ATOM     50  C   UNL A   1      42.628  31.747  30.080  1.00  0.00     0.029 A 
ATOM     51  C   UNL A   1      43.672  30.879  29.806  1.00  0.00     0.049 A 
ATOM     52  H   UNL A   1      43.600  28.888  29.107  1.00  0.00     0.167 HD
ATOM     53  C   UNL A   1      46.045  30.190  29.653  1.00  0.00     0.074 A 
ATOM     54  C   UNL A   1      47.466  30.427  29.796  1.00  0.00     0.031 C 
ATOM     55  C   UNL A   1      45.088  31.109  29.927  1.00  0.00     0.031 A 
BRANCH  42  56
ATOM     56  C   UNL A   1      39.338  29.066  28.975  1.00  0.00    -0.014 A 
ATOM     57  C   UNL A   1      38.689  29.586  27.844  1.00  0.00     0.009 A 
ATOM     58  C   UNL A   1      38.584  28.793  30.127  1.00  0.00     0.009 A 
ATOM     59  C   UNL A   1      37.319  29.855  27.876  1.00  0.00     0.001 A 
ATOM     60  C   UNL A   1      37.210  29.041  30.149  1.00  0.00     0.001 A 
ATOM     61  C   UNL A   1      36.581  29.579  29.026  1.00  0.00     0.000 A 
ENDBRANCH  42  56
BRANCH  43  62
ATOM     62  C   UNL A   1      49.002  26.701  28.592  1.00  0.00    -0.014 A 
ATOM     63  C   UNL A   1      49.735  26.846  27.405  1.00  0.00     0.009 A 
ATOM     64  C   UNL A   1      49.651  26.213  29.737  1.00  0.00     0.009 A 
ATOM     65  C   UNL A   1      51.085  26.488  27.360  1.00  0.00     0.001 A 
ATOM     66  C   UNL A   1      51.006  25.880  29.696  1.00  0.00     0.001 A 
ATOM     67  C   UNL A   1      51.719  26.010  28.506  1.00  0.00     0.000 A 
ENDBRANCH  43  62
BRANCH  55  68
ATOM     68  C   UNL A   1      45.553  32.451  30.417  1.00  0.00    -0.014 A 
ATOM     69  C   UNL A   1      45.746  32.695  31.786  1.00  0.00     0.009 A 
ATOM     70  C   UNL A   1      45.810  33.480  29.498  1.00  0.00     0.009 A 
ATOM     71  C   UNL A   1      46.150  33.957  32.227  1.00  0.00     0.001 A 
ATOM     72  C   UNL A   1      46.238  34.732  29.941  1.00  0.00     0.001 A 
ATOM     73  C   UNL A   1      46.397  34.973  31.306  1.00  0.00     0.000 A 
ENDBRANCH  55  68
ENDBRANCH  29  30
ENDBRANCH  22  24
ENDBRANCH  21  22
ENDBRANCH  20  21
ENDBRANCH   1  20
TORSDOF 13
ENDMDL
