MODEL 1
REMARK VINA RESULT:     -11.1      0.000      0.000
REMARK SMILES CCn1ccc(NC(=O)[C@H]2[C@@H](C(=O)OCCOC(=O)c3ccc(-c4c5nc(c(-c6ccccc6)c6ccc([nH]6)c(-c6ccccc6)c6nc(c(-c7ccccc7)c7ccc4[nH]7)C=C6)C=C5)cc3)[C@H]3C=C[C@@H]2C3)n1
REMARK SMILES IDX 15 1 14 2 12 3 13 4 11 5 10 6 71 7 68 8 70 9 72 10 69 11
REMARK SMILES IDX 8 12 7 13 9 15 6 16 3 17 4 18 73 19 5 20 2 21 1 22 16 23
REMARK SMILES IDX 17 24 18 25 19 26 20 27 21 28 67 29 22 30 66 31 23 32 24 33
REMARK SMILES IDX 25 34 60 35 26 36 65 37 59 38 61 39 27 40 64 41 58 42 57 43
REMARK SMILES IDX 28 45 50 46 35 47 49 48 36 49 39 50 48 51 62 52 37 53 38 54
REMARK SMILES IDX 47 56 63 57 40 58 29 59 30 60 34 61 31 62 33 63 32 64 51 65
REMARK SMILES IDX 52 66 56 67 53 68 55 69 54 70 41 71 42 72 46 73 43 74 45 75
REMARK SMILES IDX 44 76
REMARK H PARENT 7 14 61 44 39 55
REMARK Flexibility Score: inf
ROOT
ATOM      1  C   UNL A   1      32.460  30.027  25.839  1.00  0.00     0.274 C 
ENDROOT
BRANCH   1   2
ATOM      2  O   UNL A   1      31.420  29.147  26.273  1.00  0.00    -0.462 OA
BRANCH   2   3
ATOM      3  C   UNL A   1      31.724  27.830  26.377  1.00  0.00     0.310 C 
ATOM      4  O   UNL A   1      31.353  27.078  27.275  1.00  0.00    -0.252 OA
BRANCH   3   5
ATOM      5  C   UNL A   1      32.574  27.347  25.230  1.00  0.00     0.119 C 
ATOM      6  C   UNL A   1      31.794  26.627  24.088  1.00  0.00     0.100 C 
ATOM      7  C   UNL A   1      32.625  25.321  23.919  1.00  0.00     0.025 C 
ATOM      8  C   UNL A   1      33.738  26.363  25.548  1.00  0.00     0.027 C 
ATOM      9  C   UNL A   1      32.505  24.464  25.153  1.00  0.00    -0.027 C 
ATOM     10  C   UNL A   1      34.048  25.852  24.137  1.00  0.00     0.017 C 
ATOM     11  C   UNL A   1      33.210  25.067  26.118  1.00  0.00    -0.027 C 
BRANCH   6  12
ATOM     12  C   UNL A   1      30.301  26.377  24.279  1.00  0.00     0.230 C 
ATOM     13  N   UNL A   1      29.390  27.270  23.820  1.00  0.00    -0.309 N 
ATOM     14  H   UNL A   1      28.457  27.030  24.023  1.00  0.00     0.171 HD
ATOM     15  O   UNL A   1      29.850  25.363  24.812  1.00  0.00    -0.274 OA
BRANCH  13  16
ATOM     16  C   UNL A   1      29.525  28.438  23.129  1.00  0.00     0.154 A 
ATOM     17  N   UNL A   1      28.799  30.207  22.238  1.00  0.00    -0.271 N 
ATOM     18  C   UNL A   1      30.062  30.085  21.751  1.00  0.00     0.111 A 
ATOM     19  N   UNL A   1      28.469  29.251  23.115  1.00  0.00    -0.155 NA
ATOM     20  C   UNL A   1      30.587  28.980  22.375  1.00  0.00     0.068 A 
BRANCH  17  21
ATOM     21  C   UNL A   1      27.865  31.280  21.970  1.00  0.00     0.141 C 
ATOM     22  C   UNL A   1      28.005  31.749  20.537  1.00  0.00     0.029 C 
ENDBRANCH  17  21
ENDBRANCH  13  16
ENDBRANCH   6  12
ENDBRANCH   3   5
ENDBRANCH   2   3
ENDBRANCH   1   2
BRANCH   1  23
ATOM     23  C   UNL A   1      33.025  30.773  27.034  1.00  0.00     0.275 C 
BRANCH  23  24
ATOM     24  O   UNL A   1      34.441  30.635  27.080  1.00  0.00    -0.458 OA
BRANCH  24  25
ATOM     25  C   UNL A   1      35.140  31.599  27.722  1.00  0.00     0.338 C 
ATOM     26  O   UNL A   1      35.003  32.806  27.642  1.00  0.00    -0.246 OA
BRANCH  25  27
ATOM     27  C   UNL A   1      36.248  30.948  28.430  1.00  0.00     0.060 A 
ATOM     28  C   UNL A   1      37.313  31.742  28.867  1.00  0.00     0.016 A 
ATOM     29  C   UNL A   1      36.324  29.548  28.420  1.00  0.00     0.016 A 
ATOM     30  C   UNL A   1      38.522  31.129  29.125  1.00  0.00     0.010 A 
ATOM     31  C   UNL A   1      37.531  28.945  28.646  1.00  0.00     0.010 A 
ATOM     32  C   UNL A   1      38.632  29.748  28.925  1.00  0.00    -0.014 A 
BRANCH  32  33
ATOM     33  C   UNL A   1      39.902  29.098  29.153  1.00  0.00     0.031 A 
ATOM     34  C   UNL A   1      40.166  28.867  30.587  1.00  0.00     0.074 A 
ATOM     35  C   UNL A   1      40.656  28.613  28.148  1.00  0.00     0.049 A 
ATOM     36  N   UNL A   1      41.091  29.408  31.303  1.00  0.00    -0.248 NA
ATOM     37  C   UNL A   1      39.189  28.074  31.356  1.00  0.00     0.031 C 
ATOM     38  C   UNL A   1      40.316  28.564  26.720  1.00  0.00     0.029 A 
ATOM     39  N   UNL A   1      41.844  27.951  28.205  1.00  0.00    -0.354 N 
ATOM     40  C   UNL A   1      40.948  28.851  32.567  1.00  0.00     0.074 A 
ATOM     41  C   UNL A   1      39.662  28.205  32.594  1.00  0.00     0.031 C 
ATOM     42  C   UNL A   1      41.161  27.717  26.089  1.00  0.00     0.029 A 
ATOM     43  C   UNL A   1      42.178  27.283  27.031  1.00  0.00     0.049 A 
ATOM     44  H   UNL A   1      42.416  27.945  29.006  1.00  0.00     0.167 HD
ATOM     45  C   UNL A   1      42.031  28.684  33.371  1.00  0.00     0.031 A 
ATOM     46  C   UNL A   1      43.201  26.411  26.863  1.00  0.00     0.031 A 
ATOM     47  C   UNL A   1      43.151  29.465  32.915  1.00  0.00     0.049 A 
ATOM     48  C   UNL A   1      44.176  26.657  27.944  1.00  0.00     0.074 A 
ATOM     49  C   UNL A   1      43.457  30.806  32.840  1.00  0.00     0.029 A 
ATOM     50  N   UNL A   1      43.979  28.806  32.041  1.00  0.00    -0.354 N 
ATOM     51  N   UNL A   1      44.894  27.738  28.018  1.00  0.00    -0.248 NA
ATOM     52  C   UNL A   1      44.124  25.858  29.161  1.00  0.00     0.031 C 
ATOM     53  C   UNL A   1      44.303  30.947  31.701  1.00  0.00     0.029 A 
ATOM     54  C   UNL A   1      44.528  29.686  31.147  1.00  0.00     0.049 A 
ATOM     55  H   UNL A   1      44.154  27.838  32.055  1.00  0.00     0.167 HD
ATOM     56  C   UNL A   1      44.985  27.992  29.375  1.00  0.00     0.074 A 
ATOM     57  C   UNL A   1      44.674  26.722  30.019  1.00  0.00     0.031 C 
ATOM     58  C   UNL A   1      44.993  29.275  29.838  1.00  0.00     0.031 A 
BRANCH  45  59
ATOM     59  C   UNL A   1      42.226  27.444  34.211  1.00  0.00    -0.014 A 
ATOM     60  C   UNL A   1      41.692  27.419  35.509  1.00  0.00     0.009 A 
ATOM     61  C   UNL A   1      43.159  26.438  33.888  1.00  0.00     0.009 A 
ATOM     62  C   UNL A   1      42.103  26.458  36.444  1.00  0.00     0.001 A 
ATOM     63  C   UNL A   1      43.542  25.456  34.805  1.00  0.00     0.001 A 
ATOM     64  C   UNL A   1      43.029  25.480  36.091  1.00  0.00     0.000 A 
ENDBRANCH  45  59
BRANCH  46  65
ATOM     65  C   UNL A   1      43.351  25.265  25.945  1.00  0.00    -0.014 A 
ATOM     66  C   UNL A   1      44.537  25.086  25.214  1.00  0.00     0.009 A 
ATOM     67  C   UNL A   1      42.452  24.188  26.016  1.00  0.00     0.009 A 
ATOM     68  C   UNL A   1      44.840  23.852  24.625  1.00  0.00     0.001 A 
ATOM     69  C   UNL A   1      42.755  22.955  25.427  1.00  0.00     0.001 A 
ATOM     70  C   UNL A   1      43.959  22.781  24.748  1.00  0.00     0.000 A 
ENDBRANCH  46  65
BRANCH  58  71
ATOM     71  C   UNL A   1      45.327  30.357  28.844  1.00  0.00    -0.014 A 
ATOM     72  C   UNL A   1      46.634  30.803  28.585  1.00  0.00     0.009 A 
ATOM     73  C   UNL A   1      44.276  30.896  28.087  1.00  0.00     0.009 A 
ATOM     74  C   UNL A   1      46.875  31.788  27.621  1.00  0.00     0.001 A 
ATOM     75  C   UNL A   1      44.520  31.861  27.109  1.00  0.00     0.001 A 
ATOM     76  C   UNL A   1      45.818  32.313  26.882  1.00  0.00     0.000 A 
ENDBRANCH  58  71
ENDBRANCH  32  33
ENDBRANCH  25  27
ENDBRANCH  24  25
ENDBRANCH  23  24
ENDBRANCH   1  23
TORSDOF 14
ENDMDL
MODEL 2
REMARK VINA RESULT:     -11.0      4.188      8.626
REMARK SMILES CCn1ccc(NC(=O)[C@H]2[C@@H](C(=O)OCCOC(=O)c3ccc(-c4c5nc(c(-c6ccccc6)c6ccc([nH]6)c(-c6ccccc6)c6nc(c(-c7ccccc7)c7ccc4[nH]7)C=C6)C=C5)cc3)[C@H]3C=C[C@@H]2C3)n1
REMARK SMILES IDX 15 1 14 2 12 3 13 4 11 5 10 6 71 7 68 8 70 9 72 10 69 11
REMARK SMILES IDX 8 12 7 13 9 15 6 16 3 17 4 18 73 19 5 20 2 21 1 22 16 23
REMARK SMILES IDX 17 24 18 25 19 26 20 27 21 28 67 29 22 30 66 31 23 32 24 33
REMARK SMILES IDX 25 34 60 35 26 36 65 37 59 38 61 39 27 40 64 41 58 42 57 43
REMARK SMILES IDX 28 45 50 46 35 47 49 48 36 49 39 50 48 51 62 52 37 53 38 54
REMARK SMILES IDX 47 56 63 57 40 58 29 59 30 60 34 61 31 62 33 63 32 64 51 65
REMARK SMILES IDX 52 66 56 67 53 68 55 69 54 70 41 71 42 72 46 73 43 74 45 75
REMARK SMILES IDX 44 76
REMARK H PARENT 7 14 61 44 39 55
REMARK Flexibility Score: inf
ROOT
ATOM      1  C   UNL A   1      37.364  21.650  24.333  1.00  0.00     0.274 C 
ENDROOT
BRANCH   1   2
ATOM      2  O   UNL A   1      35.984  21.286  24.411  1.00  0.00    -0.462 OA
BRANCH   2   3
ATOM      3  C   UNL A   1      35.102  22.262  24.732  1.00  0.00     0.310 C 
ATOM      4  O   UNL A   1      34.879  23.274  24.070  1.00  0.00    -0.252 OA
BRANCH   3   5
ATOM      5  C   UNL A   1      34.368  21.971  26.016  1.00  0.00     0.119 C 
ATOM      6  C   UNL A   1      32.951  21.343  25.840  1.00  0.00     0.100 C 
ATOM      7  C   UNL A   1      32.087  22.267  26.748  1.00  0.00     0.025 C 
ATOM      8  C   UNL A   1      34.119  23.153  26.998  1.00  0.00     0.027 C 
ATOM      9  C   UNL A   1      32.035  23.660  26.175  1.00  0.00    -0.027 C 
ATOM     10  C   UNL A   1      33.058  22.525  27.908  1.00  0.00     0.017 C 
ATOM     11  C   UNL A   1      33.241  24.208  26.365  1.00  0.00    -0.027 C 
BRANCH   6  12
ATOM     12  C   UNL A   1      32.399  21.192  24.426  1.00  0.00     0.230 C 
ATOM     13  N   UNL A   1      32.472  20.001  23.782  1.00  0.00    -0.309 N 
ATOM     14  H   UNL A   1      32.118  20.020  22.865  1.00  0.00     0.171 HD
ATOM     15  O   UNL A   1      31.838  22.106  23.819  1.00  0.00    -0.274 OA
BRANCH  13  16
ATOM     16  C   UNL A   1      32.946  18.782  24.170  1.00  0.00     0.154 A 
ATOM     17  N   UNL A   1      32.841  16.953  25.215  1.00  0.00    -0.271 N 
ATOM     18  C   UNL A   1      34.138  17.032  24.814  1.00  0.00     0.111 A 
ATOM     19  N   UNL A   1      32.087  17.975  24.792  1.00  0.00    -0.155 NA
ATOM     20  C   UNL A   1      34.218  18.180  24.064  1.00  0.00     0.068 A 
BRANCH  17  21
ATOM     21  C   UNL A   1      32.223  15.867  25.944  1.00  0.00     0.141 C 
ATOM     22  C   UNL A   1      32.811  14.541  25.506  1.00  0.00     0.029 C 
ENDBRANCH  17  21
ENDBRANCH  13  16
ENDBRANCH   6  12
ENDBRANCH   3   5
ENDBRANCH   2   3
ENDBRANCH   1   2
BRANCH   1  23
ATOM     23  C   UNL A   1      38.033  21.394  25.671  1.00  0.00     0.275 C 
BRANCH  23  24
ATOM     24  O   UNL A   1      38.626  22.590  26.166  1.00  0.00    -0.458 OA
BRANCH  24  25
ATOM     25  C   UNL A   1      39.774  22.470  26.871  1.00  0.00     0.338 C 
ATOM     26  O   UNL A   1      40.263  21.461  27.345  1.00  0.00    -0.246 OA
BRANCH  25  27
ATOM     27  C   UNL A   1      40.278  23.822  27.133  1.00  0.00     0.060 A 
ATOM     28  C   UNL A   1      41.384  23.966  27.977  1.00  0.00     0.016 A 
ATOM     29  C   UNL A   1      39.496  24.919  26.745  1.00  0.00     0.016 A 
ATOM     30  C   UNL A   1      41.595  25.191  28.575  1.00  0.00     0.010 A 
ATOM     31  C   UNL A   1      39.687  26.125  27.362  1.00  0.00     0.010 A 
ATOM     32  C   UNL A   1      40.688  26.227  28.323  1.00  0.00    -0.014 A 
BRANCH  32  33
ATOM     33  C   UNL A   1      40.873  27.505  28.972  1.00  0.00     0.031 A 
ATOM     34  C   UNL A   1      41.994  28.273  28.394  1.00  0.00     0.074 A 
ATOM     35  C   UNL A   1      40.001  27.987  29.878  1.00  0.00     0.049 A 
ATOM     36  N   UNL A   1      43.100  28.590  28.975  1.00  0.00    -0.248 NA
ATOM     37  C   UNL A   1      41.956  28.580  26.952  1.00  0.00     0.031 C 
ATOM     38  C   UNL A   1      38.722  27.396  30.290  1.00  0.00     0.029 A 
ATOM     39  N   UNL A   1      40.019  29.175  30.542  1.00  0.00    -0.354 N 
ATOM     40  C   UNL A   1      43.806  29.331  28.038  1.00  0.00     0.074 A 
ATOM     41  C   UNL A   1      43.158  29.125  26.770  1.00  0.00     0.031 C 
ATOM     42  C   UNL A   1      37.993  28.323  30.951  1.00  0.00     0.029 A 
ATOM     43  C   UNL A   1      38.805  29.514  31.132  1.00  0.00     0.049 A 
ATOM     44  H   UNL A   1      40.820  29.745  30.600  1.00  0.00     0.167 HD
ATOM     45  C   UNL A   1      44.661  30.309  28.437  1.00  0.00     0.031 A 
ATOM     46  C   UNL A   1      38.487  30.703  31.698  1.00  0.00     0.031 A 
ATOM     47  C   UNL A   1      44.985  30.186  29.835  1.00  0.00     0.049 A 
ATOM     48  C   UNL A   1      39.752  31.389  32.030  1.00  0.00     0.074 A 
ATOM     49  C   UNL A   1      45.695  29.297  30.611  1.00  0.00     0.029 A 
ATOM     50  N   UNL A   1      44.150  30.885  30.670  1.00  0.00    -0.354 N 
ATOM     51  N   UNL A   1      40.559  30.974  32.963  1.00  0.00    -0.248 NA
ATOM     52  C   UNL A   1      40.320  32.352  31.097  1.00  0.00     0.031 C 
ATOM     53  C   UNL A   1      45.060  29.306  31.888  1.00  0.00     0.029 A 
ATOM     54  C   UNL A   1      44.018  30.233  31.869  1.00  0.00     0.049 A 
ATOM     55  H   UNL A   1      43.709  31.734  30.442  1.00  0.00     0.167 HD
ATOM     56  C   UNL A   1      41.820  31.248  32.466  1.00  0.00     0.074 A 
ATOM     57  C   UNL A   1      41.610  32.255  31.434  1.00  0.00     0.031 C 
ATOM     58  C   UNL A   1      42.861  30.404  32.722  1.00  0.00     0.031 A 
BRANCH  45  59
ATOM     59  C   UNL A   1      44.758  31.634  27.721  1.00  0.00    -0.014 A 
ATOM     60  C   UNL A   1      45.929  31.928  27.003  1.00  0.00     0.009 A 
ATOM     61  C   UNL A   1      43.883  32.710  27.973  1.00  0.00     0.009 A 
ATOM     62  C   UNL A   1      46.222  33.236  26.595  1.00  0.00     0.001 A 
ATOM     63  C   UNL A   1      44.152  34.008  27.534  1.00  0.00     0.001 A 
ATOM     64  C   UNL A   1      45.334  34.275  26.863  1.00  0.00     0.000 A 
ENDBRANCH  45  59
BRANCH  46  65
ATOM     65  C   UNL A   1      37.188  31.388  31.839  1.00  0.00    -0.014 A 
ATOM     66  C   UNL A   1      36.707  31.752  33.107  1.00  0.00     0.009 A 
ATOM     67  C   UNL A   1      36.566  31.951  30.711  1.00  0.00     0.009 A 
ATOM     68  C   UNL A   1      35.679  32.693  33.244  1.00  0.00     0.001 A 
ATOM     69  C   UNL A   1      35.539  32.891  30.849  1.00  0.00     0.001 A 
ATOM     70  C   UNL A   1      35.108  33.277  32.116  1.00  0.00     0.000 A 
ENDBRANCH  46  65
BRANCH  58  71
ATOM     71  C   UNL A   1      42.695  29.446  33.874  1.00  0.00    -0.014 A 
ATOM     72  C   UNL A   1      42.139  28.162  33.746  1.00  0.00     0.009 A 
ATOM     73  C   UNL A   1      43.190  29.837  35.126  1.00  0.00     0.009 A 
ATOM     74  C   UNL A   1      42.048  27.310  34.852  1.00  0.00     0.001 A 
ATOM     75  C   UNL A   1      43.122  28.979  36.223  1.00  0.00     0.001 A 
ATOM     76  C   UNL A   1      42.543  27.719  36.089  1.00  0.00     0.000 A 
ENDBRANCH  58  71
ENDBRANCH  32  33
ENDBRANCH  25  27
ENDBRANCH  24  25
ENDBRANCH  23  24
ENDBRANCH   1  23
TORSDOF 14
ENDMDL
MODEL 3
REMARK VINA RESULT:     -10.8      1.719      3.355
REMARK SMILES CCn1ccc(NC(=O)[C@H]2[C@@H](C(=O)OCCOC(=O)c3ccc(-c4c5nc(c(-c6ccccc6)c6ccc([nH]6)c(-c6ccccc6)c6nc(c(-c7ccccc7)c7ccc4[nH]7)C=C6)C=C5)cc3)[C@H]3C=C[C@@H]2C3)n1
REMARK SMILES IDX 15 1 14 2 12 3 13 4 11 5 10 6 71 7 68 8 70 9 72 10 69 11
REMARK SMILES IDX 8 12 7 13 9 15 6 16 3 17 4 18 73 19 5 20 2 21 1 22 16 23
REMARK SMILES IDX 17 24 18 25 19 26 20 27 21 28 67 29 22 30 66 31 23 32 24 33
REMARK SMILES IDX 25 34 60 35 26 36 65 37 59 38 61 39 27 40 64 41 58 42 57 43
REMARK SMILES IDX 28 45 50 46 35 47 49 48 36 49 39 50 48 51 62 52 37 53 38 54
REMARK SMILES IDX 47 56 63 57 40 58 29 59 30 60 34 61 31 62 33 63 32 64 51 65
REMARK SMILES IDX 52 66 56 67 53 68 55 69 54 70 41 71 42 72 46 73 43 74 45 75
REMARK SMILES IDX 44 76
REMARK H PARENT 7 14 61 44 39 55
REMARK Flexibility Score: inf
ROOT
ATOM      1  C   UNL A   1      32.542  29.061  27.251  1.00  0.00     0.274 C 
ENDROOT
BRANCH   1   2
ATOM      2  O   UNL A   1      31.527  28.693  26.315  1.00  0.00    -0.462 OA
BRANCH   2   3
ATOM      3  C   UNL A   1      31.260  27.371  26.177  1.00  0.00     0.310 C 
ATOM      4  O   UNL A   1      31.250  26.543  27.084  1.00  0.00    -0.252 OA
BRANCH   3   5
ATOM      5  C   UNL A   1      30.937  26.999  24.752  1.00  0.00     0.119 C 
ATOM      6  C   UNL A   1      32.167  26.607  23.876  1.00  0.00     0.100 C 
ATOM      7  C   UNL A   1      31.949  27.498  22.619  1.00  0.00     0.025 C 
ATOM      8  C   UNL A   1      30.190  28.047  23.876  1.00  0.00     0.027 C 
ATOM      9  C   UNL A   1      32.102  28.954  22.978  1.00  0.00    -0.027 C 
ATOM     10  C   UNL A   1      30.421  27.446  22.486  1.00  0.00     0.017 C 
ATOM     11  C   UNL A   1      31.024  29.295  23.695  1.00  0.00    -0.027 C 
BRANCH   6  12
ATOM     12  C   UNL A   1      33.559  26.743  24.485  1.00  0.00     0.230 C 
ATOM     13  N   UNL A   1      34.128  25.700  25.138  1.00  0.00    -0.309 N 
ATOM     14  H   UNL A   1      35.012  25.903  25.520  1.00  0.00     0.171 HD
ATOM     15  O   UNL A   1      34.241  27.763  24.388  1.00  0.00    -0.274 OA
BRANCH  13  16
ATOM     16  C   UNL A   1      33.705  24.424  25.366  1.00  0.00     0.154 A 
ATOM     17  N   UNL A   1      33.155  22.476  24.772  1.00  0.00    -0.271 N 
ATOM     18  C   UNL A   1      32.734  22.560  26.062  1.00  0.00     0.111 A 
ATOM     19  N   UNL A   1      33.793  23.573  24.344  1.00  0.00    -0.155 NA
ATOM     20  C   UNL A   1      33.147  23.795  26.499  1.00  0.00     0.068 A 
BRANCH  17  21
ATOM     21  C   UNL A   1      33.057  21.325  23.901  1.00  0.00     0.141 C 
ATOM     22  C   UNL A   1      32.514  20.135  24.665  1.00  0.00     0.029 C 
ENDBRANCH  17  21
ENDBRANCH  13  16
ENDBRANCH   6  12
ENDBRANCH   3   5
ENDBRANCH   2   3
ENDBRANCH   1   2
BRANCH   1  23
ATOM     23  C   UNL A   1      32.981  30.490  26.988  1.00  0.00     0.275 C 
BRANCH  23  24
ATOM     24  O   UNL A   1      34.401  30.567  26.915  1.00  0.00    -0.458 OA
BRANCH  24  25
ATOM     25  C   UNL A   1      35.010  31.533  27.641  1.00  0.00     0.338 C 
ATOM     26  O   UNL A   1      34.793  32.731  27.631  1.00  0.00    -0.246 OA
BRANCH  25  27
ATOM     27  C   UNL A   1      36.136  30.914  28.349  1.00  0.00     0.060 A 
ATOM     28  C   UNL A   1      37.107  31.749  28.909  1.00  0.00     0.016 A 
ATOM     29  C   UNL A   1      36.333  29.531  28.221  1.00  0.00     0.016 A 
ATOM     30  C   UNL A   1      38.351  31.217  29.178  1.00  0.00     0.010 A 
ATOM     31  C   UNL A   1      37.576  29.011  28.459  1.00  0.00     0.010 A 
ATOM     32  C   UNL A   1      38.589  29.874  28.866  1.00  0.00    -0.014 A 
BRANCH  32  33
ATOM     33  C   UNL A   1      39.899  29.311  29.104  1.00  0.00     0.031 A 
ATOM     34  C   UNL A   1      40.207  29.194  30.544  1.00  0.00     0.074 A 
ATOM     35  C   UNL A   1      40.657  28.802  28.115  1.00  0.00     0.049 A 
ATOM     36  N   UNL A   1      41.115  29.833  31.198  1.00  0.00    -0.248 NA
ATOM     37  C   UNL A   1      39.293  28.403  31.388  1.00  0.00     0.031 C 
ATOM     38  C   UNL A   1      40.290  28.636  26.703  1.00  0.00     0.029 A 
ATOM     39  N   UNL A   1      41.882  28.211  28.186  1.00  0.00    -0.354 N 
ATOM     40  C   UNL A   1      41.032  29.357  32.499  1.00  0.00     0.074 A 
ATOM     41  C   UNL A   1      39.785  28.645  32.603  1.00  0.00     0.031 C 
ATOM     42  C   UNL A   1      41.168  27.797  26.108  1.00  0.00     0.029 A 
ATOM     43  C   UNL A   1      42.228  27.484  27.052  1.00  0.00     0.049 A 
ATOM     44  H   UNL A   1      42.470  28.292  28.971  1.00  0.00     0.167 HD
ATOM     45  C   UNL A   1      42.138  29.305  33.285  1.00  0.00     0.031 A 
ATOM     46  C   UNL A   1      43.296  26.661  26.916  1.00  0.00     0.031 A 
ATOM     47  C   UNL A   1      43.202  30.114  32.749  1.00  0.00     0.049 A 
ATOM     48  C   UNL A   1      44.278  27.034  27.953  1.00  0.00     0.074 A 
ATOM     49  C   UNL A   1      43.430  31.462  32.577  1.00  0.00     0.029 A 
ATOM     50  N   UNL A   1      44.047  29.444  31.901  1.00  0.00    -0.354 N 
ATOM     51  N   UNL A   1      44.935  28.156  27.937  1.00  0.00    -0.248 NA
ATOM     52  C   UNL A   1      44.297  26.318  29.222  1.00  0.00     0.031 C 
ATOM     53  C   UNL A   1      44.242  31.571  31.409  1.00  0.00     0.029 A 
ATOM     54  C   UNL A   1      44.527  30.290  30.935  1.00  0.00     0.049 A 
ATOM     55  H   UNL A   1      44.277  28.490  31.975  1.00  0.00     0.167 HD
ATOM     56  C   UNL A   1      45.040  28.507  29.270  1.00  0.00     0.074 A 
ATOM     57  C   UNL A   1      44.816  27.269  30.005  1.00  0.00     0.031 C 
ATOM     58  C   UNL A   1      44.985  29.816  29.646  1.00  0.00     0.031 A 
BRANCH  45  59
ATOM     59  C   UNL A   1      42.422  28.139  34.200  1.00  0.00    -0.014 A 
ATOM     60  C   UNL A   1      42.984  26.974  33.653  1.00  0.00     0.009 A 
ATOM     61  C   UNL A   1      41.887  28.035  35.500  1.00  0.00     0.009 A 
ATOM     62  C   UNL A   1      42.973  25.763  34.359  1.00  0.00     0.001 A 
ATOM     63  C   UNL A   1      41.908  26.839  36.221  1.00  0.00     0.001 A 
ATOM     64  C   UNL A   1      42.433  25.696  35.641  1.00  0.00     0.000 A 
ENDBRANCH  45  59
BRANCH  46  65
ATOM     65  C   UNL A   1      43.490  25.465  26.074  1.00  0.00    -0.014 A 
ATOM     66  C   UNL A   1      44.710  25.249  25.412  1.00  0.00     0.009 A 
ATOM     67  C   UNL A   1      42.589  24.390  26.163  1.00  0.00     0.009 A 
ATOM     68  C   UNL A   1      45.043  23.985  24.910  1.00  0.00     0.001 A 
ATOM     69  C   UNL A   1      42.922  23.127  25.661  1.00  0.00     0.001 A 
ATOM     70  C   UNL A   1      44.157  22.919  25.052  1.00  0.00     0.000 A 
ENDBRANCH  46  65
BRANCH  58  71
ATOM     71  C   UNL A   1      45.235  30.845  28.573  1.00  0.00    -0.014 A 
ATOM     72  C   UNL A   1      46.510  31.343  28.251  1.00  0.00     0.009 A 
ATOM     73  C   UNL A   1      44.140  31.273  27.810  1.00  0.00     0.009 A 
ATOM     74  C   UNL A   1      46.673  32.272  27.218  1.00  0.00     0.001 A 
ATOM     75  C   UNL A   1      44.306  32.181  26.763  1.00  0.00     0.001 A 
ATOM     76  C   UNL A   1      45.572  32.687  26.473  1.00  0.00     0.000 A 
ENDBRANCH  58  71
ENDBRANCH  32  33
ENDBRANCH  25  27
ENDBRANCH  24  25
ENDBRANCH  23  24
ENDBRANCH   1  23
TORSDOF 14
ENDMDL
