MODEL 1
REMARK VINA RESULT:     -11.5      0.000      0.000
REMARK SMILES Cc1cccc(NC(=O)C[C@@H]2CCCCO2)c1C(=O)OCCOC(=O)c1ccc(-c2c3nc(c(-c4ccccc4)c4ccc([nH]4)c(-c4ccccc4)c4nc(c(-c5ccccc5)c5ccc2[nH]5)C=C4)C=C3)cc1
REMARK SMILES IDX 21 1 20 2 18 3 19 4 17 5 1 6 2 7 3 8 4 9 6 10 5 11 7 12 8 13
REMARK SMILES IDX 9 15 10 16 11 17 12 18 16 19 13 20 15 21 14 22 22 23 23 24
REMARK SMILES IDX 24 25 25 26 26 27 27 28 73 29 28 30 72 31 29 32 30 33 31 34
REMARK SMILES IDX 66 35 32 36 71 37 65 38 67 39 33 40 70 41 64 42 63 43 34 45
REMARK SMILES IDX 56 46 41 47 55 48 42 49 45 50 54 51 68 52 43 53 44 54 53 56
REMARK SMILES IDX 69 57 46 58 35 59 36 60 40 61 37 62 39 63 38 64 57 65 58 66
REMARK SMILES IDX 62 67 59 68 61 69 60 70 47 71 48 72 52 73 49 74 51 75 50 76
REMARK H PARENT 7 14 67 44 45 55
REMARK Flexibility Score: inf
ROOT
ATOM      1  C   UNL A   1      33.561  28.424  27.349  1.00  0.00     0.275 C 
ENDROOT
BRANCH   1   2
ATOM      2  O   UNL A   1      32.987  27.436  26.452  1.00  0.00    -0.458 OA
BRANCH   2   3
ATOM      3  C   UNL A   1      31.630  27.417  26.560  1.00  0.00     0.340 C 
ATOM      4  O   UNL A   1      31.033  27.555  27.622  1.00  0.00    -0.246 OA
BRANCH   3   5
ATOM      5  C   UNL A   1      30.801  27.010  25.399  1.00  0.00     0.086 A 
ATOM      6  C   UNL A   1      31.144  29.410  24.521  1.00  0.00     0.045 C 
ATOM      7  C   UNL A   1      30.845  27.944  24.326  1.00  0.00    -0.034 A 
ATOM      8  C   UNL A   1      30.615  27.505  23.017  1.00  0.00     0.004 A 
ATOM      9  C   UNL A   1      30.506  26.150  22.753  1.00  0.00     0.002 A 
ATOM     10  C   UNL A   1      30.466  25.656  25.143  1.00  0.00     0.056 A 
ATOM     11  C   UNL A   1      30.478  25.236  23.806  1.00  0.00     0.027 A 
BRANCH  10  12
ATOM     12  N   UNL A   1      30.045  24.788  26.182  1.00  0.00    -0.325 N 
ATOM     13  C   UNL A   1      30.454  23.550  26.628  1.00  0.00     0.227 C 
ATOM     14  H   UNL A   1      29.291  25.150  26.700  1.00  0.00     0.169 HD
ATOM     15  O   UNL A   1      29.966  23.147  27.691  1.00  0.00    -0.275 OA
BRANCH  13  16
ATOM     16  C   UNL A   1      31.410  22.631  25.884  1.00  0.00     0.132 C 
BRANCH  16  17
ATOM     17  C   UNL A   1      32.831  22.604  26.481  1.00  0.00     0.127 C 
ATOM     18  C   UNL A   1      33.559  23.953  26.350  1.00  0.00     0.033 C 
ATOM     19  O   UNL A   1      33.681  21.589  25.940  1.00  0.00    -0.378 OA
ATOM     20  C   UNL A   1      33.920  24.267  24.900  1.00  0.00     0.005 C 
ATOM     21  C   UNL A   1      34.023  21.752  24.572  1.00  0.00     0.160 C 
ATOM     22  C   UNL A   1      34.644  23.097  24.243  1.00  0.00     0.029 C 
ENDBRANCH  16  17
ENDBRANCH  13  16
ENDBRANCH  10  12
ENDBRANCH   3   5
ENDBRANCH   2   3
ENDBRANCH   1   2
BRANCH   1  23
ATOM     23  C   UNL A   1      34.698  29.305  26.802  1.00  0.00     0.275 C 
BRANCH  23  24
ATOM     24  O   UNL A   1      34.931  30.651  27.281  1.00  0.00    -0.458 OA
BRANCH  24  25
ATOM     25  C   UNL A   1      35.507  30.876  28.474  1.00  0.00     0.338 C 
ATOM     26  O   UNL A   1      35.005  31.561  29.359  1.00  0.00    -0.246 OA
BRANCH  25  27
ATOM     27  C   UNL A   1      36.824  30.236  28.597  1.00  0.00     0.060 A 
ATOM     28  C   UNL A   1      37.012  29.329  29.647  1.00  0.00     0.016 A 
ATOM     29  C   UNL A   1      37.779  30.392  27.593  1.00  0.00     0.016 A 
ATOM     30  C   UNL A   1      38.086  28.458  29.628  1.00  0.00     0.010 A 
ATOM     31  C   UNL A   1      38.824  29.507  27.537  1.00  0.00     0.010 A 
ATOM     32  C   UNL A   1      38.978  28.563  28.564  1.00  0.00    -0.014 A 
BRANCH  32  33
ATOM     33  C   UNL A   1      40.320  28.034  28.669  1.00  0.00     0.031 A 
ATOM     34  C   UNL A   1      40.611  26.643  28.267  1.00  0.00     0.074 A 
ATOM     35  C   UNL A   1      41.159  29.007  29.101  1.00  0.00     0.049 A 
ATOM     36  N   UNL A   1      41.591  25.943  28.721  1.00  0.00    -0.248 NA
ATOM     37  C   UNL A   1      39.762  25.855  27.365  1.00  0.00     0.031 C 
ATOM     38  C   UNL A   1      42.604  29.076  29.163  1.00  0.00     0.029 A 
ATOM     39  N   UNL A   1      40.760  30.176  29.792  1.00  0.00    -0.354 N 
ATOM     40  C   UNL A   1      41.723  24.848  27.883  1.00  0.00     0.074 A 
ATOM     41  C   UNL A   1      40.463  24.726  27.212  1.00  0.00     0.031 C 
ATOM     42  C   UNL A   1      42.935  29.962  30.127  1.00  0.00     0.029 A 
ATOM     43  C   UNL A   1      41.697  30.356  30.800  1.00  0.00     0.049 A 
ATOM     44  H   UNL A   1      39.979  30.743  29.599  1.00  0.00     0.167 HD
ATOM     45  C   UNL A   1      42.970  24.340  27.670  1.00  0.00     0.031 A 
ATOM     46  C   UNL A   1      41.370  30.078  32.101  1.00  0.00     0.031 A 
ATOM     47  C   UNL A   1      43.918  25.041  28.526  1.00  0.00     0.049 A 
ATOM     48  C   UNL A   1      42.228  28.932  32.583  1.00  0.00     0.074 A 
ATOM     49  C   UNL A   1      44.704  26.156  28.288  1.00  0.00     0.029 A 
ATOM     50  N   UNL A   1      43.785  24.926  29.902  1.00  0.00    -0.354 N 
ATOM     51  N   UNL A   1      42.551  27.895  31.854  1.00  0.00    -0.248 NA
ATOM     52  C   UNL A   1      42.858  28.934  33.897  1.00  0.00     0.031 C 
ATOM     53  C   UNL A   1      44.937  26.785  29.541  1.00  0.00     0.029 A 
ATOM     54  C   UNL A   1      44.296  26.049  30.524  1.00  0.00     0.049 A 
ATOM     55  H   UNL A   1      43.386  24.155  30.368  1.00  0.00     0.167 HD
ATOM     56  C   UNL A   1      43.524  27.189  32.515  1.00  0.00     0.074 A 
ATOM     57  C   UNL A   1      43.641  27.848  33.806  1.00  0.00     0.031 C 
ATOM     58  C   UNL A   1      44.236  26.160  31.970  1.00  0.00     0.031 A 
BRANCH  45  59
ATOM     59  C   UNL A   1      43.400  23.507  26.482  1.00  0.00    -0.014 A 
ATOM     60  C   UNL A   1      43.330  22.102  26.588  1.00  0.00     0.009 A 
ATOM     61  C   UNL A   1      43.925  24.001  25.276  1.00  0.00     0.009 A 
ATOM     62  C   UNL A   1      43.803  21.243  25.586  1.00  0.00     0.001 A 
ATOM     63  C   UNL A   1      44.410  23.146  24.269  1.00  0.00     0.001 A 
ATOM     64  C   UNL A   1      44.355  21.767  24.428  1.00  0.00     0.000 A 
ENDBRANCH  45  59
BRANCH  46  65
ATOM     65  C   UNL A   1      39.945  30.292  32.530  1.00  0.00    -0.014 A 
ATOM     66  C   UNL A   1      39.324  31.536  32.269  1.00  0.00     0.009 A 
ATOM     67  C   UNL A   1      39.130  29.253  33.002  1.00  0.00     0.009 A 
ATOM     68  C   UNL A   1      37.936  31.703  32.376  1.00  0.00     0.001 A 
ATOM     69  C   UNL A   1      37.741  29.428  33.133  1.00  0.00     0.001 A 
ATOM     70  C   UNL A   1      37.142  30.642  32.794  1.00  0.00     0.000 A 
ENDBRANCH  46  65
BRANCH  58  71
ATOM     71  C   UNL A   1      45.039  25.170  32.767  1.00  0.00    -0.014 A 
ATOM     72  C   UNL A   1      46.364  25.395  33.155  1.00  0.00     0.009 A 
ATOM     73  C   UNL A   1      44.391  24.040  33.312  1.00  0.00     0.009 A 
ATOM     74  C   UNL A   1      47.030  24.498  33.992  1.00  0.00     0.001 A 
ATOM     75  C   UNL A   1      45.031  23.181  34.204  1.00  0.00     0.001 A 
ATOM     76  C   UNL A   1      46.361  23.401  34.525  1.00  0.00     0.000 A 
ENDBRANCH  58  71
ENDBRANCH  32  33
ENDBRANCH  25  27
ENDBRANCH  24  25
ENDBRANCH  23  24
ENDBRANCH   1  23
TORSDOF 14
ENDMDL
MODEL 2
REMARK VINA RESULT:     -11.0      3.363      8.576
REMARK SMILES Cc1cccc(NC(=O)C[C@@H]2CCCCO2)c1C(=O)OCCOC(=O)c1ccc(-c2c3nc(c(-c4ccccc4)c4ccc([nH]4)c(-c4ccccc4)c4nc(c(-c5ccccc5)c5ccc2[nH]5)C=C4)C=C3)cc1
REMARK SMILES IDX 21 1 20 2 18 3 19 4 17 5 1 6 2 7 3 8 4 9 6 10 5 11 7 12 8 13
REMARK SMILES IDX 9 15 10 16 11 17 12 18 16 19 13 20 15 21 14 22 22 23 23 24
REMARK SMILES IDX 24 25 25 26 26 27 27 28 73 29 28 30 72 31 29 32 30 33 31 34
REMARK SMILES IDX 66 35 32 36 71 37 65 38 67 39 33 40 70 41 64 42 63 43 34 45
REMARK SMILES IDX 56 46 41 47 55 48 42 49 45 50 54 51 68 52 43 53 44 54 53 56
REMARK SMILES IDX 69 57 46 58 35 59 36 60 40 61 37 62 39 63 38 64 57 65 58 66
REMARK SMILES IDX 62 67 59 68 61 69 60 70 47 71 48 72 52 73 49 74 51 75 50 76
REMARK H PARENT 7 14 67 44 45 55
REMARK Flexibility Score: inf
ROOT
ATOM      1  C   UNL A   1      36.553  23.351  25.937  1.00  0.00     0.275 C 
ENDROOT
BRANCH   1   2
ATOM      2  O   UNL A   1      36.062  24.024  24.747  1.00  0.00    -0.458 OA
BRANCH   2   3
ATOM      3  C   UNL A   1      35.761  23.122  23.772  1.00  0.00     0.340 C 
ATOM      4  O   UNL A   1      36.511  22.861  22.837  1.00  0.00    -0.246 OA
BRANCH   3   5
ATOM      5  C   UNL A   1      34.392  22.560  23.682  1.00  0.00     0.086 A 
ATOM      6  C   UNL A   1      35.323  20.519  24.954  1.00  0.00     0.045 C 
ATOM      7  C   UNL A   1      34.197  21.425  24.519  1.00  0.00    -0.034 A 
ATOM      8  C   UNL A   1      32.913  21.120  24.984  1.00  0.00     0.004 A 
ATOM      9  C   UNL A   1      31.871  22.005  24.761  1.00  0.00     0.002 A 
ATOM     10  C   UNL A   1      33.276  23.336  23.276  1.00  0.00     0.056 A 
ATOM     11  C   UNL A   1      32.068  23.124  23.953  1.00  0.00     0.027 A 
BRANCH  10  12
ATOM     12  N   UNL A   1      33.354  24.222  22.171  1.00  0.00    -0.325 N 
ATOM     13  C   UNL A   1      32.902  25.500  21.928  1.00  0.00     0.227 C 
ATOM     14  H   UNL A   1      33.837  23.836  21.406  1.00  0.00     0.169 HD
ATOM     15  O   UNL A   1      33.300  26.049  20.893  1.00  0.00    -0.275 OA
BRANCH  13  16
ATOM     16  C   UNL A   1      31.914  26.254  22.804  1.00  0.00     0.132 C 
BRANCH  16  17
ATOM     17  C   UNL A   1      32.531  27.465  23.530  1.00  0.00     0.127 C 
ATOM     18  C   UNL A   1      33.797  27.102  24.325  1.00  0.00     0.033 C 
ATOM     19  O   UNL A   1      31.636  28.146  24.413  1.00  0.00    -0.378 OA
ATOM     20  C   UNL A   1      33.476  26.237  25.542  1.00  0.00     0.005 C 
ATOM     21  C   UNL A   1      31.221  27.400  25.547  1.00  0.00     0.160 C 
ATOM     22  C   UNL A   1      32.363  26.853  26.382  1.00  0.00     0.029 C 
ENDBRANCH  16  17
ENDBRANCH  13  16
ENDBRANCH  10  12
ENDBRANCH   3   5
ENDBRANCH   2   3
ENDBRANCH   1   2
BRANCH   1  23
ATOM     23  C   UNL A   1      38.063  23.059  26.016  1.00  0.00     0.275 C 
BRANCH  23  24
ATOM     24  O   UNL A   1      39.051  24.114  26.085  1.00  0.00    -0.458 OA
BRANCH  24  25
ATOM     25  C   UNL A   1      39.903  24.205  27.120  1.00  0.00     0.338 C 
ATOM     26  O   UNL A   1      40.580  23.269  27.535  1.00  0.00    -0.246 OA
BRANCH  25  27
ATOM     27  C   UNL A   1      39.920  25.544  27.725  1.00  0.00     0.060 A 
ATOM     28  C   UNL A   1      40.305  26.620  26.916  1.00  0.00     0.016 A 
ATOM     29  C   UNL A   1      39.392  25.747  29.000  1.00  0.00     0.016 A 
ATOM     30  C   UNL A   1      40.029  27.917  27.308  1.00  0.00     0.010 A 
ATOM     31  C   UNL A   1      39.072  27.024  29.382  1.00  0.00     0.010 A 
ATOM     32  C   UNL A   1      39.412  28.096  28.543  1.00  0.00    -0.014 A 
BRANCH  32  33
ATOM     33  C   UNL A   1      39.480  29.369  29.226  1.00  0.00     0.031 A 
ATOM     34  C   UNL A   1      38.500  30.434  28.928  1.00  0.00     0.074 A 
ATOM     35  C   UNL A   1      40.480  29.340  30.140  1.00  0.00     0.049 A 
ATOM     36  N   UNL A   1      38.715  31.690  29.102  1.00  0.00    -0.248 NA
ATOM     37  C   UNL A   1      37.190  30.194  28.310  1.00  0.00     0.031 C 
ATOM     38  C   UNL A   1      40.827  30.242  31.218  1.00  0.00     0.029 A 
ATOM     39  N   UNL A   1      41.575  28.443  30.118  1.00  0.00    -0.354 N 
ATOM     40  C   UNL A   1      37.485  32.321  29.029  1.00  0.00     0.074 A 
ATOM     41  C   UNL A   1      36.627  31.407  28.334  1.00  0.00     0.031 C 
ATOM     42  C   UNL A   1      42.145  30.095  31.473  1.00  0.00     0.029 A 
ATOM     43  C   UNL A   1      42.689  29.201  30.450  1.00  0.00     0.049 A 
ATOM     44  H   UNL A   1      41.552  27.482  29.909  1.00  0.00     0.167 HD
ATOM     45  C   UNL A   1      37.276  33.429  29.795  1.00  0.00     0.031 A 
ATOM     46  C   UNL A   1      43.598  29.549  29.486  1.00  0.00     0.031 A 
ATOM     47  C   UNL A   1      38.522  33.782  30.463  1.00  0.00     0.049 A 
ATOM     48  C   UNL A   1      43.593  31.052  29.333  1.00  0.00     0.074 A 
ATOM     49  C   UNL A   1      39.014  33.431  31.709  1.00  0.00     0.029 A 
ATOM     50  N   UNL A   1      39.609  34.160  29.689  1.00  0.00    -0.354 N 
ATOM     51  N   UNL A   1      42.518  31.795  29.381  1.00  0.00    -0.248 NA
ATOM     52  C   UNL A   1      44.824  31.822  29.211  1.00  0.00     0.031 C 
ATOM     53  C   UNL A   1      40.433  33.484  31.633  1.00  0.00     0.029 A 
ATOM     54  C   UNL A   1      40.787  33.865  30.350  1.00  0.00     0.049 A 
ATOM     55  H   UNL A   1      39.551  34.578  28.800  1.00  0.00     0.167 HD
ATOM     56  C   UNL A   1      42.904  33.109  29.454  1.00  0.00     0.074 A 
ATOM     57  C   UNL A   1      44.349  33.075  29.290  1.00  0.00     0.031 C 
ATOM     58  C   UNL A   1      42.059  34.149  29.712  1.00  0.00     0.031 A 
BRANCH  45  59
ATOM     59  C   UNL A   1      35.931  33.969  30.230  1.00  0.00    -0.014 A 
ATOM     60  C   UNL A   1      35.044  34.438  29.238  1.00  0.00     0.009 A 
ATOM     61  C   UNL A   1      35.488  34.105  31.557  1.00  0.00     0.009 A 
ATOM     62  C   UNL A   1      33.822  35.052  29.546  1.00  0.00     0.001 A 
ATOM     63  C   UNL A   1      34.266  34.728  31.874  1.00  0.00     0.001 A 
ATOM     64  C   UNL A   1      33.438  35.209  30.868  1.00  0.00     0.000 A 
ENDBRANCH  45  59
BRANCH  46  65
ATOM     65  C   UNL A   1      43.812  28.594  28.343  1.00  0.00    -0.014 A 
ATOM     66  C   UNL A   1      44.057  27.229  28.620  1.00  0.00     0.009 A 
ATOM     67  C   UNL A   1      43.585  28.949  27.005  1.00  0.00     0.009 A 
ATOM     68  C   UNL A   1      43.977  26.249  27.621  1.00  0.00     0.001 A 
ATOM     69  C   UNL A   1      43.530  27.968  25.999  1.00  0.00     0.001 A 
ATOM     70  C   UNL A   1      43.698  26.618  26.310  1.00  0.00     0.000 A 
ENDBRANCH  46  65
BRANCH  58  71
ATOM     71  C   UNL A   1      42.390  35.593  29.456  1.00  0.00    -0.014 A 
ATOM     72  C   UNL A   1      43.312  36.315  30.220  1.00  0.00     0.009 A 
ATOM     73  C   UNL A   1      41.896  36.214  28.287  1.00  0.00     0.009 A 
ATOM     74  C   UNL A   1      43.671  37.619  29.872  1.00  0.00     0.001 A 
ATOM     75  C   UNL A   1      42.306  37.487  27.899  1.00  0.00     0.001 A 
ATOM     76  C   UNL A   1      43.179  38.198  28.707  1.00  0.00     0.000 A 
ENDBRANCH  58  71
ENDBRANCH  32  33
ENDBRANCH  25  27
ENDBRANCH  24  25
ENDBRANCH  23  24
ENDBRANCH   1  23
TORSDOF 14
ENDMDL
MODEL 3
REMARK VINA RESULT:     -10.8      3.200      7.966
REMARK SMILES Cc1cccc(NC(=O)C[C@@H]2CCCCO2)c1C(=O)OCCOC(=O)c1ccc(-c2c3nc(c(-c4ccccc4)c4ccc([nH]4)c(-c4ccccc4)c4nc(c(-c5ccccc5)c5ccc2[nH]5)C=C4)C=C3)cc1
REMARK SMILES IDX 21 1 20 2 18 3 19 4 17 5 1 6 2 7 3 8 4 9 6 10 5 11 7 12 8 13
REMARK SMILES IDX 9 15 10 16 11 17 12 18 16 19 13 20 15 21 14 22 22 23 23 24
REMARK SMILES IDX 24 25 25 26 26 27 27 28 73 29 28 30 72 31 29 32 30 33 31 34
REMARK SMILES IDX 66 35 32 36 71 37 65 38 67 39 33 40 70 41 64 42 63 43 34 45
REMARK SMILES IDX 56 46 41 47 55 48 42 49 45 50 54 51 68 52 43 53 44 54 53 56
REMARK SMILES IDX 69 57 46 58 35 59 36 60 40 61 37 62 39 63 38 64 57 65 58 66
REMARK SMILES IDX 62 67 59 68 61 69 60 70 47 71 48 72 52 73 49 74 51 75 50 76
REMARK H PARENT 7 14 67 44 45 55
REMARK Flexibility Score: inf
ROOT
ATOM      1  C   UNL A   1      36.240  23.455  25.600  1.00  0.00     0.275 C 
ENDROOT
BRANCH   1   2
ATOM      2  O   UNL A   1      35.597  24.480  24.797  1.00  0.00    -0.458 OA
BRANCH   2   3
ATOM      3  C   UNL A   1      34.706  23.926  23.929  1.00  0.00     0.340 C 
ATOM      4  O   UNL A   1      35.032  23.389  22.876  1.00  0.00    -0.246 OA
BRANCH   3   5
ATOM      5  C   UNL A   1      33.252  24.139  24.126  1.00  0.00     0.086 A 
ATOM      6  C   UNL A   1      33.548  26.296  22.743  1.00  0.00     0.045 C 
ATOM      7  C   UNL A   1      32.718  25.160  23.289  1.00  0.00    -0.034 A 
ATOM      8  C   UNL A   1      31.366  25.123  22.930  1.00  0.00     0.004 A 
ATOM      9  C   UNL A   1      30.596  24.020  23.255  1.00  0.00     0.002 A 
ATOM     10  C   UNL A   1      32.398  23.130  24.639  1.00  0.00     0.056 A 
ATOM     11  C   UNL A   1      31.126  23.015  24.063  1.00  0.00     0.027 A 
BRANCH  10  12
ATOM     12  N   UNL A   1      32.778  22.333  25.748  1.00  0.00    -0.325 N 
ATOM     13  C   UNL A   1      33.360  21.092  25.889  1.00  0.00     0.227 C 
ATOM     14  H   UNL A   1      32.580  22.761  26.612  1.00  0.00     0.169 HD
ATOM     15  O   UNL A   1      33.714  20.764  27.028  1.00  0.00    -0.275 OA
BRANCH  13  16
ATOM     16  C   UNL A   1      33.544  20.087  24.763  1.00  0.00     0.132 C 
BRANCH  16  17
ATOM     17  C   UNL A   1      32.474  18.978  24.745  1.00  0.00     0.127 C 
ATOM     18  C   UNL A   1      32.879  17.742  25.567  1.00  0.00     0.033 C 
ATOM     19  O   UNL A   1      32.102  18.536  23.437  1.00  0.00    -0.378 OA
ATOM     20  C   UNL A   1      34.024  16.974  24.911  1.00  0.00     0.005 C 
ATOM     21  C   UNL A   1      33.122  17.865  22.713  1.00  0.00     0.160 C 
ATOM     22  C   UNL A   1      33.728  16.682  23.444  1.00  0.00     0.029 C 
ENDBRANCH  16  17
ENDBRANCH  13  16
ENDBRANCH  10  12
ENDBRANCH   3   5
ENDBRANCH   2   3
ENDBRANCH   1   2
BRANCH   1  23
ATOM     23  C   UNL A   1      37.745  23.217  25.378  1.00  0.00     0.275 C 
BRANCH  23  24
ATOM     24  O   UNL A   1      38.633  22.836  26.455  1.00  0.00    -0.458 OA
BRANCH  24  25
ATOM     25  C   UNL A   1      39.894  23.298  26.516  1.00  0.00     0.338 C 
ATOM     26  O   UNL A   1      40.861  22.716  26.036  1.00  0.00    -0.246 OA
BRANCH  25  27
ATOM     27  C   UNL A   1      39.996  24.568  27.249  1.00  0.00     0.060 A 
ATOM     28  C   UNL A   1      40.581  25.655  26.588  1.00  0.00     0.016 A 
ATOM     29  C   UNL A   1      39.365  24.721  28.482  1.00  0.00     0.016 A 
ATOM     30  C   UNL A   1      40.412  26.937  27.079  1.00  0.00     0.010 A 
ATOM     31  C   UNL A   1      39.152  25.990  28.957  1.00  0.00     0.010 A 
ATOM     32  C   UNL A   1      39.694  27.082  28.263  1.00  0.00    -0.014 A 
BRANCH  32  33
ATOM     33  C   UNL A   1      39.832  28.273  29.071  1.00  0.00     0.031 A 
ATOM     34  C   UNL A   1      38.856  29.375  28.955  1.00  0.00     0.074 A 
ATOM     35  C   UNL A   1      40.890  28.133  29.907  1.00  0.00     0.049 A 
ATOM     36  N   UNL A   1      39.107  30.603  29.247  1.00  0.00    -0.248 NA
ATOM     37  C   UNL A   1      37.504  29.220  28.406  1.00  0.00     0.031 C 
ATOM     38  C   UNL A   1      41.326  28.909  31.049  1.00  0.00     0.029 A 
ATOM     39  N   UNL A   1      41.964  27.230  29.715  1.00  0.00    -0.354 N 
ATOM     40  C   UNL A   1      37.887  31.254  29.325  1.00  0.00     0.074 A 
ATOM     41  C   UNL A   1      36.967  30.430  28.597  1.00  0.00     0.031 C 
ATOM     42  C   UNL A   1      42.655  28.719  31.196  1.00  0.00     0.029 A 
ATOM     43  C   UNL A   1      43.112  27.934  30.049  1.00  0.00     0.049 A 
ATOM     44  H   UNL A   1      41.908  26.297  29.407  1.00  0.00     0.167 HD
ATOM     45  C   UNL A   1      37.752  32.275  30.217  1.00  0.00     0.031 A 
ATOM     46  C   UNL A   1      43.961  28.372  29.068  1.00  0.00     0.031 A 
ATOM     47  C   UNL A   1      39.046  32.538  30.834  1.00  0.00     0.049 A 
ATOM     48  C   UNL A   1      43.976  29.882  29.077  1.00  0.00     0.074 A 
ATOM     49  C   UNL A   1      39.612  32.050  31.998  1.00  0.00     0.029 A 
ATOM     50  N   UNL A   1      40.087  32.984  30.032  1.00  0.00    -0.354 N 
ATOM     51  N   UNL A   1      42.921  30.629  29.277  1.00  0.00    -0.248 NA
ATOM     52  C   UNL A   1      45.211  30.646  28.955  1.00  0.00     0.031 C 
ATOM     53  C   UNL A   1      41.023  32.092  31.833  1.00  0.00     0.029 A 
ATOM     54  C   UNL A   1      41.299  32.605  30.576  1.00  0.00     0.049 A 
ATOM     55  H   UNL A   1      39.977  33.496  29.199  1.00  0.00     0.167 HD
ATOM     56  C   UNL A   1      43.337  31.923  29.462  1.00  0.00     0.074 A 
ATOM     57  C   UNL A   1      44.768  31.889  29.199  1.00  0.00     0.031 C 
ATOM     58  C   UNL A   1      42.532  32.940  29.887  1.00  0.00     0.031 A 
BRANCH  45  59
ATOM     59  C   UNL A   1      36.449  32.782  30.798  1.00  0.00    -0.014 A 
ATOM     60  C   UNL A   1      35.666  33.662  30.022  1.00  0.00     0.009 A 
ATOM     61  C   UNL A   1      35.955  32.501  32.083  1.00  0.00     0.009 A 
ATOM     62  C   UNL A   1      34.501  34.269  30.510  1.00  0.00     0.001 A 
ATOM     63  C   UNL A   1      34.791  33.112  32.584  1.00  0.00     0.001 A 
ATOM     64  C   UNL A   1      34.068  34.002  31.800  1.00  0.00     0.000 A 
ENDBRANCH  45  59
BRANCH  46  65
ATOM     65  C   UNL A   1      44.080  27.543  27.819  1.00  0.00    -0.014 A 
ATOM     66  C   UNL A   1      43.721  28.112  26.575  1.00  0.00     0.009 A 
ATOM     67  C   UNL A   1      44.718  26.294  27.794  1.00  0.00     0.009 A 
ATOM     68  C   UNL A   1      44.075  27.511  25.359  1.00  0.00     0.001 A 
ATOM     69  C   UNL A   1      45.051  25.679  26.574  1.00  0.00     0.001 A 
ATOM     70  C   UNL A   1      44.755  26.299  25.360  1.00  0.00     0.000 A 
ENDBRANCH  46  65
BRANCH  58  71
ATOM     71  C   UNL A   1      42.873  34.399  29.764  1.00  0.00    -0.014 A 
ATOM     72  C   UNL A   1      43.478  35.132  30.789  1.00  0.00     0.009 A 
ATOM     73  C   UNL A   1      42.753  35.029  28.506  1.00  0.00     0.009 A 
ATOM     74  C   UNL A   1      43.881  36.454  30.587  1.00  0.00     0.001 A 
ATOM     75  C   UNL A   1      43.218  36.323  28.281  1.00  0.00     0.001 A 
ATOM     76  C   UNL A   1      43.763  37.043  29.332  1.00  0.00     0.000 A 
ENDBRANCH  58  71
ENDBRANCH  32  33
ENDBRANCH  25  27
ENDBRANCH  24  25
ENDBRANCH  23  24
ENDBRANCH   1  23
TORSDOF 14
ENDMDL
