MODEL 1
REMARK VINA RESULT:     -10.1      0.000      0.000
REMARK SMILES CC(=O)NCCNC(=O)C[N@@H+]1CC[C@@H](C(=O)OCCOC(=O)c2ccc(-c3c4nc(c(-c5ccccc5)c5ccc([nH]5)c(-c5ccccc5)c5nc(c(-c6ccccc6)c6ccc3[nH]6)C=C5)C=C4)cc2)[C@H]1C
REMARK SMILES IDX 17 1 15 2 16 3 14 4 11 5 12 6 71 7 13 9 72 10 10 11 8 12
REMARK SMILES IDX 7 13 9 15 6 16 5 17 4 18 1 19 2 20 3 21 18 23 19 24 20 25
REMARK SMILES IDX 21 26 22 27 23 28 24 29 70 30 25 31 69 32 26 33 27 34 28 35
REMARK SMILES IDX 63 36 29 37 68 38 62 39 64 40 30 41 67 42 61 43 60 44 31 46
REMARK SMILES IDX 53 47 38 48 52 49 39 50 42 51 51 52 65 53 40 54 41 55 50 57
REMARK SMILES IDX 66 58 43 59 32 60 33 61 37 62 34 63 36 64 35 65 54 66 55 67
REMARK SMILES IDX 59 68 56 69 58 70 57 71 44 72 45 73 49 74 46 75 48 76 47 77
REMARK H PARENT 11 8 7 14 4 22 64 45 42 56
REMARK Flexibility Score: inf
ROOT
ATOM      1  O   UNL A   1      33.111  25.903  26.325  1.00  0.00    -0.462 OA
ENDROOT
BRANCH   1   2
ATOM      2  C   UNL A   1      32.178  24.921  26.265  1.00  0.00     0.315 C 
ATOM      3  O   UNL A   1      31.513  24.562  27.230  1.00  0.00    -0.252 OA
BRANCH   2   4
ATOM      4  C   UNL A   1      31.904  24.468  24.830  1.00  0.00     0.162 C 
ATOM      5  N   UNL A   1      32.328  26.182  23.350  1.00  0.00    -0.324 N 
ATOM      6  C   UNL A   1      33.275  25.147  22.926  1.00  0.00     0.264 C 
ATOM      7  C   UNL A   1      31.186  25.429  23.877  1.00  0.00     0.195 C 
ATOM      8  H   UNL A   1      32.707  26.801  24.065  1.00  0.00     0.348 HD
ATOM      9  C   UNL A   1      33.238  24.179  24.101  1.00  0.00     0.083 C 
ATOM     10  C   UNL A   1      30.040  26.257  24.444  1.00  0.00     0.076 C 
BRANCH   5  11
ATOM     11  C   UNL A   1      32.012  27.138  22.283  1.00  0.00     0.363 C 
BRANCH  11  12
ATOM     12  C   UNL A   1      32.567  28.534  22.606  1.00  0.00     0.275 C 
ATOM     13  N   UNL A   1      31.709  29.571  22.872  1.00  0.00    -0.349 N 
ATOM     14  H   UNL A   1      32.123  30.459  22.972  1.00  0.00     0.163 HD
ATOM     15  O   UNL A   1      33.777  28.764  22.571  1.00  0.00    -0.269 OA
BRANCH  13  16
ATOM     16  C   UNL A   1      30.261  29.521  23.023  1.00  0.00     0.137 C 
BRANCH  16  17
ATOM     17  C   UNL A   1      29.528  30.124  21.815  1.00  0.00     0.137 C 
BRANCH  17  18
ATOM     18  N   UNL A   1      29.414  31.572  21.919  1.00  0.00    -0.355 N 
ATOM     19  C   UNL A   1      27.533  31.540  23.514  1.00  0.00     0.114 C 
ATOM     20  C   UNL A   1      28.531  32.289  22.672  1.00  0.00     0.216 C 
ATOM     21  O   UNL A   1      28.570  33.517  22.646  1.00  0.00    -0.275 OA
ATOM     22  H   UNL A   1      30.051  32.096  21.382  1.00  0.00     0.163 HD
ENDBRANCH  17  18
ENDBRANCH  16  17
ENDBRANCH  13  16
ENDBRANCH  11  12
ENDBRANCH   5  11
ENDBRANCH   2   4
ENDBRANCH   1   2
BRANCH   1  23
ATOM     23  C   UNL A   1      32.669  27.221  26.703  1.00  0.00     0.274 C 
BRANCH  23  24
ATOM     24  C   UNL A   1      33.851  28.186  26.627  1.00  0.00     0.275 C 
BRANCH  24  25
ATOM     25  O   UNL A   1      33.912  29.000  27.815  1.00  0.00    -0.458 OA
BRANCH  25  26
ATOM     26  C   UNL A   1      34.627  30.140  27.691  1.00  0.00     0.338 C 
ATOM     27  O   UNL A   1      34.233  31.239  27.332  1.00  0.00    -0.246 OA
BRANCH  26  28
ATOM     28  C   UNL A   1      36.004  29.911  28.139  1.00  0.00     0.060 A 
ATOM     29  C   UNL A   1      37.051  30.099  27.237  1.00  0.00     0.016 A 
ATOM     30  C   UNL A   1      36.240  29.363  29.399  1.00  0.00     0.016 A 
ATOM     31  C   UNL A   1      38.330  29.661  27.558  1.00  0.00     0.010 A 
ATOM     32  C   UNL A   1      37.543  29.003  29.752  1.00  0.00     0.010 A 
ATOM     33  C   UNL A   1      38.594  29.120  28.824  1.00  0.00    -0.014 A 
BRANCH  33  34
ATOM     34  C   UNL A   1      39.963  28.667  29.169  1.00  0.00     0.031 A 
ATOM     35  C   UNL A   1      40.875  29.554  29.969  1.00  0.00     0.074 A 
ATOM     36  C   UNL A   1      40.384  27.449  28.777  1.00  0.00     0.049 A 
ATOM     37  N   UNL A   1      42.148  29.404  30.234  1.00  0.00    -0.248 NA
ATOM     38  C   UNL A   1      40.282  30.773  30.542  1.00  0.00     0.031 C 
ATOM     39  C   UNL A   1      39.581  26.466  28.046  1.00  0.00     0.029 A 
ATOM     40  N   UNL A   1      41.596  26.828  28.945  1.00  0.00    -0.354 N 
ATOM     41  C   UNL A   1      42.518  30.528  30.963  1.00  0.00     0.074 A 
ATOM     42  C   UNL A   1      41.336  31.352  31.101  1.00  0.00     0.031 C 
ATOM     43  C   UNL A   1      40.309  25.355  27.859  1.00  0.00     0.029 A 
ATOM     44  C   UNL A   1      41.651  25.577  28.382  1.00  0.00     0.049 A 
ATOM     45  H   UNL A   1      42.352  27.240  29.422  1.00  0.00     0.167 HD
ATOM     46  C   UNL A   1      43.735  30.846  31.465  1.00  0.00     0.031 A 
ATOM     47  C   UNL A   1      42.679  24.717  28.264  1.00  0.00     0.031 A 
ATOM     48  C   UNL A   1      44.903  30.015  31.347  1.00  0.00     0.049 A 
ATOM     49  C   UNL A   1      44.028  25.114  28.785  1.00  0.00     0.074 A 
ATOM     50  C   UNL A   1      46.185  30.256  31.807  1.00  0.00     0.029 A 
ATOM     51  N   UNL A   1      44.924  28.772  30.735  1.00  0.00    -0.354 N 
ATOM     52  N   UNL A   1      44.379  26.210  29.412  1.00  0.00    -0.248 NA
ATOM     53  C   UNL A   1      45.126  24.162  28.564  1.00  0.00     0.031 C 
ATOM     54  C   UNL A   1      46.991  29.168  31.449  1.00  0.00     0.029 A 
ATOM     55  C   UNL A   1      46.199  28.236  30.798  1.00  0.00     0.049 A 
ATOM     56  H   UNL A   1      44.148  28.335  30.317  1.00  0.00     0.167 HD
ATOM     57  C   UNL A   1      45.737  26.078  29.666  1.00  0.00     0.074 A 
ATOM     58  C   UNL A   1      46.141  24.788  29.145  1.00  0.00     0.031 C 
ATOM     59  C   UNL A   1      46.577  26.953  30.271  1.00  0.00     0.031 A 
BRANCH  46  60
ATOM     60  C   UNL A   1      43.872  32.172  32.154  1.00  0.00    -0.014 A 
ATOM     61  C   UNL A   1      43.765  32.287  33.548  1.00  0.00     0.009 A 
ATOM     62  C   UNL A   1      44.144  33.321  31.395  1.00  0.00     0.009 A 
ATOM     63  C   UNL A   1      43.901  33.533  34.166  1.00  0.00     0.001 A 
ATOM     64  C   UNL A   1      44.300  34.561  32.017  1.00  0.00     0.001 A 
ATOM     65  C   UNL A   1      44.172  34.667  33.401  1.00  0.00     0.000 A 
ENDBRANCH  46  60
BRANCH  47  66
ATOM     66  C   UNL A   1      42.479  23.415  27.578  1.00  0.00    -0.014 A 
ATOM     67  C   UNL A   1      42.878  23.244  26.246  1.00  0.00     0.009 A 
ATOM     68  C   UNL A   1      41.896  22.335  28.259  1.00  0.00     0.009 A 
ATOM     69  C   UNL A   1      42.686  22.019  25.603  1.00  0.00     0.001 A 
ATOM     70  C   UNL A   1      41.730  21.104  27.624  1.00  0.00     0.001 A 
ATOM     71  C   UNL A   1      42.117  20.949  26.294  1.00  0.00     0.000 A 
ENDBRANCH  47  66
BRANCH  59  72
ATOM     72  C   UNL A   1      48.005  26.523  30.420  1.00  0.00    -0.014 A 
ATOM     73  C   UNL A   1      48.955  26.821  29.431  1.00  0.00     0.009 A 
ATOM     74  C   UNL A   1      48.409  25.833  31.572  1.00  0.00     0.009 A 
ATOM     75  C   UNL A   1      50.280  26.410  29.582  1.00  0.00     0.001 A 
ATOM     76  C   UNL A   1      49.738  25.440  31.729  1.00  0.00     0.001 A 
ATOM     77  C   UNL A   1      50.671  25.722  30.731  1.00  0.00     0.000 A 
ENDBRANCH  59  72
ENDBRANCH  33  34
ENDBRANCH  26  28
ENDBRANCH  25  26
ENDBRANCH  24  25
ENDBRANCH  23  24
ENDBRANCH   1  23
TORSDOF 16
ENDMDL
MODEL 2
REMARK VINA RESULT:     -10.1      2.709      6.414
REMARK SMILES CC(=O)NCCNC(=O)C[N@@H+]1CC[C@@H](C(=O)OCCOC(=O)c2ccc(-c3c4nc(c(-c5ccccc5)c5ccc([nH]5)c(-c5ccccc5)c5nc(c(-c6ccccc6)c6ccc3[nH]6)C=C5)C=C4)cc2)[C@H]1C
REMARK SMILES IDX 17 1 15 2 16 3 14 4 11 5 12 6 71 7 13 9 72 10 10 11 8 12
REMARK SMILES IDX 7 13 9 15 6 16 5 17 4 18 1 19 2 20 3 21 18 23 19 24 20 25
REMARK SMILES IDX 21 26 22 27 23 28 24 29 70 30 25 31 69 32 26 33 27 34 28 35
REMARK SMILES IDX 63 36 29 37 68 38 62 39 64 40 30 41 67 42 61 43 60 44 31 46
REMARK SMILES IDX 53 47 38 48 52 49 39 50 42 51 51 52 65 53 40 54 41 55 50 57
REMARK SMILES IDX 66 58 43 59 32 60 33 61 37 62 34 63 36 64 35 65 54 66 55 67
REMARK SMILES IDX 59 68 56 69 58 70 57 71 44 72 45 73 49 74 46 75 48 76 47 77
REMARK H PARENT 11 8 7 14 4 22 64 45 42 56
REMARK Flexibility Score: inf
ROOT
ATOM      1  O   UNL A   1      32.596  26.519  26.329  1.00  0.00    -0.462 OA
ENDROOT
BRANCH   1   2
ATOM      2  C   UNL A   1      31.984  25.309  26.292  1.00  0.00     0.315 C 
ATOM      3  O   UNL A   1      31.374  24.832  27.242  1.00  0.00    -0.252 OA
BRANCH   2   4
ATOM      4  C   UNL A   1      31.965  24.712  24.884  1.00  0.00     0.162 C 
ATOM      5  N   UNL A   1      32.355  26.349  23.310  1.00  0.00    -0.324 N 
ATOM      6  C   UNL A   1      33.476  25.428  23.104  1.00  0.00     0.264 C 
ATOM      7  C   UNL A   1      31.260  25.486  23.765  1.00  0.00     0.195 C 
ATOM      8  H   UNL A   1      32.553  27.068  24.005  1.00  0.00     0.348 HD
ATOM      9  C   UNL A   1      33.410  24.558  24.353  1.00  0.00     0.083 C 
ATOM     10  C   UNL A   1      29.952  26.186  24.108  1.00  0.00     0.076 C 
BRANCH   5  11
ATOM     11  C   UNL A   1      32.062  27.166  22.127  1.00  0.00     0.363 C 
BRANCH  11  12
ATOM     12  C   UNL A   1      32.429  28.639  22.365  1.00  0.00     0.275 C 
ATOM     13  N   UNL A   1      31.446  29.593  22.418  1.00  0.00    -0.349 N 
ATOM     14  H   UNL A   1      31.754  30.527  22.472  1.00  0.00     0.163 HD
ATOM     15  O   UNL A   1      33.606  28.998  22.447  1.00  0.00    -0.269 OA
BRANCH  13  16
ATOM     16  C   UNL A   1      30.003  29.396  22.404  1.00  0.00     0.137 C 
BRANCH  16  17
ATOM     17  C   UNL A   1      29.291  30.375  21.458  1.00  0.00     0.137 C 
BRANCH  17  18
ATOM     18  N   UNL A   1      29.466  31.758  21.877  1.00  0.00    -0.355 N 
ATOM     19  C   UNL A   1      27.574  31.759  23.460  1.00  0.00     0.114 C 
ATOM     20  C   UNL A   1      28.724  32.456  22.784  1.00  0.00     0.216 C 
ATOM     21  O   UNL A   1      29.008  33.627  23.026  1.00  0.00    -0.275 OA
ATOM     22  H   UNL A   1      30.209  32.247  21.457  1.00  0.00     0.163 HD
ENDBRANCH  17  18
ENDBRANCH  16  17
ENDBRANCH  13  16
ENDBRANCH  11  12
ENDBRANCH   5  11
ENDBRANCH   2   4
ENDBRANCH   1   2
BRANCH   1  23
ATOM     23  C   UNL A   1      31.913  27.589  27.012  1.00  0.00     0.274 C 
BRANCH  23  24
ATOM     24  C   UNL A   1      31.738  28.763  26.050  1.00  0.00     0.275 C 
BRANCH  24  25
ATOM     25  O   UNL A   1      32.978  29.481  25.902  1.00  0.00    -0.458 OA
BRANCH  25  26
ATOM     26  C   UNL A   1      33.160  30.498  26.774  1.00  0.00     0.338 C 
ATOM     27  O   UNL A   1      32.346  31.335  27.132  1.00  0.00    -0.246 OA
BRANCH  26  28
ATOM     28  C   UNL A   1      34.512  30.431  27.335  1.00  0.00     0.060 A 
ATOM     29  C   UNL A   1      35.043  29.187  27.679  1.00  0.00     0.016 A 
ATOM     30  C   UNL A   1      35.185  31.607  27.662  1.00  0.00     0.016 A 
ATOM     31  C   UNL A   1      36.211  29.116  28.428  1.00  0.00     0.010 A 
ATOM     32  C   UNL A   1      36.404  31.528  28.341  1.00  0.00     0.010 A 
ATOM     33  C   UNL A   1      36.912  30.284  28.757  1.00  0.00    -0.014 A 
BRANCH  33  34
ATOM     34  C   UNL A   1      38.166  30.204  29.544  1.00  0.00     0.031 A 
ATOM     35  C   UNL A   1      39.385  29.543  28.963  1.00  0.00     0.074 A 
ATOM     36  C   UNL A   1      38.217  30.738  30.780  1.00  0.00     0.049 A 
ATOM     37  N   UNL A   1      40.515  29.236  29.547  1.00  0.00    -0.248 NA
ATOM     38  C   UNL A   1      39.324  29.172  27.540  1.00  0.00     0.031 C 
ATOM     39  C   UNL A   1      37.125  31.458  31.440  1.00  0.00     0.029 A 
ATOM     40  N   UNL A   1      39.234  30.763  31.699  1.00  0.00    -0.354 N 
ATOM     41  C   UNL A   1      41.281  28.598  28.579  1.00  0.00     0.074 A 
ATOM     42  C   UNL A   1      40.488  28.561  27.368  1.00  0.00     0.031 C 
ATOM     43  C   UNL A   1      37.543  31.882  32.642  1.00  0.00     0.029 A 
ATOM     44  C   UNL A   1      38.898  31.396  32.870  1.00  0.00     0.049 A 
ATOM     45  H   UNL A   1      40.120  30.365  31.535  1.00  0.00     0.167 HD
ATOM     46  C   UNL A   1      42.528  28.083  28.693  1.00  0.00     0.031 A 
ATOM     47  C   UNL A   1      39.587  31.537  34.017  1.00  0.00     0.031 A 
ATOM     48  C   UNL A   1      43.323  28.142  29.890  1.00  0.00     0.049 A 
ATOM     49  C   UNL A   1      40.947  30.916  34.133  1.00  0.00     0.074 A 
ATOM     50  C   UNL A   1      44.592  27.635  30.111  1.00  0.00     0.029 A 
ATOM     51  N   UNL A   1      42.928  28.759  31.066  1.00  0.00    -0.354 N 
ATOM     52  N   UNL A   1      41.631  30.255  33.232  1.00  0.00    -0.248 NA
ATOM     53  C   UNL A   1      41.621  31.044  35.433  1.00  0.00     0.031 C 
ATOM     54  C   UNL A   1      44.955  27.923  31.432  1.00  0.00     0.029 A 
ATOM     55  C   UNL A   1      43.925  28.640  32.019  1.00  0.00     0.049 A 
ATOM     56  H   UNL A   1      42.066  29.214  31.203  1.00  0.00     0.167 HD
ATOM     57  C   UNL A   1      42.818  29.892  33.852  1.00  0.00     0.074 A 
ATOM     58  C   UNL A   1      42.770  30.425  35.198  1.00  0.00     0.031 C 
ATOM     59  C   UNL A   1      43.853  29.175  33.352  1.00  0.00     0.031 A 
BRANCH  46  60
ATOM     60  C   UNL A   1      43.093  27.374  27.497  1.00  0.00    -0.014 A 
ATOM     61  C   UNL A   1      42.869  26.006  27.284  1.00  0.00     0.009 A 
ATOM     62  C   UNL A   1      43.837  28.097  26.551  1.00  0.00     0.009 A 
ATOM     63  C   UNL A   1      43.402  25.370  26.160  1.00  0.00     0.001 A 
ATOM     64  C   UNL A   1      44.351  27.464  25.418  1.00  0.00     0.001 A 
ATOM     65  C   UNL A   1      44.139  26.100  25.227  1.00  0.00     0.000 A 
ENDBRANCH  46  60
BRANCH  47  66
ATOM     66  C   UNL A   1      38.977  32.258  35.163  1.00  0.00    -0.014 A 
ATOM     67  C   UNL A   1      39.094  33.650  35.272  1.00  0.00     0.009 A 
ATOM     68  C   UNL A   1      38.265  31.554  36.147  1.00  0.00     0.009 A 
ATOM     69  C   UNL A   1      38.521  34.323  36.353  1.00  0.00     0.001 A 
ATOM     70  C   UNL A   1      37.670  32.232  37.212  1.00  0.00     0.001 A 
ATOM     71  C   UNL A   1      37.805  33.615  37.319  1.00  0.00     0.000 A 
ENDBRANCH  47  66
BRANCH  59  72
ATOM     72  C   UNL A   1      45.022  28.953  34.264  1.00  0.00    -0.014 A 
ATOM     73  C   UNL A   1      45.091  27.818  35.085  1.00  0.00     0.009 A 
ATOM     74  C   UNL A   1      46.076  29.879  34.284  1.00  0.00     0.009 A 
ATOM     75  C   UNL A   1      46.184  27.628  35.932  1.00  0.00     0.001 A 
ATOM     76  C   UNL A   1      47.176  29.676  35.117  1.00  0.00     0.001 A 
ATOM     77  C   UNL A   1      47.226  28.556  35.946  1.00  0.00     0.000 A 
ENDBRANCH  59  72
ENDBRANCH  33  34
ENDBRANCH  26  28
ENDBRANCH  25  26
ENDBRANCH  24  25
ENDBRANCH  23  24
ENDBRANCH   1  23
TORSDOF 16
ENDMDL
MODEL 3
REMARK VINA RESULT:      -9.8      2.594      7.312
REMARK SMILES CC(=O)NCCNC(=O)C[N@@H+]1CC[C@@H](C(=O)OCCOC(=O)c2ccc(-c3c4nc(c(-c5ccccc5)c5ccc([nH]5)c(-c5ccccc5)c5nc(c(-c6ccccc6)c6ccc3[nH]6)C=C5)C=C4)cc2)[C@H]1C
REMARK SMILES IDX 17 1 15 2 16 3 14 4 11 5 12 6 71 7 13 9 72 10 10 11 8 12
REMARK SMILES IDX 7 13 9 15 6 16 5 17 4 18 1 19 2 20 3 21 18 23 19 24 20 25
REMARK SMILES IDX 21 26 22 27 23 28 24 29 70 30 25 31 69 32 26 33 27 34 28 35
REMARK SMILES IDX 63 36 29 37 68 38 62 39 64 40 30 41 67 42 61 43 60 44 31 46
REMARK SMILES IDX 53 47 38 48 52 49 39 50 42 51 51 52 65 53 40 54 41 55 50 57
REMARK SMILES IDX 66 58 43 59 32 60 33 61 37 62 34 63 36 64 35 65 54 66 55 67
REMARK SMILES IDX 59 68 56 69 58 70 57 71 44 72 45 73 49 74 46 75 48 76 47 77
REMARK H PARENT 11 8 7 14 4 22 64 45 42 56
REMARK Flexibility Score: inf
ROOT
ATOM      1  O   UNL A   1      35.196  21.755  25.944  1.00  0.00    -0.462 OA
ENDROOT
BRANCH   1   2
ATOM      2  C   UNL A   1      34.205  22.646  25.699  1.00  0.00     0.315 C 
ATOM      3  O   UNL A   1      33.223  22.781  26.421  1.00  0.00    -0.252 OA
BRANCH   2   4
ATOM      4  C   UNL A   1      34.551  23.597  24.551  1.00  0.00     0.162 C 
ATOM      5  N   UNL A   1      32.641  24.578  23.716  1.00  0.00    -0.324 N 
ATOM      6  C   UNL A   1      33.416  25.729  24.189  1.00  0.00     0.264 C 
ATOM      7  C   UNL A   1      33.658  23.604  23.306  1.00  0.00     0.195 C 
ATOM      8  H   UNL A   1      32.038  24.181  24.435  1.00  0.00     0.348 HD
ATOM      9  C   UNL A   1      34.490  25.063  25.040  1.00  0.00     0.083 C 
ATOM     10  C   UNL A   1      33.139  22.264  22.803  1.00  0.00     0.076 C 
BRANCH   5  11
ATOM     11  C   UNL A   1      31.661  24.935  22.684  1.00  0.00     0.363 C 
BRANCH  11  12
ATOM     12  C   UNL A   1      32.247  25.950  21.690  1.00  0.00     0.275 C 
ATOM     13  N   UNL A   1      31.736  27.220  21.622  1.00  0.00    -0.349 N 
ATOM     14  H   UNL A   1      32.086  27.788  20.898  1.00  0.00     0.163 HD
ATOM     15  O   UNL A   1      33.135  25.627  20.897  1.00  0.00    -0.269 OA
BRANCH  13  16
ATOM     16  C   UNL A   1      30.738  27.833  22.488  1.00  0.00     0.137 C 
BRANCH  16  17
ATOM     17  C   UNL A   1      30.966  29.342  22.663  1.00  0.00     0.137 C 
BRANCH  17  18
ATOM     18  N   UNL A   1      30.240  30.119  21.668  1.00  0.00    -0.355 N 
ATOM     19  C   UNL A   1      28.403  30.769  23.181  1.00  0.00     0.114 C 
ATOM     20  C   UNL A   1      29.067  30.797  21.830  1.00  0.00     0.216 C 
ATOM     21  O   UNL A   1      28.585  31.408  20.879  1.00  0.00    -0.275 OA
ATOM     22  H   UNL A   1      30.644  30.161  20.772  1.00  0.00     0.163 HD
ENDBRANCH  17  18
ENDBRANCH  16  17
ENDBRANCH  13  16
ENDBRANCH  11  12
ENDBRANCH   5  11
ENDBRANCH   2   4
ENDBRANCH   1   2
BRANCH   1  23
ATOM     23  C   UNL A   1      36.213  21.596  24.936  1.00  0.00     0.274 C 
BRANCH  23  24
ATOM     24  C   UNL A   1      37.580  21.506  25.615  1.00  0.00     0.275 C 
BRANCH  24  25
ATOM     25  O   UNL A   1      38.242  22.786  25.583  1.00  0.00    -0.458 OA
BRANCH  25  26
ATOM     26  C   UNL A   1      39.377  22.861  26.312  1.00  0.00     0.338 C 
ATOM     27  O   UNL A   1      40.232  22.002  26.463  1.00  0.00    -0.246 OA
BRANCH  26  28
ATOM     28  C   UNL A   1      39.512  24.207  26.878  1.00  0.00     0.060 A 
ATOM     29  C   UNL A   1      40.159  25.193  26.134  1.00  0.00     0.016 A 
ATOM     30  C   UNL A   1      39.137  24.444  28.199  1.00  0.00     0.016 A 
ATOM     31  C   UNL A   1      40.511  26.396  26.735  1.00  0.00     0.010 A 
ATOM     32  C   UNL A   1      39.416  25.686  28.775  1.00  0.00     0.010 A 
ATOM     33  C   UNL A   1      40.133  26.661  28.058  1.00  0.00    -0.014 A 
BRANCH  33  34
ATOM     34  C   UNL A   1      40.498  27.951  28.693  1.00  0.00     0.031 A 
ATOM     35  C   UNL A   1      41.891  28.172  29.213  1.00  0.00     0.074 A 
ATOM     36  C   UNL A   1      39.581  28.933  28.789  1.00  0.00     0.049 A 
ATOM     37  N   UNL A   1      42.355  29.161  29.933  1.00  0.00    -0.248 NA
ATOM     38  C   UNL A   1      42.893  27.145  28.886  1.00  0.00     0.031 C 
ATOM     39  C   UNL A   1      38.211  28.871  28.273  1.00  0.00     0.029 A 
ATOM     40  N   UNL A   1      39.667  30.181  29.351  1.00  0.00    -0.354 N 
ATOM     41  C   UNL A   1      43.687  28.854  30.184  1.00  0.00     0.074 A 
ATOM     42  C   UNL A   1      43.959  27.588  29.539  1.00  0.00     0.031 C 
ATOM     43  C   UNL A   1      37.598  30.040  28.513  1.00  0.00     0.029 A 
ATOM     44  C   UNL A   1      38.500  30.900  29.268  1.00  0.00     0.049 A 
ATOM     45  H   UNL A   1      40.486  30.527  29.774  1.00  0.00     0.167 HD
ATOM     46  C   UNL A   1      44.597  29.562  30.895  1.00  0.00     0.031 A 
ATOM     47  C   UNL A   1      38.177  32.103  29.776  1.00  0.00     0.031 A 
ATOM     48  C   UNL A   1      44.331  30.831  31.516  1.00  0.00     0.049 A 
ATOM     49  C   UNL A   1      39.187  32.844  30.601  1.00  0.00     0.074 A 
ATOM     50  C   UNL A   1      45.182  31.619  32.271  1.00  0.00     0.029 A 
ATOM     51  N   UNL A   1      43.123  31.506  31.439  1.00  0.00    -0.354 N 
ATOM     52  N   UNL A   1      40.421  32.509  30.888  1.00  0.00    -0.248 NA
ATOM     53  C   UNL A   1      38.752  34.119  31.187  1.00  0.00     0.031 C 
ATOM     54  C   UNL A   1      44.479  32.761  32.675  1.00  0.00     0.029 A 
ATOM     55  C   UNL A   1      43.203  32.697  32.140  1.00  0.00     0.049 A 
ATOM     56  H   UNL A   1      42.327  31.185  30.959  1.00  0.00     0.167 HD
ATOM     57  C   UNL A   1      40.913  33.534  31.683  1.00  0.00     0.074 A 
ATOM     58  C   UNL A   1      39.852  34.511  31.815  1.00  0.00     0.031 C 
ATOM     59  C   UNL A   1      42.134  33.652  32.259  1.00  0.00     0.031 A 
BRANCH  46  60
ATOM     60  C   UNL A   1      45.958  28.953  31.072  1.00  0.00    -0.014 A 
ATOM     61  C   UNL A   1      47.020  29.274  30.214  1.00  0.00     0.009 A 
ATOM     62  C   UNL A   1      46.186  28.068  32.137  1.00  0.00     0.009 A 
ATOM     63  C   UNL A   1      48.279  28.698  30.403  1.00  0.00     0.001 A 
ATOM     64  C   UNL A   1      47.450  27.509  32.337  1.00  0.00     0.001 A 
ATOM     65  C   UNL A   1      48.493  27.820  31.466  1.00  0.00     0.000 A 
ENDBRANCH  46  60
BRANCH  47  66
ATOM     66  C   UNL A   1      36.816  32.655  29.560  1.00  0.00    -0.014 A 
ATOM     67  C   UNL A   1      35.819  32.491  30.531  1.00  0.00     0.009 A 
ATOM     68  C   UNL A   1      36.513  33.359  28.384  1.00  0.00     0.009 A 
ATOM     69  C   UNL A   1      34.539  33.010  30.322  1.00  0.00     0.001 A 
ATOM     70  C   UNL A   1      35.242  33.900  28.190  1.00  0.00     0.001 A 
ATOM     71  C   UNL A   1      34.253  33.719  29.155  1.00  0.00     0.000 A 
ENDBRANCH  47  66
BRANCH  59  72
ATOM     72  C   UNL A   1      42.385  34.894  33.060  1.00  0.00    -0.014 A 
ATOM     73  C   UNL A   1      41.931  35.004  34.383  1.00  0.00     0.009 A 
ATOM     74  C   UNL A   1      43.103  35.957  32.492  1.00  0.00     0.009 A 
ATOM     75  C   UNL A   1      42.169  36.168  35.114  1.00  0.00     0.001 A 
ATOM     76  C   UNL A   1      43.355  37.111  33.231  1.00  0.00     0.001 A 
ATOM     77  C   UNL A   1      42.882  37.221  34.538  1.00  0.00     0.000 A 
ENDBRANCH  59  72
ENDBRANCH  33  34
ENDBRANCH  26  28
ENDBRANCH  25  26
ENDBRANCH  24  25
ENDBRANCH  23  24
ENDBRANCH   1  23
TORSDOF 16
ENDMDL
