MODEL 1
REMARK VINA RESULT:     -10.1      0.000      0.000
REMARK SMILES O=C(OCCOC(=O)c1cc(S(=O)(=O)NCCNc2ccccn2)ccc1F)c1ccc(-c2c3nc(c(-c4ccccc4)c4ccc([nH]4)c(-c4ccccc4)c4nc(c(-c5ccccc5)c5ccc2[nH]5)C=C4)C=C3)cc1
REMARK SMILES IDX 7 1 8 2 6 3 5 4 4 5 3 6 2 7 1 8 29 9 30 10 76 11 31 12 75 13
REMARK SMILES IDX 32 14 33 15 34 16 69 17 35 18 74 19 68 20 70 21 36 22 73 23
REMARK SMILES IDX 67 24 66 25 37 27 59 28 44 29 58 30 45 31 48 32 57 33 71 34
REMARK SMILES IDX 46 35 47 36 56 38 72 39 49 40 38 41 39 42 43 43 40 44 42 45
REMARK SMILES IDX 41 46 60 47 61 48 65 49 62 50 64 51 63 52 50 53 51 54 55 55
REMARK SMILES IDX 52 56 54 57 53 58 9 59 10 60 27 61 11 62 26 63 28 64 25 65
REMARK SMILES IDX 12 66 13 67 14 68 15 69 16 71 17 72 18 73 19 75 20 76 24 77
REMARK SMILES IDX 21 78 23 79 22 80
REMARK H PARENT 70 26 48 37 15 70 18 74
REMARK Flexibility Score: inf
ROOT
ATOM      1  C   UNL A   1      31.640  29.753  25.158  1.00  0.00     0.341 C 
ATOM      2  O   UNL A   1      32.847  29.902  25.201  1.00  0.00    -0.246 OA
ENDROOT
BRANCH   1   3
ATOM      3  O   UNL A   1      30.690  30.607  25.620  1.00  0.00    -0.458 OA
BRANCH   3   4
ATOM      4  C   UNL A   1      31.098  31.976  25.791  1.00  0.00     0.275 C 
BRANCH   4   5
ATOM      5  C   UNL A   1      31.712  32.266  27.165  1.00  0.00     0.275 C 
BRANCH   5   6
ATOM      6  O   UNL A   1      32.028  33.649  27.395  1.00  0.00    -0.458 OA
BRANCH   6   7
ATOM      7  C   UNL A   1      32.925  34.219  28.229  1.00  0.00     0.338 C 
ATOM      8  O   UNL A   1      32.716  35.375  28.599  1.00  0.00    -0.246 OA
BRANCH   7   9
ATOM      9  C   UNL A   1      34.225  33.588  28.642  1.00  0.00     0.060 A 
ATOM     10  C   UNL A   1      35.473  33.775  28.046  1.00  0.00     0.016 A 
ATOM     11  C   UNL A   1      34.175  32.765  29.782  1.00  0.00     0.016 A 
ATOM     12  C   UNL A   1      36.639  33.257  28.613  1.00  0.00     0.010 A 
ATOM     13  C   UNL A   1      35.339  32.262  30.371  1.00  0.00     0.010 A 
ATOM     14  C   UNL A   1      36.585  32.518  29.792  1.00  0.00    -0.014 A 
BRANCH  14  15
ATOM     15  C   UNL A   1      37.818  31.901  30.320  1.00  0.00     0.031 A 
ATOM     16  C   UNL A   1      38.516  32.587  31.453  1.00  0.00     0.074 A 
ATOM     17  C   UNL A   1      38.263  30.719  29.850  1.00  0.00     0.049 A 
ATOM     18  N   UNL A   1      39.585  32.214  32.102  1.00  0.00    -0.248 NA
ATOM     19  C   UNL A   1      37.900  33.829  31.957  1.00  0.00     0.031 C 
ATOM     20  C   UNL A   1      37.578  29.888  28.863  1.00  0.00     0.029 A 
ATOM     21  N   UNL A   1      39.403  30.010  30.130  1.00  0.00    -0.354 N 
ATOM     22  C   UNL A   1      39.745  33.152  33.111  1.00  0.00     0.074 A 
ATOM     23  C   UNL A   1      38.712  34.147  32.951  1.00  0.00     0.031 C 
ATOM     24  C   UNL A   1      38.352  28.838  28.543  1.00  0.00     0.029 A 
ATOM     25  C   UNL A   1      39.573  28.903  29.331  1.00  0.00     0.049 A 
ATOM     26  H   UNL A   1      40.040  30.270  30.836  1.00  0.00     0.167 HD
ATOM     27  C   UNL A   1      40.658  33.156  34.107  1.00  0.00     0.031 A 
ATOM     28  C   UNL A   1      40.602  28.040  29.249  1.00  0.00     0.031 A 
ATOM     29  C   UNL A   1      41.697  32.175  34.233  1.00  0.00     0.049 A 
ATOM     30  C   UNL A   1      41.711  28.175  30.254  1.00  0.00     0.074 A 
ATOM     31  C   UNL A   1      42.686  32.087  35.193  1.00  0.00     0.029 A 
ATOM     32  N   UNL A   1      41.887  31.118  33.354  1.00  0.00    -0.354 N 
ATOM     33  N   UNL A   1      41.830  29.044  31.231  1.00  0.00    -0.248 NA
ATOM     34  C   UNL A   1      42.796  27.189  30.187  1.00  0.00     0.031 C 
ATOM     35  C   UNL A   1      43.521  31.019  34.852  1.00  0.00     0.029 A 
ATOM     36  C   UNL A   1      43.008  30.398  33.722  1.00  0.00     0.049 A 
ATOM     37  H   UNL A   1      41.310  30.913  32.584  1.00  0.00     0.167 HD
ATOM     38  C   UNL A   1      42.968  28.673  31.931  1.00  0.00     0.074 A 
ATOM     39  C   UNL A   1      43.502  27.501  31.264  1.00  0.00     0.031 C 
ATOM     40  C   UNL A   1      43.514  29.238  33.034  1.00  0.00     0.031 A 
BRANCH  27  41
ATOM     41  C   UNL A   1      40.581  34.280  35.098  1.00  0.00    -0.014 A 
ATOM     42  C   UNL A   1      41.248  35.495  34.877  1.00  0.00     0.009 A 
ATOM     43  C   UNL A   1      39.833  34.116  36.272  1.00  0.00     0.009 A 
ATOM     44  C   UNL A   1      41.188  36.516  35.829  1.00  0.00     0.001 A 
ATOM     45  C   UNL A   1      39.753  35.147  37.208  1.00  0.00     0.001 A 
ATOM     46  C   UNL A   1      40.437  36.343  36.990  1.00  0.00     0.000 A 
ENDBRANCH  27  41
BRANCH  28  47
ATOM     47  C   UNL A   1      40.638  26.982  28.202  1.00  0.00    -0.014 A 
ATOM     48  C   UNL A   1      41.213  27.218  26.944  1.00  0.00     0.009 A 
ATOM     49  C   UNL A   1      40.037  25.734  28.442  1.00  0.00     0.009 A 
ATOM     50  C   UNL A   1      41.141  26.250  25.935  1.00  0.00     0.001 A 
ATOM     51  C   UNL A   1      39.992  24.758  27.442  1.00  0.00     0.001 A 
ATOM     52  C   UNL A   1      40.531  25.023  26.186  1.00  0.00     0.000 A 
ENDBRANCH  28  47
BRANCH  40  53
ATOM     53  C   UNL A   1      44.730  28.569  33.608  1.00  0.00    -0.014 A 
ATOM     54  C   UNL A   1      44.618  27.530  34.541  1.00  0.00     0.009 A 
ATOM     55  C   UNL A   1      46.003  28.962  33.167  1.00  0.00     0.009 A 
ATOM     56  C   UNL A   1      45.764  26.918  35.051  1.00  0.00     0.001 A 
ATOM     57  C   UNL A   1      47.144  28.324  33.649  1.00  0.00     0.001 A 
ATOM     58  C   UNL A   1      47.024  27.310  34.598  1.00  0.00     0.000 A 
ENDBRANCH  40  53
ENDBRANCH  14  15
ENDBRANCH   7   9
ENDBRANCH   6   7
ENDBRANCH   5   6
ENDBRANCH   4   5
ENDBRANCH   3   4
ENDBRANCH   1   3
BRANCH   1  59
ATOM     59  C   UNL A   1      30.987  28.504  24.732  1.00  0.00     0.097 A 
ATOM     60  C   UNL A   1      31.079  27.364  25.540  1.00  0.00     0.040 A 
ATOM     61  C   UNL A   1      30.236  28.465  23.561  1.00  0.00     0.137 A 
ATOM     62  C   UNL A   1      30.300  26.239  25.228  1.00  0.00     0.083 A 
ATOM     63  C   UNL A   1      29.508  27.325  23.230  1.00  0.00     0.041 A 
ATOM     64  F   UNL A   1      30.170  29.527  22.747  1.00  0.00    -0.206 F 
ATOM     65  C   UNL A   1      29.480  26.238  24.099  1.00  0.00     0.025 A 
BRANCH  62  66
ATOM     66  S   UNL A   1      30.399  24.814  26.286  1.00  0.00     0.240 S 
ATOM     67  O   UNL A   1      31.674  24.864  26.962  1.00  0.00    -0.207 OA
ATOM     68  O   UNL A   1      29.155  24.738  27.014  1.00  0.00    -0.207 OA
BRANCH  66  69
ATOM     69  N   UNL A   1      30.390  23.490  25.260  1.00  0.00    -0.209 NA
ATOM     70  H   UNL A   1      30.389  23.875  24.315  1.00  0.00     0.141 HD
BRANCH  69  71
ATOM     71  C   UNL A   1      31.414  22.437  25.258  1.00  0.00     0.120 C 
BRANCH  71  72
ATOM     72  C   UNL A   1      32.522  22.578  24.218  1.00  0.00     0.131 C 
BRANCH  72  73
ATOM     73  N   UNL A   1      33.357  23.723  24.514  1.00  0.00    -0.369 N 
ATOM     74  H   UNL A   1      33.977  23.703  25.277  1.00  0.00     0.162 HD
BRANCH  73  75
ATOM     75  C   UNL A   1      33.274  24.841  23.716  1.00  0.00     0.125 A 
ATOM     76  C   UNL A   1      32.582  24.846  22.508  1.00  0.00     0.047 A 
ATOM     77  N   UNL A   1      33.949  25.917  24.157  1.00  0.00    -0.240 NA
ATOM     78  C   UNL A   1      32.611  25.983  21.709  1.00  0.00     0.005 A 
ATOM     79  C   UNL A   1      33.964  27.011  23.365  1.00  0.00     0.113 A 
ATOM     80  C   UNL A   1      33.325  27.090  22.140  1.00  0.00     0.020 A 
ENDBRANCH  73  75
ENDBRANCH  72  73
ENDBRANCH  71  72
ENDBRANCH  69  71
ENDBRANCH  66  69
ENDBRANCH  62  66
ENDBRANCH   1  59
TORSDOF 17
ENDMDL
MODEL 2
REMARK VINA RESULT:     -10.1      4.189      6.295
REMARK SMILES O=C(OCCOC(=O)c1cc(S(=O)(=O)NCCNc2ccccn2)ccc1F)c1ccc(-c2c3nc(c(-c4ccccc4)c4ccc([nH]4)c(-c4ccccc4)c4nc(c(-c5ccccc5)c5ccc2[nH]5)C=C4)C=C3)cc1
REMARK SMILES IDX 7 1 8 2 6 3 5 4 4 5 3 6 2 7 1 8 29 9 30 10 76 11 31 12 75 13
REMARK SMILES IDX 32 14 33 15 34 16 69 17 35 18 74 19 68 20 70 21 36 22 73 23
REMARK SMILES IDX 67 24 66 25 37 27 59 28 44 29 58 30 45 31 48 32 57 33 71 34
REMARK SMILES IDX 46 35 47 36 56 38 72 39 49 40 38 41 39 42 43 43 40 44 42 45
REMARK SMILES IDX 41 46 60 47 61 48 65 49 62 50 64 51 63 52 50 53 51 54 55 55
REMARK SMILES IDX 52 56 54 57 53 58 9 59 10 60 27 61 11 62 26 63 28 64 25 65
REMARK SMILES IDX 12 66 13 67 14 68 15 69 16 71 17 72 18 73 19 75 20 76 24 77
REMARK SMILES IDX 21 78 23 79 22 80
REMARK H PARENT 70 26 48 37 15 70 18 74
REMARK Flexibility Score: inf
ROOT
ATOM      1  C   UNL A   1      34.713  33.310  29.032  1.00  0.00     0.341 C 
ATOM      2  O   UNL A   1      35.761  33.811  28.671  1.00  0.00    -0.246 OA
ENDROOT
BRANCH   1   3
ATOM      3  O   UNL A   1      34.290  33.119  30.310  1.00  0.00    -0.458 OA
BRANCH   3   4
ATOM      4  C   UNL A   1      34.429  34.242  31.198  1.00  0.00     0.275 C 
BRANCH   4   5
ATOM      5  C   UNL A   1      34.295  33.874  32.680  1.00  0.00     0.275 C 
BRANCH   5   6
ATOM      6  O   UNL A   1      34.885  32.612  33.035  1.00  0.00    -0.458 OA
BRANCH   6   7
ATOM      7  C   UNL A   1      36.153  32.302  33.384  1.00  0.00     0.338 C 
ATOM      8  O   UNL A   1      36.532  32.611  34.514  1.00  0.00    -0.246 OA
BRANCH   7   9
ATOM      9  C   UNL A   1      37.175  31.716  32.451  1.00  0.00     0.060 A 
ATOM     10  C   UNL A   1      37.123  31.700  31.056  1.00  0.00     0.016 A 
ATOM     11  C   UNL A   1      38.324  31.178  33.057  1.00  0.00     0.016 A 
ATOM     12  C   UNL A   1      38.207  31.267  30.291  1.00  0.00     0.010 A 
ATOM     13  C   UNL A   1      39.424  30.764  32.299  1.00  0.00     0.010 A 
ATOM     14  C   UNL A   1      39.374  30.819  30.903  1.00  0.00    -0.014 A 
BRANCH  14  15
ATOM     15  C   UNL A   1      40.469  30.276  30.074  1.00  0.00     0.031 A 
ATOM     16  C   UNL A   1      41.630  31.172  29.773  1.00  0.00     0.074 A 
ATOM     17  C   UNL A   1      40.462  28.994  29.662  1.00  0.00     0.049 A 
ATOM     18  N   UNL A   1      42.718  30.905  29.103  1.00  0.00    -0.248 NA
ATOM     19  C   UNL A   1      41.585  32.531  30.345  1.00  0.00     0.031 C 
ATOM     20  C   UNL A   1      39.464  27.992  30.028  1.00  0.00     0.029 A 
ATOM     21  N   UNL A   1      41.315  28.309  28.835  1.00  0.00    -0.354 N 
ATOM     22  C   UNL A   1      43.501  32.045  29.208  1.00  0.00     0.074 A 
ATOM     23  C   UNL A   1      42.742  33.030  29.941  1.00  0.00     0.031 C 
ATOM     24  C   UNL A   1      39.699  26.853  29.355  1.00  0.00     0.029 A 
ATOM     25  C   UNL A   1      40.888  27.035  28.536  1.00  0.00     0.049 A 
ATOM     26  H   UNL A   1      42.154  28.692  28.489  1.00  0.00     0.167 HD
ATOM     27  C   UNL A   1      44.760  32.234  28.759  1.00  0.00     0.031 A 
ATOM     28  C   UNL A   1      41.403  26.121  27.694  1.00  0.00     0.031 A 
ATOM     29  C   UNL A   1      45.488  31.255  28.006  1.00  0.00     0.049 A 
ATOM     30  C   UNL A   1      42.726  26.429  27.050  1.00  0.00     0.074 A 
ATOM     31  C   UNL A   1      46.766  31.342  27.487  1.00  0.00     0.029 A 
ATOM     32  N   UNL A   1      44.988  30.010  27.650  1.00  0.00    -0.354 N 
ATOM     33  N   UNL A   1      43.476  27.497  27.190  1.00  0.00    -0.248 NA
ATOM     34  C   UNL A   1      43.301  25.396  26.181  1.00  0.00     0.031 C 
ATOM     35  C   UNL A   1      47.011  30.178  26.752  1.00  0.00     0.029 A 
ATOM     36  C   UNL A   1      45.915  29.336  26.876  1.00  0.00     0.049 A 
ATOM     37  H   UNL A   1      44.106  29.660  27.909  1.00  0.00     0.167 HD
ATOM     38  C   UNL A   1      44.637  27.239  26.478  1.00  0.00     0.074 A 
ATOM     39  C   UNL A   1      44.489  25.914  25.907  1.00  0.00     0.031 C 
ATOM     40  C   UNL A   1      45.734  28.019  26.322  1.00  0.00     0.031 A 
BRANCH  27  41
ATOM     41  C   UNL A   1      45.394  33.564  29.045  1.00  0.00    -0.014 A 
ATOM     42  C   UNL A   1      46.180  33.767  30.190  1.00  0.00     0.009 A 
ATOM     43  C   UNL A   1      45.197  34.629  28.155  1.00  0.00     0.009 A 
ATOM     44  C   UNL A   1      46.734  35.023  30.452  1.00  0.00     0.001 A 
ATOM     45  C   UNL A   1      45.773  35.874  28.405  1.00  0.00     0.001 A 
ATOM     46  C   UNL A   1      46.534  36.072  29.557  1.00  0.00     0.000 A 
ENDBRANCH  27  41
BRANCH  28  47
ATOM     47  C   UNL A   1      40.690  24.844  27.414  1.00  0.00    -0.014 A 
ATOM     48  C   UNL A   1      41.172  23.617  27.895  1.00  0.00     0.009 A 
ATOM     49  C   UNL A   1      39.542  24.844  26.604  1.00  0.00     0.009 A 
ATOM     50  C   UNL A   1      40.551  22.417  27.531  1.00  0.00     0.001 A 
ATOM     51  C   UNL A   1      38.906  23.645  26.266  1.00  0.00     0.001 A 
ATOM     52  C   UNL A   1      39.420  22.432  26.718  1.00  0.00     0.000 A 
ENDBRANCH  28  47
BRANCH  40  53
ATOM     53  C   UNL A   1      46.872  27.439  25.533  1.00  0.00    -0.014 A 
ATOM     54  C   UNL A   1      47.029  27.716  24.168  1.00  0.00     0.009 A 
ATOM     55  C   UNL A   1      47.825  26.639  26.185  1.00  0.00     0.009 A 
ATOM     56  C   UNL A   1      48.102  27.173  23.460  1.00  0.00     0.001 A 
ATOM     57  C   UNL A   1      48.915  26.130  25.484  1.00  0.00     0.001 A 
ATOM     58  C   UNL A   1      49.047  26.387  24.121  1.00  0.00     0.000 A 
ENDBRANCH  40  53
ENDBRANCH  14  15
ENDBRANCH   7   9
ENDBRANCH   6   7
ENDBRANCH   5   6
ENDBRANCH   4   5
ENDBRANCH   3   4
ENDBRANCH   1   3
BRANCH   1  59
ATOM     59  C   UNL A   1      33.764  32.654  28.118  1.00  0.00     0.097 A 
ATOM     60  C   UNL A   1      33.934  31.301  27.798  1.00  0.00     0.040 A 
ATOM     61  C   UNL A   1      32.673  33.354  27.612  1.00  0.00     0.137 A 
ATOM     62  C   UNL A   1      32.926  30.634  27.084  1.00  0.00     0.083 A 
ATOM     63  C   UNL A   1      31.704  32.697  26.858  1.00  0.00     0.041 A 
ATOM     64  F   UNL A   1      32.514  34.660  27.864  1.00  0.00    -0.206 F 
ATOM     65  C   UNL A   1      31.790  31.322  26.655  1.00  0.00     0.025 A 
BRANCH  62  66
ATOM     66  S   UNL A   1      33.139  28.907  26.721  1.00  0.00     0.240 S 
ATOM     67  O   UNL A   1      34.548  28.682  26.498  1.00  0.00    -0.207 OA
ATOM     68  O   UNL A   1      32.400  28.170  27.717  1.00  0.00    -0.207 OA
BRANCH  66  69
ATOM     69  N   UNL A   1      32.321  28.646  25.283  1.00  0.00    -0.209 NA
ATOM     70  H   UNL A   1      31.738  29.471  25.144  1.00  0.00     0.141 HD
BRANCH  69  71
ATOM     71  C   UNL A   1      32.977  28.401  23.991  1.00  0.00     0.120 C 
BRANCH  71  72
ATOM     72  C   UNL A   1      32.241  28.915  22.756  1.00  0.00     0.131 C 
BRANCH  72  73
ATOM     73  N   UNL A   1      30.826  28.625  22.847  1.00  0.00    -0.369 N 
ATOM     74  H   UNL A   1      30.516  27.708  23.024  1.00  0.00     0.162 HD
BRANCH  73  75
ATOM     75  C   UNL A   1      29.918  29.645  22.684  1.00  0.00     0.125 A 
ATOM     76  C   UNL A   1      29.507  30.455  23.738  1.00  0.00     0.047 A 
ATOM     77  N   UNL A   1      29.414  29.776  21.444  1.00  0.00    -0.240 NA
ATOM     78  C   UNL A   1      28.521  31.411  23.521  1.00  0.00     0.005 A 
ATOM     79  C   UNL A   1      28.458  30.712  21.254  1.00  0.00     0.113 A 
ATOM     80  C   UNL A   1      27.975  31.539  22.254  1.00  0.00     0.020 A 
ENDBRANCH  73  75
ENDBRANCH  72  73
ENDBRANCH  71  72
ENDBRANCH  69  71
ENDBRANCH  66  69
ENDBRANCH  62  66
ENDBRANCH   1  59
TORSDOF 17
ENDMDL
MODEL 3
REMARK VINA RESULT:     -10.0      1.484      6.289
REMARK SMILES O=C(OCCOC(=O)c1cc(S(=O)(=O)NCCNc2ccccn2)ccc1F)c1ccc(-c2c3nc(c(-c4ccccc4)c4ccc([nH]4)c(-c4ccccc4)c4nc(c(-c5ccccc5)c5ccc2[nH]5)C=C4)C=C3)cc1
REMARK SMILES IDX 7 1 8 2 6 3 5 4 4 5 3 6 2 7 1 8 29 9 30 10 76 11 31 12 75 13
REMARK SMILES IDX 32 14 33 15 34 16 69 17 35 18 74 19 68 20 70 21 36 22 73 23
REMARK SMILES IDX 67 24 66 25 37 27 59 28 44 29 58 30 45 31 48 32 57 33 71 34
REMARK SMILES IDX 46 35 47 36 56 38 72 39 49 40 38 41 39 42 43 43 40 44 42 45
REMARK SMILES IDX 41 46 60 47 61 48 65 49 62 50 64 51 63 52 50 53 51 54 55 55
REMARK SMILES IDX 52 56 54 57 53 58 9 59 10 60 27 61 11 62 26 63 28 64 25 65
REMARK SMILES IDX 12 66 13 67 14 68 15 69 16 71 17 72 18 73 19 75 20 76 24 77
REMARK SMILES IDX 21 78 23 79 22 80
REMARK H PARENT 70 26 48 37 15 70 18 74
REMARK Flexibility Score: inf
ROOT
ATOM      1  C   UNL A   1      31.881  29.136  25.968  1.00  0.00     0.341 C 
ATOM      2  O   UNL A   1      31.451  28.630  26.987  1.00  0.00    -0.246 OA
ENDROOT
BRANCH   1   3
ATOM      3  O   UNL A   1      32.514  30.333  25.849  1.00  0.00    -0.458 OA
BRANCH   3   4
ATOM      4  C   UNL A   1      32.638  31.107  27.055  1.00  0.00     0.275 C 
BRANCH   4   5
ATOM      5  C   UNL A   1      31.669  32.293  27.127  1.00  0.00     0.275 C 
BRANCH   5   6
ATOM      6  O   UNL A   1      32.307  33.576  27.232  1.00  0.00    -0.458 OA
BRANCH   6   7
ATOM      7  C   UNL A   1      33.067  34.101  28.218  1.00  0.00     0.338 C 
ATOM      8  O   UNL A   1      32.711  35.170  28.714  1.00  0.00    -0.246 OA
BRANCH   7   9
ATOM      9  C   UNL A   1      34.385  33.537  28.671  1.00  0.00     0.060 A 
ATOM     10  C   UNL A   1      35.629  33.726  28.068  1.00  0.00     0.016 A 
ATOM     11  C   UNL A   1      34.355  32.783  29.858  1.00  0.00     0.016 A 
ATOM     12  C   UNL A   1      36.807  33.280  28.668  1.00  0.00     0.010 A 
ATOM     13  C   UNL A   1      35.532  32.352  30.479  1.00  0.00     0.010 A 
ATOM     14  C   UNL A   1      36.772  32.612  29.888  1.00  0.00    -0.014 A 
BRANCH  14  15
ATOM     15  C   UNL A   1      38.021  32.066  30.456  1.00  0.00     0.031 A 
ATOM     16  C   UNL A   1      38.502  30.743  29.947  1.00  0.00     0.074 A 
ATOM     17  C   UNL A   1      38.747  32.767  31.349  1.00  0.00     0.049 A 
ATOM     18  N   UNL A   1      39.585  30.088  30.266  1.00  0.00    -0.248 NA
ATOM     19  C   UNL A   1      37.685  30.096  28.904  1.00  0.00     0.031 C 
ATOM     20  C   UNL A   1      38.457  34.128  31.794  1.00  0.00     0.029 A 
ATOM     21  N   UNL A   1      39.873  32.432  32.055  1.00  0.00    -0.354 N 
ATOM     22  C   UNL A   1      39.597  28.976  29.437  1.00  0.00     0.074 A 
ATOM     23  C   UNL A   1      38.386  29.004  28.651  1.00  0.00     0.031 C 
ATOM     24  C   UNL A   1      39.315  34.477  32.766  1.00  0.00     0.029 A 
ATOM     25  C   UNL A   1      40.240  33.375  32.988  1.00  0.00     0.049 A 
ATOM     26  H   UNL A   1      40.373  31.595  31.908  1.00  0.00     0.167 HD
ATOM     27  C   UNL A   1      40.559  28.035  29.319  1.00  0.00     0.031 A 
ATOM     28  C   UNL A   1      41.214  33.348  33.915  1.00  0.00     0.031 A 
ATOM     29  C   UNL A   1      41.742  28.007  30.129  1.00  0.00     0.049 A 
ATOM     30  C   UNL A   1      42.171  32.189  33.891  1.00  0.00     0.074 A 
ATOM     31  C   UNL A   1      42.779  27.093  30.108  1.00  0.00     0.029 A 
ATOM     32  N   UNL A   1      42.035  28.932  31.122  1.00  0.00    -0.354 N 
ATOM     33  N   UNL A   1      42.194  31.163  33.074  1.00  0.00    -0.248 NA
ATOM     34  C   UNL A   1      43.263  32.206  34.873  1.00  0.00     0.031 C 
ATOM     35  C   UNL A   1      43.662  27.423  31.140  1.00  0.00     0.029 A 
ATOM     36  C   UNL A   1      43.214  28.585  31.754  1.00  0.00     0.049 A 
ATOM     37  H   UNL A   1      41.484  29.717  31.343  1.00  0.00     0.167 HD
ATOM     38  C   UNL A   1      43.335  30.445  33.400  1.00  0.00     0.074 A 
ATOM     39  C   UNL A   1      43.974  31.155  34.492  1.00  0.00     0.031 C 
ATOM     40  C   UNL A   1      43.820  29.312  32.840  1.00  0.00     0.031 A 
BRANCH  27  41
ATOM     41  C   UNL A   1      40.334  26.952  28.306  1.00  0.00    -0.014 A 
ATOM     42  C   UNL A   1      40.860  27.046  27.007  1.00  0.00     0.009 A 
ATOM     43  C   UNL A   1      39.580  25.823  28.656  1.00  0.00     0.009 A 
ATOM     44  C   UNL A   1      40.611  26.039  26.071  1.00  0.00     0.001 A 
ATOM     45  C   UNL A   1      39.355  24.808  27.727  1.00  0.00     0.001 A 
ATOM     46  C   UNL A   1      39.864  24.920  26.434  1.00  0.00     0.000 A 
ENDBRANCH  27  41
BRANCH  28  47
ATOM     47  C   UNL A   1      41.344  34.432  34.928  1.00  0.00    -0.014 A 
ATOM     48  C   UNL A   1      40.654  34.378  36.149  1.00  0.00     0.009 A 
ATOM     49  C   UNL A   1      42.123  35.567  34.646  1.00  0.00     0.009 A 
ATOM     50  C   UNL A   1      40.702  35.455  37.041  1.00  0.00     0.001 A 
ATOM     51  C   UNL A   1      42.193  36.629  35.552  1.00  0.00     0.001 A 
ATOM     52  C   UNL A   1      41.470  36.579  36.742  1.00  0.00     0.000 A 
ENDBRANCH  28  47
BRANCH  40  53
ATOM     53  C   UNL A   1      45.124  28.794  33.375  1.00  0.00    -0.014 A 
ATOM     54  C   UNL A   1      46.350  29.228  32.852  1.00  0.00     0.009 A 
ATOM     55  C   UNL A   1      45.117  27.893  34.451  1.00  0.00     0.009 A 
ATOM     56  C   UNL A   1      47.548  28.739  33.375  1.00  0.00     0.001 A 
ATOM     57  C   UNL A   1      46.315  27.436  34.995  1.00  0.00     0.001 A 
ATOM     58  C   UNL A   1      47.529  27.851  34.451  1.00  0.00     0.000 A 
ENDBRANCH  40  53
ENDBRANCH  14  15
ENDBRANCH   7   9
ENDBRANCH   6   7
ENDBRANCH   5   6
ENDBRANCH   4   5
ENDBRANCH   3   4
ENDBRANCH   1   3
BRANCH   1  59
ATOM     59  C   UNL A   1      31.633  28.596  24.622  1.00  0.00     0.097 A 
ATOM     60  C   UNL A   1      32.378  27.500  24.168  1.00  0.00     0.040 A 
ATOM     61  C   UNL A   1      30.631  29.133  23.820  1.00  0.00     0.137 A 
ATOM     62  C   UNL A   1      32.009  26.872  22.968  1.00  0.00     0.083 A 
ATOM     63  C   UNL A   1      30.307  28.536  22.603  1.00  0.00     0.041 A 
ATOM     64  F   UNL A   1      29.937  30.211  24.210  1.00  0.00    -0.206 F 
ATOM     65  C   UNL A   1      30.945  27.363  22.210  1.00  0.00     0.025 A 
BRANCH  62  66
ATOM     66  S   UNL A   1      32.940  25.458  22.426  1.00  0.00     0.240 S 
ATOM     67  O   UNL A   1      33.343  25.702  21.061  1.00  0.00    -0.207 OA
ATOM     68  O   UNL A   1      33.901  25.160  23.462  1.00  0.00    -0.207 OA
BRANCH  66  69
ATOM     69  N   UNL A   1      31.862  24.176  22.445  1.00  0.00    -0.209 NA
ATOM     70  H   UNL A   1      32.431  23.341  22.584  1.00  0.00     0.141 HD
BRANCH  69  71
ATOM     71  C   UNL A   1      30.738  24.053  23.382  1.00  0.00     0.120 C 
BRANCH  71  72
ATOM     72  C   UNL A   1      31.103  23.985  24.863  1.00  0.00     0.131 C 
BRANCH  72  73
ATOM     73  N   UNL A   1      31.322  22.613  25.272  1.00  0.00    -0.369 N 
ATOM     74  H   UNL A   1      30.564  21.993  25.359  1.00  0.00     0.162 HD
BRANCH  73  75
ATOM     75  C   UNL A   1      32.603  22.187  25.537  1.00  0.00     0.125 A 
ATOM     76  C   UNL A   1      33.095  22.065  26.833  1.00  0.00     0.047 A 
ATOM     77  N   UNL A   1      33.365  21.941  24.457  1.00  0.00    -0.240 NA
ATOM     78  C   UNL A   1      34.426  21.712  27.028  1.00  0.00     0.005 A 
ATOM     79  C   UNL A   1      34.655  21.599  24.669  1.00  0.00     0.113 A 
ATOM     80  C   UNL A   1      35.229  21.481  25.923  1.00  0.00     0.020 A 
ENDBRANCH  73  75
ENDBRANCH  72  73
ENDBRANCH  71  72
ENDBRANCH  69  71
ENDBRANCH  66  69
ENDBRANCH  62  66
ENDBRANCH   1  59
TORSDOF 17
ENDMDL
