MODEL 1
REMARK VINA RESULT:     -11.0      0.000      0.000
REMARK SMILES Cc1ccc(C(=O)N2C[C@H](C(=O)OCCOC(=O)c3ccc(-c4c5nc(c(-c6ccccc6)c6ccc([nH]6)c(-c6ccccc6)c6nc(c(-c7ccccc7)c7ccc4[nH]7)C=C6)C=C5)cc3)Oc3ccccc32)o1
REMARK SMILES IDX 14 1 13 2 11 3 12 4 10 5 8 6 9 7 73 8 68 9 72 10 67 11 69 12
REMARK SMILES IDX 71 13 70 14 6 15 7 16 5 17 1 18 2 19 3 20 74 21 4 22 15 23
REMARK SMILES IDX 16 24 17 25 18 26 19 27 20 28 66 29 21 30 65 31 22 32 23 33
REMARK SMILES IDX 24 34 59 35 25 36 64 37 58 38 60 39 26 40 63 41 57 42 56 43
REMARK SMILES IDX 27 45 49 46 34 47 48 48 35 49 38 50 47 51 61 52 36 53 37 54
REMARK SMILES IDX 46 56 62 57 39 58 28 59 29 60 33 61 30 62 32 63 31 64 50 65
REMARK SMILES IDX 51 66 55 67 52 68 54 69 53 70 40 71 41 72 45 73 42 74 44 75
REMARK SMILES IDX 43 76
REMARK H PARENT 60 44 38 55
REMARK Flexibility Score: inf
ROOT
ATOM      1  C   UNL A   1      35.506  20.448  24.987  1.00  0.00     0.274 C 
ENDROOT
BRANCH   1   2
ATOM      2  O   UNL A   1      35.162  21.829  24.742  1.00  0.00    -0.459 OA
BRANCH   2   3
ATOM      3  C   UNL A   1      34.423  22.428  25.715  1.00  0.00     0.349 C 
ATOM      4  O   UNL A   1      34.397  22.059  26.886  1.00  0.00    -0.248 OA
BRANCH   3   5
ATOM      5  C   UNL A   1      33.603  23.607  25.220  1.00  0.00     0.302 C 
ATOM      6  N   UNL A   1      32.820  25.897  25.535  1.00  0.00    -0.298 N 
ATOM      7  C   UNL A   1      33.793  24.900  26.007  1.00  0.00     0.183 C 
ATOM      8  C   UNL A   1      32.518  25.843  24.135  1.00  0.00     0.087 A 
ATOM      9  C   UNL A   1      33.099  24.840  23.335  1.00  0.00     0.144 A 
ATOM     10  C   UNL A   1      31.702  26.798  23.514  1.00  0.00     0.030 A 
ATOM     11  O   UNL A   1      33.895  23.835  23.838  1.00  0.00    -0.475 OA
ATOM     12  C   UNL A   1      32.887  24.808  21.956  1.00  0.00     0.049 A 
ATOM     13  C   UNL A   1      31.474  26.753  22.136  1.00  0.00     0.002 A 
ATOM     14  C   UNL A   1      32.068  25.762  21.358  1.00  0.00     0.004 A 
BRANCH   6  15
ATOM     15  C   UNL A   1      32.089  26.699  26.422  1.00  0.00     0.294 C 
ATOM     16  O   UNL A   1      31.021  26.304  26.898  1.00  0.00    -0.265 OA
BRANCH  15  17
ATOM     17  C   UNL A   1      32.603  28.032  26.702  1.00  0.00     0.192 A 
ATOM     18  C   UNL A   1      35.600  29.726  27.698  1.00  0.00     0.087 C 
ATOM     19  C   UNL A   1      34.205  29.425  27.322  1.00  0.00     0.101 A 
ATOM     20  C   UNL A   1      33.046  30.165  27.285  1.00  0.00     0.046 A 
ATOM     21  O   UNL A   1      33.949  28.142  26.952  1.00  0.00    -0.456 OA
ATOM     22  C   UNL A   1      32.017  29.272  26.893  1.00  0.00     0.056 A 
ENDBRANCH  15  17
ENDBRANCH   6  15
ENDBRANCH   3   5
ENDBRANCH   2   3
ENDBRANCH   1   2
BRANCH   1  23
ATOM     23  C   UNL A   1      37.022  20.210  25.000  1.00  0.00     0.275 C 
BRANCH  23  24
ATOM     24  O   UNL A   1      37.768  21.407  25.295  1.00  0.00    -0.458 OA
BRANCH  24  25
ATOM     25  C   UNL A   1      38.934  21.196  25.947  1.00  0.00     0.338 C 
ATOM     26  O   UNL A   1      39.595  20.170  25.947  1.00  0.00    -0.246 OA
BRANCH  25  27
ATOM     27  C   UNL A   1      39.421  22.437  26.567  1.00  0.00     0.060 A 
ATOM     28  C   UNL A   1      38.852  23.641  26.142  1.00  0.00     0.016 A 
ATOM     29  C   UNL A   1      40.502  22.438  27.452  1.00  0.00     0.016 A 
ATOM     30  C   UNL A   1      39.375  24.854  26.573  1.00  0.00     0.010 A 
ATOM     31  C   UNL A   1      41.031  23.660  27.882  1.00  0.00     0.010 A 
ATOM     32  C   UNL A   1      40.486  24.873  27.424  1.00  0.00    -0.014 A 
BRANCH  32  33
ATOM     33  C   UNL A   1      41.132  26.169  27.736  1.00  0.00     0.031 A 
ATOM     34  C   UNL A   1      42.475  26.489  27.140  1.00  0.00     0.074 A 
ATOM     35  C   UNL A   1      40.496  27.078  28.495  1.00  0.00     0.049 A 
ATOM     36  N   UNL A   1      43.219  27.552  27.301  1.00  0.00    -0.248 NA
ATOM     37  C   UNL A   1      43.053  25.477  26.241  1.00  0.00     0.031 C 
ATOM     38  C   UNL A   1      39.166  26.912  29.080  1.00  0.00     0.029 A 
ATOM     39  N   UNL A   1      40.886  28.331  28.892  1.00  0.00    -0.354 N 
ATOM     40  C   UNL A   1      44.360  27.333  26.541  1.00  0.00     0.074 A 
ATOM     41  C   UNL A   1      44.218  26.028  25.930  1.00  0.00     0.031 C 
ATOM     42  C   UNL A   1      38.845  28.027  29.756  1.00  0.00     0.029 A 
ATOM     43  C   UNL A   1      39.960  28.969  29.680  1.00  0.00     0.049 A 
ATOM     44  H   UNL A   1      41.747  28.736  28.638  1.00  0.00     0.167 HD
ATOM     45  C   UNL A   1      45.428  28.144  26.363  1.00  0.00     0.031 A 
ATOM     46  C   UNL A   1      40.011  30.171  30.283  1.00  0.00     0.031 A 
ATOM     47  C   UNL A   1      45.570  29.445  26.961  1.00  0.00     0.049 A 
ATOM     48  C   UNL A   1      41.232  31.032  30.112  1.00  0.00     0.074 A 
ATOM     49  C   UNL A   1      46.620  30.339  26.845  1.00  0.00     0.029 A 
ATOM     50  N   UNL A   1      44.626  30.038  27.783  1.00  0.00    -0.354 N 
ATOM     51  N   UNL A   1      42.312  30.804  29.406  1.00  0.00    -0.248 NA
ATOM     52  C   UNL A   1      41.237  32.319  30.823  1.00  0.00     0.031 C 
ATOM     53  C   UNL A   1      46.327  31.461  27.629  1.00  0.00     0.029 A 
ATOM     54  C   UNL A   1      45.075  31.281  28.196  1.00  0.00     0.049 A 
ATOM     55  H   UNL A   1      43.764  29.636  28.037  1.00  0.00     0.167 HD
ATOM     56  C   UNL A   1      43.116  31.925  29.570  1.00  0.00     0.074 A 
ATOM     57  C   UNL A   1      42.393  32.838  30.432  1.00  0.00     0.031 C 
ATOM     58  C   UNL A   1      44.342  32.176  29.052  1.00  0.00     0.031 A 
BRANCH  45  59
ATOM     59  C   UNL A   1      46.549  27.625  25.510  1.00  0.00    -0.014 A 
ATOM     60  C   UNL A   1      46.663  27.981  24.158  1.00  0.00     0.009 A 
ATOM     61  C   UNL A   1      47.518  26.782  26.077  1.00  0.00     0.009 A 
ATOM     62  C   UNL A   1      47.709  27.478  23.382  1.00  0.00     0.001 A 
ATOM     63  C   UNL A   1      48.575  26.298  25.304  1.00  0.00     0.001 A 
ATOM     64  C   UNL A   1      48.666  26.640  23.956  1.00  0.00     0.000 A 
ENDBRANCH  45  59
BRANCH  46  65
ATOM     65  C   UNL A   1      38.876  30.627  31.124  1.00  0.00    -0.014 A 
ATOM     66  C   UNL A   1      38.826  30.313  32.490  1.00  0.00     0.009 A 
ATOM     67  C   UNL A   1      37.831  31.373  30.558  1.00  0.00     0.009 A 
ATOM     68  C   UNL A   1      37.741  30.721  33.269  1.00  0.00     0.001 A 
ATOM     69  C   UNL A   1      36.759  31.799  31.344  1.00  0.00     0.001 A 
ATOM     70  C   UNL A   1      36.711  31.466  32.696  1.00  0.00     0.000 A 
ENDBRANCH  46  65
BRANCH  58  71
ATOM     71  C   UNL A   1      44.963  33.503  29.377  1.00  0.00    -0.014 A 
ATOM     72  C   UNL A   1      45.802  33.659  30.491  1.00  0.00     0.009 A 
ATOM     73  C   UNL A   1      44.733  34.602  28.536  1.00  0.00     0.009 A 
ATOM     74  C   UNL A   1      46.376  34.899  30.773  1.00  0.00     0.001 A 
ATOM     75  C   UNL A   1      45.326  35.837  28.808  1.00  0.00     0.001 A 
ATOM     76  C   UNL A   1      46.140  35.985  29.929  1.00  0.00     0.000 A 
ENDBRANCH  58  71
ENDBRANCH  32  33
ENDBRANCH  25  27
ENDBRANCH  24  25
ENDBRANCH  23  24
ENDBRANCH   1  23
TORSDOF 13
ENDMDL
MODEL 2
REMARK VINA RESULT:     -11.0      4.077      9.099
REMARK SMILES Cc1ccc(C(=O)N2C[C@H](C(=O)OCCOC(=O)c3ccc(-c4c5nc(c(-c6ccccc6)c6ccc([nH]6)c(-c6ccccc6)c6nc(c(-c7ccccc7)c7ccc4[nH]7)C=C6)C=C5)cc3)Oc3ccccc32)o1
REMARK SMILES IDX 14 1 13 2 11 3 12 4 10 5 8 6 9 7 73 8 68 9 72 10 67 11 69 12
REMARK SMILES IDX 71 13 70 14 6 15 7 16 5 17 1 18 2 19 3 20 74 21 4 22 15 23
REMARK SMILES IDX 16 24 17 25 18 26 19 27 20 28 66 29 21 30 65 31 22 32 23 33
REMARK SMILES IDX 24 34 59 35 25 36 64 37 58 38 60 39 26 40 63 41 57 42 56 43
REMARK SMILES IDX 27 45 49 46 34 47 48 48 35 49 38 50 47 51 61 52 36 53 37 54
REMARK SMILES IDX 46 56 62 57 39 58 28 59 29 60 33 61 30 62 32 63 31 64 50 65
REMARK SMILES IDX 51 66 55 67 52 68 54 69 53 70 40 71 41 72 45 73 42 74 44 75
REMARK SMILES IDX 43 76
REMARK H PARENT 60 44 38 55
REMARK Flexibility Score: inf
ROOT
ATOM      1  C   UNL A   1      31.244  31.731  26.198  1.00  0.00     0.274 C 
ENDROOT
BRANCH   1   2
ATOM      2  O   UNL A   1      31.674  30.572  26.944  1.00  0.00    -0.459 OA
BRANCH   2   3
ATOM      3  C   UNL A   1      32.610  29.798  26.332  1.00  0.00     0.349 C 
ATOM      4  O   UNL A   1      33.809  30.066  26.292  1.00  0.00    -0.248 OA
BRANCH   3   5
ATOM      5  C   UNL A   1      32.038  28.555  25.671  1.00  0.00     0.302 C 
ATOM      6  N   UNL A   1      31.521  27.310  23.636  1.00  0.00    -0.298 N 
ATOM      7  C   UNL A   1      32.271  28.459  24.166  1.00  0.00     0.183 C 
ATOM      8  C   UNL A   1      31.435  26.179  24.511  1.00  0.00     0.087 A 
ATOM      9  C   UNL A   1      31.997  26.251  25.802  1.00  0.00     0.144 A 
ATOM     10  C   UNL A   1      30.857  24.968  24.107  1.00  0.00     0.030 A 
ATOM     11  O   UNL A   1      32.568  27.394  26.317  1.00  0.00    -0.475 OA
ATOM     12  C   UNL A   1      31.998  25.141  26.648  1.00  0.00     0.049 A 
ATOM     13  C   UNL A   1      30.841  23.863  24.962  1.00  0.00     0.002 A 
ATOM     14  C   UNL A   1      31.414  23.949  26.229  1.00  0.00     0.004 A 
BRANCH   6  15
ATOM     15  C   UNL A   1      30.772  27.393  22.455  1.00  0.00     0.294 C 
ATOM     16  O   UNL A   1      31.148  26.824  21.427  1.00  0.00    -0.265 OA
BRANCH  15  17
ATOM     17  C   UNL A   1      29.578  28.227  22.473  1.00  0.00     0.192 A 
ATOM     18  C   UNL A   1      28.303  31.322  21.193  1.00  0.00     0.087 C 
ATOM     19  C   UNL A   1      28.451  30.048  21.925  1.00  0.00     0.101 A 
ATOM     20  C   UNL A   1      27.693  29.398  22.871  1.00  0.00     0.046 A 
ATOM     21  O   UNL A   1      29.580  29.337  21.665  1.00  0.00    -0.456 OA
ATOM     22  C   UNL A   1      28.417  28.232  23.228  1.00  0.00     0.056 A 
ENDBRANCH  15  17
ENDBRANCH   6  15
ENDBRANCH   3   5
ENDBRANCH   2   3
ENDBRANCH   1   2
BRANCH   1  23
ATOM     23  C   UNL A   1      31.523  33.046  26.939  1.00  0.00     0.275 C 
BRANCH  23  24
ATOM     24  O   UNL A   1      32.912  33.425  26.892  1.00  0.00    -0.458 OA
BRANCH  24  25
ATOM     25  C   UNL A   1      33.421  33.842  28.074  1.00  0.00     0.338 C 
ATOM     26  O   UNL A   1      32.910  34.633  28.850  1.00  0.00    -0.246 OA
BRANCH  25  27
ATOM     27  C   UNL A   1      34.645  33.098  28.410  1.00  0.00     0.060 A 
ATOM     28  C   UNL A   1      34.497  31.819  28.955  1.00  0.00     0.016 A 
ATOM     29  C   UNL A   1      35.908  33.688  28.317  1.00  0.00     0.016 A 
ATOM     30  C   UNL A   1      35.604  31.131  29.438  1.00  0.00     0.010 A 
ATOM     31  C   UNL A   1      37.021  32.996  28.807  1.00  0.00     0.010 A 
ATOM     32  C   UNL A   1      36.870  31.726  29.393  1.00  0.00    -0.014 A 
BRANCH  32  33
ATOM     33  C   UNL A   1      38.006  31.052  30.063  1.00  0.00     0.031 A 
ATOM     34  C   UNL A   1      38.256  31.299  31.524  1.00  0.00     0.074 A 
ATOM     35  C   UNL A   1      38.770  30.177  29.386  1.00  0.00     0.049 A 
ATOM     36  N   UNL A   1      39.204  30.827  32.293  1.00  0.00    -0.248 NA
ATOM     37  C   UNL A   1      37.311  32.194  32.210  1.00  0.00     0.031 C 
ATOM     38  C   UNL A   1      38.591  29.805  27.982  1.00  0.00     0.029 A 
ATOM     39  N   UNL A   1      39.845  29.433  29.798  1.00  0.00    -0.354 N 
ATOM     40  C   UNL A   1      38.982  31.380  33.547  1.00  0.00     0.074 A 
ATOM     41  C   UNL A   1      37.820  32.235  33.434  1.00  0.00     0.031 C 
ATOM     42  C   UNL A   1      39.521  28.895  27.651  1.00  0.00     0.029 A 
ATOM     43  C   UNL A   1      40.380  28.647  28.808  1.00  0.00     0.049 A 
ATOM     44  H   UNL A   1      40.201  29.459  30.716  1.00  0.00     0.167 HD
ATOM     45  C   UNL A   1      39.680  31.191  34.691  1.00  0.00     0.031 A 
ATOM     46  C   UNL A   1      41.450  27.831  28.827  1.00  0.00     0.031 A 
ATOM     47  C   UNL A   1      40.831  30.336  34.810  1.00  0.00     0.049 A 
ATOM     48  C   UNL A   1      42.240  27.677  30.097  1.00  0.00     0.074 A 
ATOM     49  C   UNL A   1      41.609  30.086  35.927  1.00  0.00     0.029 A 
ATOM     50  N   UNL A   1      41.363  29.587  33.773  1.00  0.00    -0.354 N 
ATOM     51  N   UNL A   1      42.030  28.221  31.271  1.00  0.00    -0.248 NA
ATOM     52  C   UNL A   1      43.414  26.795  30.042  1.00  0.00     0.031 C 
ATOM     53  C   UNL A   1      42.636  29.211  35.556  1.00  0.00     0.029 A 
ATOM     54  C   UNL A   1      42.469  28.884  34.219  1.00  0.00     0.049 A 
ATOM     55  H   UNL A   1      41.008  29.558  32.856  1.00  0.00     0.167 HD
ATOM     56  C   UNL A   1      43.032  27.731  32.099  1.00  0.00     0.074 A 
ATOM     57  C   UNL A   1      43.841  26.837  31.297  1.00  0.00     0.031 C 
ATOM     58  C   UNL A   1      43.261  27.998  33.407  1.00  0.00     0.031 A 
BRANCH  45  59
ATOM     59  C   UNL A   1      39.234  31.958  35.901  1.00  0.00    -0.014 A 
ATOM     60  C   UNL A   1      38.230  31.466  36.749  1.00  0.00     0.009 A 
ATOM     61  C   UNL A   1      39.842  33.186  36.207  1.00  0.00     0.009 A 
ATOM     62  C   UNL A   1      37.825  32.202  37.864  1.00  0.00     0.001 A 
ATOM     63  C   UNL A   1      39.450  33.909  37.335  1.00  0.00     0.001 A 
ATOM     64  C   UNL A   1      38.437  33.421  38.158  1.00  0.00     0.000 A 
ENDBRANCH  45  59
BRANCH  46  65
ATOM     65  C   UNL A   1      41.851  27.105  27.595  1.00  0.00    -0.014 A 
ATOM     66  C   UNL A   1      42.717  27.698  26.665  1.00  0.00     0.009 A 
ATOM     67  C   UNL A   1      41.358  25.815  27.341  1.00  0.00     0.009 A 
ATOM     68  C   UNL A   1      43.067  27.021  25.495  1.00  0.00     0.001 A 
ATOM     69  C   UNL A   1      41.729  25.132  26.182  1.00  0.00     0.001 A 
ATOM     70  C   UNL A   1      42.575  25.738  25.256  1.00  0.00     0.000 A 
ENDBRANCH  46  65
BRANCH  58  71
ATOM     71  C   UNL A   1      44.412  27.289  34.059  1.00  0.00    -0.014 A 
ATOM     72  C   UNL A   1      45.697  27.852  34.073  1.00  0.00     0.009 A 
ATOM     73  C   UNL A   1      44.197  26.059  34.698  1.00  0.00     0.009 A 
ATOM     74  C   UNL A   1      46.754  27.179  34.690  1.00  0.00     0.001 A 
ATOM     75  C   UNL A   1      45.251  25.399  35.333  1.00  0.00     0.001 A 
ATOM     76  C   UNL A   1      46.529  25.957  35.322  1.00  0.00     0.000 A 
ENDBRANCH  58  71
ENDBRANCH  32  33
ENDBRANCH  25  27
ENDBRANCH  24  25
ENDBRANCH  23  24
ENDBRANCH   1  23
TORSDOF 13
ENDMDL
MODEL 3
REMARK VINA RESULT:     -11.0      3.102      7.828
REMARK SMILES Cc1ccc(C(=O)N2C[C@H](C(=O)OCCOC(=O)c3ccc(-c4c5nc(c(-c6ccccc6)c6ccc([nH]6)c(-c6ccccc6)c6nc(c(-c7ccccc7)c7ccc4[nH]7)C=C6)C=C5)cc3)Oc3ccccc32)o1
REMARK SMILES IDX 14 1 13 2 11 3 12 4 10 5 8 6 9 7 73 8 68 9 72 10 67 11 69 12
REMARK SMILES IDX 71 13 70 14 6 15 7 16 5 17 1 18 2 19 3 20 74 21 4 22 15 23
REMARK SMILES IDX 16 24 17 25 18 26 19 27 20 28 66 29 21 30 65 31 22 32 23 33
REMARK SMILES IDX 24 34 59 35 25 36 64 37 58 38 60 39 26 40 63 41 57 42 56 43
REMARK SMILES IDX 27 45 49 46 34 47 48 48 35 49 38 50 47 51 61 52 36 53 37 54
REMARK SMILES IDX 46 56 62 57 39 58 28 59 29 60 33 61 30 62 32 63 31 64 50 65
REMARK SMILES IDX 51 66 55 67 52 68 54 69 53 70 40 71 41 72 45 73 42 74 44 75
REMARK SMILES IDX 43 76
REMARK H PARENT 60 44 38 55
REMARK Flexibility Score: inf
ROOT
ATOM      1  C   UNL A   1      33.861  28.303  24.293  1.00  0.00     0.274 C 
ENDROOT
BRANCH   1   2
ATOM      2  O   UNL A   1      33.034  27.139  24.078  1.00  0.00    -0.459 OA
BRANCH   2   3
ATOM      3  C   UNL A   1      33.474  26.278  23.121  1.00  0.00     0.349 C 
ATOM      4  O   UNL A   1      33.768  26.612  21.976  1.00  0.00    -0.248 OA
BRANCH   3   5
ATOM      5  C   UNL A   1      33.560  24.836  23.590  1.00  0.00     0.302 C 
ATOM      6  N   UNL A   1      33.817  23.234  25.414  1.00  0.00    -0.298 N 
ATOM      7  C   UNL A   1      33.554  24.648  25.104  1.00  0.00     0.183 C 
ATOM      8  C   UNL A   1      33.270  22.292  24.484  1.00  0.00     0.087 A 
ATOM      9  C   UNL A   1      32.593  22.755  23.338  1.00  0.00     0.144 A 
ATOM     10  C   UNL A   1      33.333  20.909  24.703  1.00  0.00     0.030 A 
ATOM     11  O   UNL A   1      32.489  24.088  23.006  1.00  0.00    -0.475 OA
ATOM     12  C   UNL A   1      31.981  21.864  22.455  1.00  0.00     0.049 A 
ATOM     13  C   UNL A   1      32.738  20.017  23.807  1.00  0.00     0.002 A 
ATOM     14  C   UNL A   1      32.060  20.493  22.687  1.00  0.00     0.004 A 
BRANCH   6  15
ATOM     15  C   UNL A   1      34.709  22.849  26.423  1.00  0.00     0.294 C 
ATOM     16  O   UNL A   1      34.330  22.730  27.591  1.00  0.00    -0.265 OA
BRANCH  15  17
ATOM     17  C   UNL A   1      36.105  22.660  26.050  1.00  0.00     0.192 A 
ATOM     18  C   UNL A   1      38.426  20.106  25.085  1.00  0.00     0.087 C 
ATOM     19  C   UNL A   1      37.825  21.399  25.469  1.00  0.00     0.101 A 
ATOM     20  C   UNL A   1      38.338  22.647  25.736  1.00  0.00     0.046 A 
ATOM     21  O   UNL A   1      36.476  21.405  25.637  1.00  0.00    -0.456 OA
ATOM     22  C   UNL A   1      37.236  23.456  26.114  1.00  0.00     0.056 A 
ENDBRANCH  15  17
ENDBRANCH   6  15
ENDBRANCH   3   5
ENDBRANCH   2   3
ENDBRANCH   1   2
BRANCH   1  23
ATOM     23  C   UNL A   1      33.295  29.240  25.368  1.00  0.00     0.275 C 
BRANCH  23  24
ATOM     24  O   UNL A   1      33.886  29.020  26.663  1.00  0.00    -0.458 OA
BRANCH  24  25
ATOM     25  C   UNL A   1      34.301  30.144  27.290  1.00  0.00     0.338 C 
ATOM     26  O   UNL A   1      33.651  31.159  27.475  1.00  0.00    -0.246 OA
BRANCH  25  27
ATOM     27  C   UNL A   1      35.634  29.953  27.881  1.00  0.00     0.060 A 
ATOM     28  C   UNL A   1      36.740  30.031  27.028  1.00  0.00     0.016 A 
ATOM     29  C   UNL A   1      35.795  29.577  29.217  1.00  0.00     0.016 A 
ATOM     30  C   UNL A   1      38.008  29.706  27.494  1.00  0.00     0.010 A 
ATOM     31  C   UNL A   1      37.073  29.246  29.684  1.00  0.00     0.010 A 
ATOM     32  C   UNL A   1      38.180  29.284  28.817  1.00  0.00    -0.014 A 
BRANCH  32  33
ATOM     33  C   UNL A   1      39.506  28.781  29.246  1.00  0.00     0.031 A 
ATOM     34  C   UNL A   1      40.332  29.596  30.202  1.00  0.00     0.074 A 
ATOM     35  C   UNL A   1      39.940  27.578  28.835  1.00  0.00     0.049 A 
ATOM     36  N   UNL A   1      41.522  29.349  30.684  1.00  0.00    -0.248 NA
ATOM     37  C   UNL A   1      39.735  30.854  30.678  1.00  0.00     0.031 C 
ATOM     38  C   UNL A   1      39.205  26.666  27.958  1.00  0.00     0.029 A 
ATOM     39  N   UNL A   1      41.106  26.911  29.115  1.00  0.00    -0.354 N 
ATOM     40  C   UNL A   1      41.827  30.426  31.506  1.00  0.00     0.074 A 
ATOM     41  C   UNL A   1      40.703  31.337  31.445  1.00  0.00     0.031 C 
ATOM     42  C   UNL A   1      39.935  25.553  27.778  1.00  0.00     0.029 A 
ATOM     43  C   UNL A   1      41.200  25.689  28.497  1.00  0.00     0.049 A 
ATOM     44  H   UNL A   1      41.808  27.274  29.701  1.00  0.00     0.167 HD
ATOM     45  C   UNL A   1      42.939  30.638  32.248  1.00  0.00     0.031 A 
ATOM     46  C   UNL A   1      42.199  24.788  28.499  1.00  0.00     0.031 A 
ATOM     47  C   UNL A   1      44.054  29.732  32.317  1.00  0.00     0.049 A 
ATOM     48  C   UNL A   1      43.447  25.070  29.290  1.00  0.00     0.074 A 
ATOM     49  C   UNL A   1      45.229  29.863  33.036  1.00  0.00     0.029 A 
ATOM     50  N   UNL A   1      44.126  28.522  31.646  1.00  0.00    -0.354 N 
ATOM     51  N   UNL A   1      43.730  26.102  30.047  1.00  0.00    -0.248 NA
ATOM     52  C   UNL A   1      44.513  24.060  29.225  1.00  0.00     0.031 C 
ATOM     53  C   UNL A   1      46.030  28.746  32.771  1.00  0.00     0.029 A 
ATOM     54  C   UNL A   1      45.333  27.902  31.922  1.00  0.00     0.049 A 
ATOM     55  H   UNL A   1      43.425  28.157  31.060  1.00  0.00     0.167 HD
ATOM     56  C   UNL A   1      44.995  25.855  30.566  1.00  0.00     0.074 A 
ATOM     57  C   UNL A   1      45.419  24.571  30.047  1.00  0.00     0.031 C 
ATOM     58  C   UNL A   1      45.738  26.624  31.397  1.00  0.00     0.031 A 
BRANCH  45  59
ATOM     59  C   UNL A   1      43.016  31.924  33.016  1.00  0.00    -0.014 A 
ATOM     60  C   UNL A   1      43.538  33.090  32.437  1.00  0.00     0.009 A 
ATOM     61  C   UNL A   1      42.541  31.974  34.336  1.00  0.00     0.009 A 
ATOM     62  C   UNL A   1      43.610  34.274  33.175  1.00  0.00     0.001 A 
ATOM     63  C   UNL A   1      42.593  33.164  35.064  1.00  0.00     0.001 A 
ATOM     64  C   UNL A   1      43.135  34.310  34.486  1.00  0.00     0.000 A 
ENDBRANCH  45  59
BRANCH  46  65
ATOM     65  C   UNL A   1      42.071  23.537  27.710  1.00  0.00    -0.014 A 
ATOM     66  C   UNL A   1      42.474  23.493  26.367  1.00  0.00     0.009 A 
ATOM     67  C   UNL A   1      41.534  22.381  28.298  1.00  0.00     0.009 A 
ATOM     68  C   UNL A   1      42.324  22.321  25.623  1.00  0.00     0.001 A 
ATOM     69  C   UNL A   1      41.408  21.204  27.559  1.00  0.00     0.001 A 
ATOM     70  C   UNL A   1      41.794  21.177  26.220  1.00  0.00     0.000 A 
ENDBRANCH  46  65
BRANCH  58  71
ATOM     71  C   UNL A   1      47.070  26.080  31.823  1.00  0.00    -0.014 A 
ATOM     72  C   UNL A   1      48.213  26.255  31.028  1.00  0.00     0.009 A 
ATOM     73  C   UNL A   1      47.188  25.416  33.053  1.00  0.00     0.009 A 
ATOM     74  C   UNL A   1      49.445  25.748  31.445  1.00  0.00     0.001 A 
ATOM     75  C   UNL A   1      48.426  24.929  33.477  1.00  0.00     0.001 A 
ATOM     76  C   UNL A   1      49.551  25.089  32.670  1.00  0.00     0.000 A 
ENDBRANCH  58  71
ENDBRANCH  32  33
ENDBRANCH  25  27
ENDBRANCH  24  25
ENDBRANCH  23  24
ENDBRANCH   1  23
TORSDOF 13
ENDMDL
