MODEL 1
REMARK VINA RESULT:     -12.4      0.000      0.000
REMARK SMILES O=C(OCCOC(=O)c1cc(-c2ccccc2)nc(Nc2nc3ccccc3s2)n1)c1ccc(-c2c3nc(c(-c4ccccc4)c4ccc([nH]4)c(-c4ccccc4)c4nc(c(-c5ccccc5)c5ccc2[nH]5)C=C4)C=C3)cc1
REMARK SMILES IDX 4 1 3 2 2 3 1 4 31 5 32 6 78 7 33 8 77 9 34 10 35 11 36 12
REMARK SMILES IDX 71 13 37 14 76 15 70 16 72 17 38 18 75 19 69 20 68 21 39 23
REMARK SMILES IDX 61 24 46 25 60 26 47 27 50 28 59 29 73 30 48 31 49 32 58 34
REMARK SMILES IDX 74 35 51 36 40 37 41 38 45 39 42 40 44 41 43 42 62 43 63 44
REMARK SMILES IDX 67 45 64 46 66 47 65 48 52 49 53 50 57 51 54 52 56 53 55 54
REMARK SMILES IDX 5 55 6 56 7 57 8 58 9 59 10 60 30 61 11 62 19 63 18 64 12 65
REMARK SMILES IDX 13 66 17 67 14 68 16 69 15 70 20 71 21 73 22 74 29 75 23 76
REMARK SMILES IDX 28 77 24 78 27 79 25 80 26 81
REMARK H PARENT 72 22 50 33 20 72
REMARK Flexibility Score: inf
ROOT
ATOM      1  C   UNL A   1      38.043  20.718  24.938  1.00  0.00     0.275 C 
ENDROOT
BRANCH   1   2
ATOM      2  O   UNL A   1      38.849  19.884  25.780  1.00  0.00    -0.458 OA
BRANCH   2   3
ATOM      3  C   UNL A   1      40.183  19.877  25.989  1.00  0.00     0.338 C 
ATOM      4  O   UNL A   1      40.798  18.877  25.634  1.00  0.00    -0.246 OA
BRANCH   3   5
ATOM      5  C   UNL A   1      40.968  21.009  26.590  1.00  0.00     0.060 A 
ATOM      6  C   UNL A   1      41.146  21.266  27.951  1.00  0.00     0.016 A 
ATOM      7  C   UNL A   1      41.565  21.905  25.687  1.00  0.00     0.016 A 
ATOM      8  C   UNL A   1      41.900  22.361  28.400  1.00  0.00     0.010 A 
ATOM      9  C   UNL A   1      42.350  22.978  26.121  1.00  0.00     0.010 A 
ATOM     10  C   UNL A   1      42.491  23.237  27.490  1.00  0.00    -0.014 A 
BRANCH  10  11
ATOM     11  C   UNL A   1      43.016  24.557  27.923  1.00  0.00     0.031 A 
ATOM     12  C   UNL A   1      42.003  25.640  28.179  1.00  0.00     0.074 A 
ATOM     13  C   UNL A   1      44.331  24.799  28.095  1.00  0.00     0.049 A 
ATOM     14  N   UNL A   1      42.185  26.915  28.405  1.00  0.00    -0.248 NA
ATOM     15  C   UNL A   1      40.587  25.224  28.187  1.00  0.00     0.031 C 
ATOM     16  C   UNL A   1      45.404  23.812  27.996  1.00  0.00     0.029 A 
ATOM     17  N   UNL A   1      44.996  25.982  28.336  1.00  0.00    -0.354 N 
ATOM     18  C   UNL A   1      40.914  27.436  28.612  1.00  0.00     0.074 A 
ATOM     19  C   UNL A   1      39.965  26.375  28.376  1.00  0.00     0.031 C 
ATOM     20  C   UNL A   1      46.590  24.442  28.067  1.00  0.00     0.029 A 
ATOM     21  C   UNL A   1      46.363  25.878  28.177  1.00  0.00     0.049 A 
ATOM     22  H   UNL A   1      44.541  26.816  28.596  1.00  0.00     0.167 HD
ATOM     23  C   UNL A   1      40.570  28.678  29.023  1.00  0.00     0.031 A 
ATOM     24  C   UNL A   1      47.293  26.847  28.044  1.00  0.00     0.031 A 
ATOM     25  C   UNL A   1      41.526  29.725  29.234  1.00  0.00     0.049 A 
ATOM     26  C   UNL A   1      46.860  28.274  28.227  1.00  0.00     0.074 A 
ATOM     27  C   UNL A   1      41.328  30.999  29.732  1.00  0.00     0.029 A 
ATOM     28  N   UNL A   1      42.874  29.612  28.929  1.00  0.00    -0.354 N 
ATOM     29  N   UNL A   1      45.657  28.761  28.398  1.00  0.00    -0.248 NA
ATOM     30  C   UNL A   1      47.933  29.281  28.245  1.00  0.00     0.031 C 
ATOM     31  C   UNL A   1      42.549  31.678  29.670  1.00  0.00     0.029 A 
ATOM     32  C   UNL A   1      43.516  30.806  29.193  1.00  0.00     0.049 A 
ATOM     33  H   UNL A   1      43.308  28.801  28.578  1.00  0.00     0.167 HD
ATOM     34  C   UNL A   1      45.833  30.120  28.621  1.00  0.00     0.074 A 
ATOM     35  C   UNL A   1      47.249  30.391  28.476  1.00  0.00     0.031 C 
ATOM     36  C   UNL A   1      44.919  31.046  28.993  1.00  0.00     0.031 A 
BRANCH  23  37
ATOM     37  C   UNL A   1      39.109  28.939  29.261  1.00  0.00    -0.014 A 
ATOM     38  C   UNL A   1      38.276  29.406  28.229  1.00  0.00     0.009 A 
ATOM     39  C   UNL A   1      38.562  28.750  30.537  1.00  0.00     0.009 A 
ATOM     40  C   UNL A   1      36.945  29.742  28.486  1.00  0.00     0.001 A 
ATOM     41  C   UNL A   1      37.221  29.053  30.784  1.00  0.00     0.001 A 
ATOM     42  C   UNL A   1      36.419  29.565  29.764  1.00  0.00     0.000 A 
ENDBRANCH  23  37
BRANCH  24  43
ATOM     43  C   UNL A   1      48.697  26.564  27.630  1.00  0.00    -0.014 A 
ATOM     44  C   UNL A   1      49.096  26.522  26.289  1.00  0.00     0.009 A 
ATOM     45  C   UNL A   1      49.655  26.277  28.623  1.00  0.00     0.009 A 
ATOM     46  C   UNL A   1      50.430  26.246  25.956  1.00  0.00     0.001 A 
ATOM     47  C   UNL A   1      50.985  26.004  28.289  1.00  0.00     0.001 A 
ATOM     48  C   UNL A   1      51.374  26.002  26.954  1.00  0.00     0.000 A 
ENDBRANCH  24  43
BRANCH  36  49
ATOM     49  C   UNL A   1      45.451  32.395  29.361  1.00  0.00    -0.014 A 
ATOM     50  C   UNL A   1      45.441  33.469  28.463  1.00  0.00     0.009 A 
ATOM     51  C   UNL A   1      45.957  32.580  30.659  1.00  0.00     0.009 A 
ATOM     52  C   UNL A   1      45.951  34.706  28.856  1.00  0.00     0.001 A 
ATOM     53  C   UNL A   1      46.439  33.824  31.055  1.00  0.00     0.001 A 
ATOM     54  C   UNL A   1      46.442  34.885  30.151  1.00  0.00     0.000 A 
ENDBRANCH  36  49
ENDBRANCH  10  11
ENDBRANCH   3   5
ENDBRANCH   2   3
ENDBRANCH   1   2
BRANCH   1  55
ATOM     55  C   UNL A   1      37.323  21.860  25.654  1.00  0.00     0.275 C 
BRANCH  55  56
ATOM     56  O   UNL A   1      37.336  23.086  24.908  1.00  0.00    -0.457 OA
BRANCH  56  57
ATOM     57  C   UNL A   1      36.431  23.172  23.883  1.00  0.00     0.357 C 
ATOM     58  O   UNL A   1      36.662  23.016  22.706  1.00  0.00    -0.244 OA
BRANCH  57  59
ATOM     59  C   UNL A   1      35.093  23.480  24.462  1.00  0.00     0.154 A 
ATOM     60  C   UNL A   1      34.878  24.701  25.039  1.00  0.00     0.065 A 
ATOM     61  N   UNL A   1      34.156  22.516  24.378  1.00  0.00    -0.206 NA
ATOM     62  C   UNL A   1      33.598  24.916  25.486  1.00  0.00     0.077 A 
ATOM     63  C   UNL A   1      32.962  22.769  24.928  1.00  0.00     0.230 A 
ATOM     64  N   UNL A   1      32.642  23.961  25.438  1.00  0.00    -0.213 NA
BRANCH  62  65
ATOM     65  C   UNL A   1      33.165  26.213  26.011  1.00  0.00     0.000 A 
ATOM     66  C   UNL A   1      34.064  27.287  26.089  1.00  0.00     0.010 A 
ATOM     67  C   UNL A   1      31.849  26.410  26.471  1.00  0.00     0.010 A 
ATOM     68  C   UNL A   1      33.665  28.506  26.626  1.00  0.00     0.001 A 
ATOM     69  C   UNL A   1      31.442  27.635  26.986  1.00  0.00     0.001 A 
ATOM     70  C   UNL A   1      32.355  28.674  27.072  1.00  0.00     0.000 A 
ENDBRANCH  62  65
BRANCH  63  71
ATOM     71  N   UNL A   1      31.955  21.812  24.960  1.00  0.00    -0.300 N 
ATOM     72  H   UNL A   1      31.050  22.100  25.220  1.00  0.00     0.172 HD
BRANCH  71  73
ATOM     73  C   UNL A   1      32.146  20.520  24.654  1.00  0.00     0.190 A 
ATOM     74  N   UNL A   1      32.191  19.547  25.531  1.00  0.00    -0.220 NA
ATOM     75  S   UNL A   1      32.329  20.004  23.022  1.00  0.00    -0.097 S 
ATOM     76  C   UNL A   1      32.709  18.407  24.959  1.00  0.00     0.084 A 
ATOM     77  C   UNL A   1      32.915  18.482  23.583  1.00  0.00     0.056 A 
ATOM     78  C   UNL A   1      33.079  17.234  25.642  1.00  0.00     0.030 A 
ATOM     79  C   UNL A   1      33.523  17.434  22.873  1.00  0.00     0.021 A 
ATOM     80  C   UNL A   1      33.741  16.213  24.961  1.00  0.00     0.002 A 
ATOM     81  C   UNL A   1      33.965  16.318  23.593  1.00  0.00     0.002 A 
ENDBRANCH  71  73
ENDBRANCH  63  71
ENDBRANCH  57  59
ENDBRANCH  56  57
ENDBRANCH  55  56
ENDBRANCH   1  55
TORSDOF 14
ENDMDL
MODEL 2
REMARK VINA RESULT:     -12.4      5.031      9.787
REMARK SMILES O=C(OCCOC(=O)c1cc(-c2ccccc2)nc(Nc2nc3ccccc3s2)n1)c1ccc(-c2c3nc(c(-c4ccccc4)c4ccc([nH]4)c(-c4ccccc4)c4nc(c(-c5ccccc5)c5ccc2[nH]5)C=C4)C=C3)cc1
REMARK SMILES IDX 4 1 3 2 2 3 1 4 31 5 32 6 78 7 33 8 77 9 34 10 35 11 36 12
REMARK SMILES IDX 71 13 37 14 76 15 70 16 72 17 38 18 75 19 69 20 68 21 39 23
REMARK SMILES IDX 61 24 46 25 60 26 47 27 50 28 59 29 73 30 48 31 49 32 58 34
REMARK SMILES IDX 74 35 51 36 40 37 41 38 45 39 42 40 44 41 43 42 62 43 63 44
REMARK SMILES IDX 67 45 64 46 66 47 65 48 52 49 53 50 57 51 54 52 56 53 55 54
REMARK SMILES IDX 5 55 6 56 7 57 8 58 9 59 10 60 30 61 11 62 19 63 18 64 12 65
REMARK SMILES IDX 13 66 17 67 14 68 16 69 15 70 20 71 21 73 22 74 29 75 23 76
REMARK SMILES IDX 28 77 24 78 27 79 25 80 26 81
REMARK H PARENT 72 22 50 33 20 72
REMARK Flexibility Score: inf
ROOT
ATOM      1  C   UNL A   1      32.209  30.824  27.019  1.00  0.00     0.275 C 
ENDROOT
BRANCH   1   2
ATOM      2  O   UNL A   1      32.364  32.234  26.812  1.00  0.00    -0.458 OA
BRANCH   2   3
ATOM      3  C   UNL A   1      32.897  33.184  27.610  1.00  0.00     0.338 C 
ATOM      4  O   UNL A   1      32.231  34.198  27.791  1.00  0.00    -0.246 OA
BRANCH   3   5
ATOM      5  C   UNL A   1      34.221  33.076  28.312  1.00  0.00     0.060 A 
ATOM      6  C   UNL A   1      35.446  33.567  27.855  1.00  0.00     0.016 A 
ATOM      7  C   UNL A   1      34.223  32.399  29.543  1.00  0.00     0.016 A 
ATOM      8  C   UNL A   1      36.626  33.404  28.598  1.00  0.00     0.010 A 
ATOM      9  C   UNL A   1      35.385  32.264  30.310  1.00  0.00     0.010 A 
ATOM     10  C   UNL A   1      36.609  32.734  29.820  1.00  0.00    -0.014 A 
BRANCH  10  11
ATOM     11  C   UNL A   1      37.867  32.277  30.464  1.00  0.00     0.031 A 
ATOM     12  C   UNL A   1      38.444  30.975  29.976  1.00  0.00     0.074 A 
ATOM     13  C   UNL A   1      38.487  32.976  31.435  1.00  0.00     0.049 A 
ATOM     14  N   UNL A   1      39.428  30.265  30.462  1.00  0.00    -0.248 NA
ATOM     15  C   UNL A   1      37.829  30.398  28.765  1.00  0.00     0.031 C 
ATOM     16  C   UNL A   1      38.101  34.301  31.915  1.00  0.00     0.029 A 
ATOM     17  N   UNL A   1      39.554  32.634  32.237  1.00  0.00    -0.354 N 
ATOM     18  C   UNL A   1      39.563  29.185  29.600  1.00  0.00     0.074 A 
ATOM     19  C   UNL A   1      38.499  29.267  28.629  1.00  0.00     0.031 C 
ATOM     20  C   UNL A   1      38.845  34.612  32.992  1.00  0.00     0.029 A 
ATOM     21  C   UNL A   1      39.730  33.496  33.301  1.00  0.00     0.049 A 
ATOM     22  H   UNL A   1      40.131  31.855  32.068  1.00  0.00     0.167 HD
ATOM     23  C   UNL A   1      40.529  28.238  29.582  1.00  0.00     0.031 A 
ATOM     24  C   UNL A   1      40.456  33.339  34.428  1.00  0.00     0.031 A 
ATOM     25  C   UNL A   1      41.568  28.161  30.566  1.00  0.00     0.049 A 
ATOM     26  C   UNL A   1      41.337  32.127  34.541  1.00  0.00     0.074 A 
ATOM     27  C   UNL A   1      42.658  27.312  30.620  1.00  0.00     0.029 A 
ATOM     28  N   UNL A   1      41.624  28.966  31.694  1.00  0.00    -0.354 N 
ATOM     29  N   UNL A   1      41.443  31.100  33.735  1.00  0.00    -0.248 NA
ATOM     30  C   UNL A   1      42.238  32.084  35.703  1.00  0.00     0.031 C 
ATOM     31  C   UNL A   1      43.339  27.565  31.815  1.00  0.00     0.029 A 
ATOM     32  C   UNL A   1      42.709  28.611  32.470  1.00  0.00     0.049 A 
ATOM     33  H   UNL A   1      40.986  29.686  31.907  1.00  0.00     0.167 HD
ATOM     34  C   UNL A   1      42.473  30.327  34.251  1.00  0.00     0.074 A 
ATOM     35  C   UNL A   1      42.899  30.958  35.484  1.00  0.00     0.031 C 
ATOM     36  C   UNL A   1      43.071  29.237  33.713  1.00  0.00     0.031 A 
BRANCH  23  37
ATOM     37  C   UNL A   1      40.482  27.235  28.463  1.00  0.00    -0.014 A 
ATOM     38  C   UNL A   1      41.143  27.475  27.244  1.00  0.00     0.009 A 
ATOM     39  C   UNL A   1      39.745  26.053  28.610  1.00  0.00     0.009 A 
ATOM     40  C   UNL A   1      41.009  26.585  26.177  1.00  0.00     0.001 A 
ATOM     41  C   UNL A   1      39.641  25.147  27.552  1.00  0.00     0.001 A 
ATOM     42  C   UNL A   1      40.257  25.422  26.332  1.00  0.00     0.000 A 
ENDBRANCH  23  37
BRANCH  24  43
ATOM     43  C   UNL A   1      40.342  34.261  35.594  1.00  0.00    -0.014 A 
ATOM     44  C   UNL A   1      39.421  34.062  36.629  1.00  0.00     0.009 A 
ATOM     45  C   UNL A   1      41.158  35.409  35.636  1.00  0.00     0.009 A 
ATOM     46  C   UNL A   1      39.353  34.964  37.700  1.00  0.00     0.001 A 
ATOM     47  C   UNL A   1      41.090  36.307  36.705  1.00  0.00     0.001 A 
ATOM     48  C   UNL A   1      40.196  36.076  37.744  1.00  0.00     0.000 A 
ENDBRANCH  24  43
BRANCH  36  49
ATOM     49  C   UNL A   1      44.299  28.741  34.408  1.00  0.00    -0.014 A 
ATOM     50  C   UNL A   1      45.569  29.267  34.143  1.00  0.00     0.009 A 
ATOM     51  C   UNL A   1      44.156  27.725  35.369  1.00  0.00     0.009 A 
ATOM     52  C   UNL A   1      46.682  28.768  34.818  1.00  0.00     0.001 A 
ATOM     53  C   UNL A   1      45.266  27.250  36.060  1.00  0.00     0.001 A 
ATOM     54  C   UNL A   1      46.530  27.767  35.780  1.00  0.00     0.000 A 
ENDBRANCH  36  49
ENDBRANCH  10  11
ENDBRANCH   3   5
ENDBRANCH   2   3
ENDBRANCH   1   2
BRANCH   1  55
ATOM     55  C   UNL A   1      33.427  29.977  26.650  1.00  0.00     0.275 C 
BRANCH  55  56
ATOM     56  O   UNL A   1      33.506  28.755  27.397  1.00  0.00    -0.457 OA
BRANCH  56  57
ATOM     57  C   UNL A   1      32.426  27.918  27.293  1.00  0.00     0.357 C 
ATOM     58  O   UNL A   1      31.472  27.882  28.035  1.00  0.00    -0.244 OA
BRANCH  57  59
ATOM     59  C   UNL A   1      32.613  27.056  26.091  1.00  0.00     0.154 A 
ATOM     60  C   UNL A   1      33.740  26.288  25.987  1.00  0.00     0.065 A 
ATOM     61  N   UNL A   1      31.639  27.085  25.162  1.00  0.00    -0.206 NA
ATOM     62  C   UNL A   1      33.793  25.480  24.879  1.00  0.00     0.077 A 
ATOM     63  C   UNL A   1      31.815  26.343  24.063  1.00  0.00     0.230 A 
ATOM     64  N   UNL A   1      32.844  25.505  23.917  1.00  0.00    -0.213 NA
BRANCH  62  65
ATOM     65  C   UNL A   1      34.866  24.504  24.680  1.00  0.00     0.000 A 
ATOM     66  C   UNL A   1      35.799  24.251  25.696  1.00  0.00     0.010 A 
ATOM     67  C   UNL A   1      35.004  23.813  23.461  1.00  0.00     0.010 A 
ATOM     68  C   UNL A   1      36.841  23.354  25.493  1.00  0.00     0.001 A 
ATOM     69  C   UNL A   1      36.032  22.898  23.264  1.00  0.00     0.001 A 
ATOM     70  C   UNL A   1      36.954  22.682  24.277  1.00  0.00     0.000 A 
ENDBRANCH  62  65
BRANCH  63  71
ATOM     71  N   UNL A   1      30.903  26.363  23.014  1.00  0.00    -0.300 N 
ATOM     72  H   UNL A   1      30.868  25.583  22.415  1.00  0.00     0.172 HD
BRANCH  71  73
ATOM     73  C   UNL A   1      30.067  27.385  22.774  1.00  0.00     0.190 A 
ATOM     74  N   UNL A   1      30.333  28.393  21.981  1.00  0.00    -0.220 NA
ATOM     75  S   UNL A   1      28.504  27.449  23.492  1.00  0.00    -0.097 S 
ATOM     76  C   UNL A   1      29.436  29.417  22.185  1.00  0.00     0.084 A 
ATOM     77  C   UNL A   1      28.380  29.109  23.041  1.00  0.00     0.056 A 
ATOM     78  C   UNL A   1      29.528  30.716  21.653  1.00  0.00     0.030 A 
ATOM     79  C   UNL A   1      27.436  30.077  23.420  1.00  0.00     0.021 A 
ATOM     80  C   UNL A   1      28.634  31.702  22.070  1.00  0.00     0.002 A 
ATOM     81  C   UNL A   1      27.606  31.385  22.949  1.00  0.00     0.002 A 
ENDBRANCH  71  73
ENDBRANCH  63  71
ENDBRANCH  57  59
ENDBRANCH  56  57
ENDBRANCH  55  56
ENDBRANCH   1  55
TORSDOF 14
ENDMDL
MODEL 3
REMARK VINA RESULT:     -12.1      1.127      1.585
REMARK SMILES O=C(OCCOC(=O)c1cc(-c2ccccc2)nc(Nc2nc3ccccc3s2)n1)c1ccc(-c2c3nc(c(-c4ccccc4)c4ccc([nH]4)c(-c4ccccc4)c4nc(c(-c5ccccc5)c5ccc2[nH]5)C=C4)C=C3)cc1
REMARK SMILES IDX 4 1 3 2 2 3 1 4 31 5 32 6 78 7 33 8 77 9 34 10 35 11 36 12
REMARK SMILES IDX 71 13 37 14 76 15 70 16 72 17 38 18 75 19 69 20 68 21 39 23
REMARK SMILES IDX 61 24 46 25 60 26 47 27 50 28 59 29 73 30 48 31 49 32 58 34
REMARK SMILES IDX 74 35 51 36 40 37 41 38 45 39 42 40 44 41 43 42 62 43 63 44
REMARK SMILES IDX 67 45 64 46 66 47 65 48 52 49 53 50 57 51 54 52 56 53 55 54
REMARK SMILES IDX 5 55 6 56 7 57 8 58 9 59 10 60 30 61 11 62 19 63 18 64 12 65
REMARK SMILES IDX 13 66 17 67 14 68 16 69 15 70 20 71 21 73 22 74 29 75 23 76
REMARK SMILES IDX 28 77 24 78 27 79 25 80 26 81
REMARK H PARENT 72 22 50 33 20 72
REMARK Flexibility Score: inf
ROOT
ATOM      1  C   UNL A   1      38.589  19.328  25.703  1.00  0.00     0.275 C 
ENDROOT
BRANCH   1   2
ATOM      2  O   UNL A   1      39.947  18.924  25.486  1.00  0.00    -0.458 OA
BRANCH   2   3
ATOM      3  C   UNL A   1      41.094  19.366  26.045  1.00  0.00     0.338 C 
ATOM      4  O   UNL A   1      41.992  18.546  26.201  1.00  0.00    -0.246 OA
BRANCH   3   5
ATOM      5  C   UNL A   1      41.359  20.787  26.457  1.00  0.00     0.060 A 
ATOM      6  C   UNL A   1      41.911  21.794  25.661  1.00  0.00     0.016 A 
ATOM      7  C   UNL A   1      41.031  21.126  27.780  1.00  0.00     0.016 A 
ATOM      8  C   UNL A   1      42.118  23.091  26.156  1.00  0.00     0.010 A 
ATOM      9  C   UNL A   1      41.196  22.425  28.273  1.00  0.00     0.010 A 
ATOM     10  C   UNL A   1      41.781  23.411  27.470  1.00  0.00    -0.014 A 
BRANCH  10  11
ATOM     11  C   UNL A   1      42.271  24.661  28.106  1.00  0.00     0.031 A 
ATOM     12  C   UNL A   1      41.294  25.802  28.203  1.00  0.00     0.074 A 
ATOM     13  C   UNL A   1      43.523  24.794  28.588  1.00  0.00     0.049 A 
ATOM     14  N   UNL A   1      41.494  27.044  28.557  1.00  0.00    -0.248 NA
ATOM     15  C   UNL A   1      39.892  25.493  27.861  1.00  0.00     0.031 C 
ATOM     16  C   UNL A   1      44.528  23.736  28.662  1.00  0.00     0.029 A 
ATOM     17  N   UNL A   1      44.184  25.908  29.058  1.00  0.00    -0.354 N 
ATOM     18  C   UNL A   1      40.244  27.646  28.508  1.00  0.00     0.074 A 
ATOM     19  C   UNL A   1      39.313  26.675  27.987  1.00  0.00     0.031 C 
ATOM     20  C   UNL A   1      45.702  24.270  29.045  1.00  0.00     0.029 A 
ATOM     21  C   UNL A   1      45.542  25.710  29.204  1.00  0.00     0.049 A 
ATOM     22  H   UNL A   1      43.733  26.757  29.267  1.00  0.00     0.167 HD
ATOM     23  C   UNL A   1      39.890  28.886  28.919  1.00  0.00     0.031 A 
ATOM     24  C   UNL A   1      46.534  26.612  29.357  1.00  0.00     0.031 A 
ATOM     25  C   UNL A   1      40.833  29.844  29.416  1.00  0.00     0.049 A 
ATOM     26  C   UNL A   1      46.159  28.056  29.539  1.00  0.00     0.074 A 
ATOM     27  C   UNL A   1      40.603  31.099  29.948  1.00  0.00     0.029 A 
ATOM     28  N   UNL A   1      42.205  29.648  29.417  1.00  0.00    -0.354 N 
ATOM     29  N   UNL A   1      44.979  28.622  29.469  1.00  0.00    -0.248 NA
ATOM     30  C   UNL A   1      47.257  28.976  29.873  1.00  0.00     0.031 C 
ATOM     31  C   UNL A   1      41.844  31.686  30.213  1.00  0.00     0.029 A 
ATOM     32  C   UNL A   1      42.840  30.773  29.905  1.00  0.00     0.049 A 
ATOM     33  H   UNL A   1      42.659  28.827  29.116  1.00  0.00     0.167 HD
ATOM     34  C   UNL A   1      45.181  29.948  29.824  1.00  0.00     0.074 A 
ATOM     35  C   UNL A   1      46.606  30.119  30.023  1.00  0.00     0.031 C 
ATOM     36  C   UNL A   1      44.263  30.918  30.046  1.00  0.00     0.031 A 
BRANCH  23  37
ATOM     37  C   UNL A   1      38.432  29.242  28.839  1.00  0.00    -0.014 A 
ATOM     38  C   UNL A   1      37.879  29.784  27.665  1.00  0.00     0.009 A 
ATOM     39  C   UNL A   1      37.605  29.068  29.957  1.00  0.00     0.009 A 
ATOM     40  C   UNL A   1      36.549  30.206  27.635  1.00  0.00     0.001 A 
ATOM     41  C   UNL A   1      36.265  29.457  29.913  1.00  0.00     0.001 A 
ATOM     42  C   UNL A   1      35.743  30.042  28.760  1.00  0.00     0.000 A 
ENDBRANCH  23  37
BRANCH  24  43
ATOM     43  C   UNL A   1      47.976  26.249  29.251  1.00  0.00    -0.014 A 
ATOM     44  C   UNL A   1      48.671  26.254  28.036  1.00  0.00     0.009 A 
ATOM     45  C   UNL A   1      48.660  25.834  30.411  1.00  0.00     0.009 A 
ATOM     46  C   UNL A   1      50.027  25.898  27.994  1.00  0.00     0.001 A 
ATOM     47  C   UNL A   1      50.012  25.481  30.368  1.00  0.00     0.001 A 
ATOM     48  C   UNL A   1      50.699  25.526  29.160  1.00  0.00     0.000 A 
ENDBRANCH  24  43
BRANCH  36  49
ATOM     49  C   UNL A   1      44.776  32.200  30.622  1.00  0.00    -0.014 A 
ATOM     50  C   UNL A   1      44.942  32.383  32.000  1.00  0.00     0.009 A 
ATOM     51  C   UNL A   1      45.116  33.238  29.739  1.00  0.00     0.009 A 
ATOM     52  C   UNL A   1      45.422  33.598  32.486  1.00  0.00     0.001 A 
ATOM     53  C   UNL A   1      45.622  34.440  30.227  1.00  0.00     0.001 A 
ATOM     54  C   UNL A   1      45.768  34.621  31.601  1.00  0.00     0.000 A 
ENDBRANCH  36  49
ENDBRANCH  10  11
ENDBRANCH   3   5
ENDBRANCH   2   3
ENDBRANCH   1   2
BRANCH   1  55
ATOM     55  C   UNL A   1      38.167  20.601  24.970  1.00  0.00     0.275 C 
BRANCH  55  56
ATOM     56  O   UNL A   1      36.982  21.196  25.520  1.00  0.00    -0.457 OA
BRANCH  56  57
ATOM     57  C   UNL A   1      37.038  22.547  25.742  1.00  0.00     0.357 C 
ATOM     58  O   UNL A   1      38.026  23.189  26.013  1.00  0.00    -0.244 OA
BRANCH  57  59
ATOM     59  C   UNL A   1      35.667  23.107  25.579  1.00  0.00     0.154 A 
ATOM     60  C   UNL A   1      35.499  24.464  25.535  1.00  0.00     0.065 A 
ATOM     61  N   UNL A   1      34.655  22.224  25.479  1.00  0.00    -0.206 NA
ATOM     62  C   UNL A   1      34.210  24.884  25.317  1.00  0.00     0.077 A 
ATOM     63  C   UNL A   1      33.416  22.717  25.369  1.00  0.00     0.230 A 
ATOM     64  N   UNL A   1      33.170  24.023  25.238  1.00  0.00    -0.213 NA
BRANCH  62  65
ATOM     65  C   UNL A   1      33.877  26.295  25.115  1.00  0.00     0.000 A 
ATOM     66  C   UNL A   1      33.654  26.798  23.825  1.00  0.00     0.010 A 
ATOM     67  C   UNL A   1      33.795  27.187  26.202  1.00  0.00     0.010 A 
ATOM     68  C   UNL A   1      33.377  28.146  23.629  1.00  0.00     0.001 A 
ATOM     69  C   UNL A   1      33.495  28.530  26.010  1.00  0.00     0.001 A 
ATOM     70  C   UNL A   1      33.300  29.007  24.723  1.00  0.00     0.000 A 
ENDBRANCH  62  65
BRANCH  63  71
ATOM     71  N   UNL A   1      32.300  21.890  25.336  1.00  0.00    -0.300 N 
ATOM     72  H   UNL A   1      31.434  22.268  25.612  1.00  0.00     0.172 HD
BRANCH  71  73
ATOM     73  C   UNL A   1      32.337  20.606  24.948  1.00  0.00     0.190 A 
ATOM     74  N   UNL A   1      32.286  19.581  25.762  1.00  0.00    -0.220 NA
ATOM     75  S   UNL A   1      32.428  20.178  23.283  1.00  0.00    -0.097 S 
ATOM     76  C   UNL A   1      32.660  18.428  25.110  1.00  0.00     0.084 A 
ATOM     77  C   UNL A   1      32.847  18.566  23.735  1.00  0.00     0.056 A 
ATOM     78  C   UNL A   1      32.907  17.180  25.711  1.00  0.00     0.030 A 
ATOM     79  C   UNL A   1      33.318  17.504  22.948  1.00  0.00     0.021 A 
ATOM     80  C   UNL A   1      33.435  16.136  24.951  1.00  0.00     0.002 A 
ATOM     81  C   UNL A   1      33.644  16.301  23.588  1.00  0.00     0.002 A 
ENDBRANCH  71  73
ENDBRANCH  63  71
ENDBRANCH  57  59
ENDBRANCH  56  57
ENDBRANCH  55  56
ENDBRANCH   1  55
TORSDOF 14
ENDMDL
