MODEL 1
REMARK VINA RESULT:     -11.1      0.000      0.000
REMARK SMILES C[C@@H](C(=O)OCCOC(=O)c1ccc(-c2c3nc(c(-c4ccccc4)c4ccc([nH]4)c(-c4ccccc4)c4nc(c(-c5ccccc5)c5ccc2[nH]5)C=C4)C=C3)cc1)c1ccc(C[C@@H]2CCC[C@@H]2O)cc1F
REMARK SMILES IDX 6 1 5 2 3 3 4 4 2 5 1 6 59 7 60 8 71 9 61 10 70 11 72 12
REMARK SMILES IDX 62 13 63 14 64 15 65 16 68 17 66 18 67 19 69 20 7 22 8 23
REMARK SMILES IDX 9 24 10 25 11 26 12 27 58 28 13 29 57 30 14 31 15 32 16 33
REMARK SMILES IDX 51 34 17 35 56 36 50 37 52 38 18 39 55 40 49 41 48 42 19 44
REMARK SMILES IDX 41 45 26 46 40 47 27 48 30 49 39 50 53 51 28 52 29 53 38 55
REMARK SMILES IDX 54 56 31 57 20 58 21 59 25 60 22 61 24 62 23 63 42 64 43 65
REMARK SMILES IDX 47 66 44 67 46 68 45 69 32 70 33 71 37 72 34 73 36 74 35 75
REMARK H PARENT 69 21 52 43 30 54
REMARK Flexibility Score: inf
ROOT
ATOM      1  C   UNL A   1      31.483  28.731  25.307  1.00  0.00     0.274 C 
ENDROOT
BRANCH   1   2
ATOM      2  O   UNL A   1      30.858  28.414  24.045  1.00  0.00    -0.462 OA
BRANCH   2   3
ATOM      3  C   UNL A   1      31.618  27.770  23.117  1.00  0.00     0.313 C 
ATOM      4  O   UNL A   1      31.171  27.257  22.097  1.00  0.00    -0.252 OA
BRANCH   3   5
ATOM      5  C   UNL A   1      33.107  27.775  23.482  1.00  0.00     0.129 C 
ATOM      6  C   UNL A   1      34.006  28.436  22.434  1.00  0.00     0.025 C 
BRANCH   5   7
ATOM      7  C   UNL A   1      33.612  26.379  23.800  1.00  0.00     0.002 A 
ATOM      8  C   UNL A   1      33.659  25.380  22.822  1.00  0.00     0.008 A 
ATOM      9  C   UNL A   1      34.065  26.057  25.080  1.00  0.00     0.127 A 
ATOM     10  C   UNL A   1      34.081  24.085  23.137  1.00  0.00     0.004 A 
ATOM     11  C   UNL A   1      34.485  24.765  25.403  1.00  0.00     0.043 A 
ATOM     12  F   UNL A   1      34.116  27.005  26.027  1.00  0.00    -0.207 F 
ATOM     13  C   UNL A   1      34.468  23.751  24.438  1.00  0.00    -0.045 A 
BRANCH  13  14
ATOM     14  C   UNL A   1      34.891  22.344  24.783  1.00  0.00     0.041 C 
BRANCH  14  15
ATOM     15  C   UNL A   1      33.870  21.390  25.444  1.00  0.00     0.022 C 
ATOM     16  C   UNL A   1      32.431  21.522  24.940  1.00  0.00     0.007 C 
ATOM     17  C   UNL A   1      33.702  21.466  26.962  1.00  0.00     0.117 C 
ATOM     18  C   UNL A   1      31.659  22.317  25.995  1.00  0.00     0.003 C 
ATOM     19  C   UNL A   1      32.598  22.489  27.184  1.00  0.00     0.032 C 
BRANCH  17  20
ATOM     20  O   UNL A   1      34.885  21.807  27.653  1.00  0.00    -0.393 OA
ATOM     21  H   UNL A   1      35.396  21.002  27.837  1.00  0.00     0.210 HD
ENDBRANCH  17  20
ENDBRANCH  14  15
ENDBRANCH  13  14
ENDBRANCH   5   7
ENDBRANCH   3   5
ENDBRANCH   2   3
ENDBRANCH   1   2
BRANCH   1  22
ATOM     22  C   UNL A   1      31.448  30.245  25.498  1.00  0.00     0.275 C 
BRANCH  22  23
ATOM     23  O   UNL A   1      31.766  30.530  26.873  1.00  0.00    -0.458 OA
BRANCH  23  24
ATOM     24  C   UNL A   1      32.504  31.635  27.113  1.00  0.00     0.338 C 
ATOM     25  O   UNL A   1      32.145  32.797  26.968  1.00  0.00    -0.246 OA
BRANCH  24  26
ATOM     26  C   UNL A   1      33.847  31.251  27.619  1.00  0.00     0.060 A 
ATOM     27  C   UNL A   1      34.270  29.924  27.604  1.00  0.00     0.016 A 
ATOM     28  C   UNL A   1      34.673  32.221  28.199  1.00  0.00     0.016 A 
ATOM     29  C   UNL A   1      35.444  29.560  28.267  1.00  0.00     0.010 A 
ATOM     30  C   UNL A   1      35.897  31.857  28.788  1.00  0.00     0.010 A 
ATOM     31  C   UNL A   1      36.276  30.509  28.887  1.00  0.00    -0.014 A 
BRANCH  31  32
ATOM     32  C   UNL A   1      37.451  30.061  29.707  1.00  0.00     0.031 A 
ATOM     33  C   UNL A   1      38.691  29.496  29.042  1.00  0.00     0.074 A 
ATOM     34  C   UNL A   1      37.492  30.266  31.043  1.00  0.00     0.049 A 
ATOM     35  N   UNL A   1      39.754  28.965  29.600  1.00  0.00    -0.248 NA
ATOM     36  C   UNL A   1      38.743  29.509  27.572  1.00  0.00     0.031 C 
ATOM     37  C   UNL A   1      36.429  30.871  31.845  1.00  0.00     0.029 A 
ATOM     38  N   UNL A   1      38.515  30.087  31.947  1.00  0.00    -0.354 N 
ATOM     39  C   UNL A   1      40.522  28.462  28.555  1.00  0.00     0.074 A 
ATOM     40  C   UNL A   1      39.846  28.814  27.328  1.00  0.00     0.031 C 
ATOM     41  C   UNL A   1      36.923  31.202  33.049  1.00  0.00     0.029 A 
ATOM     42  C   UNL A   1      38.292  30.710  33.153  1.00  0.00     0.049 A 
ATOM     43  H   UNL A   1      39.326  29.565  31.749  1.00  0.00     0.167 HD
ATOM     44  C   UNL A   1      41.665  27.735  28.619  1.00  0.00     0.031 A 
ATOM     45  C   UNL A   1      39.102  30.879  34.217  1.00  0.00     0.031 A 
ATOM     46  C   UNL A   1      42.393  27.467  29.829  1.00  0.00     0.049 A 
ATOM     47  C   UNL A   1      40.419  30.156  34.255  1.00  0.00     0.074 A 
ATOM     48  C   UNL A   1      43.502  26.658  30.018  1.00  0.00     0.029 A 
ATOM     49  N   UNL A   1      42.117  28.054  31.051  1.00  0.00    -0.354 N 
ATOM     50  N   UNL A   1      41.035  29.506  33.301  1.00  0.00    -0.248 NA
ATOM     51  C   UNL A   1      41.116  30.132  35.552  1.00  0.00     0.031 C 
ATOM     52  C   UNL A   1      43.883  26.741  31.362  1.00  0.00     0.029 A 
ATOM     53  C   UNL A   1      43.035  27.632  31.997  1.00  0.00     0.049 A 
ATOM     54  H   UNL A   1      41.376  28.680  31.223  1.00  0.00     0.167 HD
ATOM     55  C   UNL A   1      42.158  28.946  33.896  1.00  0.00     0.074 A 
ATOM     56  C   UNL A   1      42.187  29.406  35.267  1.00  0.00     0.031 C 
ATOM     57  C   UNL A   1      43.052  28.079  33.363  1.00  0.00     0.031 A 
BRANCH  44  58
ATOM     58  C   UNL A   1      42.137  27.077  27.354  1.00  0.00    -0.014 A 
ATOM     59  C   UNL A   1      43.113  27.647  26.527  1.00  0.00     0.009 A 
ATOM     60  C   UNL A   1      41.601  25.823  27.013  1.00  0.00     0.009 A 
ATOM     61  C   UNL A   1      43.525  26.982  25.367  1.00  0.00     0.001 A 
ATOM     62  C   UNL A   1      42.030  25.152  25.868  1.00  0.00     0.001 A 
ATOM     63  C   UNL A   1      42.987  25.735  25.042  1.00  0.00     0.000 A 
ENDBRANCH  44  58
BRANCH  45  64
ATOM     64  C   UNL A   1      38.712  31.761  35.351  1.00  0.00    -0.014 A 
ATOM     65  C   UNL A   1      38.064  31.201  36.466  1.00  0.00     0.009 A 
ATOM     66  C   UNL A   1      38.945  33.143  35.330  1.00  0.00     0.009 A 
ATOM     67  C   UNL A   1      37.650  32.008  37.527  1.00  0.00     0.001 A 
ATOM     68  C   UNL A   1      38.560  33.942  36.410  1.00  0.00     0.001 A 
ATOM     69  C   UNL A   1      37.907  33.377  37.502  1.00  0.00     0.000 A 
ENDBRANCH  45  64
BRANCH  57  70
ATOM     70  C   UNL A   1      44.103  27.529  34.281  1.00  0.00    -0.014 A 
ATOM     71  C   UNL A   1      45.328  28.201  34.434  1.00  0.00     0.009 A 
ATOM     72  C   UNL A   1      43.864  26.366  35.025  1.00  0.00     0.009 A 
ATOM     73  C   UNL A   1      46.306  27.700  35.294  1.00  0.00     0.001 A 
ATOM     74  C   UNL A   1      44.837  25.879  35.901  1.00  0.00     0.001 A 
ATOM     75  C   UNL A   1      46.058  26.541  36.030  1.00  0.00     0.000 A 
ENDBRANCH  57  70
ENDBRANCH  31  32
ENDBRANCH  24  26
ENDBRANCH  23  24
ENDBRANCH  22  23
ENDBRANCH   1  22
TORSDOF 15
ENDMDL
MODEL 2
REMARK VINA RESULT:     -11.0      3.492      8.887
REMARK SMILES C[C@@H](C(=O)OCCOC(=O)c1ccc(-c2c3nc(c(-c4ccccc4)c4ccc([nH]4)c(-c4ccccc4)c4nc(c(-c5ccccc5)c5ccc2[nH]5)C=C4)C=C3)cc1)c1ccc(C[C@@H]2CCC[C@@H]2O)cc1F
REMARK SMILES IDX 6 1 5 2 3 3 4 4 2 5 1 6 59 7 60 8 71 9 61 10 70 11 72 12
REMARK SMILES IDX 62 13 63 14 64 15 65 16 68 17 66 18 67 19 69 20 7 22 8 23
REMARK SMILES IDX 9 24 10 25 11 26 12 27 58 28 13 29 57 30 14 31 15 32 16 33
REMARK SMILES IDX 51 34 17 35 56 36 50 37 52 38 18 39 55 40 49 41 48 42 19 44
REMARK SMILES IDX 41 45 26 46 40 47 27 48 30 49 39 50 53 51 28 52 29 53 38 55
REMARK SMILES IDX 54 56 31 57 20 58 21 59 25 60 22 61 24 62 23 63 42 64 43 65
REMARK SMILES IDX 47 66 44 67 46 68 45 69 32 70 33 71 37 72 34 73 36 74 35 75
REMARK H PARENT 69 21 52 43 30 54
REMARK Flexibility Score: inf
ROOT
ATOM      1  C   UNL A   1      35.208  21.401  26.139  1.00  0.00     0.274 C 
ENDROOT
BRANCH   1   2
ATOM      2  O   UNL A   1      33.823  20.994  26.118  1.00  0.00    -0.462 OA
BRANCH   2   3
ATOM      3  C   UNL A   1      32.884  21.979  26.118  1.00  0.00     0.313 C 
ATOM      4  O   UNL A   1      32.661  22.719  27.069  1.00  0.00    -0.252 OA
BRANCH   3   5
ATOM      5  C   UNL A   1      32.143  22.073  24.778  1.00  0.00     0.129 C 
ATOM      6  C   UNL A   1      32.386  20.884  23.844  1.00  0.00     0.025 C 
BRANCH   5   7
ATOM      7  C   UNL A   1      32.445  23.375  24.059  1.00  0.00     0.002 A 
ATOM      8  C   UNL A   1      33.708  23.973  24.133  1.00  0.00     0.008 A 
ATOM      9  C   UNL A   1      31.472  24.005  23.281  1.00  0.00     0.127 A 
ATOM     10  C   UNL A   1      33.961  25.196  23.506  1.00  0.00     0.004 A 
ATOM     11  C   UNL A   1      31.717  25.228  22.655  1.00  0.00     0.043 A 
ATOM     12  F   UNL A   1      30.274  23.425  23.115  1.00  0.00    -0.207 F 
ATOM     13  C   UNL A   1      32.961  25.857  22.787  1.00  0.00    -0.045 A 
BRANCH  13  14
ATOM     14  C   UNL A   1      33.228  27.194  22.139  1.00  0.00     0.041 C 
BRANCH  14  15
ATOM     15  C   UNL A   1      32.866  28.488  22.903  1.00  0.00     0.022 C 
ATOM     16  C   UNL A   1      33.204  28.482  24.395  1.00  0.00     0.007 C 
ATOM     17  C   UNL A   1      31.404  28.937  22.892  1.00  0.00     0.117 C 
ATOM     18  C   UNL A   1      31.897  28.233  25.149  1.00  0.00     0.003 C 
ATOM     19  C   UNL A   1      30.781  28.274  24.111  1.00  0.00     0.032 C 
BRANCH  17  20
ATOM     20  O   UNL A   1      30.714  28.614  21.703  1.00  0.00    -0.393 OA
ATOM     21  H   UNL A   1      31.353  28.367  21.015  1.00  0.00     0.210 HD
ENDBRANCH  17  20
ENDBRANCH  14  15
ENDBRANCH  13  14
ENDBRANCH   5   7
ENDBRANCH   3   5
ENDBRANCH   2   3
ENDBRANCH   1   2
BRANCH   1  22
ATOM     22  C   UNL A   1      35.962  20.608  25.075  1.00  0.00     0.275 C 
BRANCH  22  23
ATOM     23  O   UNL A   1      37.156  21.339  24.736  1.00  0.00    -0.458 OA
BRANCH  23  24
ATOM     24  C   UNL A   1      38.272  21.043  25.438  1.00  0.00     0.338 C 
ATOM     25  O   UNL A   1      38.781  19.936  25.564  1.00  0.00    -0.246 OA
BRANCH  24  26
ATOM     26  C   UNL A   1      38.841  22.278  26.036  1.00  0.00     0.060 A 
ATOM     27  C   UNL A   1      38.206  23.510  25.886  1.00  0.00     0.016 A 
ATOM     28  C   UNL A   1      40.077  22.227  26.690  1.00  0.00     0.016 A 
ATOM     29  C   UNL A   1      38.857  24.680  26.278  1.00  0.00     0.010 A 
ATOM     30  C   UNL A   1      40.686  23.404  27.158  1.00  0.00     0.010 A 
ATOM     31  C   UNL A   1      40.115  24.660  26.906  1.00  0.00    -0.014 A 
BRANCH  31  32
ATOM     32  C   UNL A   1      40.841  25.946  27.182  1.00  0.00     0.031 A 
ATOM     33  C   UNL A   1      40.418  26.845  28.327  1.00  0.00     0.074 A 
ATOM     34  C   UNL A   1      41.964  26.275  26.507  1.00  0.00     0.049 A 
ATOM     35  N   UNL A   1      40.864  28.038  28.644  1.00  0.00    -0.248 NA
ATOM     36  C   UNL A   1      39.353  26.360  29.219  1.00  0.00     0.031 C 
ATOM     37  C   UNL A   1      42.570  25.493  25.428  1.00  0.00     0.029 A 
ATOM     38  N   UNL A   1      42.861  27.301  26.703  1.00  0.00    -0.354 N 
ATOM     39  C   UNL A   1      40.044  28.493  29.671  1.00  0.00     0.074 A 
ATOM     40  C   UNL A   1      39.122  27.423  29.977  1.00  0.00     0.031 C 
ATOM     41  C   UNL A   1      43.817  25.940  25.210  1.00  0.00     0.029 A 
ATOM     42  C   UNL A   1      44.050  27.123  26.031  1.00  0.00     0.049 A 
ATOM     43  H   UNL A   1      42.671  28.085  27.268  1.00  0.00     0.167 HD
ATOM     44  C   UNL A   1      40.035  29.707  30.273  1.00  0.00     0.031 A 
ATOM     45  C   UNL A   1      45.200  27.823  26.082  1.00  0.00     0.031 A 
ATOM     46  C   UNL A   1      41.011  30.738  30.042  1.00  0.00     0.049 A 
ATOM     47  C   UNL A   1      45.231  29.125  26.831  1.00  0.00     0.074 A 
ATOM     48  C   UNL A   1      41.035  32.038  30.520  1.00  0.00     0.029 A 
ATOM     49  N   UNL A   1      42.172  30.562  29.310  1.00  0.00    -0.354 N 
ATOM     50  N   UNL A   1      44.341  29.633  27.646  1.00  0.00    -0.248 NA
ATOM     51  C   UNL A   1      46.404  29.985  26.602  1.00  0.00     0.031 C 
ATOM     52  C   UNL A   1      42.204  32.654  30.058  1.00  0.00     0.029 A 
ATOM     53  C   UNL A   1      42.923  31.724  29.327  1.00  0.00     0.049 A 
ATOM     54  H   UNL A   1      42.427  29.731  28.846  1.00  0.00     0.167 HD
ATOM     55  C   UNL A   1      44.817  30.895  27.977  1.00  0.00     0.074 A 
ATOM     56  C   UNL A   1      46.114  31.039  27.351  1.00  0.00     0.031 C 
ATOM     57  C   UNL A   1      44.204  31.869  28.691  1.00  0.00     0.031 A 
BRANCH  44  58
ATOM     58  C   UNL A   1      38.864  30.033  31.155  1.00  0.00    -0.014 A 
ATOM     59  C   UNL A   1      38.926  29.949  32.552  1.00  0.00     0.009 A 
ATOM     60  C   UNL A   1      37.675  30.475  30.550  1.00  0.00     0.009 A 
ATOM     61  C   UNL A   1      37.808  30.279  33.325  1.00  0.00     0.001 A 
ATOM     62  C   UNL A   1      36.568  30.825  31.325  1.00  0.00     0.001 A 
ATOM     63  C   UNL A   1      36.633  30.720  32.711  1.00  0.00     0.000 A 
ENDBRANCH  44  58
BRANCH  45  64
ATOM     64  C   UNL A   1      46.432  27.331  25.407  1.00  0.00    -0.014 A 
ATOM     65  C   UNL A   1      46.725  27.771  24.105  1.00  0.00     0.009 A 
ATOM     66  C   UNL A   1      47.299  26.415  26.020  1.00  0.00     0.009 A 
ATOM     67  C   UNL A   1      47.851  27.298  23.429  1.00  0.00     0.001 A 
ATOM     68  C   UNL A   1      48.445  25.970  25.354  1.00  0.00     0.001 A 
ATOM     69  C   UNL A   1      48.715  26.405  24.059  1.00  0.00     0.000 A 
ENDBRANCH  45  64
BRANCH  57  70
ATOM     70  C   UNL A   1      44.902  33.193  28.785  1.00  0.00    -0.014 A 
ATOM     71  C   UNL A   1      45.805  33.441  29.832  1.00  0.00     0.009 A 
ATOM     72  C   UNL A   1      44.694  34.181  27.813  1.00  0.00     0.009 A 
ATOM     73  C   UNL A   1      46.467  34.667  29.919  1.00  0.00     0.001 A 
ATOM     74  C   UNL A   1      45.373  35.399  27.893  1.00  0.00     0.001 A 
ATOM     75  C   UNL A   1      46.252  35.644  28.948  1.00  0.00     0.000 A 
ENDBRANCH  57  70
ENDBRANCH  31  32
ENDBRANCH  24  26
ENDBRANCH  23  24
ENDBRANCH  22  23
ENDBRANCH   1  22
TORSDOF 15
ENDMDL
MODEL 3
REMARK VINA RESULT:     -11.0      3.476      8.861
REMARK SMILES C[C@@H](C(=O)OCCOC(=O)c1ccc(-c2c3nc(c(-c4ccccc4)c4ccc([nH]4)c(-c4ccccc4)c4nc(c(-c5ccccc5)c5ccc2[nH]5)C=C4)C=C3)cc1)c1ccc(C[C@@H]2CCC[C@@H]2O)cc1F
REMARK SMILES IDX 6 1 5 2 3 3 4 4 2 5 1 6 59 7 60 8 71 9 61 10 70 11 72 12
REMARK SMILES IDX 62 13 63 14 64 15 65 16 68 17 66 18 67 19 69 20 7 22 8 23
REMARK SMILES IDX 9 24 10 25 11 26 12 27 58 28 13 29 57 30 14 31 15 32 16 33
REMARK SMILES IDX 51 34 17 35 56 36 50 37 52 38 18 39 55 40 49 41 48 42 19 44
REMARK SMILES IDX 41 45 26 46 40 47 27 48 30 49 39 50 53 51 28 52 29 53 38 55
REMARK SMILES IDX 54 56 31 57 20 58 21 59 25 60 22 61 24 62 23 63 42 64 43 65
REMARK SMILES IDX 47 66 44 67 46 68 45 69 32 70 33 71 37 72 34 73 36 74 35 75
REMARK H PARENT 69 21 52 43 30 54
REMARK Flexibility Score: inf
ROOT
ATOM      1  C   UNL A   1      34.882  21.674  24.524  1.00  0.00     0.274 C 
ENDROOT
BRANCH   1   2
ATOM      2  O   UNL A   1      33.605  21.109  24.888  1.00  0.00    -0.462 OA
BRANCH   2   3
ATOM      3  C   UNL A   1      32.709  21.932  25.498  1.00  0.00     0.313 C 
ATOM      4  O   UNL A   1      31.502  21.916  25.286  1.00  0.00    -0.252 OA
BRANCH   3   5
ATOM      5  C   UNL A   1      33.381  22.877  26.502  1.00  0.00     0.129 C 
ATOM      6  C   UNL A   1      33.206  22.462  27.966  1.00  0.00     0.025 C 
BRANCH   5   7
ATOM      7  C   UNL A   1      32.932  24.314  26.308  1.00  0.00     0.002 A 
ATOM      8  C   UNL A   1      31.623  24.715  26.595  1.00  0.00     0.008 A 
ATOM      9  C   UNL A   1      33.824  25.287  25.854  1.00  0.00     0.127 A 
ATOM     10  C   UNL A   1      31.208  26.030  26.368  1.00  0.00     0.004 A 
ATOM     11  C   UNL A   1      33.415  26.601  25.621  1.00  0.00     0.043 A 
ATOM     12  F   UNL A   1      35.110  24.966  25.645  1.00  0.00    -0.207 F 
ATOM     13  C   UNL A   1      32.087  26.983  25.846  1.00  0.00    -0.045 A 
BRANCH  13  14
ATOM     14  C   UNL A   1      31.627  28.393  25.570  1.00  0.00     0.041 C 
BRANCH  14  15
ATOM     15  C   UNL A   1      31.204  28.781  24.135  1.00  0.00     0.022 C 
ATOM     16  C   UNL A   1      30.312  27.765  23.419  1.00  0.00     0.007 C 
ATOM     17  C   UNL A   1      32.311  29.037  23.110  1.00  0.00     0.117 C 
ATOM     18  C   UNL A   1      31.204  26.996  22.442  1.00  0.00     0.003 C 
ATOM     19  C   UNL A   1      32.565  27.683  22.462  1.00  0.00     0.032 C 
BRANCH  17  20
ATOM     20  O   UNL A   1      33.488  29.587  23.663  1.00  0.00    -0.393 OA
ATOM     21  H   UNL A   1      33.468  30.554  23.569  1.00  0.00     0.210 HD
ENDBRANCH  17  20
ENDBRANCH  14  15
ENDBRANCH  13  14
ENDBRANCH   5   7
ENDBRANCH   3   5
ENDBRANCH   2   3
ENDBRANCH   1   2
BRANCH   1  22
ATOM     22  C   UNL A   1      35.977  20.678  24.897  1.00  0.00     0.275 C 
BRANCH  22  23
ATOM     23  O   UNL A   1      37.250  21.278  24.592  1.00  0.00    -0.458 OA
BRANCH  23  24
ATOM     24  C   UNL A   1      38.290  20.940  25.386  1.00  0.00     0.338 C 
ATOM     25  O   UNL A   1      38.722  19.810  25.580  1.00  0.00    -0.246 OA
BRANCH  24  26
ATOM     26  C   UNL A   1      38.883  22.158  25.995  1.00  0.00     0.060 A 
ATOM     27  C   UNL A   1      38.213  23.380  25.963  1.00  0.00     0.016 A 
ATOM     28  C   UNL A   1      40.172  22.105  26.537  1.00  0.00     0.016 A 
ATOM     29  C   UNL A   1      38.872  24.545  26.356  1.00  0.00     0.010 A 
ATOM     30  C   UNL A   1      40.796  23.273  27.011  1.00  0.00     0.010 A 
ATOM     31  C   UNL A   1      40.180  24.525  26.873  1.00  0.00    -0.014 A 
BRANCH  31  32
ATOM     32  C   UNL A   1      40.901  25.813  27.150  1.00  0.00     0.031 A 
ATOM     33  C   UNL A   1      40.465  26.716  28.288  1.00  0.00     0.074 A 
ATOM     34  C   UNL A   1      42.030  26.142  26.484  1.00  0.00     0.049 A 
ATOM     35  N   UNL A   1      40.906  27.912  28.604  1.00  0.00    -0.248 NA
ATOM     36  C   UNL A   1      39.393  26.233  29.171  1.00  0.00     0.031 C 
ATOM     37  C   UNL A   1      42.647  25.356  25.414  1.00  0.00     0.029 A 
ATOM     38  N   UNL A   1      42.923  27.170  26.684  1.00  0.00    -0.354 N 
ATOM     39  C   UNL A   1      40.076  28.369  29.621  1.00  0.00     0.074 A 
ATOM     40  C   UNL A   1      39.152  27.299  29.923  1.00  0.00     0.031 C 
ATOM     41  C   UNL A   1      43.895  25.804  25.206  1.00  0.00     0.029 A 
ATOM     42  C   UNL A   1      44.118  26.991  26.025  1.00  0.00     0.049 A 
ATOM     43  H   UNL A   1      42.727  27.956  27.244  1.00  0.00     0.167 HD
ATOM     44  C   UNL A   1      40.059  29.586  30.218  1.00  0.00     0.031 A 
ATOM     45  C   UNL A   1      45.267  27.693  26.084  1.00  0.00     0.031 A 
ATOM     46  C   UNL A   1      41.035  30.617  29.991  1.00  0.00     0.049 A 
ATOM     47  C   UNL A   1      45.288  28.998  26.828  1.00  0.00     0.074 A 
ATOM     48  C   UNL A   1      41.052  31.920  30.464  1.00  0.00     0.029 A 
ATOM     49  N   UNL A   1      42.203  30.440  29.271  1.00  0.00    -0.354 N 
ATOM     50  N   UNL A   1      44.390  29.509  27.632  1.00  0.00    -0.248 NA
ATOM     51  C   UNL A   1      46.462  29.859  26.607  1.00  0.00     0.031 C 
ATOM     52  C   UNL A   1      42.225  32.536  30.011  1.00  0.00     0.029 A 
ATOM     53  C   UNL A   1      42.952  31.604  29.291  1.00  0.00     0.049 A 
ATOM     54  H   UNL A   1      42.464  29.608  28.813  1.00  0.00     0.167 HD
ATOM     55  C   UNL A   1      44.861  30.773  27.962  1.00  0.00     0.074 A 
ATOM     56  C   UNL A   1      46.163  30.917  27.348  1.00  0.00     0.031 C 
ATOM     57  C   UNL A   1      44.239  31.748  28.666  1.00  0.00     0.031 A 
BRANCH  44  58
ATOM     58  C   UNL A   1      38.879  29.914  31.087  1.00  0.00    -0.014 A 
ATOM     59  C   UNL A   1      37.669  30.392  30.567  1.00  0.00     0.009 A 
ATOM     60  C   UNL A   1      38.988  29.693  32.471  1.00  0.00     0.009 A 
ATOM     61  C   UNL A   1      36.598  30.667  31.424  1.00  0.00     0.001 A 
ATOM     62  C   UNL A   1      37.910  29.946  33.320  1.00  0.00     0.001 A 
ATOM     63  C   UNL A   1      36.718  30.440  32.797  1.00  0.00     0.000 A 
ENDBRANCH  44  58
BRANCH  45  64
ATOM     64  C   UNL A   1      46.506  27.201  25.423  1.00  0.00    -0.014 A 
ATOM     65  C   UNL A   1      47.326  26.280  26.098  1.00  0.00     0.009 A 
ATOM     66  C   UNL A   1      46.898  27.648  24.154  1.00  0.00     0.009 A 
ATOM     67  C   UNL A   1      48.515  25.829  25.521  1.00  0.00     0.001 A 
ATOM     68  C   UNL A   1      48.071  27.168  23.564  1.00  0.00     0.001 A 
ATOM     69  C   UNL A   1      48.881  26.266  24.251  1.00  0.00     0.000 A 
ENDBRANCH  45  64
BRANCH  57  70
ATOM     70  C   UNL A   1      44.933  33.074  28.762  1.00  0.00    -0.014 A 
ATOM     71  C   UNL A   1      45.834  33.324  29.811  1.00  0.00     0.009 A 
ATOM     72  C   UNL A   1      44.726  34.061  27.789  1.00  0.00     0.009 A 
ATOM     73  C   UNL A   1      46.493  34.552  29.900  1.00  0.00     0.001 A 
ATOM     74  C   UNL A   1      45.402  35.281  27.870  1.00  0.00     0.001 A 
ATOM     75  C   UNL A   1      46.278  35.528  28.927  1.00  0.00     0.000 A 
ENDBRANCH  57  70
ENDBRANCH  31  32
ENDBRANCH  24  26
ENDBRANCH  23  24
ENDBRANCH  22  23
ENDBRANCH   1  22
TORSDOF 15
ENDMDL
