MODEL 1
REMARK VINA RESULT:     -11.0      0.000      0.000
REMARK SMILES CSCC[C@H](C(=O)OCCOC(=O)c1ccc(-c2c3nc(c(-c4ccccc4)c4ccc([nH]4)c(-c4ccccc4)c4nc(c(-c5ccccc5)c5ccc2[nH]5)C=C4)C=C3)cc1)N1C(=O)/C(=C/c2ccc3ncccc3c2)SC1=S
REMARK SMILES IDX 9 1 8 2 6 3 7 4 5 5 4 6 3 7 2 8 1 9 62 10 63 11 78 12 64 13
REMARK SMILES IDX 65 14 77 15 79 16 66 17 67 18 68 19 76 20 69 21 75 22 70 23
REMARK SMILES IDX 74 24 71 25 73 26 72 27 10 28 11 29 12 30 13 31 14 32 15 33
REMARK SMILES IDX 61 34 16 35 60 36 17 37 18 38 19 39 54 40 20 41 59 42 53 43
REMARK SMILES IDX 55 44 21 45 58 46 52 47 51 48 22 50 44 51 29 52 43 53 30 54
REMARK SMILES IDX 33 55 42 56 56 57 31 58 32 59 41 61 57 62 34 63 23 64 24 65
REMARK SMILES IDX 28 66 25 67 27 68 26 69 45 70 46 71 50 72 47 73 49 74 48 75
REMARK SMILES IDX 35 76 36 77 40 78 37 79 39 80 38 81
REMARK H PARENT 55 49 33 60
REMARK Flexibility Score: inf
ROOT
ATOM      1  C   UNL A   1      32.290  28.223  26.418  1.00  0.00     0.274 C 
ENDROOT
BRANCH   1   2
ATOM      2  O   UNL A   1      32.955  27.718  25.243  1.00  0.00    -0.461 OA
BRANCH   2   3
ATOM      3  C   UNL A   1      32.348  27.967  24.056  1.00  0.00     0.329 C 
ATOM      4  O   UNL A   1      32.776  28.756  23.218  1.00  0.00    -0.250 OA
BRANCH   3   5
ATOM      5  C   UNL A   1      31.108  27.087  23.817  1.00  0.00     0.202 C 
BRANCH   5   6
ATOM      6  C   UNL A   1      30.134  27.495  22.698  1.00  0.00     0.048 C 
BRANCH   6   7
ATOM      7  C   UNL A   1      29.251  28.706  23.031  1.00  0.00     0.072 C 
BRANCH   7   8
ATOM      8  S   UNL A   1      29.627  30.170  22.018  1.00  0.00    -0.165 SA
ATOM      9  C   UNL A   1      27.998  30.502  21.306  1.00  0.00     0.085 C 
ENDBRANCH   7   8
ENDBRANCH   6   7
ENDBRANCH   5   6
BRANCH   5  10
ATOM     10  N   UNL A   1      31.611  25.695  23.626  1.00  0.00    -0.278 N 
ATOM     11  C   UNL A   1      31.549  24.815  24.694  1.00  0.00     0.266 C 
ATOM     12  C   UNL A   1      32.204  25.210  22.472  1.00  0.00     0.149 C 
ATOM     13  O   UNL A   1      31.029  25.039  25.780  1.00  0.00    -0.268 OA
ATOM     14  C   UNL A   1      32.211  23.530  24.357  1.00  0.00     0.081 C 
ATOM     15  S   UNL A   1      32.773  23.569  22.735  1.00  0.00    -0.054 SA
ATOM     16  S   UNL A   1      32.422  25.972  21.001  1.00  0.00    -0.052 S 
ATOM     17  C   UNL A   1      32.346  22.530  25.241  1.00  0.00     0.029 C 
BRANCH  17  18
ATOM     18  C   UNL A   1      33.106  21.305  24.974  1.00  0.00    -0.024 A 
ATOM     19  C   UNL A   1      34.484  21.250  25.171  1.00  0.00     0.010 A 
ATOM     20  C   UNL A   1      32.428  20.152  24.563  1.00  0.00     0.018 A 
ATOM     21  C   UNL A   1      35.166  20.040  24.987  1.00  0.00     0.029 A 
ATOM     22  C   UNL A   1      33.115  18.939  24.401  1.00  0.00     0.001 A 
ATOM     23  C   UNL A   1      34.507  18.873  24.619  1.00  0.00     0.070 A 
ATOM     24  C   UNL A   1      32.443  17.763  24.050  1.00  0.00     0.012 A 
ATOM     25  N   UNL A   1      35.197  17.725  24.497  1.00  0.00    -0.256 NA
ATOM     26  C   UNL A   1      33.150  16.573  23.946  1.00  0.00     0.021 A 
ATOM     27  C   UNL A   1      34.512  16.606  24.173  1.00  0.00     0.112 A 
ENDBRANCH  17  18
ENDBRANCH   5  10
ENDBRANCH   3   5
ENDBRANCH   2   3
ENDBRANCH   1   2
BRANCH   1  28
ATOM     28  C   UNL A   1      33.266  28.733  27.483  1.00  0.00     0.275 C 
BRANCH  28  29
ATOM     29  O   UNL A   1      34.135  29.760  26.973  1.00  0.00    -0.458 OA
BRANCH  29  30
ATOM     30  C   UNL A   1      34.639  30.606  27.900  1.00  0.00     0.338 C 
ATOM     31  O   UNL A   1      34.062  31.525  28.454  1.00  0.00    -0.246 OA
BRANCH  30  32
ATOM     32  C   UNL A   1      35.985  30.171  28.295  1.00  0.00     0.060 A 
ATOM     33  C   UNL A   1      36.980  30.174  27.312  1.00  0.00     0.016 A 
ATOM     34  C   UNL A   1      36.256  29.711  29.584  1.00  0.00     0.016 A 
ATOM     35  C   UNL A   1      38.266  29.742  27.621  1.00  0.00     0.010 A 
ATOM     36  C   UNL A   1      37.543  29.264  29.890  1.00  0.00     0.010 A 
ATOM     37  C   UNL A   1      38.552  29.280  28.911  1.00  0.00    -0.014 A 
BRANCH  37  38
ATOM     38  C   UNL A   1      39.909  28.789  29.228  1.00  0.00     0.031 A 
ATOM     39  C   UNL A   1      40.876  29.678  29.950  1.00  0.00     0.074 A 
ATOM     40  C   UNL A   1      40.260  27.542  28.868  1.00  0.00     0.049 A 
ATOM     41  N   UNL A   1      42.128  29.457  30.259  1.00  0.00    -0.248 NA
ATOM     42  C   UNL A   1      40.367  30.989  30.381  1.00  0.00     0.031 C 
ATOM     43  C   UNL A   1      39.389  26.578  28.193  1.00  0.00     0.029 A 
ATOM     44  N   UNL A   1      41.451  26.877  29.010  1.00  0.00    -0.354 N 
ATOM     45  C   UNL A   1      42.559  30.600  30.919  1.00  0.00     0.074 A 
ATOM     46  C   UNL A   1      41.443  31.522  30.945  1.00  0.00     0.031 C 
ATOM     47  C   UNL A   1      40.080  25.448  27.969  1.00  0.00     0.029 A 
ATOM     48  C   UNL A   1      41.447  25.623  28.454  1.00  0.00     0.049 A 
ATOM     49  H   UNL A   1      42.232  27.262  29.468  1.00  0.00     0.167 HD
ATOM     50  C   UNL A   1      43.775  30.853  31.458  1.00  0.00     0.031 A 
ATOM     51  C   UNL A   1      42.443  24.729  28.325  1.00  0.00     0.031 A 
ATOM     52  C   UNL A   1      44.889  29.945  31.406  1.00  0.00     0.049 A 
ATOM     53  C   UNL A   1      43.805  25.067  28.868  1.00  0.00     0.074 A 
ATOM     54  C   UNL A   1      46.169  30.115  31.905  1.00  0.00     0.029 A 
ATOM     55  N   UNL A   1      44.853  28.691  30.815  1.00  0.00    -0.354 N 
ATOM     56  N   UNL A   1      44.201  26.151  29.488  1.00  0.00    -0.248 NA
ATOM     57  C   UNL A   1      44.855  24.053  28.694  1.00  0.00     0.031 C 
ATOM     58  C   UNL A   1      46.918  28.978  31.583  1.00  0.00     0.029 A 
ATOM     59  C   UNL A   1      46.091  28.081  30.925  1.00  0.00     0.049 A 
ATOM     60  H   UNL A   1      44.064  28.293  30.383  1.00  0.00     0.167 HD
ATOM     61  C   UNL A   1      45.538  25.941  29.800  1.00  0.00     0.074 A 
ATOM     62  C   UNL A   1      45.880  24.619  29.314  1.00  0.00     0.031 C 
ATOM     63  C   UNL A   1      46.408  26.767  30.432  1.00  0.00     0.031 A 
BRANCH  50  64
ATOM     64  C   UNL A   1      43.966  32.185  32.125  1.00  0.00    -0.014 A 
ATOM     65  C   UNL A   1      43.715  32.351  33.497  1.00  0.00     0.009 A 
ATOM     66  C   UNL A   1      44.425  33.283  31.380  1.00  0.00     0.009 A 
ATOM     67  C   UNL A   1      43.893  33.597  34.102  1.00  0.00     0.001 A 
ATOM     68  C   UNL A   1      44.623  34.521  31.993  1.00  0.00     0.001 A 
ATOM     69  C   UNL A   1      44.350  34.680  33.351  1.00  0.00     0.000 A 
ENDBRANCH  50  64
BRANCH  51  70
ATOM     70  C   UNL A   1      42.202  23.440  27.628  1.00  0.00    -0.014 A 
ATOM     71  C   UNL A   1      41.663  22.344  28.316  1.00  0.00     0.009 A 
ATOM     72  C   UNL A   1      42.534  23.295  26.272  1.00  0.00     0.009 A 
ATOM     73  C   UNL A   1      41.495  21.118  27.668  1.00  0.00     0.001 A 
ATOM     74  C   UNL A   1      42.328  22.078  25.618  1.00  0.00     0.001 A 
ATOM     75  C   UNL A   1      41.818  20.988  26.318  1.00  0.00     0.000 A 
ENDBRANCH  51  70
BRANCH  63  76
ATOM     76  C   UNL A   1      47.796  26.243  30.661  1.00  0.00    -0.014 A 
ATOM     77  C   UNL A   1      48.776  26.321  29.659  1.00  0.00     0.009 A 
ATOM     78  C   UNL A   1      48.133  25.688  31.904  1.00  0.00     0.009 A 
ATOM     79  C   UNL A   1      50.058  25.817  29.888  1.00  0.00     0.001 A 
ATOM     80  C   UNL A   1      49.422  25.207  32.138  1.00  0.00     0.001 A 
ATOM     81  C   UNL A   1      50.380  25.263  31.127  1.00  0.00     0.000 A 
ENDBRANCH  63  76
ENDBRANCH  37  38
ENDBRANCH  30  32
ENDBRANCH  29  30
ENDBRANCH  28  29
ENDBRANCH   1  28
TORSDOF 16
ENDMDL
MODEL 2
REMARK VINA RESULT:     -10.9      3.255      8.698
REMARK SMILES CSCC[C@H](C(=O)OCCOC(=O)c1ccc(-c2c3nc(c(-c4ccccc4)c4ccc([nH]4)c(-c4ccccc4)c4nc(c(-c5ccccc5)c5ccc2[nH]5)C=C4)C=C3)cc1)N1C(=O)/C(=C/c2ccc3ncccc3c2)SC1=S
REMARK SMILES IDX 9 1 8 2 6 3 7 4 5 5 4 6 3 7 2 8 1 9 62 10 63 11 78 12 64 13
REMARK SMILES IDX 65 14 77 15 79 16 66 17 67 18 68 19 76 20 69 21 75 22 70 23
REMARK SMILES IDX 74 24 71 25 73 26 72 27 10 28 11 29 12 30 13 31 14 32 15 33
REMARK SMILES IDX 61 34 16 35 60 36 17 37 18 38 19 39 54 40 20 41 59 42 53 43
REMARK SMILES IDX 55 44 21 45 58 46 52 47 51 48 22 50 44 51 29 52 43 53 30 54
REMARK SMILES IDX 33 55 42 56 56 57 31 58 32 59 41 61 57 62 34 63 23 64 24 65
REMARK SMILES IDX 28 66 25 67 27 68 26 69 45 70 46 71 50 72 47 73 49 74 48 75
REMARK SMILES IDX 35 76 36 77 40 78 37 79 39 80 38 81
REMARK H PARENT 55 49 33 60
REMARK Flexibility Score: inf
ROOT
ATOM      1  C   UNL A   1      38.878  20.717  25.462  1.00  0.00     0.274 C 
ENDROOT
BRANCH   1   2
ATOM      2  O   UNL A   1      37.463  20.558  25.240  1.00  0.00    -0.461 OA
BRANCH   2   3
ATOM      3  C   UNL A   1      36.727  21.697  25.222  1.00  0.00     0.329 C 
ATOM      4  O   UNL A   1      37.148  22.793  25.580  1.00  0.00    -0.250 OA
BRANCH   3   5
ATOM      5  C   UNL A   1      35.326  21.499  24.614  1.00  0.00     0.202 C 
BRANCH   5   6
ATOM      6  C   UNL A   1      34.529  20.248  25.021  1.00  0.00     0.048 C 
BRANCH   6   7
ATOM      7  C   UNL A   1      33.218  20.046  24.248  1.00  0.00     0.072 C 
BRANCH   7   8
ATOM      8  S   UNL A   1      32.815  18.296  23.960  1.00  0.00    -0.165 SA
ATOM      9  C   UNL A   1      34.430  17.536  24.252  1.00  0.00     0.085 C 
ENDBRANCH   7   8
ENDBRANCH   6   7
ENDBRANCH   5   6
BRANCH   5  10
ATOM     10  N   UNL A   1      34.565  22.751  24.898  1.00  0.00    -0.278 N 
ATOM     11  C   UNL A   1      34.462  23.706  23.899  1.00  0.00     0.266 C 
ATOM     12  C   UNL A   1      33.992  23.080  26.115  1.00  0.00     0.149 C 
ATOM     13  O   UNL A   1      34.865  23.588  22.749  1.00  0.00    -0.268 OA
ATOM     14  C   UNL A   1      33.788  24.927  24.406  1.00  0.00     0.081 C 
ATOM     15  S   UNL A   1      33.322  24.702  26.043  1.00  0.00    -0.054 SA
ATOM     16  S   UNL A   1      33.900  22.172  27.515  1.00  0.00    -0.052 S 
ATOM     17  C   UNL A   1      33.621  26.027  23.656  1.00  0.00     0.029 C 
BRANCH  17  18
ATOM     18  C   UNL A   1      33.075  27.287  24.171  1.00  0.00    -0.024 A 
ATOM     19  C   UNL A   1      31.845  27.775  23.734  1.00  0.00     0.010 A 
ATOM     20  C   UNL A   1      33.776  27.988  25.158  1.00  0.00     0.018 A 
ATOM     21  C   UNL A   1      31.314  28.938  24.307  1.00  0.00     0.029 A 
ATOM     22  C   UNL A   1      33.227  29.139  25.743  1.00  0.00     0.001 A 
ATOM     23  C   UNL A   1      31.974  29.626  25.318  1.00  0.00     0.070 A 
ATOM     24  C   UNL A   1      33.887  29.817  26.774  1.00  0.00     0.012 A 
ATOM     25  N   UNL A   1      31.404  30.713  25.870  1.00  0.00    -0.256 NA
ATOM     26  C   UNL A   1      33.290  30.925  27.359  1.00  0.00     0.021 A 
ATOM     27  C   UNL A   1      32.062  31.332  26.874  1.00  0.00     0.112 A 
ENDBRANCH  17  18
ENDBRANCH   5  10
ENDBRANCH   3   5
ENDBRANCH   2   3
ENDBRANCH   1   2
BRANCH   1  28
ATOM     28  C   UNL A   1      39.545  19.445  25.997  1.00  0.00     0.275 C 
BRANCH  28  29
ATOM     29  O   UNL A   1      40.820  19.201  25.376  1.00  0.00    -0.458 OA
BRANCH  29  30
ATOM     30  C   UNL A   1      41.885  19.225  26.210  1.00  0.00     0.338 C 
ATOM     31  O   UNL A   1      42.526  18.273  26.617  1.00  0.00    -0.246 OA
BRANCH  30  32
ATOM     32  C   UNL A   1      42.293  20.613  26.458  1.00  0.00     0.060 A 
ATOM     33  C   UNL A   1      42.292  21.062  27.783  1.00  0.00     0.016 A 
ATOM     34  C   UNL A   1      42.613  21.478  25.412  1.00  0.00     0.016 A 
ATOM     35  C   UNL A   1      42.640  22.376  28.074  1.00  0.00     0.010 A 
ATOM     36  C   UNL A   1      42.949  22.803  25.703  1.00  0.00     0.010 A 
ATOM     37  C   UNL A   1      42.965  23.255  27.034  1.00  0.00    -0.014 A 
BRANCH  37  38
ATOM     38  C   UNL A   1      43.300  24.661  27.342  1.00  0.00     0.031 A 
ATOM     39  C   UNL A   1      44.729  25.112  27.310  1.00  0.00     0.074 A 
ATOM     40  C   UNL A   1      42.314  25.524  27.643  1.00  0.00     0.049 A 
ATOM     41  N   UNL A   1      45.232  26.282  27.614  1.00  0.00    -0.248 NA
ATOM     42  C   UNL A   1      45.724  24.117  26.882  1.00  0.00     0.031 C 
ATOM     43  C   UNL A   1      40.886  25.202  27.668  1.00  0.00     0.029 A 
ATOM     44  N   UNL A   1      42.368  26.847  27.997  1.00  0.00    -0.354 N 
ATOM     45  C   UNL A   1      46.601  26.165  27.414  1.00  0.00     0.074 A 
ATOM     46  C   UNL A   1      46.854  24.804  26.988  1.00  0.00     0.031 C 
ATOM     47  C   UNL A   1      40.199  26.298  28.032  1.00  0.00     0.029 A 
ATOM     48  C   UNL A   1      41.140  27.383  28.296  1.00  0.00     0.049 A 
ATOM     49  H   UNL A   1      43.205  27.363  28.032  1.00  0.00     0.167 HD
ATOM     50  C   UNL A   1      47.559  27.109  27.570  1.00  0.00     0.031 A 
ATOM     51  C   UNL A   1      40.817  28.605  28.757  1.00  0.00     0.031 A 
ATOM     52  C   UNL A   1      47.307  28.452  28.020  1.00  0.00     0.049 A 
ATOM     53  C   UNL A   1      41.910  29.611  28.992  1.00  0.00     0.074 A 
ATOM     54  C   UNL A   1      48.211  29.479  28.228  1.00  0.00     0.029 A 
ATOM     55  N   UNL A   1      46.052  28.952  28.333  1.00  0.00    -0.354 N 
ATOM     56  N   UNL A   1      43.201  29.489  28.802  1.00  0.00    -0.248 NA
ATOM     57  C   UNL A   1      41.497  30.927  29.502  1.00  0.00     0.031 C 
ATOM     58  C   UNL A   1      47.506  30.591  28.704  1.00  0.00     0.029 A 
ATOM     59  C   UNL A   1      46.159  30.270  28.746  1.00  0.00     0.049 A 
ATOM     60  H   UNL A   1      45.210  28.447  28.270  1.00  0.00     0.167 HD
ATOM     61  C   UNL A   1      43.752  30.716  29.145  1.00  0.00     0.074 A 
ATOM     62  C   UNL A   1      42.653  31.575  29.540  1.00  0.00     0.031 C 
ATOM     63  C   UNL A   1      45.052  31.102  29.135  1.00  0.00     0.031 A 
BRANCH  50  64
ATOM     64  C   UNL A   1      48.976  26.704  27.276  1.00  0.00    -0.014 A 
ATOM     65  C   UNL A   1      49.831  26.264  28.298  1.00  0.00     0.009 A 
ATOM     66  C   UNL A   1      49.453  26.740  25.956  1.00  0.00     0.009 A 
ATOM     67  C   UNL A   1      51.146  25.896  28.009  1.00  0.00     0.001 A 
ATOM     68  C   UNL A   1      50.762  26.349  25.668  1.00  0.00     0.001 A 
ATOM     69  C   UNL A   1      51.610  25.935  26.694  1.00  0.00     0.000 A 
ENDBRANCH  50  64
BRANCH  51  70
ATOM     70  C   UNL A   1      39.401  28.937  29.059  1.00  0.00    -0.014 A 
ATOM     71  C   UNL A   1      38.865  28.692  30.331  1.00  0.00     0.009 A 
ATOM     72  C   UNL A   1      38.574  29.481  28.064  1.00  0.00     0.009 A 
ATOM     73  C   UNL A   1      37.517  28.953  30.589  1.00  0.00     0.001 A 
ATOM     74  C   UNL A   1      37.237  29.776  28.338  1.00  0.00     0.001 A 
ATOM     75  C   UNL A   1      36.706  29.503  29.597  1.00  0.00     0.000 A 
ENDBRANCH  51  70
BRANCH  63  76
ATOM     76  C   UNL A   1      45.341  32.521  29.530  1.00  0.00    -0.014 A 
ATOM     77  C   UNL A   1      45.342  33.555  28.580  1.00  0.00     0.009 A 
ATOM     78  C   UNL A   1      45.593  32.830  30.875  1.00  0.00     0.009 A 
ATOM     79  C   UNL A   1      45.625  34.865  28.967  1.00  0.00     0.001 A 
ATOM     80  C   UNL A   1      45.852  34.146  31.263  1.00  0.00     0.001 A 
ATOM     81  C   UNL A   1      45.878  35.160  30.307  1.00  0.00     0.000 A 
ENDBRANCH  63  76
ENDBRANCH  37  38
ENDBRANCH  30  32
ENDBRANCH  29  30
ENDBRANCH  28  29
ENDBRANCH   1  28
TORSDOF 16
ENDMDL
MODEL 3
REMARK VINA RESULT:     -10.8      2.726      6.896
REMARK SMILES CSCC[C@H](C(=O)OCCOC(=O)c1ccc(-c2c3nc(c(-c4ccccc4)c4ccc([nH]4)c(-c4ccccc4)c4nc(c(-c5ccccc5)c5ccc2[nH]5)C=C4)C=C3)cc1)N1C(=O)/C(=C/c2ccc3ncccc3c2)SC1=S
REMARK SMILES IDX 9 1 8 2 6 3 7 4 5 5 4 6 3 7 2 8 1 9 62 10 63 11 78 12 64 13
REMARK SMILES IDX 65 14 77 15 79 16 66 17 67 18 68 19 76 20 69 21 75 22 70 23
REMARK SMILES IDX 74 24 71 25 73 26 72 27 10 28 11 29 12 30 13 31 14 32 15 33
REMARK SMILES IDX 61 34 16 35 60 36 17 37 18 38 19 39 54 40 20 41 59 42 53 43
REMARK SMILES IDX 55 44 21 45 58 46 52 47 51 48 22 50 44 51 29 52 43 53 30 54
REMARK SMILES IDX 33 55 42 56 56 57 31 58 32 59 41 61 57 62 34 63 23 64 24 65
REMARK SMILES IDX 28 66 25 67 27 68 26 69 45 70 46 71 50 72 47 73 49 74 48 75
REMARK SMILES IDX 35 76 36 77 40 78 37 79 39 80 38 81
REMARK H PARENT 55 49 33 60
REMARK Flexibility Score: inf
ROOT
ATOM      1  C   UNL A   1      32.217  31.041  26.963  1.00  0.00     0.274 C 
ENDROOT
BRANCH   1   2
ATOM      2  O   UNL A   1      32.233  30.391  25.676  1.00  0.00    -0.461 OA
BRANCH   2   3
ATOM      3  C   UNL A   1      32.385  29.044  25.686  1.00  0.00     0.329 C 
ATOM      4  O   UNL A   1      33.289  28.459  26.278  1.00  0.00    -0.250 OA
BRANCH   3   5
ATOM      5  C   UNL A   1      31.250  28.304  24.954  1.00  0.00     0.202 C 
BRANCH   5   6
ATOM      6  C   UNL A   1      30.601  28.991  23.741  1.00  0.00     0.048 C 
BRANCH   6   7
ATOM      7  C   UNL A   1      29.390  28.250  23.159  1.00  0.00     0.072 C 
BRANCH   7   8
ATOM      8  S   UNL A   1      28.008  29.353  22.732  1.00  0.00    -0.165 SA
ATOM      9  C   UNL A   1      28.841  30.499  21.607  1.00  0.00     0.085 C 
ENDBRANCH   7   8
ENDBRANCH   6   7
ENDBRANCH   5   6
BRANCH   5  10
ATOM     10  N   UNL A   1      31.787  26.957  24.601  1.00  0.00    -0.278 N 
ATOM     11  C   UNL A   1      31.346  25.858  25.320  1.00  0.00     0.266 C 
ATOM     12  C   UNL A   1      32.753  26.708  23.641  1.00  0.00     0.149 C 
ATOM     13  O   UNL A   1      30.472  25.865  26.178  1.00  0.00    -0.268 OA
ATOM     14  C   UNL A   1      32.083  24.634  24.916  1.00  0.00     0.081 C 
ATOM     15  S   UNL A   1      33.188  25.006  23.656  1.00  0.00    -0.054 SA
ATOM     16  S   UNL A   1      33.483  27.773  22.581  1.00  0.00    -0.052 S 
ATOM     17  C   UNL A   1      31.892  23.445  25.507  1.00  0.00     0.029 C 
BRANCH  17  18
ATOM     18  C   UNL A   1      32.696  22.254  25.215  1.00  0.00    -0.024 A 
ATOM     19  C   UNL A   1      33.986  22.109  25.722  1.00  0.00     0.010 A 
ATOM     20  C   UNL A   1      32.139  21.217  24.458  1.00  0.00     0.018 A 
ATOM     21  C   UNL A   1      34.694  20.922  25.494  1.00  0.00     0.029 A 
ATOM     22  C   UNL A   1      32.846  20.023  24.253  1.00  0.00     0.001 A 
ATOM     23  C   UNL A   1      34.145  19.863  24.780  1.00  0.00     0.070 A 
ATOM     24  C   UNL A   1      32.280  18.953  23.550  1.00  0.00     0.012 A 
ATOM     25  N   UNL A   1      34.846  18.726  24.625  1.00  0.00    -0.256 NA
ATOM     26  C   UNL A   1      32.993  17.771  23.409  1.00  0.00     0.021 A 
ATOM     27  C   UNL A   1      34.261  17.709  23.955  1.00  0.00     0.112 A 
ENDBRANCH  17  18
ENDBRANCH   5  10
ENDBRANCH   3   5
ENDBRANCH   2   3
ENDBRANCH   1   2
BRANCH   1  28
ATOM     28  C   UNL A   1      32.835  32.443  26.932  1.00  0.00     0.275 C 
BRANCH  28  29
ATOM     29  O   UNL A   1      32.144  33.357  27.803  1.00  0.00    -0.458 OA
BRANCH  29  30
ATOM     30  C   UNL A   1      32.898  34.364  28.300  1.00  0.00     0.338 C 
ATOM     31  O   UNL A   1      32.570  35.528  28.452  1.00  0.00    -0.246 OA
BRANCH  30  32
ATOM     32  C   UNL A   1      34.171  33.834  28.804  1.00  0.00     0.060 A 
ATOM     33  C   UNL A   1      34.117  32.877  29.822  1.00  0.00     0.016 A 
ATOM     34  C   UNL A   1      35.396  34.305  28.332  1.00  0.00     0.016 A 
ATOM     35  C   UNL A   1      35.292  32.362  30.358  1.00  0.00     0.010 A 
ATOM     36  C   UNL A   1      36.577  33.798  28.881  1.00  0.00     0.010 A 
ATOM     37  C   UNL A   1      36.528  32.824  29.894  1.00  0.00    -0.014 A 
BRANCH  37  38
ATOM     38  C   UNL A   1      37.776  32.302  30.489  1.00  0.00     0.031 A 
ATOM     39  C   UNL A   1      38.443  31.100  29.892  1.00  0.00     0.074 A 
ATOM     40  C   UNL A   1      38.303  32.918  31.561  1.00  0.00     0.049 A 
ATOM     41  N   UNL A   1      39.502  30.453  30.306  1.00  0.00    -0.248 NA
ATOM     42  C   UNL A   1      37.839  30.554  28.666  1.00  0.00     0.031 C 
ATOM     43  C   UNL A   1      37.758  34.116  32.203  1.00  0.00     0.029 A 
ATOM     44  N   UNL A   1      39.412  32.611  32.307  1.00  0.00    -0.354 N 
ATOM     45  C   UNL A   1      39.692  29.422  29.395  1.00  0.00     0.074 A 
ATOM     46  C   UNL A   1      38.625  29.514  28.420  1.00  0.00     0.031 C 
ATOM     47  C   UNL A   1      38.529  34.435  33.256  1.00  0.00     0.029 A 
ATOM     48  C   UNL A   1      39.598  33.447  33.380  1.00  0.00     0.049 A 
ATOM     49  H   UNL A   1      40.016  31.864  32.093  1.00  0.00     0.167 HD
ATOM     50  C   UNL A   1      40.670  28.486  29.374  1.00  0.00     0.031 A 
ATOM     51  C   UNL A   1      40.512  33.401  34.365  1.00  0.00     0.031 A 
ATOM     52  C   UNL A   1      41.712  28.381  30.360  1.00  0.00     0.049 A 
ATOM     53  C   UNL A   1      41.543  32.306  34.358  1.00  0.00     0.074 A 
ATOM     54  C   UNL A   1      42.739  27.457  30.439  1.00  0.00     0.029 A 
ATOM     55  N   UNL A   1      41.856  29.234  31.444  1.00  0.00    -0.354 N 
ATOM     56  N   UNL A   1      41.711  31.336  33.493  1.00  0.00    -0.248 NA
ATOM     57  C   UNL A   1      42.513  32.304  35.463  1.00  0.00     0.031 C 
ATOM     58  C   UNL A   1      43.483  27.729  31.592  1.00  0.00     0.029 A 
ATOM     59  C   UNL A   1      42.947  28.850  32.205  1.00  0.00     0.049 A 
ATOM     60  H   UNL A   1      41.270  29.999  31.642  1.00  0.00     0.167 HD
ATOM     61  C   UNL A   1      42.818  30.623  33.934  1.00  0.00     0.074 A 
ATOM     62  C   UNL A   1      43.290  31.282  35.136  1.00  0.00     0.031 C 
ATOM     63  C   UNL A   1      43.395  29.521  33.397  1.00  0.00     0.031 A 
BRANCH  50  64
ATOM     64  C   UNL A   1      40.635  27.482  28.257  1.00  0.00    -0.014 A 
ATOM     65  C   UNL A   1      41.300  27.725  27.044  1.00  0.00     0.009 A 
ATOM     66  C   UNL A   1      39.951  26.269  28.427  1.00  0.00     0.009 A 
ATOM     67  C   UNL A   1      41.255  26.784  26.014  1.00  0.00     0.001 A 
ATOM     68  C   UNL A   1      39.927  25.321  27.403  1.00  0.00     0.001 A 
ATOM     69  C   UNL A   1      40.571  25.581  26.194  1.00  0.00     0.000 A 
ENDBRANCH  50  64
BRANCH  51  70
ATOM     70  C   UNL A   1      40.477  34.404  35.461  1.00  0.00    -0.014 A 
ATOM     71  C   UNL A   1      41.196  35.602  35.356  1.00  0.00     0.009 A 
ATOM     72  C   UNL A   1      39.740  34.153  36.628  1.00  0.00     0.009 A 
ATOM     73  C   UNL A   1      41.205  36.513  36.415  1.00  0.00     0.001 A 
ATOM     74  C   UNL A   1      39.721  35.084  37.669  1.00  0.00     0.001 A 
ATOM     75  C   UNL A   1      40.462  36.259  37.566  1.00  0.00     0.000 A 
ENDBRANCH  51  70
BRANCH  63  76
ATOM     76  C   UNL A   1      44.618  28.989  34.087  1.00  0.00    -0.014 A 
ATOM     77  C   UNL A   1      45.900  29.452  33.755  1.00  0.00     0.009 A 
ATOM     78  C   UNL A   1      44.480  28.029  35.101  1.00  0.00     0.009 A 
ATOM     79  C   UNL A   1      47.024  28.936  34.401  1.00  0.00     0.001 A 
ATOM     80  C   UNL A   1      45.604  27.531  35.762  1.00  0.00     0.001 A 
ATOM     81  C   UNL A   1      46.876  27.978  35.405  1.00  0.00     0.000 A 
ENDBRANCH  63  76
ENDBRANCH  37  38
ENDBRANCH  30  32
ENDBRANCH  29  30
ENDBRANCH  28  29
ENDBRANCH   1  28
TORSDOF 16
ENDMDL
