MODEL 1
REMARK VINA RESULT:     -11.1      0.000      0.000
REMARK SMILES CC(=O)n1cc2c3c(cccc31)C(=O)C[C@@H]2C(=O)OCCOC(=O)c1ccc(-c2c3nc(c(-c4ccccc4)c4ccc([nH]4)c(-c4ccccc4)c4nc(c(-c5ccccc5)c5ccc2[nH]5)C=C4)C=C3)cc1
REMARK SMILES IDX 21 1 20 2 19 3 17 4 18 5 16 6 4 7 5 8 12 9 6 10 7 11 11 12
REMARK SMILES IDX 8 13 10 14 15 15 9 16 13 17 14 18 2 19 1 20 3 21 22 22 23 23
REMARK SMILES IDX 24 24 25 25 26 26 72 27 27 28 71 29 28 30 29 31 30 32 65 33
REMARK SMILES IDX 31 34 70 35 64 36 66 37 32 38 69 39 63 40 62 41 33 43 55 44
REMARK SMILES IDX 40 45 54 46 41 47 44 48 53 49 67 50 42 51 43 52 52 54 68 55
REMARK SMILES IDX 45 56 34 57 35 58 39 59 36 60 38 61 37 62 56 63 57 64 61 65
REMARK SMILES IDX 58 66 60 67 59 68 46 69 47 70 51 71 48 72 50 73 49 74
REMARK H PARENT 66 42 44 53
REMARK Flexibility Score: inf
ROOT
ATOM      1  C   UNL A   1      46.445  25.174  28.292  1.00  0.00     0.275 C 
ENDROOT
BRANCH   1   2
ATOM      2  C   UNL A   1      46.715  24.103  27.236  1.00  0.00     0.274 C 
BRANCH   2   3
ATOM      3  O   UNL A   1      45.683  23.098  27.164  1.00  0.00    -0.462 OA
BRANCH   3   4
ATOM      4  C   UNL A   1      45.446  22.568  25.930  1.00  0.00     0.314 C 
ATOM      5  O   UNL A   1      46.325  22.224  25.145  1.00  0.00    -0.252 OA
BRANCH   4   6
ATOM      6  C   UNL A   1      43.966  22.523  25.571  1.00  0.00     0.139 C 
ATOM      7  N   UNL A   1      42.932  26.109  25.569  1.00  0.00    -0.287 N 
ATOM      8  C   UNL A   1      43.892  25.135  25.292  1.00  0.00     0.100 A 
ATOM      9  C   UNL A   1      41.787  25.453  26.038  1.00  0.00     0.057 A 
ATOM     10  C   UNL A   1      43.396  23.901  25.632  1.00  0.00    -0.006 A 
ATOM     11  C   UNL A   1      42.080  24.098  26.063  1.00  0.00     0.015 A 
ATOM     12  C   UNL A   1      40.506  25.892  26.417  1.00  0.00     0.027 A 
ATOM     13  C   UNL A   1      41.137  23.148  26.450  1.00  0.00     0.027 A 
ATOM     14  C   UNL A   1      39.550  24.921  26.782  1.00  0.00     0.003 A 
ATOM     15  C   UNL A   1      43.135  21.525  26.418  1.00  0.00     0.101 C 
ATOM     16  C   UNL A   1      39.853  23.557  26.794  1.00  0.00     0.012 A 
ATOM     17  C   UNL A   1      41.616  21.749  26.443  1.00  0.00     0.164 C 
ATOM     18  O   UNL A   1      40.815  20.825  26.533  1.00  0.00    -0.294 OA
BRANCH   7  19
ATOM     19  C   UNL A   1      43.083  27.500  25.389  1.00  0.00     0.227 C 
ATOM     20  C   UNL A   1      44.143  28.141  26.236  1.00  0.00     0.115 C 
ATOM     21  O   UNL A   1      42.402  28.096  24.565  1.00  0.00    -0.274 OA
ENDBRANCH   7  19
ENDBRANCH   4   6
ENDBRANCH   3   4
ENDBRANCH   2   3
ENDBRANCH   1   2
BRANCH   1  22
ATOM     22  O   UNL A   1      45.128  25.085  28.838  1.00  0.00    -0.458 OA
BRANCH  22  23
ATOM     23  C   UNL A   1      45.062  25.519  30.115  1.00  0.00     0.338 C 
ATOM     24  O   UNL A   1      45.843  25.267  31.017  1.00  0.00    -0.246 OA
BRANCH  23  25
ATOM     25  C   UNL A   1      43.821  26.237  30.376  1.00  0.00     0.060 A 
ATOM     26  C   UNL A   1      42.906  26.317  29.320  1.00  0.00     0.016 A 
ATOM     27  C   UNL A   1      43.781  27.104  31.471  1.00  0.00     0.016 A 
ATOM     28  C   UNL A   1      42.057  27.398  29.268  1.00  0.00     0.010 A 
ATOM     29  C   UNL A   1      42.947  28.197  31.406  1.00  0.00     0.010 A 
ATOM     30  C   UNL A   1      42.151  28.365  30.273  1.00  0.00    -0.014 A 
BRANCH  30  31
ATOM     31  C   UNL A   1      41.338  29.551  30.122  1.00  0.00     0.031 A 
ATOM     32  C   UNL A   1      42.101  30.785  29.849  1.00  0.00     0.074 A 
ATOM     33  C   UNL A   1      39.995  29.515  30.116  1.00  0.00     0.049 A 
ATOM     34  N   UNL A   1      42.161  31.858  30.563  1.00  0.00    -0.248 NA
ATOM     35  C   UNL A   1      42.983  30.777  28.673  1.00  0.00     0.031 C 
ATOM     36  C   UNL A   1      39.120  28.344  30.051  1.00  0.00     0.029 A 
ATOM     37  N   UNL A   1      39.131  30.562  30.045  1.00  0.00    -0.354 N 
ATOM     38  C   UNL A   1      42.975  32.729  29.850  1.00  0.00     0.074 A 
ATOM     39  C   UNL A   1      43.560  31.972  28.773  1.00  0.00     0.031 C 
ATOM     40  C   UNL A   1      37.871  28.749  29.726  1.00  0.00     0.029 A 
ATOM     41  C   UNL A   1      37.842  30.204  29.687  1.00  0.00     0.049 A 
ATOM     42  H   UNL A   1      39.397  31.491  30.232  1.00  0.00     0.167 HD
ATOM     43  C   UNL A   1      42.950  34.072  30.048  1.00  0.00     0.031 A 
ATOM     44  C   UNL A   1      36.863  31.056  29.304  1.00  0.00     0.031 A 
ATOM     45  C   UNL A   1      42.349  34.438  31.299  1.00  0.00     0.049 A 
ATOM     46  C   UNL A   1      37.237  32.410  29.779  1.00  0.00     0.074 A 
ATOM     47  C   UNL A   1      42.644  34.205  32.626  1.00  0.00     0.029 A 
ATOM     48  N   UNL A   1      41.050  34.880  31.266  1.00  0.00    -0.354 N 
ATOM     49  N   UNL A   1      37.268  32.765  31.031  1.00  0.00    -0.248 NA
ATOM     50  C   UNL A   1      37.920  33.311  28.860  1.00  0.00     0.031 C 
ATOM     51  C   UNL A   1      41.380  34.111  33.280  1.00  0.00     0.029 A 
ATOM     52  C   UNL A   1      40.388  34.301  32.317  1.00  0.00     0.049 A 
ATOM     53  H   UNL A   1      40.664  35.500  30.605  1.00  0.00     0.167 HD
ATOM     54  C   UNL A   1      38.294  33.694  31.114  1.00  0.00     0.074 A 
ATOM     55  C   UNL A   1      38.560  34.090  29.737  1.00  0.00     0.031 C 
ATOM     56  C   UNL A   1      39.016  33.842  32.262  1.00  0.00     0.031 A 
BRANCH  43  57
ATOM     57  C   UNL A   1      43.140  35.048  28.922  1.00  0.00    -0.014 A 
ATOM     58  C   UNL A   1      44.299  35.838  28.884  1.00  0.00     0.009 A 
ATOM     59  C   UNL A   1      42.099  35.396  28.037  1.00  0.00     0.009 A 
ATOM     60  C   UNL A   1      44.396  36.935  28.020  1.00  0.00     0.001 A 
ATOM     61  C   UNL A   1      42.211  36.458  27.140  1.00  0.00     0.001 A 
ATOM     62  C   UNL A   1      43.356  37.241  27.147  1.00  0.00     0.000 A 
ENDBRANCH  43  57
BRANCH  44  63
ATOM     63  C   UNL A   1      35.771  30.843  28.328  1.00  0.00    -0.014 A 
ATOM     64  C   UNL A   1      35.749  29.678  27.545  1.00  0.00     0.009 A 
ATOM     65  C   UNL A   1      34.612  31.638  28.349  1.00  0.00     0.009 A 
ATOM     66  C   UNL A   1      34.590  29.290  26.861  1.00  0.00     0.001 A 
ATOM     67  C   UNL A   1      33.458  31.260  27.653  1.00  0.00     0.001 A 
ATOM     68  C   UNL A   1      33.440  30.074  26.927  1.00  0.00     0.000 A 
ENDBRANCH  44  63
BRANCH  56  69
ATOM     69  C   UNL A   1      38.483  33.198  33.516  1.00  0.00    -0.014 A 
ATOM     70  C   UNL A   1      38.729  31.851  33.833  1.00  0.00     0.009 A 
ATOM     71  C   UNL A   1      37.868  34.012  34.478  1.00  0.00     0.009 A 
ATOM     72  C   UNL A   1      38.357  31.331  35.076  1.00  0.00     0.001 A 
ATOM     73  C   UNL A   1      37.514  33.496  35.727  1.00  0.00     0.001 A 
ATOM     74  C   UNL A   1      37.757  32.156  36.026  1.00  0.00     0.000 A 
ENDBRANCH  56  69
ENDBRANCH  30  31
ENDBRANCH  23  25
ENDBRANCH  22  23
ENDBRANCH   1  22
TORSDOF 12
ENDMDL
MODEL 2
REMARK VINA RESULT:     -11.1      1.328      2.510
REMARK SMILES CC(=O)n1cc2c3c(cccc31)C(=O)C[C@@H]2C(=O)OCCOC(=O)c1ccc(-c2c3nc(c(-c4ccccc4)c4ccc([nH]4)c(-c4ccccc4)c4nc(c(-c5ccccc5)c5ccc2[nH]5)C=C4)C=C3)cc1
REMARK SMILES IDX 21 1 20 2 19 3 17 4 18 5 16 6 4 7 5 8 12 9 6 10 7 11 11 12
REMARK SMILES IDX 8 13 10 14 15 15 9 16 13 17 14 18 2 19 1 20 3 21 22 22 23 23
REMARK SMILES IDX 24 24 25 25 26 26 72 27 27 28 71 29 28 30 29 31 30 32 65 33
REMARK SMILES IDX 31 34 70 35 64 36 66 37 32 38 69 39 63 40 62 41 33 43 55 44
REMARK SMILES IDX 40 45 54 46 41 47 44 48 53 49 67 50 42 51 43 52 52 54 68 55
REMARK SMILES IDX 45 56 34 57 35 58 39 59 36 60 38 61 37 62 56 63 57 64 61 65
REMARK SMILES IDX 58 66 60 67 59 68 46 69 47 70 51 71 48 72 50 73 49 74
REMARK H PARENT 66 42 44 53
REMARK Flexibility Score: inf
ROOT
ATOM      1  C   UNL A   1      45.540  23.655  28.194  1.00  0.00     0.275 C 
ENDROOT
BRANCH   1   2
ATOM      2  C   UNL A   1      46.409  24.259  27.092  1.00  0.00     0.274 C 
BRANCH   2   3
ATOM      3  O   UNL A   1      46.770  23.312  26.065  1.00  0.00    -0.462 OA
BRANCH   3   4
ATOM      4  C   UNL A   1      46.101  23.425  24.883  1.00  0.00     0.314 C 
ATOM      5  O   UNL A   1      45.985  24.471  24.251  1.00  0.00    -0.252 OA
BRANCH   4   6
ATOM      6  C   UNL A   1      45.423  22.131  24.451  1.00  0.00     0.139 C 
ATOM      7  N   UNL A   1      42.080  22.272  26.106  1.00  0.00    -0.287 N 
ATOM      8  C   UNL A   1      43.129  22.925  25.458  1.00  0.00     0.100 A 
ATOM      9  C   UNL A   1      42.383  20.904  26.126  1.00  0.00     0.057 A 
ATOM     10  C   UNL A   1      44.099  22.011  25.130  1.00  0.00    -0.006 A 
ATOM     11  C   UNL A   1      43.618  20.755  25.516  1.00  0.00     0.015 A 
ATOM     12  C   UNL A   1      41.696  19.767  26.586  1.00  0.00     0.027 A 
ATOM     13  C   UNL A   1      44.205  19.504  25.337  1.00  0.00     0.027 A 
ATOM     14  C   UNL A   1      42.284  18.503  26.376  1.00  0.00     0.003 A 
ATOM     15  C   UNL A   1      46.286  20.859  24.658  1.00  0.00     0.101 C 
ATOM     16  C   UNL A   1      43.526  18.363  25.751  1.00  0.00     0.012 A 
ATOM     17  C   UNL A   1      45.535  19.520  24.689  1.00  0.00     0.164 C 
ATOM     18  O   UNL A   1      46.028  18.477  24.273  1.00  0.00    -0.294 OA
BRANCH   7  19
ATOM     19  C   UNL A   1      40.918  22.878  26.626  1.00  0.00     0.227 C 
ATOM     20  C   UNL A   1      41.150  24.147  27.393  1.00  0.00     0.115 C 
ATOM     21  O   UNL A   1      39.816  22.390  26.413  1.00  0.00    -0.274 OA
ENDBRANCH   7  19
ENDBRANCH   4   6
ENDBRANCH   3   4
ENDBRANCH   2   3
ENDBRANCH   1   2
BRANCH   1  22
ATOM     22  O   UNL A   1      45.523  24.453  29.379  1.00  0.00    -0.458 OA
BRANCH  22  23
ATOM     23  C   UNL A   1      44.273  24.784  29.767  1.00  0.00     0.338 C 
ATOM     24  O   UNL A   1      43.366  24.020  30.048  1.00  0.00    -0.246 OA
BRANCH  23  25
ATOM     25  C   UNL A   1      44.043  26.220  29.672  1.00  0.00     0.060 A 
ATOM     26  C   UNL A   1      43.859  26.909  30.877  1.00  0.00     0.016 A 
ATOM     27  C   UNL A   1      43.641  26.742  28.440  1.00  0.00     0.016 A 
ATOM     28  C   UNL A   1      43.092  28.051  30.868  1.00  0.00     0.010 A 
ATOM     29  C   UNL A   1      42.855  27.871  28.437  1.00  0.00     0.010 A 
ATOM     30  C   UNL A   1      42.533  28.467  29.657  1.00  0.00    -0.014 A 
BRANCH  30  31
ATOM     31  C   UNL A   1      41.629  29.593  29.703  1.00  0.00     0.031 A 
ATOM     32  C   UNL A   1      42.283  30.910  29.575  1.00  0.00     0.074 A 
ATOM     33  C   UNL A   1      40.293  29.452  29.744  1.00  0.00     0.049 A 
ATOM     34  N   UNL A   1      42.299  31.878  30.428  1.00  0.00    -0.248 NA
ATOM     35  C   UNL A   1      43.105  31.132  28.376  1.00  0.00     0.031 C 
ATOM     36  C   UNL A   1      39.505  28.233  29.550  1.00  0.00     0.029 A 
ATOM     37  N   UNL A   1      39.351  30.426  29.852  1.00  0.00    -0.354 N 
ATOM     38  C   UNL A   1      43.010  32.900  29.811  1.00  0.00     0.074 A 
ATOM     39  C   UNL A   1      43.596  32.344  28.618  1.00  0.00     0.031 C 
ATOM     40  C   UNL A   1      38.215  28.578  29.333  1.00  0.00     0.029 A 
ATOM     41  C   UNL A   1      38.076  30.017  29.498  1.00  0.00     0.049 A 
ATOM     42  H   UNL A   1      39.557  31.340  30.156  1.00  0.00     0.167 HD
ATOM     43  C   UNL A   1      42.896  34.197  30.194  1.00  0.00     0.031 A 
ATOM     44  C   UNL A   1      37.019  30.833  29.274  1.00  0.00     0.031 A 
ATOM     45  C   UNL A   1      42.332  34.342  31.506  1.00  0.00     0.049 A 
ATOM     46  C   UNL A   1      37.315  32.136  29.917  1.00  0.00     0.074 A 
ATOM     47  C   UNL A   1      42.707  33.956  32.776  1.00  0.00     0.029 A 
ATOM     48  N   UNL A   1      41.003  34.679  31.584  1.00  0.00    -0.354 N 
ATOM     49  N   UNL A   1      37.381  32.319  31.204  1.00  0.00    -0.248 NA
ATOM     50  C   UNL A   1      37.884  33.204  29.107  1.00  0.00     0.031 C 
ATOM     51  C   UNL A   1      41.488  33.673  33.459  1.00  0.00     0.029 A 
ATOM     52  C   UNL A   1      40.438  33.912  32.570  1.00  0.00     0.049 A 
ATOM     53  H   UNL A   1      40.541  35.349  31.031  1.00  0.00     0.167 HD
ATOM     54  C   UNL A   1      38.339  33.307  31.376  1.00  0.00     0.074 A 
ATOM     55  C   UNL A   1      38.507  33.906  30.058  1.00  0.00     0.031 C 
ATOM     56  C   UNL A   1      39.103  33.356  32.505  1.00  0.00     0.031 A 
BRANCH  43  57
ATOM     57  C   UNL A   1      42.958  35.329  29.208  1.00  0.00    -0.014 A 
ATOM     58  C   UNL A   1      43.810  36.415  29.459  1.00  0.00     0.009 A 
ATOM     59  C   UNL A   1      42.017  35.481  28.168  1.00  0.00     0.009 A 
ATOM     60  C   UNL A   1      43.706  37.599  28.720  1.00  0.00     0.001 A 
ATOM     61  C   UNL A   1      41.943  36.641  27.398  1.00  0.00     0.001 A 
ATOM     62  C   UNL A   1      42.777  37.710  27.688  1.00  0.00     0.000 A 
ENDBRANCH  43  57
BRANCH  44  63
ATOM     63  C   UNL A   1      35.900  30.667  28.321  1.00  0.00    -0.014 A 
ATOM     64  C   UNL A   1      35.744  29.457  27.626  1.00  0.00     0.009 A 
ATOM     65  C   UNL A   1      34.832  31.581  28.287  1.00  0.00     0.009 A 
ATOM     66  C   UNL A   1      34.543  29.146  26.977  1.00  0.00     0.001 A 
ATOM     67  C   UNL A   1      33.637  31.278  27.626  1.00  0.00     0.001 A 
ATOM     68  C   UNL A   1      33.484  30.051  26.989  1.00  0.00     0.000 A 
ENDBRANCH  44  63
BRANCH  56  69
ATOM     69  C   UNL A   1      38.681  32.508  33.677  1.00  0.00    -0.014 A 
ATOM     70  C   UNL A   1      39.061  31.161  33.807  1.00  0.00     0.009 A 
ATOM     71  C   UNL A   1      38.034  33.129  34.755  1.00  0.00     0.009 A 
ATOM     72  C   UNL A   1      38.788  30.453  34.980  1.00  0.00     0.001 A 
ATOM     73  C   UNL A   1      37.777  32.425  35.933  1.00  0.00     0.001 A 
ATOM     74  C   UNL A   1      38.154  31.087  36.046  1.00  0.00     0.000 A 
ENDBRANCH  56  69
ENDBRANCH  30  31
ENDBRANCH  23  25
ENDBRANCH  22  23
ENDBRANCH   1  22
TORSDOF 12
ENDMDL
MODEL 3
REMARK VINA RESULT:     -10.9      4.360     11.333
REMARK SMILES CC(=O)n1cc2c3c(cccc31)C(=O)C[C@@H]2C(=O)OCCOC(=O)c1ccc(-c2c3nc(c(-c4ccccc4)c4ccc([nH]4)c(-c4ccccc4)c4nc(c(-c5ccccc5)c5ccc2[nH]5)C=C4)C=C3)cc1
REMARK SMILES IDX 21 1 20 2 19 3 17 4 18 5 16 6 4 7 5 8 12 9 6 10 7 11 11 12
REMARK SMILES IDX 8 13 10 14 15 15 9 16 13 17 14 18 2 19 1 20 3 21 22 22 23 23
REMARK SMILES IDX 24 24 25 25 26 26 72 27 27 28 71 29 28 30 29 31 30 32 65 33
REMARK SMILES IDX 31 34 70 35 64 36 66 37 32 38 69 39 63 40 62 41 33 43 55 44
REMARK SMILES IDX 40 45 54 46 41 47 44 48 53 49 67 50 42 51 43 52 52 54 68 55
REMARK SMILES IDX 45 56 34 57 35 58 39 59 36 60 38 61 37 62 56 63 57 64 61 65
REMARK SMILES IDX 58 66 60 67 59 68 46 69 47 70 51 71 48 72 50 73 49 74
REMARK H PARENT 66 42 44 53
REMARK Flexibility Score: inf
ROOT
ATOM      1  C   UNL A   1      39.694  34.119  33.700  1.00  0.00     0.275 C 
ENDROOT
BRANCH   1   2
ATOM      2  C   UNL A   1      38.457  34.041  34.593  1.00  0.00     0.274 C 
BRANCH   2   3
ATOM      3  O   UNL A   1      37.240  34.423  33.918  1.00  0.00    -0.462 OA
BRANCH   3   4
ATOM      4  C   UNL A   1      36.236  33.500  33.922  1.00  0.00     0.314 C 
ATOM      5  O   UNL A   1      36.382  32.322  34.237  1.00  0.00    -0.252 OA
BRANCH   4   6
ATOM      6  C   UNL A   1      34.913  34.051  33.409  1.00  0.00     0.139 C 
ATOM      7  N   UNL A   1      34.761  32.873  29.870  1.00  0.00    -0.287 N 
ATOM      8  C   UNL A   1      35.113  32.641  31.200  1.00  0.00     0.100 A 
ATOM      9  C   UNL A   1      34.128  34.121  29.812  1.00  0.00     0.057 A 
ATOM     10  C   UNL A   1      34.769  33.733  31.958  1.00  0.00    -0.006 A 
ATOM     11  C   UNL A   1      34.130  34.634  31.100  1.00  0.00     0.015 A 
ATOM     12  C   UNL A   1      33.520  34.852  28.776  1.00  0.00     0.027 A 
ATOM     13  C   UNL A   1      33.540  35.860  31.405  1.00  0.00     0.027 A 
ATOM     14  C   UNL A   1      32.903  36.078  29.099  1.00  0.00     0.003 A 
ATOM     15  C   UNL A   1      34.701  35.563  33.684  1.00  0.00     0.101 C 
ATOM     16  C   UNL A   1      32.902  36.582  30.403  1.00  0.00     0.012 A 
ATOM     17  C   UNL A   1      33.649  36.274  32.821  1.00  0.00     0.164 C 
ATOM     18  O   UNL A   1      32.970  37.204  33.242  1.00  0.00    -0.294 OA
BRANCH   7  19
ATOM     19  C   UNL A   1      34.985  32.000  28.786  1.00  0.00     0.227 C 
ATOM     20  C   UNL A   1      36.404  31.939  28.299  1.00  0.00     0.115 C 
ATOM     21  O   UNL A   1      34.069  31.330  28.329  1.00  0.00    -0.274 OA
ENDBRANCH   7  19
ENDBRANCH   4   6
ENDBRANCH   3   4
ENDBRANCH   2   3
ENDBRANCH   1   2
BRANCH   1  22
ATOM     22  O   UNL A   1      39.794  33.011  32.803  1.00  0.00    -0.458 OA
BRANCH  22  23
ATOM     23  C   UNL A   1      39.810  33.389  31.507  1.00  0.00     0.338 C 
ATOM     24  O   UNL A   1      39.457  34.464  31.051  1.00  0.00    -0.246 OA
BRANCH  23  25
ATOM     25  C   UNL A   1      40.170  32.283  30.629  1.00  0.00     0.060 A 
ATOM     26  C   UNL A   1      39.243  31.241  30.517  1.00  0.00     0.016 A 
ATOM     27  C   UNL A   1      41.514  32.133  30.277  1.00  0.00     0.016 A 
ATOM     28  C   UNL A   1      39.707  29.979  30.228  1.00  0.00     0.010 A 
ATOM     29  C   UNL A   1      41.979  30.867  30.010  1.00  0.00     0.010 A 
ATOM     30  C   UNL A   1      41.083  29.799  30.060  1.00  0.00    -0.014 A 
BRANCH  30  31
ATOM     31  C   UNL A   1      41.552  28.443  29.887  1.00  0.00     0.031 A 
ATOM     32  C   UNL A   1      42.326  27.912  31.026  1.00  0.00     0.074 A 
ATOM     33  C   UNL A   1      41.217  27.688  28.827  1.00  0.00     0.049 A 
ATOM     34  N   UNL A   1      43.553  27.512  31.040  1.00  0.00    -0.248 NA
ATOM     35  C   UNL A   1      41.666  27.920  32.341  1.00  0.00     0.031 C 
ATOM     36  C   UNL A   1      40.212  27.965  27.799  1.00  0.00     0.029 A 
ATOM     37  N   UNL A   1      41.644  26.433  28.525  1.00  0.00    -0.354 N 
ATOM     38  C   UNL A   1      43.782  27.072  32.337  1.00  0.00     0.074 A 
ATOM     39  C   UNL A   1      42.643  27.470  33.124  1.00  0.00     0.031 C 
ATOM     40  C   UNL A   1      39.951  26.822  27.125  1.00  0.00     0.029 A 
ATOM     41  C   UNL A   1      40.856  25.781  27.591  1.00  0.00     0.049 A 
ATOM     42  H   UNL A   1      42.441  26.025  28.934  1.00  0.00     0.167 HD
ATOM     43  C   UNL A   1      44.788  26.214  32.645  1.00  0.00     0.031 A 
ATOM     44  C   UNL A   1      40.903  24.459  27.304  1.00  0.00     0.031 A 
ATOM     45  C   UNL A   1      45.797  26.153  31.626  1.00  0.00     0.049 A 
ATOM     46  C   UNL A   1      42.208  23.943  27.780  1.00  0.00     0.074 A 
ATOM     47  C   UNL A   1      46.681  27.057  31.075  1.00  0.00     0.029 A 
ATOM     48  N   UNL A   1      45.760  25.081  30.769  1.00  0.00    -0.354 N 
ATOM     49  N   UNL A   1      43.356  24.256  27.252  1.00  0.00    -0.248 NA
ATOM     50  C   UNL A   1      42.278  23.319  29.094  1.00  0.00     0.031 C 
ATOM     51  C   UNL A   1      46.807  26.674  29.708  1.00  0.00     0.029 A 
ATOM     52  C   UNL A   1      46.001  25.552  29.505  1.00  0.00     0.049 A 
ATOM     53  H   UNL A   1      45.591  24.144  31.019  1.00  0.00     0.167 HD
ATOM     54  C   UNL A   1      44.252  24.243  28.311  1.00  0.00     0.074 A 
ATOM     55  C   UNL A   1      43.566  23.528  29.379  1.00  0.00     0.031 C 
ATOM     56  C   UNL A   1      45.350  25.053  28.313  1.00  0.00     0.031 A 
BRANCH  43  57
ATOM     57  C   UNL A   1      44.642  25.162  33.707  1.00  0.00    -0.014 A 
ATOM     58  C   UNL A   1      45.579  25.101  34.749  1.00  0.00     0.009 A 
ATOM     59  C   UNL A   1      43.758  24.070  33.577  1.00  0.00     0.009 A 
ATOM     60  C   UNL A   1      45.641  23.992  35.600  1.00  0.00     0.001 A 
ATOM     61  C   UNL A   1      43.785  22.985  34.453  1.00  0.00     0.001 A 
ATOM     62  C   UNL A   1      44.743  22.938  35.455  1.00  0.00     0.000 A 
ENDBRANCH  43  57
BRANCH  44  63
ATOM     63  C   UNL A   1      39.804  23.554  26.900  1.00  0.00    -0.014 A 
ATOM     64  C   UNL A   1      38.550  24.084  26.557  1.00  0.00     0.009 A 
ATOM     65  C   UNL A   1      40.050  22.205  26.588  1.00  0.00     0.009 A 
ATOM     66  C   UNL A   1      37.603  23.312  25.871  1.00  0.00     0.001 A 
ATOM     67  C   UNL A   1      39.099  21.429  25.917  1.00  0.00     0.001 A 
ATOM     68  C   UNL A   1      37.884  21.989  25.539  1.00  0.00     0.000 A 
ENDBRANCH  44  63
BRANCH  56  69
ATOM     69  C   UNL A   1      45.724  25.732  27.020  1.00  0.00    -0.014 A 
ATOM     70  C   UNL A   1      45.177  26.967  26.632  1.00  0.00     0.009 A 
ATOM     71  C   UNL A   1      46.779  25.199  26.264  1.00  0.00     0.009 A 
ATOM     72  C   UNL A   1      45.665  27.643  25.510  1.00  0.00     0.001 A 
ATOM     73  C   UNL A   1      47.277  25.884  25.154  1.00  0.00     0.001 A 
ATOM     74  C   UNL A   1      46.720  27.105  24.776  1.00  0.00     0.000 A 
ENDBRANCH  56  69
ENDBRANCH  30  31
ENDBRANCH  23  25
ENDBRANCH  22  23
ENDBRANCH   1  22
TORSDOF 12
ENDMDL
