MODEL 1
REMARK VINA RESULT:     -10.9      0.000      0.000
REMARK SMILES Cn1cc(C[C@H](C(=O)OCCOC(=O)c2ccc(-c3c4nc(c(-c5ccccc5)c5ccc([nH]5)c(-c5ccccc5)c5nc(c(-c6ccccc6)c6ccc3[nH]6)C=C5)C=C4)cc2)c2ccc(F)cc2)cn1
REMARK SMILES IDX 10 1 9 2 7 3 8 4 6 5 5 6 4 7 1 8 2 9 3 10 71 11 70 12 63 13
REMARK SMILES IDX 64 14 69 15 65 16 68 17 66 18 67 19 11 20 12 21 13 22 14 23
REMARK SMILES IDX 15 24 16 25 62 26 17 27 61 28 18 29 19 30 20 31 55 32 21 33
REMARK SMILES IDX 60 34 54 35 56 36 22 37 59 38 53 39 52 40 23 42 45 43 30 44
REMARK SMILES IDX 44 45 31 46 34 47 43 48 57 49 32 50 33 51 42 53 58 54 35 55
REMARK SMILES IDX 24 56 25 57 29 58 26 59 28 60 27 61 46 62 47 63 51 64 48 65
REMARK SMILES IDX 50 66 49 67 36 68 37 69 41 70 38 71 40 72 39 73
REMARK H PARENT 56 41 34 52
REMARK Flexibility Score: inf
ROOT
ATOM      1  C   UNL A   1      35.171  21.493  26.137  1.00  0.00     0.274 C 
ENDROOT
BRANCH   1   2
ATOM      2  O   UNL A   1      34.215  22.203  25.322  1.00  0.00    -0.462 OA
BRANCH   2   3
ATOM      3  C   UNL A   1      32.899  21.965  25.563  1.00  0.00     0.313 C 
ATOM      4  O   UNL A   1      32.312  22.315  26.584  1.00  0.00    -0.252 OA
BRANCH   3   5
ATOM      5  C   UNL A   1      32.177  21.261  24.409  1.00  0.00     0.134 C 
BRANCH   5   6
ATOM      6  C   UNL A   1      32.470  22.104  23.153  1.00  0.00     0.059 C 
BRANCH   6   7
ATOM      7  C   UNL A   1      31.940  23.500  23.100  1.00  0.00    -0.009 A 
ATOM      8  C   UNL A   1      32.230  27.089  22.883  1.00  0.00     0.173 C 
ATOM      9  N   UNL A   1      31.862  25.695  22.972  1.00  0.00    -0.276 N 
ATOM     10  C   UNL A   1      32.673  24.622  22.759  1.00  0.00     0.112 A 
ATOM     11  N   UNL A   1      30.625  25.353  23.367  1.00  0.00    -0.182 NA
ATOM     12  C   UNL A   1      30.673  24.021  23.449  1.00  0.00     0.138 A 
ENDBRANCH   6   7
ENDBRANCH   5   6
BRANCH   5  13
ATOM     13  C   UNL A   1      32.449  19.759  24.327  1.00  0.00    -0.033 A 
ATOM     14  C   UNL A   1      32.586  19.035  25.531  1.00  0.00     0.007 A 
ATOM     15  C   UNL A   1      32.566  19.057  23.116  1.00  0.00     0.007 A 
ATOM     16  C   UNL A   1      32.867  17.668  25.522  1.00  0.00     0.039 A 
ATOM     17  C   UNL A   1      32.839  17.685  23.111  1.00  0.00     0.039 A 
ATOM     18  C   UNL A   1      32.993  17.005  24.311  1.00  0.00     0.123 A 
ATOM     19  F   UNL A   1      33.265  15.695  24.301  1.00  0.00    -0.207 F 
ENDBRANCH   5  13
ENDBRANCH   3   5
ENDBRANCH   2   3
ENDBRANCH   1   2
BRANCH   1  20
ATOM     20  C   UNL A   1      36.056  20.627  25.248  1.00  0.00     0.275 C 
BRANCH  20  21
ATOM     21  O   UNL A   1      37.241  21.377  24.928  1.00  0.00    -0.458 OA
BRANCH  21  22
ATOM     22  C   UNL A   1      38.367  21.005  25.576  1.00  0.00     0.338 C 
ATOM     23  O   UNL A   1      38.846  19.889  25.663  1.00  0.00    -0.246 OA
BRANCH  22  24
ATOM     24  C   UNL A   1      38.996  22.194  26.178  1.00  0.00     0.060 A 
ATOM     25  C   UNL A   1      38.406  23.449  26.030  1.00  0.00     0.016 A 
ATOM     26  C   UNL A   1      40.242  22.077  26.790  1.00  0.00     0.016 A 
ATOM     27  C   UNL A   1      39.113  24.599  26.384  1.00  0.00     0.010 A 
ATOM     28  C   UNL A   1      40.895  23.223  27.253  1.00  0.00     0.010 A 
ATOM     29  C   UNL A   1      40.363  24.504  27.014  1.00  0.00    -0.014 A 
BRANCH  29  30
ATOM     30  C   UNL A   1      41.140  25.722  27.389  1.00  0.00     0.031 A 
ATOM     31  C   UNL A   1      40.562  26.722  28.361  1.00  0.00     0.074 A 
ATOM     32  C   UNL A   1      42.360  25.961  26.865  1.00  0.00     0.049 A 
ATOM     33  N   UNL A   1      40.962  27.940  28.634  1.00  0.00    -0.248 NA
ATOM     34  C   UNL A   1      39.366  26.305  29.111  1.00  0.00     0.031 C 
ATOM     35  C   UNL A   1      43.083  25.082  25.946  1.00  0.00     0.029 A 
ATOM     36  N   UNL A   1      43.212  27.026  27.040  1.00  0.00    -0.354 N 
ATOM     37  C   UNL A   1      40.022  28.460  29.516  1.00  0.00     0.074 A 
ATOM     38  C   UNL A   1      39.042  27.421  29.748  1.00  0.00     0.031 C 
ATOM     39  C   UNL A   1      44.286  25.614  25.680  1.00  0.00     0.029 A 
ATOM     40  C   UNL A   1      44.382  26.917  26.328  1.00  0.00     0.049 A 
ATOM     41  H   UNL A   1      43.002  27.794  27.619  1.00  0.00     0.167 HD
ATOM     42  C   UNL A   1      39.972  29.693  30.074  1.00  0.00     0.031 A 
ATOM     43  C   UNL A   1      45.403  27.779  26.170  1.00  0.00     0.031 A 
ATOM     44  C   UNL A   1      40.976  30.710  29.902  1.00  0.00     0.049 A 
ATOM     45  C   UNL A   1      45.333  29.138  26.803  1.00  0.00     0.074 A 
ATOM     46  C   UNL A   1      41.014  31.987  30.439  1.00  0.00     0.029 A 
ATOM     47  N   UNL A   1      42.132  30.556  29.157  1.00  0.00    -0.354 N 
ATOM     48  N   UNL A   1      44.393  29.646  27.560  1.00  0.00    -0.248 NA
ATOM     49  C   UNL A   1      46.454  30.050  26.534  1.00  0.00     0.031 C 
ATOM     50  C   UNL A   1      42.185  32.613  30.000  1.00  0.00     0.029 A 
ATOM     51  C   UNL A   1      42.890  31.713  29.219  1.00  0.00     0.049 A 
ATOM     52  H   UNL A   1      42.379  29.745  28.657  1.00  0.00     0.167 HD
ATOM     53  C   UNL A   1      44.804  30.939  27.852  1.00  0.00     0.074 A 
ATOM     54  C   UNL A   1      46.091  31.128  27.216  1.00  0.00     0.031 C 
ATOM     55  C   UNL A   1      44.164  31.890  28.574  1.00  0.00     0.031 A 
BRANCH  42  56
ATOM     56  C   UNL A   1      38.760  30.031  30.897  1.00  0.00    -0.014 A 
ATOM     57  C   UNL A   1      38.738  29.845  32.287  1.00  0.00     0.009 A 
ATOM     58  C   UNL A   1      37.632  30.579  30.265  1.00  0.00     0.009 A 
ATOM     59  C   UNL A   1      37.598  30.173  33.023  1.00  0.00     0.001 A 
ATOM     60  C   UNL A   1      36.502  30.928  31.006  1.00  0.00     0.001 A 
ATOM     61  C   UNL A   1      36.483  30.717  32.384  1.00  0.00     0.000 A 
ENDBRANCH  42  56
BRANCH  43  62
ATOM     62  C   UNL A   1      46.563  27.397  25.327  1.00  0.00    -0.014 A 
ATOM     63  C   UNL A   1      47.553  26.540  25.829  1.00  0.00     0.009 A 
ATOM     64  C   UNL A   1      46.669  27.863  24.008  1.00  0.00     0.009 A 
ATOM     65  C   UNL A   1      48.631  26.163  25.026  1.00  0.00     0.001 A 
ATOM     66  C   UNL A   1      47.735  27.464  23.199  1.00  0.00     0.001 A 
ATOM     67  C   UNL A   1      48.716  26.618  23.710  1.00  0.00     0.000 A 
ENDBRANCH  43  62
BRANCH  55  68
ATOM     68  C   UNL A   1      44.856  33.212  28.722  1.00  0.00    -0.014 A 
ATOM     69  C   UNL A   1      44.557  34.282  27.864  1.00  0.00     0.009 A 
ATOM     70  C   UNL A   1      45.800  33.398  29.743  1.00  0.00     0.009 A 
ATOM     71  C   UNL A   1      45.212  35.506  28.010  1.00  0.00     0.001 A 
ATOM     72  C   UNL A   1      46.440  34.628  29.897  1.00  0.00     0.001 A 
ATOM     73  C   UNL A   1      46.152  35.678  29.026  1.00  0.00     0.000 A 
ENDBRANCH  55  68
ENDBRANCH  29  30
ENDBRANCH  22  24
ENDBRANCH  21  22
ENDBRANCH  20  21
ENDBRANCH   1  20
TORSDOF 14
ENDMDL
MODEL 2
REMARK VINA RESULT:     -10.8      2.145      3.413
REMARK SMILES Cn1cc(C[C@H](C(=O)OCCOC(=O)c2ccc(-c3c4nc(c(-c5ccccc5)c5ccc([nH]5)c(-c5ccccc5)c5nc(c(-c6ccccc6)c6ccc3[nH]6)C=C5)C=C4)cc2)c2ccc(F)cc2)cn1
REMARK SMILES IDX 10 1 9 2 7 3 8 4 6 5 5 6 4 7 1 8 2 9 3 10 71 11 70 12 63 13
REMARK SMILES IDX 64 14 69 15 65 16 68 17 66 18 67 19 11 20 12 21 13 22 14 23
REMARK SMILES IDX 15 24 16 25 62 26 17 27 61 28 18 29 19 30 20 31 55 32 21 33
REMARK SMILES IDX 60 34 54 35 56 36 22 37 59 38 53 39 52 40 23 42 45 43 30 44
REMARK SMILES IDX 44 45 31 46 34 47 43 48 57 49 32 50 33 51 42 53 58 54 35 55
REMARK SMILES IDX 24 56 25 57 29 58 26 59 28 60 27 61 46 62 47 63 51 64 48 65
REMARK SMILES IDX 50 66 49 67 36 68 37 69 41 70 38 71 40 72 39 73
REMARK H PARENT 56 41 34 52
REMARK Flexibility Score: inf
ROOT
ATOM      1  C   UNL A   1      35.917  20.019  25.000  1.00  0.00     0.274 C 
ENDROOT
BRANCH   1   2
ATOM      2  O   UNL A   1      35.312  21.145  25.669  1.00  0.00    -0.462 OA
BRANCH   2   3
ATOM      3  C   UNL A   1      33.954  21.185  25.707  1.00  0.00     0.313 C 
ATOM      4  O   UNL A   1      33.299  21.356  26.732  1.00  0.00    -0.252 OA
BRANCH   3   5
ATOM      5  C   UNL A   1      33.293  21.053  24.330  1.00  0.00     0.134 C 
BRANCH   5   6
ATOM      6  C   UNL A   1      32.184  19.997  24.495  1.00  0.00     0.059 C 
BRANCH   6   7
ATOM      7  C   UNL A   1      32.536  18.563  24.273  1.00  0.00    -0.009 A 
ATOM      8  C   UNL A   1      33.360  15.211  25.320  1.00  0.00     0.173 C 
ATOM      9  N   UNL A   1      33.046  16.458  24.664  1.00  0.00    -0.276 N 
ATOM     10  C   UNL A   1      32.531  17.578  25.243  1.00  0.00     0.112 A 
ATOM     11  N   UNL A   1      33.329  16.619  23.361  1.00  0.00    -0.182 NA
ATOM     12  C   UNL A   1      33.024  17.898  23.125  1.00  0.00     0.138 A 
ENDBRANCH   6   7
ENDBRANCH   5   6
BRANCH   5  13
ATOM     13  C   UNL A   1      32.905  22.389  23.696  1.00  0.00    -0.033 A 
ATOM     14  C   UNL A   1      31.624  22.915  23.969  1.00  0.00     0.007 A 
ATOM     15  C   UNL A   1      33.757  23.126  22.857  1.00  0.00     0.007 A 
ATOM     16  C   UNL A   1      31.199  24.113  23.394  1.00  0.00     0.039 A 
ATOM     17  C   UNL A   1      33.332  24.331  22.289  1.00  0.00     0.039 A 
ATOM     18  C   UNL A   1      32.058  24.811  22.558  1.00  0.00     0.123 A 
ATOM     19  F   UNL A   1      31.651  25.959  22.003  1.00  0.00    -0.207 F 
ENDBRANCH   5  13
ENDBRANCH   3   5
ENDBRANCH   2   3
ENDBRANCH   1   2
BRANCH   1  20
ATOM     20  C   UNL A   1      37.370  20.342  24.671  1.00  0.00     0.275 C 
BRANCH  20  21
ATOM     21  O   UNL A   1      37.849  21.293  25.639  1.00  0.00    -0.458 OA
BRANCH  21  22
ATOM     22  C   UNL A   1      39.111  21.100  26.081  1.00  0.00     0.338 C 
ATOM     23  O   UNL A   1      39.766  20.074  26.050  1.00  0.00    -0.246 OA
BRANCH  22  24
ATOM     24  C   UNL A   1      39.638  22.369  26.615  1.00  0.00     0.060 A 
ATOM     25  C   UNL A   1      39.092  23.584  26.199  1.00  0.00     0.016 A 
ATOM     26  C   UNL A   1      40.760  22.354  27.441  1.00  0.00     0.016 A 
ATOM     27  C   UNL A   1      39.738  24.781  26.510  1.00  0.00     0.010 A 
ATOM     28  C   UNL A   1      41.334  23.562  27.849  1.00  0.00     0.010 A 
ATOM     29  C   UNL A   1      40.862  24.791  27.350  1.00  0.00    -0.014 A 
BRANCH  29  30
ATOM     30  C   UNL A   1      41.574  26.060  27.684  1.00  0.00     0.031 A 
ATOM     31  C   UNL A   1      40.945  27.058  28.626  1.00  0.00     0.074 A 
ATOM     32  C   UNL A   1      42.778  26.346  27.148  1.00  0.00     0.049 A 
ATOM     33  N   UNL A   1      41.280  28.304  28.858  1.00  0.00    -0.248 NA
ATOM     34  C   UNL A   1      39.774  26.602  29.393  1.00  0.00     0.031 C 
ATOM     35  C   UNL A   1      43.545  25.477  26.255  1.00  0.00     0.029 A 
ATOM     36  N   UNL A   1      43.572  27.460  27.286  1.00  0.00    -0.354 N 
ATOM     37  C   UNL A   1      40.315  28.801  29.727  1.00  0.00     0.074 A 
ATOM     38  C   UNL A   1      39.392  27.719  29.996  1.00  0.00     0.031 C 
ATOM     39  C   UNL A   1      44.718  26.064  25.968  1.00  0.00     0.029 A 
ATOM     40  C   UNL A   1      44.745  27.390  26.574  1.00  0.00     0.049 A 
ATOM     41  H   UNL A   1      43.323  28.234  27.841  1.00  0.00     0.167 HD
ATOM     42  C   UNL A   1      40.201  30.047  30.246  1.00  0.00     0.031 A 
ATOM     43  C   UNL A   1      45.719  28.300  26.386  1.00  0.00     0.031 A 
ATOM     44  C   UNL A   1      41.149  31.110  30.038  1.00  0.00     0.049 A 
ATOM     45  C   UNL A   1      45.578  29.672  26.975  1.00  0.00     0.074 A 
ATOM     46  C   UNL A   1      41.120  32.403  30.534  1.00  0.00     0.029 A 
ATOM     47  N   UNL A   1      42.310  30.993  29.294  1.00  0.00    -0.354 N 
ATOM     48  N   UNL A   1      44.614  30.154  27.719  1.00  0.00    -0.248 NA
ATOM     49  C   UNL A   1      46.648  30.633  26.673  1.00  0.00     0.031 C 
ATOM     50  C   UNL A   1      42.256  33.076  30.070  1.00  0.00     0.029 A 
ATOM     51  C   UNL A   1      43.007  32.190  29.316  1.00  0.00     0.049 A 
ATOM     52  H   UNL A   1      42.599  30.181  28.819  1.00  0.00     0.167 HD
ATOM     53  C   UNL A   1      44.956  31.475  27.968  1.00  0.00     0.074 A 
ATOM     54  C   UNL A   1      46.231  31.712  27.321  1.00  0.00     0.031 C 
ATOM     55  C   UNL A   1      44.268  32.414  28.662  1.00  0.00     0.031 A 
BRANCH  42  56
ATOM     56  C   UNL A   1      38.975  30.346  31.062  1.00  0.00    -0.014 A 
ATOM     57  C   UNL A   1      37.784  30.791  30.469  1.00  0.00     0.009 A 
ATOM     58  C   UNL A   1      39.009  30.142  32.451  1.00  0.00     0.009 A 
ATOM     59  C   UNL A   1      36.661  31.056  31.255  1.00  0.00     0.001 A 
ATOM     60  C   UNL A   1      37.878  30.386  33.232  1.00  0.00     0.001 A 
ATOM     61  C   UNL A   1      36.707  30.849  32.635  1.00  0.00     0.000 A 
ENDBRANCH  42  56
BRANCH  43  62
ATOM     62  C   UNL A   1      46.896  27.952  25.550  1.00  0.00    -0.014 A 
ATOM     63  C   UNL A   1      48.085  27.512  26.149  1.00  0.00     0.009 A 
ATOM     64  C   UNL A   1      46.825  28.032  24.151  1.00  0.00     0.009 A 
ATOM     65  C   UNL A   1      49.184  27.164  25.360  1.00  0.00     0.001 A 
ATOM     66  C   UNL A   1      47.916  27.658  23.365  1.00  0.00     0.001 A 
ATOM     67  C   UNL A   1      49.095  27.229  23.970  1.00  0.00     0.000 A 
ENDBRANCH  43  62
BRANCH  55  68
ATOM     68  C   UNL A   1      44.889  33.775  28.764  1.00  0.00    -0.014 A 
ATOM     69  C   UNL A   1      44.628  34.761  27.801  1.00  0.00     0.009 A 
ATOM     70  C   UNL A   1      45.726  34.082  29.848  1.00  0.00     0.009 A 
ATOM     71  C   UNL A   1      45.216  36.022  27.907  1.00  0.00     0.001 A 
ATOM     72  C   UNL A   1      46.299  35.349  29.960  1.00  0.00     0.001 A 
ATOM     73  C   UNL A   1      46.050  36.315  28.986  1.00  0.00     0.000 A 
ENDBRANCH  55  68
ENDBRANCH  29  30
ENDBRANCH  22  24
ENDBRANCH  21  22
ENDBRANCH  20  21
ENDBRANCH   1  20
TORSDOF 14
ENDMDL
MODEL 3
REMARK VINA RESULT:     -10.6      3.447      7.139
REMARK SMILES Cn1cc(C[C@H](C(=O)OCCOC(=O)c2ccc(-c3c4nc(c(-c5ccccc5)c5ccc([nH]5)c(-c5ccccc5)c5nc(c(-c6ccccc6)c6ccc3[nH]6)C=C5)C=C4)cc2)c2ccc(F)cc2)cn1
REMARK SMILES IDX 10 1 9 2 7 3 8 4 6 5 5 6 4 7 1 8 2 9 3 10 71 11 70 12 63 13
REMARK SMILES IDX 64 14 69 15 65 16 68 17 66 18 67 19 11 20 12 21 13 22 14 23
REMARK SMILES IDX 15 24 16 25 62 26 17 27 61 28 18 29 19 30 20 31 55 32 21 33
REMARK SMILES IDX 60 34 54 35 56 36 22 37 59 38 53 39 52 40 23 42 45 43 30 44
REMARK SMILES IDX 44 45 31 46 34 47 43 48 57 49 32 50 33 51 42 53 58 54 35 55
REMARK SMILES IDX 24 56 25 57 29 58 26 59 28 60 27 61 46 62 47 63 51 64 48 65
REMARK SMILES IDX 50 66 49 67 36 68 37 69 41 70 38 71 40 72 39 73
REMARK H PARENT 56 41 34 52
REMARK Flexibility Score: inf
ROOT
ATOM      1  C   UNL A   1      31.995  30.500  26.880  1.00  0.00     0.274 C 
ENDROOT
BRANCH   1   2
ATOM      2  O   UNL A   1      32.266  29.219  26.274  1.00  0.00    -0.462 OA
BRANCH   2   3
ATOM      3  C   UNL A   1      31.640  28.138  26.809  1.00  0.00     0.313 C 
ATOM      4  O   UNL A   1      31.367  28.020  28.000  1.00  0.00    -0.252 OA
BRANCH   3   5
ATOM      5  C   UNL A   1      31.242  27.080  25.773  1.00  0.00     0.134 C 
BRANCH   5   6
ATOM      6  C   UNL A   1      31.441  27.742  24.397  1.00  0.00     0.059 C 
BRANCH   6   7
ATOM      7  C   UNL A   1      30.250  28.335  23.719  1.00  0.00    -0.009 A 
ATOM      8  C   UNL A   1      28.073  31.035  22.727  1.00  0.00     0.173 C 
ATOM      9  N   UNL A   1      28.785  29.807  22.990  1.00  0.00    -0.276 N 
ATOM     10  C   UNL A   1      30.041  29.684  23.502  1.00  0.00     0.112 A 
ATOM     11  N   UNL A   1      28.177  28.625  22.795  1.00  0.00    -0.182 NA
ATOM     12  C   UNL A   1      29.064  27.732  23.241  1.00  0.00     0.138 A 
ENDBRANCH   6   7
ENDBRANCH   5   6
BRANCH   5  13
ATOM     13  C   UNL A   1      31.890  25.714  25.997  1.00  0.00    -0.033 A 
ATOM     14  C   UNL A   1      31.073  24.644  26.421  1.00  0.00     0.007 A 
ATOM     15  C   UNL A   1      33.259  25.463  25.801  1.00  0.00     0.007 A 
ATOM     16  C   UNL A   1      31.612  23.381  26.674  1.00  0.00     0.039 A 
ATOM     17  C   UNL A   1      33.794  24.195  26.047  1.00  0.00     0.039 A 
ATOM     18  C   UNL A   1      32.969  23.168  26.486  1.00  0.00     0.123 A 
ATOM     19  F   UNL A   1      33.488  21.959  26.730  1.00  0.00    -0.207 F 
ENDBRANCH   5  13
ENDBRANCH   3   5
ENDBRANCH   2   3
ENDBRANCH   1   2
BRANCH   1  20
ATOM     20  C   UNL A   1      33.310  31.208  27.182  1.00  0.00     0.275 C 
BRANCH  20  21
ATOM     21  O   UNL A   1      34.164  30.290  27.886  1.00  0.00    -0.458 OA
BRANCH  21  22
ATOM     22  C   UNL A   1      35.038  30.845  28.756  1.00  0.00     0.338 C 
ATOM     23  O   UNL A   1      34.854  31.791  29.500  1.00  0.00    -0.246 OA
BRANCH  22  24
ATOM     24  C   UNL A   1      36.309  30.102  28.706  1.00  0.00     0.060 A 
ATOM     25  C   UNL A   1      36.810  29.492  29.856  1.00  0.00     0.016 A 
ATOM     26  C   UNL A   1      37.067  30.114  27.536  1.00  0.00     0.016 A 
ATOM     27  C   UNL A   1      38.116  29.001  29.874  1.00  0.00     0.010 A 
ATOM     28  C   UNL A   1      38.329  29.513  27.525  1.00  0.00     0.010 A 
ATOM     29  C   UNL A   1      38.892  28.992  28.705  1.00  0.00    -0.014 A 
BRANCH  29  30
ATOM     30  C   UNL A   1      40.295  28.482  28.707  1.00  0.00     0.031 A 
ATOM     31  C   UNL A   1      41.439  29.409  29.040  1.00  0.00     0.074 A 
ATOM     32  C   UNL A   1      40.572  27.198  28.403  1.00  0.00     0.049 A 
ATOM     33  N   UNL A   1      42.727  29.232  28.871  1.00  0.00    -0.248 NA
ATOM     34  C   UNL A   1      41.089  30.715  29.622  1.00  0.00     0.031 C 
ATOM     35  C   UNL A   1      39.587  26.159  28.099  1.00  0.00     0.029 A 
ATOM     36  N   UNL A   1      41.778  26.545  28.306  1.00  0.00    -0.354 N 
ATOM     37  C   UNL A   1      43.328  30.429  29.244  1.00  0.00     0.074 A 
ATOM     38  C   UNL A   1      42.268  31.319  29.665  1.00  0.00     0.031 C 
ATOM     39  C   UNL A   1      40.220  24.993  27.902  1.00  0.00     0.029 A 
ATOM     40  C   UNL A   1      41.660  25.219  27.967  1.00  0.00     0.049 A 
ATOM     41  H   UNL A   1      42.644  26.986  28.463  1.00  0.00     0.167 HD
ATOM     42  C   UNL A   1      44.641  30.761  29.226  1.00  0.00     0.031 A 
ATOM     43  C   UNL A   1      42.595  24.291  27.693  1.00  0.00     0.031 A 
ATOM     44  C   UNL A   1      45.707  29.862  28.872  1.00  0.00     0.049 A 
ATOM     45  C   UNL A   1      44.045  24.676  27.686  1.00  0.00     0.074 A 
ATOM     46  C   UNL A   1      47.070  30.109  28.837  1.00  0.00     0.029 A 
ATOM     47  N   UNL A   1      45.533  28.536  28.519  1.00  0.00    -0.354 N 
ATOM     48  N   UNL A   1      44.589  25.837  27.952  1.00  0.00    -0.248 NA
ATOM     49  C   UNL A   1      45.005  23.628  27.314  1.00  0.00     0.031 C 
ATOM     50  C   UNL A   1      47.720  28.935  28.441  1.00  0.00     0.029 A 
ATOM     51  C   UNL A   1      46.762  27.950  28.264  1.00  0.00     0.049 A 
ATOM     52  H   UNL A   1      44.665  28.075  28.457  1.00  0.00     0.167 HD
ATOM     53  C   UNL A   1      45.955  25.662  27.772  1.00  0.00     0.074 A 
ATOM     54  C   UNL A   1      46.158  24.276  27.404  1.00  0.00     0.031 C 
ATOM     55  C   UNL A   1      46.950  26.574  27.890  1.00  0.00     0.031 A 
BRANCH  42  56
ATOM     56  C   UNL A   1      44.999  32.182  29.562  1.00  0.00    -0.014 A 
ATOM     57  C   UNL A   1      45.028  33.186  28.584  1.00  0.00     0.009 A 
ATOM     58  C   UNL A   1      45.276  32.522  30.896  1.00  0.00     0.009 A 
ATOM     59  C   UNL A   1      45.361  34.497  28.930  1.00  0.00     0.001 A 
ATOM     60  C   UNL A   1      45.585  33.838  31.244  1.00  0.00     0.001 A 
ATOM     61  C   UNL A   1      45.635  34.823  30.259  1.00  0.00     0.000 A 
ENDBRANCH  42  56
BRANCH  43  62
ATOM     62  C   UNL A   1      42.178  22.909  27.346  1.00  0.00    -0.014 A 
ATOM     63  C   UNL A   1      42.170  22.485  26.009  1.00  0.00     0.009 A 
ATOM     64  C   UNL A   1      41.814  22.001  28.352  1.00  0.00     0.009 A 
ATOM     65  C   UNL A   1      41.800  21.178  25.687  1.00  0.00     0.001 A 
ATOM     66  C   UNL A   1      41.469  20.687  28.029  1.00  0.00     0.001 A 
ATOM     67  C   UNL A   1      41.458  20.279  26.697  1.00  0.00     0.000 A 
ENDBRANCH  43  62
BRANCH  55  68
ATOM     68  C   UNL A   1      48.346  26.094  27.630  1.00  0.00    -0.014 A 
ATOM     69  C   UNL A   1      48.896  26.142  26.339  1.00  0.00     0.009 A 
ATOM     70  C   UNL A   1      49.128  25.609  28.689  1.00  0.00     0.009 A 
ATOM     71  C   UNL A   1      50.196  25.687  26.110  1.00  0.00     0.001 A 
ATOM     72  C   UNL A   1      50.433  25.171  28.460  1.00  0.00     0.001 A 
ATOM     73  C   UNL A   1      50.963  25.203  27.171  1.00  0.00     0.000 A 
ENDBRANCH  55  68
ENDBRANCH  29  30
ENDBRANCH  22  24
ENDBRANCH  21  22
ENDBRANCH  20  21
ENDBRANCH   1  20
TORSDOF 14
ENDMDL
