MODEL 1
REMARK VINA RESULT:     -11.5      0.000      0.000
REMARK SMILES Cc1ccc(NC(=O)[C@H]2CC=CC[C@H]2C(=O)OCCOC(=O)c2ccc(-c3c4nc(c(-c5ccccc5)c5ccc([nH]5)c(-c5ccccc5)c5nc(c(-c6ccccc6)c6ccc3[nH]6)C=C5)C=C4)cc2)cc1F
REMARK SMILES IDX 18 1 17 2 15 3 16 4 14 5 9 6 10 7 11 8 13 9 12 10 7 11 6 12
REMARK SMILES IDX 8 14 5 15 1 16 2 17 3 18 72 19 4 20 71 21 73 22 19 23 20 24
REMARK SMILES IDX 21 25 22 26 23 27 24 28 70 29 25 30 69 31 26 32 27 33 28 34
REMARK SMILES IDX 63 35 29 36 68 37 62 38 64 39 30 40 67 41 61 42 60 43 31 45
REMARK SMILES IDX 53 46 38 47 52 48 39 49 42 50 51 51 65 52 40 53 41 54 50 56
REMARK SMILES IDX 66 57 43 58 32 59 33 60 37 61 34 62 36 63 35 64 54 65 55 66
REMARK SMILES IDX 59 67 56 68 58 69 57 70 44 71 45 72 49 73 46 74 48 75 47 76
REMARK H PARENT 6 13 64 44 42 55
REMARK Flexibility Score: inf
ROOT
ATOM      1  C   UNL A   1      37.318  20.338  24.992  1.00  0.00     0.274 C 
ENDROOT
BRANCH   1   2
ATOM      2  O   UNL A   1      36.651  21.530  24.514  1.00  0.00    -0.462 OA
BRANCH   2   3
ATOM      3  C   UNL A   1      35.573  21.928  25.234  1.00  0.00     0.310 C 
ATOM      4  O   UNL A   1      35.228  21.405  26.292  1.00  0.00    -0.252 OA
BRANCH   3   5
ATOM      5  C   UNL A   1      34.779  23.074  24.632  1.00  0.00     0.116 C 
ATOM      6  C   UNL A   1      33.332  22.815  24.158  1.00  0.00     0.097 C 
ATOM      7  C   UNL A   1      32.761  24.063  23.445  1.00  0.00     0.041 C 
ATOM      8  C   UNL A   1      33.316  25.385  23.903  1.00  0.00    -0.030 C 
ATOM      9  C   UNL A   1      34.952  24.339  25.471  1.00  0.00     0.043 C 
ATOM     10  C   UNL A   1      34.281  25.513  24.824  1.00  0.00    -0.030 C 
BRANCH   6  11
ATOM     11  C   UNL A   1      32.360  22.391  25.255  1.00  0.00     0.228 C 
ATOM     12  N   UNL A   1      31.954  21.095  25.437  1.00  0.00    -0.326 N 
ATOM     13  H   UNL A   1      31.295  20.989  26.161  1.00  0.00     0.169 HD
ATOM     14  O   UNL A   1      31.907  23.226  26.048  1.00  0.00    -0.274 OA
BRANCH  12  15
ATOM     15  C   UNL A   1      32.287  19.881  24.802  1.00  0.00     0.044 A 
ATOM     16  C   UNL A   1      34.240  16.490  22.979  1.00  0.00     0.047 C 
ATOM     17  C   UNL A   1      33.461  17.590  23.635  1.00  0.00    -0.015 A 
ATOM     18  C   UNL A   1      33.570  17.816  25.008  1.00  0.00     0.008 A 
ATOM     19  C   UNL A   1      32.690  18.478  22.879  1.00  0.00     0.128 A 
ATOM     20  C   UNL A   1      32.965  18.937  25.591  1.00  0.00     0.026 A 
ATOM     21  C   UNL A   1      32.082  19.599  23.452  1.00  0.00     0.065 A 
ATOM     22  F   UNL A   1      32.567  18.287  21.556  1.00  0.00    -0.207 F 
ENDBRANCH  12  15
ENDBRANCH   6  11
ENDBRANCH   3   5
ENDBRANCH   2   3
ENDBRANCH   1   2
BRANCH   1  23
ATOM     23  C   UNL A   1      38.798  20.554  25.370  1.00  0.00     0.275 C 
BRANCH  23  24
ATOM     24  O   UNL A   1      39.520  19.350  25.720  1.00  0.00    -0.458 OA
BRANCH  24  25
ATOM     25  C   UNL A   1      40.820  19.598  25.983  1.00  0.00     0.338 C 
ATOM     26  O   UNL A   1      41.734  18.831  25.757  1.00  0.00    -0.246 OA
BRANCH  25  27
ATOM     27  C   UNL A   1      41.136  20.911  26.540  1.00  0.00     0.060 A 
ATOM     28  C   UNL A   1      41.741  21.837  25.677  1.00  0.00     0.016 A 
ATOM     29  C   UNL A   1      41.067  21.147  27.910  1.00  0.00     0.016 A 
ATOM     30  C   UNL A   1      42.270  23.016  26.182  1.00  0.00     0.010 A 
ATOM     31  C   UNL A   1      41.598  22.335  28.418  1.00  0.00     0.010 A 
ATOM     32  C   UNL A   1      42.193  23.274  27.555  1.00  0.00    -0.014 A 
BRANCH  32  33
ATOM     33  C   UNL A   1      42.571  24.607  28.058  1.00  0.00     0.031 A 
ATOM     34  C   UNL A   1      41.566  25.693  28.268  1.00  0.00     0.074 A 
ATOM     35  C   UNL A   1      43.873  24.808  28.319  1.00  0.00     0.049 A 
ATOM     36  N   UNL A   1      41.769  26.925  28.662  1.00  0.00    -0.248 NA
ATOM     37  C   UNL A   1      40.157  25.362  28.014  1.00  0.00     0.031 C 
ATOM     38  C   UNL A   1      44.922  23.792  28.182  1.00  0.00     0.029 A 
ATOM     39  N   UNL A   1      44.541  25.928  28.735  1.00  0.00    -0.354 N 
ATOM     40  C   UNL A   1      40.516  27.520  28.707  1.00  0.00     0.074 A 
ATOM     41  C   UNL A   1      39.559  26.516  28.286  1.00  0.00     0.031 C 
ATOM     42  C   UNL A   1      46.106  24.345  28.478  1.00  0.00     0.029 A 
ATOM     43  C   UNL A   1      45.899  25.752  28.798  1.00  0.00     0.049 A 
ATOM     44  H   UNL A   1      44.091  26.773  28.965  1.00  0.00     0.167 HD
ATOM     45  C   UNL A   1      40.206  28.787  29.071  1.00  0.00     0.031 A 
ATOM     46  C   UNL A   1      46.878  26.635  29.055  1.00  0.00     0.031 A 
ATOM     47  C   UNL A   1      41.174  29.779  29.466  1.00  0.00     0.049 A 
ATOM     48  C   UNL A   1      46.512  28.050  29.373  1.00  0.00     0.074 A 
ATOM     49  C   UNL A   1      40.956  31.082  29.882  1.00  0.00     0.029 A 
ATOM     50  N   UNL A   1      42.547  29.581  29.482  1.00  0.00    -0.354 N 
ATOM     51  N   UNL A   1      45.322  28.594  29.435  1.00  0.00    -0.248 NA
ATOM     52  C   UNL A   1      47.618  28.967  29.663  1.00  0.00     0.031 C 
ATOM     53  C   UNL A   1      42.201  31.684  30.106  1.00  0.00     0.029 A 
ATOM     54  C   UNL A   1      43.192  30.744  29.869  1.00  0.00     0.049 A 
ATOM     55  H   UNL A   1      42.997  28.736  29.251  1.00  0.00     0.167 HD
ATOM     56  C   UNL A   1      45.531  29.917  29.788  1.00  0.00     0.074 A 
ATOM     57  C   UNL A   1      46.964  30.090  29.932  1.00  0.00     0.031 C 
ATOM     58  C   UNL A   1      44.618  30.899  29.982  1.00  0.00     0.031 A 
BRANCH  45  59
ATOM     59  C   UNL A   1      38.759  29.187  29.033  1.00  0.00    -0.014 A 
ATOM     60  C   UNL A   1      38.162  29.643  27.848  1.00  0.00     0.009 A 
ATOM     61  C   UNL A   1      37.966  29.044  30.183  1.00  0.00     0.009 A 
ATOM     62  C   UNL A   1      36.803  29.968  27.820  1.00  0.00     0.001 A 
ATOM     63  C   UNL A   1      36.604  29.354  30.148  1.00  0.00     0.001 A 
ATOM     64  C   UNL A   1      36.025  29.819  28.969  1.00  0.00     0.000 A 
ENDBRANCH  45  59
BRANCH  46  65
ATOM     65  C   UNL A   1      48.287  26.184  28.993  1.00  0.00    -0.014 A 
ATOM     66  C   UNL A   1      48.994  26.220  27.784  1.00  0.00     0.009 A 
ATOM     67  C   UNL A   1      48.952  25.792  30.166  1.00  0.00     0.009 A 
ATOM     68  C   UNL A   1      50.345  25.869  27.750  1.00  0.00     0.001 A 
ATOM     69  C   UNL A   1      50.307  25.461  30.132  1.00  0.00     0.001 A 
ATOM     70  C   UNL A   1      51.001  25.497  28.924  1.00  0.00     0.000 A 
ENDBRANCH  46  65
BRANCH  58  71
ATOM     71  C   UNL A   1      45.158  32.240  30.380  1.00  0.00    -0.014 A 
ATOM     72  C   UNL A   1      45.357  32.564  31.730  1.00  0.00     0.009 A 
ATOM     73  C   UNL A   1      45.470  33.187  29.393  1.00  0.00     0.009 A 
ATOM     74  C   UNL A   1      45.828  33.828  32.087  1.00  0.00     0.001 A 
ATOM     75  C   UNL A   1      45.959  34.442  29.753  1.00  0.00     0.001 A 
ATOM     76  C   UNL A   1      46.130  34.765  31.099  1.00  0.00     0.000 A 
ENDBRANCH  58  71
ENDBRANCH  32  33
ENDBRANCH  25  27
ENDBRANCH  24  25
ENDBRANCH  23  24
ENDBRANCH   1  23
TORSDOF 13
ENDMDL
MODEL 2
REMARK VINA RESULT:     -11.4      4.728      9.565
REMARK SMILES Cc1ccc(NC(=O)[C@H]2CC=CC[C@H]2C(=O)OCCOC(=O)c2ccc(-c3c4nc(c(-c5ccccc5)c5ccc([nH]5)c(-c5ccccc5)c5nc(c(-c6ccccc6)c6ccc3[nH]6)C=C5)C=C4)cc2)cc1F
REMARK SMILES IDX 18 1 17 2 15 3 16 4 14 5 9 6 10 7 11 8 13 9 12 10 7 11 6 12
REMARK SMILES IDX 8 14 5 15 1 16 2 17 3 18 72 19 4 20 71 21 73 22 19 23 20 24
REMARK SMILES IDX 21 25 22 26 23 27 24 28 70 29 25 30 69 31 26 32 27 33 28 34
REMARK SMILES IDX 63 35 29 36 68 37 62 38 64 39 30 40 67 41 61 42 60 43 31 45
REMARK SMILES IDX 53 46 38 47 52 48 39 49 42 50 51 51 65 52 40 53 41 54 50 56
REMARK SMILES IDX 66 57 43 58 32 59 33 60 37 61 34 62 36 63 35 64 54 65 55 66
REMARK SMILES IDX 59 67 56 68 58 69 57 70 44 71 45 72 49 73 46 74 48 75 47 76
REMARK H PARENT 6 13 64 44 42 55
REMARK Flexibility Score: inf
ROOT
ATOM      1  C   UNL A   1      31.717  30.948  26.405  1.00  0.00     0.274 C 
ENDROOT
BRANCH   1   2
ATOM      2  O   UNL A   1      32.012  29.540  26.566  1.00  0.00    -0.462 OA
BRANCH   2   3
ATOM      3  C   UNL A   1      32.432  28.897  25.449  1.00  0.00     0.310 C 
ATOM      4  O   UNL A   1      32.816  29.474  24.433  1.00  0.00    -0.252 OA
BRANCH   3   5
ATOM      5  C   UNL A   1      32.381  27.381  25.515  1.00  0.00     0.116 C 
ATOM      6  C   UNL A   1      31.467  26.618  24.529  1.00  0.00     0.097 C 
ATOM      7  C   UNL A   1      31.446  25.108  24.863  1.00  0.00     0.041 C 
ATOM      8  C   UNL A   1      32.693  24.567  25.509  1.00  0.00    -0.030 C 
ATOM      9  C   UNL A   1      33.790  26.806  25.644  1.00  0.00     0.043 C 
ATOM     10  C   UNL A   1      33.752  25.320  25.840  1.00  0.00    -0.030 C 
BRANCH   6  11
ATOM     11  C   UNL A   1      31.825  26.789  23.056  1.00  0.00     0.228 C 
ATOM     12  N   UNL A   1      31.124  27.600  22.203  1.00  0.00    -0.326 N 
ATOM     13  H   UNL A   1      31.454  27.573  21.276  1.00  0.00     0.169 HD
ATOM     14  O   UNL A   1      32.798  26.194  22.574  1.00  0.00    -0.274 OA
BRANCH  12  15
ATOM     15  C   UNL A   1      30.027  28.469  22.381  1.00  0.00     0.044 A 
ATOM     16  C   UNL A   1      27.203  31.456  23.698  1.00  0.00     0.047 C 
ATOM     17  C   UNL A   1      28.130  30.428  23.124  1.00  0.00    -0.015 A 
ATOM     18  C   UNL A   1      29.352  30.807  22.564  1.00  0.00     0.008 A 
ATOM     19  C   UNL A   1      27.845  29.063  23.225  1.00  0.00     0.128 A 
ATOM     20  C   UNL A   1      30.281  29.835  22.171  1.00  0.00     0.026 A 
ATOM     21  C   UNL A   1      28.766  28.087  22.834  1.00  0.00     0.065 A 
ATOM     22  F   UNL A   1      26.678  28.669  23.759  1.00  0.00    -0.207 F 
ENDBRANCH  12  15
ENDBRANCH   6  11
ENDBRANCH   3   5
ENDBRANCH   2   3
ENDBRANCH   1   2
BRANCH   1  23
ATOM     23  C   UNL A   1      32.627  31.880  27.231  1.00  0.00     0.275 C 
BRANCH  23  24
ATOM     24  O   UNL A   1      32.184  33.255  27.307  1.00  0.00    -0.458 OA
BRANCH  24  25
ATOM     25  C   UNL A   1      32.940  33.985  28.152  1.00  0.00     0.338 C 
ATOM     26  O   UNL A   1      32.614  35.050  28.634  1.00  0.00    -0.246 OA
BRANCH  25  27
ATOM     27  C   UNL A   1      34.227  33.412  28.538  1.00  0.00     0.060 A 
ATOM     28  C   UNL A   1      34.279  32.742  29.770  1.00  0.00     0.016 A 
ATOM     29  C   UNL A   1      35.392  33.725  27.843  1.00  0.00     0.016 A 
ATOM     30  C   UNL A   1      35.502  32.367  30.307  1.00  0.00     0.010 A 
ATOM     31  C   UNL A   1      36.623  33.345  28.383  1.00  0.00     0.010 A 
ATOM     32  C   UNL A   1      36.680  32.660  29.611  1.00  0.00    -0.014 A 
BRANCH  32  33
ATOM     33  C   UNL A   1      37.954  32.087  30.081  1.00  0.00     0.031 A 
ATOM     34  C   UNL A   1      38.471  30.777  29.579  1.00  0.00     0.074 A 
ATOM     35  C   UNL A   1      38.637  32.798  30.994  1.00  0.00     0.049 A 
ATOM     36  N   UNL A   1      39.554  30.137  29.942  1.00  0.00    -0.248 NA
ATOM     37  C   UNL A   1      37.687  30.101  28.536  1.00  0.00     0.031 C 
ATOM     38  C   UNL A   1      38.229  34.107  31.513  1.00  0.00     0.029 A 
ATOM     39  N   UNL A   1      39.801  32.519  31.658  1.00  0.00    -0.354 N 
ATOM     40  C   UNL A   1      39.586  28.983  29.173  1.00  0.00     0.074 A 
ATOM     41  C   UNL A   1      38.406  29.003  28.332  1.00  0.00     0.031 C 
ATOM     42  C   UNL A   1      39.112  34.504  32.438  1.00  0.00     0.029 A 
ATOM     43  C   UNL A   1      40.127  33.469  32.592  1.00  0.00     0.049 A 
ATOM     44  H   UNL A   1      40.347  31.720  31.482  1.00  0.00     0.167 HD
ATOM     45  C   UNL A   1      40.522  28.003  29.175  1.00  0.00     0.031 A 
ATOM     46  C   UNL A   1      41.119  33.491  33.498  1.00  0.00     0.031 A 
ATOM     47  C   UNL A   1      41.680  27.988  30.034  1.00  0.00     0.049 A 
ATOM     48  C   UNL A   1      42.091  32.355  33.535  1.00  0.00     0.074 A 
ATOM     49  C   UNL A   1      42.702  27.055  30.091  1.00  0.00     0.029 A 
ATOM     50  N   UNL A   1      41.961  28.946  30.998  1.00  0.00    -0.354 N 
ATOM     51  N   UNL A   1      42.124  31.280  32.786  1.00  0.00    -0.248 NA
ATOM     52  C   UNL A   1      43.164  32.439  34.531  1.00  0.00     0.031 C 
ATOM     53  C   UNL A   1      43.578  27.427  31.120  1.00  0.00     0.029 A 
ATOM     54  C   UNL A   1      43.123  28.612  31.676  1.00  0.00     0.049 A 
ATOM     55  H   UNL A   1      41.415  29.745  31.174  1.00  0.00     0.167 HD
ATOM     56  C   UNL A   1      43.231  30.562  33.208  1.00  0.00     0.074 A 
ATOM     57  C   UNL A   1      43.846  31.330  34.274  1.00  0.00     0.031 C 
ATOM     58  C   UNL A   1      43.701  29.378  32.748  1.00  0.00     0.031 A 
BRANCH  45  59
ATOM     59  C   UNL A   1      40.323  26.847  28.237  1.00  0.00    -0.014 A 
ATOM     60  C   UNL A   1      39.559  25.732  28.612  1.00  0.00     0.009 A 
ATOM     61  C   UNL A   1      40.853  26.904  26.938  1.00  0.00     0.009 A 
ATOM     62  C   UNL A   1      39.345  24.686  27.710  1.00  0.00     0.001 A 
ATOM     63  C   UNL A   1      40.623  25.864  26.034  1.00  0.00     0.001 A 
ATOM     64  C   UNL A   1      39.874  24.755  26.421  1.00  0.00     0.000 A 
ENDBRANCH  45  59
BRANCH  46  65
ATOM     65  C   UNL A   1      41.202  34.626  34.445  1.00  0.00    -0.014 A 
ATOM     66  C   UNL A   1      40.524  34.584  35.670  1.00  0.00     0.009 A 
ATOM     67  C   UNL A   1      42.029  35.724  34.155  1.00  0.00     0.009 A 
ATOM     68  C   UNL A   1      40.673  35.623  36.590  1.00  0.00     0.001 A 
ATOM     69  C   UNL A   1      42.190  36.750  35.085  1.00  0.00     0.001 A 
ATOM     70  C   UNL A   1      41.510  36.701  36.300  1.00  0.00     0.000 A 
ENDBRANCH  46  65
BRANCH  58  71
ATOM     71  C   UNL A   1      44.946  28.857  33.402  1.00  0.00    -0.014 A 
ATOM     72  C   UNL A   1      46.214  29.211  32.919  1.00  0.00     0.009 A 
ATOM     73  C   UNL A   1      44.846  28.004  34.511  1.00  0.00     0.009 A 
ATOM     74  C   UNL A   1      47.363  28.692  33.517  1.00  0.00     0.001 A 
ATOM     75  C   UNL A   1      45.998  27.503  35.118  1.00  0.00     0.001 A 
ATOM     76  C   UNL A   1      47.254  27.840  34.616  1.00  0.00     0.000 A 
ENDBRANCH  58  71
ENDBRANCH  32  33
ENDBRANCH  25  27
ENDBRANCH  24  25
ENDBRANCH  23  24
ENDBRANCH   1  23
TORSDOF 13
ENDMDL
MODEL 3
REMARK VINA RESULT:     -11.3      0.543      6.003
REMARK SMILES Cc1ccc(NC(=O)[C@H]2CC=CC[C@H]2C(=O)OCCOC(=O)c2ccc(-c3c4nc(c(-c5ccccc5)c5ccc([nH]5)c(-c5ccccc5)c5nc(c(-c6ccccc6)c6ccc3[nH]6)C=C5)C=C4)cc2)cc1F
REMARK SMILES IDX 18 1 17 2 15 3 16 4 14 5 9 6 10 7 11 8 13 9 12 10 7 11 6 12
REMARK SMILES IDX 8 14 5 15 1 16 2 17 3 18 72 19 4 20 71 21 73 22 19 23 20 24
REMARK SMILES IDX 21 25 22 26 23 27 24 28 70 29 25 30 69 31 26 32 27 33 28 34
REMARK SMILES IDX 63 35 29 36 68 37 62 38 64 39 30 40 67 41 61 42 60 43 31 45
REMARK SMILES IDX 53 46 38 47 52 48 39 49 42 50 51 51 65 52 40 53 41 54 50 56
REMARK SMILES IDX 66 57 43 58 32 59 33 60 37 61 34 62 36 63 35 64 54 65 55 66
REMARK SMILES IDX 59 67 56 68 58 69 57 70 44 71 45 72 49 73 46 74 48 75 47 76
REMARK H PARENT 6 13 64 44 42 55
REMARK Flexibility Score: inf
ROOT
ATOM      1  C   UNL A   1      37.781  21.234  25.231  1.00  0.00     0.274 C 
ENDROOT
BRANCH   1   2
ATOM      2  O   UNL A   1      36.393  21.041  24.869  1.00  0.00    -0.462 OA
BRANCH   2   3
ATOM      3  C   UNL A   1      35.491  21.728  25.613  1.00  0.00     0.310 C 
ATOM      4  O   UNL A   1      35.169  21.414  26.757  1.00  0.00    -0.252 OA
BRANCH   3   5
ATOM      5  C   UNL A   1      34.869  22.931  24.927  1.00  0.00     0.116 C 
ATOM      6  C   UNL A   1      33.493  22.774  24.240  1.00  0.00     0.097 C 
ATOM      7  C   UNL A   1      33.113  24.065  23.479  1.00  0.00     0.041 C 
ATOM      8  C   UNL A   1      33.676  25.342  24.042  1.00  0.00    -0.030 C 
ATOM      9  C   UNL A   1      34.995  24.172  25.810  1.00  0.00     0.043 C 
ATOM     10  C   UNL A   1      34.501  25.395  25.098  1.00  0.00    -0.030 C 
BRANCH   6  11
ATOM     11  C   UNL A   1      32.346  22.400  25.174  1.00  0.00     0.228 C 
ATOM     12  N   UNL A   1      31.855  21.125  25.286  1.00  0.00    -0.326 N 
ATOM     13  H   UNL A   1      31.089  21.053  25.900  1.00  0.00     0.169 HD
ATOM     14  O   UNL A   1      31.817  23.258  25.891  1.00  0.00    -0.274 OA
BRANCH  12  15
ATOM     15  C   UNL A   1      32.223  19.895  24.704  1.00  0.00     0.044 A 
ATOM     16  C   UNL A   1      34.272  16.484  23.030  1.00  0.00     0.047 C 
ATOM     17  C   UNL A   1      33.462  17.589  23.637  1.00  0.00    -0.015 A 
ATOM     18  C   UNL A   1      33.562  17.877  25.000  1.00  0.00     0.008 A 
ATOM     19  C   UNL A   1      32.669  18.422  22.843  1.00  0.00     0.128 A 
ATOM     20  C   UNL A   1      32.925  19.005  25.533  1.00  0.00     0.026 A 
ATOM     21  C   UNL A   1      32.029  19.549  23.367  1.00  0.00     0.065 A 
ATOM     22  F   UNL A   1      32.554  18.171  21.529  1.00  0.00    -0.207 F 
ENDBRANCH  12  15
ENDBRANCH   6  11
ENDBRANCH   3   5
ENDBRANCH   2   3
ENDBRANCH   1   2
BRANCH   1  23
ATOM     23  C   UNL A   1      38.687  20.025  24.915  1.00  0.00     0.275 C 
BRANCH  23  24
ATOM     24  O   UNL A   1      39.377  19.466  26.057  1.00  0.00    -0.458 OA
BRANCH  24  25
ATOM     25  C   UNL A   1      40.689  19.780  26.059  1.00  0.00     0.338 C 
ATOM     26  O   UNL A   1      41.575  19.070  25.630  1.00  0.00    -0.246 OA
BRANCH  25  27
ATOM     27  C   UNL A   1      41.045  21.098  26.580  1.00  0.00     0.060 A 
ATOM     28  C   UNL A   1      41.746  21.953  25.716  1.00  0.00     0.016 A 
ATOM     29  C   UNL A   1      40.914  21.396  27.934  1.00  0.00     0.016 A 
ATOM     30  C   UNL A   1      42.310  23.124  26.203  1.00  0.00     0.010 A 
ATOM     31  C   UNL A   1      41.481  22.576  28.422  1.00  0.00     0.010 A 
ATOM     32  C   UNL A   1      42.172  23.444  27.557  1.00  0.00    -0.014 A 
BRANCH  32  33
ATOM     33  C   UNL A   1      42.594  24.776  28.028  1.00  0.00     0.031 A 
ATOM     34  C   UNL A   1      44.007  25.073  28.416  1.00  0.00     0.074 A 
ATOM     35  C   UNL A   1      41.643  25.722  28.097  1.00  0.00     0.049 A 
ATOM     36  N   UNL A   1      44.504  26.187  28.890  1.00  0.00    -0.248 NA
ATOM     37  C   UNL A   1      44.990  23.993  28.249  1.00  0.00     0.031 C 
ATOM     38  C   UNL A   1      40.244  25.535  27.700  1.00  0.00     0.029 A 
ATOM     39  N   UNL A   1      41.698  27.016  28.538  1.00  0.00    -0.354 N 
ATOM     40  C   UNL A   1      45.858  25.949  29.076  1.00  0.00     0.074 A 
ATOM     41  C   UNL A   1      46.103  24.577  28.677  1.00  0.00     0.031 C 
ATOM     42  C   UNL A   1      39.566  26.664  27.944  1.00  0.00     0.029 A 
ATOM     43  C   UNL A   1      40.476  27.637  28.536  1.00  0.00     0.049 A 
ATOM     44  H   UNL A   1      42.530  27.456  28.826  1.00  0.00     0.167 HD
ATOM     45  C   UNL A   1      46.801  26.806  29.536  1.00  0.00     0.031 A 
ATOM     46  C   UNL A   1      40.117  28.850  28.991  1.00  0.00     0.031 A 
ATOM     47  C   UNL A   1      46.536  28.161  29.948  1.00  0.00     0.049 A 
ATOM     48  C   UNL A   1      41.165  29.745  29.571  1.00  0.00     0.074 A 
ATOM     49  C   UNL A   1      47.429  29.118  30.400  1.00  0.00     0.029 A 
ATOM     50  N   UNL A   1      45.278  28.748  29.972  1.00  0.00    -0.354 N 
ATOM     51  N   UNL A   1      42.447  29.516  29.720  1.00  0.00    -0.248 NA
ATOM     52  C   UNL A   1      40.722  31.063  30.035  1.00  0.00     0.031 C 
ATOM     53  C   UNL A   1      46.705  30.269  30.738  1.00  0.00     0.029 A 
ATOM     54  C   UNL A   1      45.367  30.042  30.459  1.00  0.00     0.049 A 
ATOM     55  H   UNL A   1      44.446  28.309  29.684  1.00  0.00     0.167 HD
ATOM     56  C   UNL A   1      42.971  30.669  30.282  1.00  0.00     0.074 A 
ATOM     57  C   UNL A   1      41.867  31.597  30.440  1.00  0.00     0.031 C 
ATOM     58  C   UNL A   1      44.253  30.937  30.629  1.00  0.00     0.031 A 
BRANCH  45  59
ATOM     59  C   UNL A   1      48.210  26.297  29.645  1.00  0.00    -0.014 A 
ATOM     60  C   UNL A   1      49.112  26.424  28.578  1.00  0.00     0.009 A 
ATOM     61  C   UNL A   1      48.659  25.742  30.854  1.00  0.00     0.009 A 
ATOM     62  C   UNL A   1      50.432  25.987  28.712  1.00  0.00     0.001 A 
ATOM     63  C   UNL A   1      49.985  25.321  30.990  1.00  0.00     0.001 A 
ATOM     64  C   UNL A   1      50.868  25.440  29.919  1.00  0.00     0.000 A 
ENDBRANCH  45  59
BRANCH  46  65
ATOM     65  C   UNL A   1      38.692  29.249  28.924  1.00  0.00    -0.014 A 
ATOM     66  C   UNL A   1      38.149  29.756  27.736  1.00  0.00     0.009 A 
ATOM     67  C   UNL A   1      37.853  29.044  30.031  1.00  0.00     0.009 A 
ATOM     68  C   UNL A   1      36.787  30.053  27.659  1.00  0.00     0.001 A 
ATOM     69  C   UNL A   1      36.489  29.325  29.943  1.00  0.00     0.001 A 
ATOM     70  C   UNL A   1      35.959  29.831  28.759  1.00  0.00     0.000 A 
ENDBRANCH  46  65
BRANCH  58  71
ATOM     71  C   UNL A   1      44.515  32.296  31.205  1.00  0.00    -0.014 A 
ATOM     72  C   UNL A   1      44.796  33.389  30.372  1.00  0.00     0.009 A 
ATOM     73  C   UNL A   1      44.480  32.483  32.595  1.00  0.00     0.009 A 
ATOM     74  C   UNL A   1      45.071  34.641  30.924  1.00  0.00     0.001 A 
ATOM     75  C   UNL A   1      44.737  33.740  33.142  1.00  0.00     0.001 A 
ATOM     76  C   UNL A   1      45.040  34.816  32.307  1.00  0.00     0.000 A 
ENDBRANCH  58  71
ENDBRANCH  32  33
ENDBRANCH  25  27
ENDBRANCH  24  25
ENDBRANCH  23  24
ENDBRANCH   1  23
TORSDOF 13
ENDMDL
