MODEL 1
REMARK VINA RESULT:     -11.2      0.000      0.000
REMARK SMILES CC(=O)Nc1cccc(C(=O)N2CCCC[C@@H]2C(=O)OCCOC(=O)c2ccc(-c3c4nc(c(-c5ccccc5)c5ccc([nH]5)c(-c5ccccc5)c5nc(c(-c6ccccc6)c6ccc3[nH]6)C=C5)C=C4)cc2)c1
REMARK SMILES IDX 21 1 20 2 18 3 19 4 17 5 12 6 13 7 14 8 16 9 15 10 10 11
REMARK SMILES IDX 11 12 9 13 5 14 6 15 74 16 7 17 8 18 4 19 1 20 2 21 3 22
REMARK SMILES IDX 22 24 23 25 24 26 25 27 26 28 27 29 73 30 28 31 72 32 29 33
REMARK SMILES IDX 30 34 31 35 66 36 32 37 71 38 65 39 67 40 33 41 70 42 64 43
REMARK SMILES IDX 63 44 34 46 56 47 41 48 55 49 42 50 45 51 54 52 68 53 43 54
REMARK SMILES IDX 44 55 53 57 69 58 46 59 35 60 36 61 40 62 37 63 39 64 38 65
REMARK SMILES IDX 57 66 58 67 62 68 59 69 61 70 60 71 47 72 48 73 52 74 49 75
REMARK SMILES IDX 51 76 50 77
REMARK H PARENT 4 23 67 45 45 56
REMARK Flexibility Score: inf
ROOT
ATOM      1  C   UNL A   1      36.628  22.528  23.639  1.00  0.00     0.274 C 
ENDROOT
BRANCH   1   2
ATOM      2  O   UNL A   1      35.224  22.816  23.799  1.00  0.00    -0.461 OA
BRANCH   2   3
ATOM      3  C   UNL A   1      34.919  23.747  24.745  1.00  0.00     0.328 C 
ATOM      4  O   UNL A   1      35.741  24.512  25.237  1.00  0.00    -0.250 OA
BRANCH   3   5
ATOM      5  C   UNL A   1      33.431  23.741  25.153  1.00  0.00     0.195 C 
ATOM      6  N   UNL A   1      32.830  22.618  25.921  1.00  0.00    -0.325 N 
ATOM      7  C   UNL A   1      31.440  22.803  26.334  1.00  0.00     0.121 C 
ATOM      8  C   UNL A   1      30.532  23.254  25.194  1.00  0.00     0.022 C 
ATOM      9  C   UNL A   1      32.522  24.157  23.983  1.00  0.00     0.037 C 
ATOM     10  C   UNL A   1      31.111  24.467  24.477  1.00  0.00     0.005 C 
BRANCH   6  11
ATOM     11  C   UNL A   1      33.391  21.358  26.104  1.00  0.00     0.254 C 
ATOM     12  O   UNL A   1      34.300  21.136  26.900  1.00  0.00    -0.269 OA
BRANCH  11  13
ATOM     13  C   UNL A   1      33.002  20.265  25.181  1.00  0.00     0.042 A 
ATOM     14  C   UNL A   1      32.569  17.905  24.798  1.00  0.00     0.041 A 
ATOM     15  C   UNL A   1      32.294  18.215  23.457  1.00  0.00     0.026 A 
ATOM     16  C   UNL A   1      32.881  18.951  25.664  1.00  0.00     0.040 A 
ATOM     17  C   UNL A   1      32.329  19.535  22.993  1.00  0.00     0.003 A 
ATOM     18  C   UNL A   1      32.685  20.565  23.856  1.00  0.00     0.014 A 
BRANCH  14  19
ATOM     19  N   UNL A   1      32.574  16.538  25.133  1.00  0.00    -0.326 N 
ATOM     20  C   UNL A   1      35.004  15.934  25.217  1.00  0.00     0.114 C 
ATOM     21  C   UNL A   1      33.545  15.591  25.258  1.00  0.00     0.221 C 
ATOM     22  O   UNL A   1      33.191  14.421  25.436  1.00  0.00    -0.275 OA
ATOM     23  H   UNL A   1      31.674  16.188  25.320  1.00  0.00     0.169 HD
ENDBRANCH  14  19
ENDBRANCH  11  13
ENDBRANCH   6  11
ENDBRANCH   3   5
ENDBRANCH   2   3
ENDBRANCH   1   2
BRANCH   1  24
ATOM     24  C   UNL A   1      37.096  21.306  24.445  1.00  0.00     0.275 C 
BRANCH  24  25
ATOM     25  O   UNL A   1      37.492  21.641  25.790  1.00  0.00    -0.458 OA
BRANCH  25  26
ATOM     26  C   UNL A   1      38.803  21.440  26.064  1.00  0.00     0.338 C 
ATOM     27  O   UNL A   1      39.463  20.453  25.780  1.00  0.00    -0.246 OA
BRANCH  26  28
ATOM     28  C   UNL A   1      39.423  22.658  26.617  1.00  0.00     0.060 A 
ATOM     29  C   UNL A   1      38.948  23.887  26.144  1.00  0.00     0.016 A 
ATOM     30  C   UNL A   1      40.505  22.614  27.497  1.00  0.00     0.016 A 
ATOM     31  C   UNL A   1      39.553  25.076  26.533  1.00  0.00     0.010 A 
ATOM     32  C   UNL A   1      41.131  23.811  27.871  1.00  0.00     0.010 A 
ATOM     33  C   UNL A   1      40.671  25.043  27.374  1.00  0.00    -0.014 A 
BRANCH  33  34
ATOM     34  C   UNL A   1      41.416  26.300  27.614  1.00  0.00     0.031 A 
ATOM     35  C   UNL A   1      40.843  27.326  28.548  1.00  0.00     0.074 A 
ATOM     36  C   UNL A   1      42.630  26.487  27.069  1.00  0.00     0.049 A 
ATOM     37  N   UNL A   1      41.321  28.495  28.889  1.00  0.00    -0.248 NA
ATOM     38  C   UNL A   1      39.561  26.988  29.189  1.00  0.00     0.031 C 
ATOM     39  C   UNL A   1      43.322  25.533  26.205  1.00  0.00     0.029 A 
ATOM     40  N   UNL A   1      43.501  27.541  27.175  1.00  0.00    -0.354 N 
ATOM     41  C   UNL A   1      40.396  29.037  29.770  1.00  0.00     0.074 A 
ATOM     42  C   UNL A   1      39.321  28.077  29.902  1.00  0.00     0.031 C 
ATOM     43  C   UNL A   1      44.518  26.042  25.864  1.00  0.00     0.029 A 
ATOM     44  C   UNL A   1      44.655  27.372  26.450  1.00  0.00     0.049 A 
ATOM     45  H   UNL A   1      43.316  28.342  27.717  1.00  0.00     0.167 HD
ATOM     46  C   UNL A   1      40.435  30.230  30.410  1.00  0.00     0.031 A 
ATOM     47  C   UNL A   1      45.693  28.209  26.265  1.00  0.00     0.031 A 
ATOM     48  C   UNL A   1      41.496  31.190  30.270  1.00  0.00     0.049 A 
ATOM     49  C   UNL A   1      45.676  29.561  26.923  1.00  0.00     0.074 A 
ATOM     50  C   UNL A   1      41.616  32.439  30.856  1.00  0.00     0.029 A 
ATOM     51  N   UNL A   1      42.625  31.007  29.485  1.00  0.00    -0.354 N 
ATOM     52  N   UNL A   1      44.783  30.075  27.735  1.00  0.00    -0.248 NA
ATOM     53  C   UNL A   1      46.812  30.449  26.638  1.00  0.00     0.031 C 
ATOM     54  C   UNL A   1      42.800  33.026  30.396  1.00  0.00     0.029 A 
ATOM     55  C   UNL A   1      43.439  32.123  29.561  1.00  0.00     0.049 A 
ATOM     56  H   UNL A   1      42.818  30.202  28.953  1.00  0.00     0.167 HD
ATOM     57  C   UNL A   1      45.260  31.333  28.075  1.00  0.00     0.074 A 
ATOM     58  C   UNL A   1      46.528  31.501  27.394  1.00  0.00     0.031 C 
ATOM     59  C   UNL A   1      44.699  32.269  28.881  1.00  0.00     0.031 A 
BRANCH  46  60
ATOM     60  C   UNL A   1      39.264  30.573  31.284  1.00  0.00    -0.014 A 
ATOM     61  C   UNL A   1      39.245  30.234  32.646  1.00  0.00     0.009 A 
ATOM     62  C   UNL A   1      38.164  31.250  30.735  1.00  0.00     0.009 A 
ATOM     63  C   UNL A   1      38.131  30.535  33.432  1.00  0.00     0.001 A 
ATOM     64  C   UNL A   1      37.063  31.571  31.529  1.00  0.00     0.001 A 
ATOM     65  C   UNL A   1      37.042  31.206  32.875  1.00  0.00     0.000 A 
ENDBRANCH  46  60
BRANCH  47  66
ATOM     66  C   UNL A   1      46.827  27.808  25.391  1.00  0.00    -0.014 A 
ATOM     67  C   UNL A   1      46.782  28.038  24.008  1.00  0.00     0.009 A 
ATOM     68  C   UNL A   1      47.953  27.172  25.938  1.00  0.00     0.009 A 
ATOM     69  C   UNL A   1      47.834  27.621  23.188  1.00  0.00     0.001 A 
ATOM     70  C   UNL A   1      49.014  26.780  25.119  1.00  0.00     0.001 A 
ATOM     71  C   UNL A   1      48.949  26.996  23.744  1.00  0.00     0.000 A 
ENDBRANCH  47  66
BRANCH  59  72
ATOM     72  C   UNL A   1      45.477  33.535  29.101  1.00  0.00    -0.014 A 
ATOM     73  C   UNL A   1      45.144  34.722  28.433  1.00  0.00     0.009 A 
ATOM     74  C   UNL A   1      46.543  33.541  30.014  1.00  0.00     0.009 A 
ATOM     75  C   UNL A   1      45.887  35.884  28.649  1.00  0.00     0.001 A 
ATOM     76  C   UNL A   1      47.267  34.710  30.248  1.00  0.00     0.001 A 
ATOM     77  C   UNL A   1      46.945  35.879  29.559  1.00  0.00     0.000 A 
ENDBRANCH  59  72
ENDBRANCH  33  34
ENDBRANCH  26  28
ENDBRANCH  25  26
ENDBRANCH  24  25
ENDBRANCH   1  24
TORSDOF 14
ENDMDL
MODEL 2
REMARK VINA RESULT:     -11.1      5.269      8.331
REMARK SMILES CC(=O)Nc1cccc(C(=O)N2CCCC[C@@H]2C(=O)OCCOC(=O)c2ccc(-c3c4nc(c(-c5ccccc5)c5ccc([nH]5)c(-c5ccccc5)c5nc(c(-c6ccccc6)c6ccc3[nH]6)C=C5)C=C4)cc2)c1
REMARK SMILES IDX 21 1 20 2 18 3 19 4 17 5 12 6 13 7 14 8 16 9 15 10 10 11
REMARK SMILES IDX 11 12 9 13 5 14 6 15 74 16 7 17 8 18 4 19 1 20 2 21 3 22
REMARK SMILES IDX 22 24 23 25 24 26 25 27 26 28 27 29 73 30 28 31 72 32 29 33
REMARK SMILES IDX 30 34 31 35 66 36 32 37 71 38 65 39 67 40 33 41 70 42 64 43
REMARK SMILES IDX 63 44 34 46 56 47 41 48 55 49 42 50 45 51 54 52 68 53 43 54
REMARK SMILES IDX 44 55 53 57 69 58 46 59 35 60 36 61 40 62 37 63 39 64 38 65
REMARK SMILES IDX 57 66 58 67 62 68 59 69 61 70 60 71 47 72 48 73 52 74 49 75
REMARK SMILES IDX 51 76 50 77
REMARK H PARENT 4 23 67 45 45 56
REMARK Flexibility Score: inf
ROOT
ATOM      1  C   UNL A   1      31.064  30.869  25.551  1.00  0.00     0.274 C 
ENDROOT
BRANCH   1   2
ATOM      2  O   UNL A   1      31.489  29.553  25.961  1.00  0.00    -0.461 OA
BRANCH   2   3
ATOM      3  C   UNL A   1      32.232  28.865  25.051  1.00  0.00     0.328 C 
ATOM      4  O   UNL A   1      33.046  29.391  24.300  1.00  0.00    -0.250 OA
BRANCH   3   5
ATOM      5  C   UNL A   1      31.943  27.350  25.043  1.00  0.00     0.195 C 
ATOM      6  N   UNL A   1      31.378  26.662  23.852  1.00  0.00    -0.325 N 
ATOM      7  C   UNL A   1      31.263  25.208  23.951  1.00  0.00     0.121 C 
ATOM      8  C   UNL A   1      30.589  24.748  25.239  1.00  0.00     0.022 C 
ATOM      9  C   UNL A   1      31.224  26.904  26.328  1.00  0.00     0.037 C 
ATOM     10  C   UNL A   1      31.241  25.383  26.460  1.00  0.00     0.005 C 
BRANCH   6  11
ATOM     11  C   UNL A   1      30.777  27.279  22.758  1.00  0.00     0.254 C 
ATOM     12  O   UNL A   1      31.305  27.349  21.651  1.00  0.00    -0.269 OA
BRANCH  11  13
ATOM     13  C   UNL A   1      29.523  28.041  22.971  1.00  0.00     0.042 A 
ATOM     14  C   UNL A   1      28.344  30.165  22.989  1.00  0.00     0.041 A 
ATOM     15  C   UNL A   1      27.189  29.474  23.387  1.00  0.00     0.026 A 
ATOM     16  C   UNL A   1      29.499  29.428  22.742  1.00  0.00     0.040 A 
ATOM     17  C   UNL A   1      27.187  28.082  23.533  1.00  0.00     0.003 A 
ATOM     18  C   UNL A   1      28.358  27.362  23.326  1.00  0.00     0.014 A 
BRANCH  14  19
ATOM     19  N   UNL A   1      28.246  31.569  22.946  1.00  0.00    -0.326 N 
ATOM     20  C   UNL A   1      27.899  32.089  20.520  1.00  0.00     0.114 C 
ATOM     21  C   UNL A   1      28.137  32.486  21.945  1.00  0.00     0.221 C 
ATOM     22  O   UNL A   1      28.214  33.682  22.247  1.00  0.00    -0.275 OA
ATOM     23  H   UNL A   1      28.258  31.979  23.840  1.00  0.00     0.169 HD
ENDBRANCH  14  19
ENDBRANCH  11  13
ENDBRANCH   6  11
ENDBRANCH   3   5
ENDBRANCH   2   3
ENDBRANCH   1   2
BRANCH   1  24
ATOM     24  C   UNL A   1      31.541  31.985  26.494  1.00  0.00     0.275 C 
BRANCH  24  25
ATOM     25  O   UNL A   1      32.675  31.595  27.295  1.00  0.00    -0.458 OA
BRANCH  25  26
ATOM     26  C   UNL A   1      33.536  32.597  27.589  1.00  0.00     0.338 C 
ATOM     27  O   UNL A   1      33.272  33.787  27.658  1.00  0.00    -0.246 OA
BRANCH  26  28
ATOM     28  C   UNL A   1      34.849  32.067  28.000  1.00  0.00     0.060 A 
ATOM     29  C   UNL A   1      34.924  30.697  28.278  1.00  0.00     0.016 A 
ATOM     30  C   UNL A   1      35.957  32.888  28.209  1.00  0.00     0.016 A 
ATOM     31  C   UNL A   1      36.096  30.140  28.776  1.00  0.00     0.010 A 
ATOM     32  C   UNL A   1      37.131  32.332  28.733  1.00  0.00     0.010 A 
ATOM     33  C   UNL A   1      37.198  30.961  29.038  1.00  0.00    -0.014 A 
BRANCH  33  34
ATOM     34  C   UNL A   1      38.360  30.383  29.750  1.00  0.00     0.031 A 
ATOM     35  C   UNL A   1      38.538  30.666  31.214  1.00  0.00     0.074 A 
ATOM     36  C   UNL A   1      39.202  29.548  29.117  1.00  0.00     0.049 A 
ATOM     37  N   UNL A   1      39.487  30.272  32.024  1.00  0.00    -0.248 NA
ATOM     38  C   UNL A   1      37.506  31.499  31.852  1.00  0.00     0.031 C 
ATOM     39  C   UNL A   1      39.090  29.140  27.718  1.00  0.00     0.029 A 
ATOM     40  N   UNL A   1      40.309  28.882  29.576  1.00  0.00    -0.354 N 
ATOM     41  C   UNL A   1      39.176  30.820  33.261  1.00  0.00     0.074 A 
ATOM     42  C   UNL A   1      37.959  31.584  33.094  1.00  0.00     0.031 C 
ATOM     43  C   UNL A   1      40.087  28.285  27.433  1.00  0.00     0.029 A 
ATOM     44  C   UNL A   1      40.927  28.121  28.615  1.00  0.00     0.049 A 
ATOM     45  H   UNL A   1      40.631  28.945  30.505  1.00  0.00     0.167 HD
ATOM     46  C   UNL A   1      39.846  30.701  34.432  1.00  0.00     0.031 A 
ATOM     47  C   UNL A   1      42.058  27.393  28.679  1.00  0.00     0.031 A 
ATOM     48  C   UNL A   1      41.063  29.952  34.596  1.00  0.00     0.049 A 
ATOM     49  C   UNL A   1      42.828  27.341  29.971  1.00  0.00     0.074 A 
ATOM     50  C   UNL A   1      41.832  29.792  35.737  1.00  0.00     0.029 A 
ATOM     51  N   UNL A   1      41.690  29.237  33.587  1.00  0.00    -0.354 N 
ATOM     52  N   UNL A   1      42.538  27.884  31.129  1.00  0.00    -0.248 NA
ATOM     53  C   UNL A   1      44.081  26.575  29.962  1.00  0.00     0.031 C 
ATOM     54  C   UNL A   1      42.944  29.009  35.407  1.00  0.00     0.029 A 
ATOM     55  C   UNL A   1      42.841  28.644  34.074  1.00  0.00     0.049 A 
ATOM     56  H   UNL A   1      41.363  29.162  32.662  1.00  0.00     0.167 HD
ATOM     57  C   UNL A   1      43.559  27.506  31.991  1.00  0.00     0.074 A 
ATOM     58  C   UNL A   1      44.468  26.676  31.226  1.00  0.00     0.031 C 
ATOM     59  C   UNL A   1      43.730  27.817  33.299  1.00  0.00     0.031 A 
BRANCH  46  60
ATOM     60  C   UNL A   1      39.291  31.441  35.614  1.00  0.00    -0.014 A 
ATOM     61  C   UNL A   1      38.269  30.894  36.405  1.00  0.00     0.009 A 
ATOM     62  C   UNL A   1      39.802  32.707  35.940  1.00  0.00     0.009 A 
ATOM     63  C   UNL A   1      37.746  31.615  37.480  1.00  0.00     0.001 A 
ATOM     64  C   UNL A   1      39.293  33.415  37.030  1.00  0.00     0.001 A 
ATOM     65  C   UNL A   1      38.260  32.873  37.794  1.00  0.00     0.000 A 
ENDBRANCH  46  60
BRANCH  47  66
ATOM     66  C   UNL A   1      42.553  26.677  27.475  1.00  0.00    -0.014 A 
ATOM     67  C   UNL A   1      43.395  27.319  26.555  1.00  0.00     0.009 A 
ATOM     68  C   UNL A   1      42.167  25.350  27.230  1.00  0.00     0.009 A 
ATOM     69  C   UNL A   1      43.824  26.653  25.404  1.00  0.00     0.001 A 
ATOM     70  C   UNL A   1      42.618  24.678  26.093  1.00  0.00     0.001 A 
ATOM     71  C   UNL A   1      43.437  25.333  25.176  1.00  0.00     0.000 A 
ENDBRANCH  47  66
BRANCH  59  72
ATOM     72  C   UNL A   1      44.920  27.220  33.993  1.00  0.00    -0.014 A 
ATOM     73  C   UNL A   1      44.852  25.963  34.611  1.00  0.00     0.009 A 
ATOM     74  C   UNL A   1      46.138  27.919  34.003  1.00  0.00     0.009 A 
ATOM     75  C   UNL A   1      45.970  25.432  35.256  1.00  0.00     0.001 A 
ATOM     76  C   UNL A   1      47.261  27.376  34.626  1.00  0.00     0.001 A 
ATOM     77  C   UNL A   1      47.175  26.136  35.260  1.00  0.00     0.000 A 
ENDBRANCH  59  72
ENDBRANCH  33  34
ENDBRANCH  26  28
ENDBRANCH  25  26
ENDBRANCH  24  25
ENDBRANCH   1  24
TORSDOF 14
ENDMDL
MODEL 3
REMARK VINA RESULT:     -11.1      0.592      5.970
REMARK SMILES CC(=O)Nc1cccc(C(=O)N2CCCC[C@@H]2C(=O)OCCOC(=O)c2ccc(-c3c4nc(c(-c5ccccc5)c5ccc([nH]5)c(-c5ccccc5)c5nc(c(-c6ccccc6)c6ccc3[nH]6)C=C5)C=C4)cc2)c1
REMARK SMILES IDX 21 1 20 2 18 3 19 4 17 5 12 6 13 7 14 8 16 9 15 10 10 11
REMARK SMILES IDX 11 12 9 13 5 14 6 15 74 16 7 17 8 18 4 19 1 20 2 21 3 22
REMARK SMILES IDX 22 24 23 25 24 26 25 27 26 28 27 29 73 30 28 31 72 32 29 33
REMARK SMILES IDX 30 34 31 35 66 36 32 37 71 38 65 39 67 40 33 41 70 42 64 43
REMARK SMILES IDX 63 44 34 46 56 47 41 48 55 49 42 50 45 51 54 52 68 53 43 54
REMARK SMILES IDX 44 55 53 57 69 58 46 59 35 60 36 61 40 62 37 63 39 64 38 65
REMARK SMILES IDX 57 66 58 67 62 68 59 69 61 70 60 71 47 72 48 73 52 74 49 75
REMARK SMILES IDX 51 76 50 77
REMARK H PARENT 4 23 67 45 45 56
REMARK Flexibility Score: inf
ROOT
ATOM      1  C   UNL A   1      36.213  21.012  24.711  1.00  0.00     0.274 C 
ENDROOT
BRANCH   1   2
ATOM      2  O   UNL A   1      35.778  22.247  24.106  1.00  0.00    -0.461 OA
BRANCH   2   3
ATOM      3  C   UNL A   1      35.261  23.171  24.962  1.00  0.00     0.328 C 
ATOM      4  O   UNL A   1      35.912  23.722  25.843  1.00  0.00    -0.250 OA
BRANCH   3   5
ATOM      5  C   UNL A   1      33.763  23.453  24.727  1.00  0.00     0.195 C 
ATOM      6  N   UNL A   1      32.700  22.578  25.288  1.00  0.00    -0.325 N 
ATOM      7  C   UNL A   1      31.326  23.033  25.079  1.00  0.00     0.121 C 
ATOM      8  C   UNL A   1      31.035  23.413  23.631  1.00  0.00     0.022 C 
ATOM      9  C   UNL A   1      33.476  23.794  23.254  1.00  0.00     0.037 C 
ATOM     10  C   UNL A   1      32.078  24.387  23.097  1.00  0.00     0.005 C 
BRANCH   6  11
ATOM     11  C   UNL A   1      32.880  21.299  25.805  1.00  0.00     0.254 C 
ATOM     12  O   UNL A   1      33.329  21.085  26.928  1.00  0.00    -0.269 OA
BRANCH  11  13
ATOM     13  C   UNL A   1      32.688  20.135  24.907  1.00  0.00     0.042 A 
ATOM     14  C   UNL A   1      32.485  17.732  24.611  1.00  0.00     0.041 A 
ATOM     15  C   UNL A   1      32.350  17.954  23.232  1.00  0.00     0.026 A 
ATOM     16  C   UNL A   1      32.611  18.840  25.446  1.00  0.00     0.040 A 
ATOM     17  C   UNL A   1      32.339  19.249  22.700  1.00  0.00     0.003 A 
ATOM     18  C   UNL A   1      32.510  20.345  23.540  1.00  0.00     0.014 A 
BRANCH  14  19
ATOM     19  N   UNL A   1      32.554  16.388  25.022  1.00  0.00    -0.326 N 
ATOM     20  C   UNL A   1      35.009  15.934  25.233  1.00  0.00     0.114 C 
ATOM     21  C   UNL A   1      33.572  15.508  25.236  1.00  0.00     0.221 C 
ATOM     22  O   UNL A   1      33.278  14.330  25.464  1.00  0.00    -0.275 OA
ATOM     23  H   UNL A   1      31.668  15.995  25.193  1.00  0.00     0.169 HD
ENDBRANCH  14  19
ENDBRANCH  11  13
ENDBRANCH   6  11
ENDBRANCH   3   5
ENDBRANCH   2   3
ENDBRANCH   1   2
BRANCH   1  24
ATOM     24  C   UNL A   1      37.736  20.924  24.894  1.00  0.00     0.275 C 
BRANCH  24  25
ATOM     25  O   UNL A   1      38.167  21.346  26.204  1.00  0.00    -0.458 OA
BRANCH  25  26
ATOM     26  C   UNL A   1      39.507  21.320  26.397  1.00  0.00     0.338 C 
ATOM     27  O   UNL A   1      40.276  20.437  26.054  1.00  0.00    -0.246 OA
BRANCH  26  28
ATOM     28  C   UNL A   1      39.990  22.603  26.941  1.00  0.00     0.060 A 
ATOM     29  C   UNL A   1      39.407  23.771  26.434  1.00  0.00     0.016 A 
ATOM     30  C   UNL A   1      41.049  22.682  27.846  1.00  0.00     0.016 A 
ATOM     31  C   UNL A   1      39.881  25.020  26.814  1.00  0.00     0.010 A 
ATOM     32  C   UNL A   1      41.544  23.941  28.211  1.00  0.00     0.010 A 
ATOM     33  C   UNL A   1      40.975  25.113  27.681  1.00  0.00    -0.014 A 
BRANCH  33  34
ATOM     34  C   UNL A   1      41.586  26.442  27.913  1.00  0.00     0.031 A 
ATOM     35  C   UNL A   1      42.891  26.775  27.251  1.00  0.00     0.074 A 
ATOM     36  C   UNL A   1      40.941  27.371  28.640  1.00  0.00     0.049 A 
ATOM     37  N   UNL A   1      43.603  27.870  27.328  1.00  0.00    -0.248 NA
ATOM     38  C   UNL A   1      43.470  25.738  26.381  1.00  0.00     0.031 C 
ATOM     39  C   UNL A   1      39.636  27.190  29.271  1.00  0.00     0.029 A 
ATOM     40  N   UNL A   1      41.295  28.657  28.957  1.00  0.00    -0.354 N 
ATOM     41  C   UNL A   1      44.718  27.650  26.531  1.00  0.00     0.074 A 
ATOM     42  C   UNL A   1      44.597  26.314  25.990  1.00  0.00     0.031 C 
ATOM     43  C   UNL A   1      39.293  28.329  29.895  1.00  0.00     0.029 A 
ATOM     44  C   UNL A   1      40.371  29.301  29.743  1.00  0.00     0.049 A 
ATOM     45  H   UNL A   1      42.131  29.078  28.652  1.00  0.00     0.167 HD
ATOM     46  C   UNL A   1      45.753  28.485  26.275  1.00  0.00     0.031 A 
ATOM     47  C   UNL A   1      40.407  30.528  30.295  1.00  0.00     0.031 A 
ATOM     48  C   UNL A   1      45.882  29.808  26.823  1.00  0.00     0.049 A 
ATOM     49  C   UNL A   1      41.605  31.406  30.061  1.00  0.00     0.074 A 
ATOM     50  C   UNL A   1      46.906  30.722  26.644  1.00  0.00     0.029 A 
ATOM     51  N   UNL A   1      44.951  30.408  27.659  1.00  0.00    -0.354 N 
ATOM     52  N   UNL A   1      42.667  31.179  29.325  1.00  0.00    -0.248 NA
ATOM     53  C   UNL A   1      41.608  32.713  30.734  1.00  0.00     0.031 C 
ATOM     54  C   UNL A   1      46.612  31.861  27.403  1.00  0.00     0.029 A 
ATOM     55  C   UNL A   1      45.383  31.673  28.015  1.00  0.00     0.049 A 
ATOM     56  H   UNL A   1      44.109  29.994  27.954  1.00  0.00     0.167 HD
ATOM     57  C   UNL A   1      43.451  32.320  29.428  1.00  0.00     0.074 A 
ATOM     58  C   UNL A   1      42.737  33.244  30.286  1.00  0.00     0.031 C 
ATOM     59  C   UNL A   1      44.656  32.580  28.864  1.00  0.00     0.031 A 
BRANCH  46  60
ATOM     60  C   UNL A   1      46.851  27.960  25.396  1.00  0.00    -0.014 A 
ATOM     61  C   UNL A   1      46.811  28.124  24.002  1.00  0.00     0.009 A 
ATOM     62  C   UNL A   1      47.943  27.294  25.973  1.00  0.00     0.009 A 
ATOM     63  C   UNL A   1      47.828  27.599  23.202  1.00  0.00     0.001 A 
ATOM     64  C   UNL A   1      48.969  26.791  25.171  1.00  0.00     0.001 A 
ATOM     65  C   UNL A   1      48.907  26.936  23.786  1.00  0.00     0.000 A 
ENDBRANCH  46  60
BRANCH  47  66
ATOM     66  C   UNL A   1      39.285  30.992  31.152  1.00  0.00    -0.014 A 
ATOM     67  C   UNL A   1      38.198  31.684  30.598  1.00  0.00     0.009 A 
ATOM     68  C   UNL A   1      39.309  30.761  32.537  1.00  0.00     0.009 A 
ATOM     69  C   UNL A   1      37.167  32.154  31.417  1.00  0.00     0.001 A 
ATOM     70  C   UNL A   1      38.265  31.208  33.349  1.00  0.00     0.001 A 
ATOM     71  C   UNL A   1      37.200  31.913  32.790  1.00  0.00     0.000 A 
ENDBRANCH  47  66
BRANCH  59  72
ATOM     72  C   UNL A   1      45.252  33.935  29.122  1.00  0.00    -0.014 A 
ATOM     73  C   UNL A   1      44.968  35.028  28.291  1.00  0.00     0.009 A 
ATOM     74  C   UNL A   1      46.090  34.121  30.233  1.00  0.00     0.009 A 
ATOM     75  C   UNL A   1      45.541  36.275  28.547  1.00  0.00     0.001 A 
ATOM     76  C   UNL A   1      46.640  35.375  30.502  1.00  0.00     0.001 A 
ATOM     77  C   UNL A   1      46.372  36.449  29.654  1.00  0.00     0.000 A 
ENDBRANCH  59  72
ENDBRANCH  33  34
ENDBRANCH  26  28
ENDBRANCH  25  26
ENDBRANCH  24  25
ENDBRANCH   1  24
TORSDOF 14
ENDMDL
