MODEL 1
REMARK VINA RESULT:     -10.9      0.000      0.000
REMARK SMILES Nc1nc2ccccc2nc1N1CCC(C(=O)OCCOC(=O)c2ccc(-c3c4nc(c(-c5ccccc5)c5ccc([nH]5)c(-c5ccccc5)c5nc(c(-c6ccccc6)c6ccc3[nH]6)C=C5)C=C4)cc2)CC1
REMARK SMILES IDX 19 1 18 2 16 3 17 4 15 5 12 6 13 7 73 8 14 9 72 10 11 11
REMARK SMILES IDX 2 12 3 13 4 14 10 15 5 16 9 17 6 18 8 19 7 20 1 21 20 24
REMARK SMILES IDX 21 25 22 26 23 27 24 28 25 29 71 30 26 31 70 32 27 33 28 34
REMARK SMILES IDX 29 35 64 36 30 37 69 38 63 39 65 40 31 41 68 42 62 43 61 44
REMARK SMILES IDX 32 46 54 47 39 48 53 49 40 50 43 51 52 52 66 53 41 54 42 55
REMARK SMILES IDX 51 57 67 58 44 59 33 60 34 61 38 62 35 63 37 64 36 65 55 66
REMARK SMILES IDX 56 67 60 68 57 69 59 70 58 71 45 72 46 73 50 74 47 75 49 76
REMARK SMILES IDX 48 77
REMARK H PARENT 1 22 1 23 65 45 43 56
REMARK Flexibility Score: inf
ROOT
ATOM      1  C   UNL A   1      38.363  20.972  25.293  1.00  0.00     0.274 C 
ENDROOT
BRANCH   1   2
ATOM      2  O   UNL A   1      36.988  20.851  24.885  1.00  0.00    -0.462 OA
BRANCH   2   3
ATOM      3  C   UNL A   1      36.464  21.903  24.211  1.00  0.00     0.309 C 
ATOM      4  O   UNL A   1      37.001  22.471  23.265  1.00  0.00    -0.252 OA
BRANCH   3   5
ATOM      5  C   UNL A   1      35.107  22.323  24.732  1.00  0.00     0.103 C 
ATOM      6  N   UNL A   1      32.958  23.904  25.684  1.00  0.00    -0.353 N 
ATOM      7  C   UNL A   1      33.669  23.070  26.638  1.00  0.00     0.119 C 
ATOM      8  C   UNL A   1      33.020  23.608  24.258  1.00  0.00     0.119 C 
ATOM      9  C   UNL A   1      35.098  22.805  26.184  1.00  0.00     0.037 C 
ATOM     10  C   UNL A   1      34.467  23.369  23.824  1.00  0.00     0.037 C 
BRANCH   6  11
ATOM     11  C   UNL A   1      32.634  25.204  26.053  1.00  0.00     0.172 A 
ATOM     12  C   UNL A   1      31.320  25.516  26.497  1.00  0.00     0.167 A 
ATOM     13  N   UNL A   1      30.959  26.758  26.869  1.00  0.00    -0.226 NA
ATOM     14  C   UNL A   1      31.917  27.697  26.812  1.00  0.00     0.091 A 
ATOM     15  N   UNL A   1      33.595  26.152  26.021  1.00  0.00    -0.225 NA
ATOM     16  C   UNL A   1      31.604  28.997  27.186  1.00  0.00     0.031 A 
ATOM     17  C   UNL A   1      33.234  27.399  26.381  1.00  0.00     0.091 A 
ATOM     18  C   UNL A   1      32.551  30.018  27.129  1.00  0.00     0.002 A 
ATOM     19  C   UNL A   1      34.168  28.427  26.325  1.00  0.00     0.031 A 
ATOM     20  C   UNL A   1      33.838  29.734  26.691  1.00  0.00     0.002 A 
BRANCH  12  21
ATOM     21  N   UNL A   1      30.324  24.546  26.561  1.00  0.00    -0.381 N 
ATOM     22  H   UNL A   1      29.789  24.443  27.380  1.00  0.00     0.158 HD
ATOM     23  H   UNL A   1      30.155  23.962  25.786  1.00  0.00     0.158 HD
ENDBRANCH  12  21
ENDBRANCH   6  11
ENDBRANCH   3   5
ENDBRANCH   2   3
ENDBRANCH   1   2
BRANCH   1  24
ATOM     24  C   UNL A   1      39.055  19.607  25.285  1.00  0.00     0.275 C 
BRANCH  24  25
ATOM     25  O   UNL A   1      39.973  19.476  26.387  1.00  0.00    -0.458 OA
BRANCH  25  26
ATOM     26  C   UNL A   1      41.280  19.654  26.087  1.00  0.00     0.338 C 
ATOM     27  O   UNL A   1      42.013  18.909  25.463  1.00  0.00    -0.246 OA
BRANCH  26  28
ATOM     28  C   UNL A   1      41.691  20.991  26.541  1.00  0.00     0.060 A 
ATOM     29  C   UNL A   1      42.057  21.972  25.622  1.00  0.00     0.016 A 
ATOM     30  C   UNL A   1      41.663  21.270  27.909  1.00  0.00     0.016 A 
ATOM     31  C   UNL A   1      42.433  23.234  26.088  1.00  0.00     0.010 A 
ATOM     32  C   UNL A   1      42.030  22.530  28.374  1.00  0.00     0.010 A 
ATOM     33  C   UNL A   1      42.432  23.518  27.466  1.00  0.00    -0.014 A 
BRANCH  33  34
ATOM     34  C   UNL A   1      42.826  24.858  27.961  1.00  0.00     0.031 A 
ATOM     35  C   UNL A   1      44.275  25.221  28.108  1.00  0.00     0.074 A 
ATOM     36  C   UNL A   1      41.866  25.742  28.289  1.00  0.00     0.049 A 
ATOM     37  N   UNL A   1      44.800  26.370  28.450  1.00  0.00    -0.248 NA
ATOM     38  C   UNL A   1      45.263  24.161  27.848  1.00  0.00     0.031 C 
ATOM     39  C   UNL A   1      40.428  25.481  28.222  1.00  0.00     0.029 A 
ATOM     40  N   UNL A   1      41.952  27.039  28.729  1.00  0.00    -0.354 N 
ATOM     41  C   UNL A   1      46.175  26.176  28.432  1.00  0.00     0.074 A 
ATOM     42  C   UNL A   1      46.405  24.787  28.102  1.00  0.00     0.031 C 
ATOM     43  C   UNL A   1      39.765  26.596  28.568  1.00  0.00     0.029 A 
ATOM     44  C   UNL A   1      40.730  27.639  28.911  1.00  0.00     0.049 A 
ATOM     45  H   UNL A   1      42.807  27.495  28.899  1.00  0.00     0.167 HD
ATOM     46  C   UNL A   1      47.155  27.086  28.647  1.00  0.00     0.031 A 
ATOM     47  C   UNL A   1      40.416  28.891  29.298  1.00  0.00     0.031 A 
ATOM     48  C   UNL A   1      46.915  28.464  28.984  1.00  0.00     0.049 A 
ATOM     49  C   UNL A   1      41.523  29.874  29.562  1.00  0.00     0.074 A 
ATOM     50  C   UNL A   1      47.841  29.473  29.175  1.00  0.00     0.029 A 
ATOM     51  N   UNL A   1      45.662  29.024  29.188  1.00  0.00    -0.354 N 
ATOM     52  N   UNL A   1      42.819  29.700  29.458  1.00  0.00    -0.248 NA
ATOM     53  C   UNL A   1      41.131  31.227  29.982  1.00  0.00     0.031 C 
ATOM     54  C   UNL A   1      47.157  30.625  29.563  1.00  0.00     0.029 A 
ATOM     55  C   UNL A   1      45.797  30.357  29.536  1.00  0.00     0.049 A 
ATOM     56  H   UNL A   1      44.807  28.546  29.098  1.00  0.00     0.167 HD
ATOM     57  C   UNL A   1      43.394  30.925  29.772  1.00  0.00     0.074 A 
ATOM     58  C   UNL A   1      42.306  31.837  30.059  1.00  0.00     0.031 C 
ATOM     59  C   UNL A   1      44.707  31.258  29.815  1.00  0.00     0.031 A 
BRANCH  46  60
ATOM     60  C   UNL A   1      48.585  26.638  28.513  1.00  0.00    -0.014 A 
ATOM     61  C   UNL A   1      49.217  26.666  27.259  1.00  0.00     0.009 A 
ATOM     62  C   UNL A   1      49.271  26.078  29.603  1.00  0.00     0.009 A 
ATOM     63  C   UNL A   1      50.494  26.127  27.094  1.00  0.00     0.001 A 
ATOM     64  C   UNL A   1      50.560  25.568  29.443  1.00  0.00     0.001 A 
ATOM     65  C   UNL A   1      51.167  25.582  28.187  1.00  0.00     0.000 A 
ENDBRANCH  46  60
BRANCH  47  66
ATOM     66  C   UNL A   1      38.986  29.283  29.398  1.00  0.00    -0.014 A 
ATOM     67  C   UNL A   1      38.268  29.073  30.586  1.00  0.00     0.009 A 
ATOM     68  C   UNL A   1      38.311  29.807  28.284  1.00  0.00     0.009 A 
ATOM     69  C   UNL A   1      36.900  29.349  30.650  1.00  0.00     0.001 A 
ATOM     70  C   UNL A   1      36.949  30.112  28.360  1.00  0.00     0.001 A 
ATOM     71  C   UNL A   1      36.243  29.871  29.538  1.00  0.00     0.000 A 
ENDBRANCH  47  66
BRANCH  59  72
ATOM     72  C   UNL A   1      45.072  32.673  30.172  1.00  0.00    -0.014 A 
ATOM     73  C   UNL A   1      45.214  33.035  31.522  1.00  0.00     0.009 A 
ATOM     74  C   UNL A   1      45.132  33.674  29.191  1.00  0.00     0.009 A 
ATOM     75  C   UNL A   1      45.377  34.371  31.885  1.00  0.00     0.001 A 
ATOM     76  C   UNL A   1      45.326  35.008  29.555  1.00  0.00     0.001 A 
ATOM     77  C   UNL A   1      45.435  35.357  30.902  1.00  0.00     0.000 A 
ENDBRANCH  59  72
ENDBRANCH  33  34
ENDBRANCH  26  28
ENDBRANCH  25  26
ENDBRANCH  24  25
ENDBRANCH   1  24
TORSDOF 13
ENDMDL
MODEL 2
REMARK VINA RESULT:     -10.8      3.362      8.023
REMARK SMILES Nc1nc2ccccc2nc1N1CCC(C(=O)OCCOC(=O)c2ccc(-c3c4nc(c(-c5ccccc5)c5ccc([nH]5)c(-c5ccccc5)c5nc(c(-c6ccccc6)c6ccc3[nH]6)C=C5)C=C4)cc2)CC1
REMARK SMILES IDX 19 1 18 2 16 3 17 4 15 5 12 6 13 7 73 8 14 9 72 10 11 11
REMARK SMILES IDX 2 12 3 13 4 14 10 15 5 16 9 17 6 18 8 19 7 20 1 21 20 24
REMARK SMILES IDX 21 25 22 26 23 27 24 28 25 29 71 30 26 31 70 32 27 33 28 34
REMARK SMILES IDX 29 35 64 36 30 37 69 38 63 39 65 40 31 41 68 42 62 43 61 44
REMARK SMILES IDX 32 46 54 47 39 48 53 49 40 50 43 51 52 52 66 53 41 54 42 55
REMARK SMILES IDX 51 57 67 58 44 59 33 60 34 61 38 62 35 63 37 64 36 65 55 66
REMARK SMILES IDX 56 67 60 68 57 69 59 70 58 71 45 72 46 73 50 74 47 75 49 76
REMARK SMILES IDX 48 77
REMARK H PARENT 1 22 1 23 65 45 43 56
REMARK Flexibility Score: inf
ROOT
ATOM      1  C   UNL A   1      31.798  30.126  25.683  1.00  0.00     0.274 C 
ENDROOT
BRANCH   1   2
ATOM      2  O   UNL A   1      31.389  29.027  24.848  1.00  0.00    -0.462 OA
BRANCH   2   3
ATOM      3  C   UNL A   1      32.328  28.526  24.009  1.00  0.00     0.309 C 
ATOM      4  O   UNL A   1      33.128  29.197  23.367  1.00  0.00    -0.252 OA
BRANCH   3   5
ATOM      5  C   UNL A   1      32.313  27.015  23.940  1.00  0.00     0.103 C 
ATOM      6  N   UNL A   1      33.107  24.302  24.126  1.00  0.00    -0.353 N 
ATOM      7  C   UNL A   1      33.030  24.904  22.805  1.00  0.00     0.119 C 
ATOM      8  C   UNL A   1      32.380  24.887  25.245  1.00  0.00     0.119 C 
ATOM      9  C   UNL A   1      33.228  26.412  22.873  1.00  0.00     0.037 C 
ATOM     10  C   UNL A   1      32.614  26.397  25.303  1.00  0.00     0.037 C 
BRANCH   6  11
ATOM     11  C   UNL A   1      34.202  23.498  24.424  1.00  0.00     0.172 A 
ATOM     12  C   UNL A   1      34.152  22.100  24.177  1.00  0.00     0.167 A 
ATOM     13  N   UNL A   1      35.185  21.281  24.445  1.00  0.00    -0.226 NA
ATOM     14  C   UNL A   1      36.285  21.861  24.952  1.00  0.00     0.091 A 
ATOM     15  N   UNL A   1      35.321  24.073  24.914  1.00  0.00    -0.225 NA
ATOM     16  C   UNL A   1      37.386  21.066  25.247  1.00  0.00     0.031 A 
ATOM     17  C   UNL A   1      36.353  23.255  25.195  1.00  0.00     0.091 A 
ATOM     18  C   UNL A   1      38.548  21.609  25.793  1.00  0.00     0.002 A 
ATOM     19  C   UNL A   1      37.517  23.783  25.744  1.00  0.00     0.031 A 
ATOM     20  C   UNL A   1      38.613  22.972  26.049  1.00  0.00     0.002 A 
BRANCH  12  21
ATOM     21  N   UNL A   1      33.015  21.494  23.649  1.00  0.00    -0.381 N 
ATOM     22  H   UNL A   1      32.655  20.678  24.064  1.00  0.00     0.158 HD
ATOM     23  H   UNL A   1      32.571  21.882  22.860  1.00  0.00     0.158 HD
ENDBRANCH  12  21
ENDBRANCH   6  11
ENDBRANCH   3   5
ENDBRANCH   2   3
ENDBRANCH   1   2
BRANCH   1  24
ATOM     24  C   UNL A   1      32.255  29.627  27.056  1.00  0.00     0.275 C 
BRANCH  24  25
ATOM     25  O   UNL A   1      33.691  29.567  27.142  1.00  0.00    -0.458 OA
BRANCH  25  26
ATOM     26  C   UNL A   1      34.285  30.604  27.777  1.00  0.00     0.338 C 
ATOM     27  O   UNL A   1      33.804  31.689  28.049  1.00  0.00    -0.246 OA
BRANCH  26  28
ATOM     28  C   UNL A   1      35.621  30.184  28.220  1.00  0.00     0.060 A 
ATOM     29  C   UNL A   1      35.823  29.698  29.510  1.00  0.00     0.016 A 
ATOM     30  C   UNL A   1      36.677  30.240  27.307  1.00  0.00     0.016 A 
ATOM     31  C   UNL A   1      37.106  29.300  29.896  1.00  0.00     0.010 A 
ATOM     32  C   UNL A   1      37.954  29.835  27.687  1.00  0.00     0.010 A 
ATOM     33  C   UNL A   1      38.180  29.375  28.990  1.00  0.00    -0.014 A 
BRANCH  33  34
ATOM     34  C   UNL A   1      39.539  28.947  29.396  1.00  0.00     0.031 A 
ATOM     35  C   UNL A   1      40.365  29.800  30.316  1.00  0.00     0.074 A 
ATOM     36  C   UNL A   1      40.030  27.790  28.918  1.00  0.00     0.049 A 
ATOM     37  N   UNL A   1      41.538  29.545  30.835  1.00  0.00    -0.248 NA
ATOM     38  C   UNL A   1      39.809  31.109  30.698  1.00  0.00     0.031 C 
ATOM     39  C   UNL A   1      39.331  26.904  27.986  1.00  0.00     0.029 A 
ATOM     40  N   UNL A   1      41.222  27.153  29.157  1.00  0.00    -0.354 N 
ATOM     41  C   UNL A   1      41.855  30.651  31.614  1.00  0.00     0.074 A 
ATOM     42  C   UNL A   1      40.779  31.603  31.456  1.00  0.00     0.031 C 
ATOM     43  C   UNL A   1      40.088  25.818  27.765  1.00  0.00     0.029 A 
ATOM     44  C   UNL A   1      41.338  25.946  28.512  1.00  0.00     0.049 A 
ATOM     45  H   UNL A   1      41.927  27.526  29.734  1.00  0.00     0.167 HD
ATOM     46  C   UNL A   1      42.935  30.838  32.408  1.00  0.00     0.031 A 
ATOM     47  C   UNL A   1      42.331  25.035  28.527  1.00  0.00     0.031 A 
ATOM     48  C   UNL A   1      44.004  29.886  32.550  1.00  0.00     0.049 A 
ATOM     49  C   UNL A   1      43.536  25.281  29.393  1.00  0.00     0.074 A 
ATOM     50  C   UNL A   1      45.119  29.964  33.367  1.00  0.00     0.029 A 
ATOM     51  N   UNL A   1      44.098  28.688  31.857  1.00  0.00    -0.354 N 
ATOM     52  N   UNL A   1      43.783  26.293  30.191  1.00  0.00    -0.248 NA
ATOM     53  C   UNL A   1      44.593  24.259  29.375  1.00  0.00     0.031 C 
ATOM     54  C   UNL A   1      45.921  28.851  33.117  1.00  0.00     0.029 A 
ATOM     55  C   UNL A   1      45.270  28.037  32.204  1.00  0.00     0.049 A 
ATOM     56  H   UNL A   1      43.432  28.352  31.215  1.00  0.00     0.167 HD
ATOM     57  C   UNL A   1      45.006  26.017  30.788  1.00  0.00     0.074 A 
ATOM     58  C   UNL A   1      45.446  24.738  30.271  1.00  0.00     0.031 C 
ATOM     59  C   UNL A   1      45.696  26.761  31.686  1.00  0.00     0.031 A 
BRANCH  46  60
ATOM     60  C   UNL A   1      43.022  32.112  33.204  1.00  0.00    -0.014 A 
ATOM     61  C   UNL A   1      43.722  33.216  32.690  1.00  0.00     0.009 A 
ATOM     62  C   UNL A   1      42.513  32.182  34.510  1.00  0.00     0.009 A 
ATOM     63  C   UNL A   1      43.928  34.353  33.472  1.00  0.00     0.001 A 
ATOM     64  C   UNL A   1      42.693  33.333  35.280  1.00  0.00     0.001 A 
ATOM     65  C   UNL A   1      43.410  34.413  34.765  1.00  0.00     0.000 A 
ENDBRANCH  46  60
BRANCH  47  66
ATOM     66  C   UNL A   1      42.184  23.787  27.733  1.00  0.00    -0.014 A 
ATOM     67  C   UNL A   1      41.710  22.609  28.333  1.00  0.00     0.009 A 
ATOM     68  C   UNL A   1      42.583  23.747  26.388  1.00  0.00     0.009 A 
ATOM     69  C   UNL A   1      41.666  21.412  27.615  1.00  0.00     0.001 A 
ATOM     70  C   UNL A   1      42.508  22.555  25.662  1.00  0.00     0.001 A 
ATOM     71  C   UNL A   1      42.061  21.387  26.279  1.00  0.00     0.000 A 
ENDBRANCH  47  66
BRANCH  59  72
ATOM     72  C   UNL A   1      47.005  26.226  32.199  1.00  0.00    -0.014 A 
ATOM     73  C   UNL A   1      48.173  26.400  31.437  1.00  0.00     0.009 A 
ATOM     74  C   UNL A   1      47.060  25.430  33.353  1.00  0.00     0.009 A 
ATOM     75  C   UNL A   1      49.360  25.764  31.802  1.00  0.00     0.001 A 
ATOM     76  C   UNL A   1      48.257  24.820  33.733  1.00  0.00     0.001 A 
ATOM     77  C   UNL A   1      49.402  24.976  32.950  1.00  0.00     0.000 A 
ENDBRANCH  59  72
ENDBRANCH  33  34
ENDBRANCH  26  28
ENDBRANCH  25  26
ENDBRANCH  24  25
ENDBRANCH   1  24
TORSDOF 13
ENDMDL
MODEL 3
REMARK VINA RESULT:     -10.8      2.906      7.597
REMARK SMILES Nc1nc2ccccc2nc1N1CCC(C(=O)OCCOC(=O)c2ccc(-c3c4nc(c(-c5ccccc5)c5ccc([nH]5)c(-c5ccccc5)c5nc(c(-c6ccccc6)c6ccc3[nH]6)C=C5)C=C4)cc2)CC1
REMARK SMILES IDX 19 1 18 2 16 3 17 4 15 5 12 6 13 7 73 8 14 9 72 10 11 11
REMARK SMILES IDX 2 12 3 13 4 14 10 15 5 16 9 17 6 18 8 19 7 20 1 21 20 24
REMARK SMILES IDX 21 25 22 26 23 27 24 28 25 29 71 30 26 31 70 32 27 33 28 34
REMARK SMILES IDX 29 35 64 36 30 37 69 38 63 39 65 40 31 41 68 42 62 43 61 44
REMARK SMILES IDX 32 46 54 47 39 48 53 49 40 50 43 51 52 52 66 53 41 54 42 55
REMARK SMILES IDX 51 57 67 58 44 59 33 60 34 61 38 62 35 63 37 64 36 65 55 66
REMARK SMILES IDX 56 67 60 68 57 69 59 70 58 71 45 72 46 73 50 74 47 75 49 76
REMARK SMILES IDX 48 77
REMARK H PARENT 1 22 1 23 65 45 43 56
REMARK Flexibility Score: inf
ROOT
ATOM      1  C   UNL A   1      32.081  30.039  25.793  1.00  0.00     0.274 C 
ENDROOT
BRANCH   1   2
ATOM      2  O   UNL A   1      32.372  28.902  24.959  1.00  0.00    -0.462 OA
BRANCH   2   3
ATOM      3  C   UNL A   1      31.333  28.384  24.261  1.00  0.00     0.309 C 
ATOM      4  O   UNL A   1      30.402  29.035  23.798  1.00  0.00    -0.252 OA
BRANCH   3   5
ATOM      5  C   UNL A   1      31.429  26.885  24.083  1.00  0.00     0.103 C 
ATOM      6  N   UNL A   1      32.406  24.226  24.112  1.00  0.00    -0.353 N 
ATOM      7  C   UNL A   1      32.345  24.919  22.835  1.00  0.00     0.119 C 
ATOM      8  C   UNL A   1      31.589  24.675  25.232  1.00  0.00     0.119 C 
ATOM      9  C   UNL A   1      32.431  26.428  23.022  1.00  0.00     0.037 C 
ATOM     10  C   UNL A   1      31.712  26.188  25.411  1.00  0.00     0.037 C 
BRANCH   6  11
ATOM     11  C   UNL A   1      33.540  23.478  24.406  1.00  0.00     0.172 A 
ATOM     12  C   UNL A   1      33.534  22.068  24.227  1.00  0.00     0.167 A 
ATOM     13  N   UNL A   1      34.607  21.302  24.494  1.00  0.00    -0.226 NA
ATOM     14  C   UNL A   1      35.702  21.945  24.930  1.00  0.00     0.091 A 
ATOM     15  N   UNL A   1      34.654  24.117  24.824  1.00  0.00    -0.225 NA
ATOM     16  C   UNL A   1      36.842  21.206  25.219  1.00  0.00     0.031 A 
ATOM     17  C   UNL A   1      35.726  23.351  25.103  1.00  0.00     0.091 A 
ATOM     18  C   UNL A   1      38.002  21.816  25.694  1.00  0.00     0.002 A 
ATOM     19  C   UNL A   1      36.888  23.947  25.581  1.00  0.00     0.031 A 
ATOM     20  C   UNL A   1      38.024  23.192  25.882  1.00  0.00     0.002 A 
BRANCH  12  21
ATOM     21  N   UNL A   1      32.402  21.397  23.773  1.00  0.00    -0.381 N 
ATOM     22  H   UNL A   1      31.863  20.862  24.399  1.00  0.00     0.158 HD
ATOM     23  H   UNL A   1      32.142  21.456  22.825  1.00  0.00     0.158 HD
ENDBRANCH  12  21
ENDBRANCH   6  11
ENDBRANCH   3   5
ENDBRANCH   2   3
ENDBRANCH   1   2
BRANCH   1  24
ATOM     24  C   UNL A   1      32.477  29.765  27.246  1.00  0.00     0.275 C 
BRANCH  24  25
ATOM     25  O   UNL A   1      33.902  29.602  27.380  1.00  0.00    -0.458 OA
BRANCH  25  26
ATOM     26  C   UNL A   1      34.548  30.600  28.026  1.00  0.00     0.338 C 
ATOM     27  O   UNL A   1      34.098  31.670  28.392  1.00  0.00    -0.246 OA
BRANCH  26  28
ATOM     28  C   UNL A   1      35.911  30.150  28.346  1.00  0.00     0.060 A 
ATOM     29  C   UNL A   1      36.217  29.650  29.610  1.00  0.00     0.016 A 
ATOM     30  C   UNL A   1      36.882  30.192  27.342  1.00  0.00     0.016 A 
ATOM     31  C   UNL A   1      37.520  29.224  29.877  1.00  0.00     0.010 A 
ATOM     32  C   UNL A   1      38.179  29.760  27.605  1.00  0.00     0.010 A 
ATOM     33  C   UNL A   1      38.511  29.285  28.880  1.00  0.00    -0.014 A 
BRANCH  33  34
ATOM     34  C   UNL A   1      39.892  28.828  29.161  1.00  0.00     0.031 A 
ATOM     35  C   UNL A   1      40.333  27.448  28.767  1.00  0.00     0.074 A 
ATOM     36  C   UNL A   1      40.743  29.663  29.785  1.00  0.00     0.049 A 
ATOM     37  N   UNL A   1      41.523  26.911  28.863  1.00  0.00    -0.248 NA
ATOM     38  C   UNL A   1      39.312  26.552  28.201  1.00  0.00     0.031 C 
ATOM     39  C   UNL A   1      40.408  31.010  30.248  1.00  0.00     0.029 A 
ATOM     40  N   UNL A   1      42.063  29.508  30.126  1.00  0.00    -0.354 N 
ATOM     41  C   UNL A   1      41.396  25.623  28.358  1.00  0.00     0.074 A 
ATOM     42  C   UNL A   1      40.006  25.438  28.009  1.00  0.00     0.031 C 
ATOM     43  C   UNL A   1      41.504  31.576  30.775  1.00  0.00     0.029 A 
ATOM     44  C   UNL A   1      42.610  30.621  30.717  1.00  0.00     0.049 A 
ATOM     45  H   UNL A   1      42.569  28.680  29.964  1.00  0.00     0.167 HD
ATOM     46  C   UNL A   1      42.363  24.692  28.180  1.00  0.00     0.031 A 
ATOM     47  C   UNL A   1      43.863  30.856  31.153  1.00  0.00     0.031 A 
ATOM     48  C   UNL A   1      43.742  24.884  28.539  1.00  0.00     0.049 A 
ATOM     49  C   UNL A   1      44.912  29.793  30.973  1.00  0.00     0.074 A 
ATOM     50  C   UNL A   1      44.805  24.018  28.355  1.00  0.00     0.029 A 
ATOM     51  N   UNL A   1      44.250  26.015  29.163  1.00  0.00    -0.354 N 
ATOM     52  N   UNL A   1      44.798  28.612  30.415  1.00  0.00    -0.248 NA
ATOM     53  C   UNL A   1      46.263  30.096  31.466  1.00  0.00     0.031 C 
ATOM     54  C   UNL A   1      45.940  24.591  28.928  1.00  0.00     0.029 A 
ATOM     55  C   UNL A   1      45.604  25.851  29.399  1.00  0.00     0.049 A 
ATOM     56  H   UNL A   1      43.726  26.814  29.401  1.00  0.00     0.167 HD
ATOM     57  C   UNL A   1      46.064  28.043  30.466  1.00  0.00     0.074 A 
ATOM     58  C   UNL A   1      46.934  29.013  31.097  1.00  0.00     0.031 C 
ATOM     59  C   UNL A   1      46.463  26.826  30.025  1.00  0.00     0.031 A 
BRANCH  46  60
ATOM     60  C   UNL A   1      41.980  23.378  27.554  1.00  0.00    -0.014 A 
ATOM     61  C   UNL A   1      41.496  22.332  28.357  1.00  0.00     0.009 A 
ATOM     62  C   UNL A   1      42.207  23.134  26.191  1.00  0.00     0.009 A 
ATOM     63  C   UNL A   1      41.267  21.067  27.813  1.00  0.00     0.001 A 
ATOM     64  C   UNL A   1      41.948  21.877  25.642  1.00  0.00     0.001 A 
ATOM     65  C   UNL A   1      41.489  20.841  26.455  1.00  0.00     0.000 A 
ENDBRANCH  46  60
BRANCH  47  66
ATOM     66  C   UNL A   1      44.189  32.179  31.749  1.00  0.00    -0.014 A 
ATOM     67  C   UNL A   1      44.070  32.389  33.132  1.00  0.00     0.009 A 
ATOM     68  C   UNL A   1      44.554  33.259  30.930  1.00  0.00     0.009 A 
ATOM     69  C   UNL A   1      44.280  33.657  33.680  1.00  0.00     0.001 A 
ATOM     70  C   UNL A   1      44.795  34.519  31.485  1.00  0.00     0.001 A 
ATOM     71  C   UNL A   1      44.645  34.719  32.857  1.00  0.00     0.000 A 
ENDBRANCH  47  66
BRANCH  59  72
ATOM     72  C   UNL A   1      47.911  26.449  30.184  1.00  0.00    -0.014 A 
ATOM     73  C   UNL A   1      48.785  26.577  29.092  1.00  0.00     0.009 A 
ATOM     74  C   UNL A   1      48.375  25.838  31.358  1.00  0.00     0.009 A 
ATOM     75  C   UNL A   1      50.084  26.072  29.160  1.00  0.00     0.001 A 
ATOM     76  C   UNL A   1      49.685  25.362  31.434  1.00  0.00     0.001 A 
ATOM     77  C   UNL A   1      50.534  25.466  30.331  1.00  0.00     0.000 A 
ENDBRANCH  59  72
ENDBRANCH  33  34
ENDBRANCH  26  28
ENDBRANCH  25  26
ENDBRANCH  24  25
ENDBRANCH   1  24
TORSDOF 13
ENDMDL
