MODEL 1
REMARK VINA RESULT:     -11.1      0.000      0.000
REMARK SMILES Cc1ccc(Cl)c(Nc2ccccc2C(=O)OCCOC(=O)c2ccc(-c3c4nc(c(-c5ccccc5)c5ccc([nH]5)c(-c5ccccc5)c5nc(c(-c6ccccc6)c6ccc3[nH]6)C=C5)C=C4)cc2)c1Cl
REMARK SMILES IDX 18 1 17 2 15 3 16 4 14 5 9 6 10 7 11 8 13 9 12 10 8 11 7 13
REMARK SMILES IDX 1 14 2 15 3 16 71 17 4 18 72 19 5 20 6 21 19 22 20 23 21 24
REMARK SMILES IDX 22 25 23 26 24 27 70 28 25 29 69 30 26 31 27 32 28 33 63 34
REMARK SMILES IDX 29 35 68 36 62 37 64 38 30 39 67 40 61 41 60 42 31 44 53 45
REMARK SMILES IDX 38 46 52 47 39 48 42 49 51 50 65 51 40 52 41 53 50 55 66 56
REMARK SMILES IDX 43 57 32 58 33 59 37 60 34 61 36 62 35 63 54 64 55 65 59 66
REMARK SMILES IDX 56 67 58 68 57 69 44 70 45 71 49 72 46 73 48 74 47 75
REMARK H PARENT 8 12 64 43 42 54
REMARK Flexibility Score: inf
ROOT
ATOM      1  C   UNL A   1      31.680  28.569  27.087  1.00  0.00     0.275 C 
ENDROOT
BRANCH   1   2
ATOM      2  O   UNL A   1      32.507  27.455  26.692  1.00  0.00    -0.458 OA
BRANCH   2   3
ATOM      3  C   UNL A   1      31.843  26.361  26.235  1.00  0.00     0.340 C 
ATOM      4  O   UNL A   1      30.693  26.051  26.501  1.00  0.00    -0.246 OA
BRANCH   3   5
ATOM      5  C   UNL A   1      32.681  25.591  25.284  1.00  0.00     0.083 A 
ATOM      6  C   UNL A   1      32.283  25.288  23.968  1.00  0.00     0.053 A 
ATOM      7  C   UNL A   1      33.163  24.515  23.183  1.00  0.00     0.027 A 
ATOM      8  C   UNL A   1      34.405  24.091  23.668  1.00  0.00     0.002 A 
ATOM      9  C   UNL A   1      33.946  25.190  25.751  1.00  0.00     0.018 A 
ATOM     10  C   UNL A   1      34.803  24.440  24.951  1.00  0.00     0.001 A 
BRANCH   6  11
ATOM     11  N   UNL A   1      31.135  25.787  23.316  1.00  0.00    -0.352 N 
ATOM     12  H   UNL A   1      30.597  25.098  22.863  1.00  0.00     0.167 HD
BRANCH  11  13
ATOM     13  C   UNL A   1      30.615  27.101  23.196  1.00  0.00     0.077 A 
ATOM     14  C   UNL A   1      27.278  29.016  23.124  1.00  0.00     0.046 C 
ATOM     15  C   UNL A   1      28.748  28.700  23.050  1.00  0.00    -0.030 A 
ATOM     16  C   UNL A   1      29.623  29.666  22.536  1.00  0.00     0.006 A 
ATOM     17  C   UNL A   1      29.258  27.436  23.421  1.00  0.00     0.069 A 
ATOM     18  C   UNL A   1      30.980  29.387  22.395  1.00  0.00     0.023 A 
ATOM     19  Cl  UNL A   1      28.204  26.328  24.257  1.00  0.00    -0.082 Cl
ATOM     20  C   UNL A   1      31.465  28.117  22.709  1.00  0.00     0.066 A 
ATOM     21  Cl  UNL A   1      33.148  27.808  22.435  1.00  0.00    -0.082 Cl
ENDBRANCH  11  13
ENDBRANCH   6  11
ENDBRANCH   3   5
ENDBRANCH   2   3
ENDBRANCH   1   2
BRANCH   1  22
ATOM     22  C   UNL A   1      31.674  29.667  26.030  1.00  0.00     0.275 C 
BRANCH  22  23
ATOM     23  O   UNL A   1      32.983  30.249  25.944  1.00  0.00    -0.458 OA
BRANCH  23  24
ATOM     24  C   UNL A   1      33.273  31.178  26.877  1.00  0.00     0.338 C 
ATOM     25  O   UNL A   1      32.571  32.100  27.265  1.00  0.00    -0.246 OA
BRANCH  24  26
ATOM     26  C   UNL A   1      34.611  30.914  27.422  1.00  0.00     0.060 A 
ATOM     27  C   UNL A   1      35.011  29.599  27.639  1.00  0.00     0.016 A 
ATOM     28  C   UNL A   1      35.416  31.971  27.841  1.00  0.00     0.016 A 
ATOM     29  C   UNL A   1      36.157  29.326  28.375  1.00  0.00     0.010 A 
ATOM     30  C   UNL A   1      36.625  31.693  28.484  1.00  0.00     0.010 A 
ATOM     31  C   UNL A   1      36.987  30.370  28.800  1.00  0.00    -0.014 A 
BRANCH  31  32
ATOM     32  C   UNL A   1      38.197  30.090  29.620  1.00  0.00     0.031 A 
ATOM     33  C   UNL A   1      39.319  29.267  29.046  1.00  0.00     0.074 A 
ATOM     34  C   UNL A   1      38.304  30.573  30.874  1.00  0.00     0.049 A 
ATOM     35  N   UNL A   1      40.351  28.736  29.652  1.00  0.00    -0.248 NA
ATOM     36  C   UNL A   1      39.263  28.987  27.601  1.00  0.00     0.031 C 
ATOM     37  C   UNL A   1      37.324  31.430  31.546  1.00  0.00     0.029 A 
ATOM     38  N   UNL A   1      39.295  30.410  31.810  1.00  0.00    -0.354 N 
ATOM     39  C   UNL A   1      41.019  27.997  28.682  1.00  0.00     0.074 A 
ATOM     40  C   UNL A   1      40.284  28.157  27.447  1.00  0.00     0.031 C 
ATOM     41  C   UNL A   1      37.781  31.748  32.766  1.00  0.00     0.029 A 
ATOM     42  C   UNL A   1      39.034  31.043  33.001  1.00  0.00     0.049 A 
ATOM     43  H   UNL A   1      40.115  29.889  31.644  1.00  0.00     0.167 HD
ATOM     44  C   UNL A   1      42.138  27.246  28.815  1.00  0.00     0.031 A 
ATOM     45  C   UNL A   1      39.699  31.022  34.171  1.00  0.00     0.031 A 
ATOM     46  C   UNL A   1      42.900  27.136  30.030  1.00  0.00     0.049 A 
ATOM     47  C   UNL A   1      40.931  30.176  34.299  1.00  0.00     0.074 A 
ATOM     48  C   UNL A   1      44.061  26.419  30.260  1.00  0.00     0.029 A 
ATOM     49  N   UNL A   1      42.585  27.780  31.217  1.00  0.00    -0.354 N 
ATOM     50  N   UNL A   1      41.516  29.429  33.394  1.00  0.00    -0.248 NA
ATOM     51  C   UNL A   1      41.583  30.154  35.615  1.00  0.00     0.031 C 
ATOM     52  C   UNL A   1      44.430  26.601  31.598  1.00  0.00     0.029 A 
ATOM     53  C   UNL A   1      43.522  27.467  32.187  1.00  0.00     0.049 A 
ATOM     54  H   UNL A   1      41.811  28.373  31.350  1.00  0.00     0.167 HD
ATOM     55  C   UNL A   1      42.604  28.848  34.030  1.00  0.00     0.074 A 
ATOM     56  C   UNL A   1      42.614  29.350  35.390  1.00  0.00     0.031 C 
ATOM     57  C   UNL A   1      43.508  27.969  33.535  1.00  0.00     0.031 A 
BRANCH  44  58
ATOM     58  C   UNL A   1      42.574  26.438  27.626  1.00  0.00    -0.014 A 
ATOM     59  C   UNL A   1      42.099  25.138  27.398  1.00  0.00     0.009 A 
ATOM     60  C   UNL A   1      43.466  27.008  26.700  1.00  0.00     0.009 A 
ATOM     61  C   UNL A   1      42.536  24.412  26.287  1.00  0.00     0.001 A 
ATOM     62  C   UNL A   1      43.879  26.290  25.578  1.00  0.00     0.001 A 
ATOM     63  C   UNL A   1      43.422  24.990  25.376  1.00  0.00     0.000 A 
ENDBRANCH  44  58
BRANCH  45  64
ATOM     64  C   UNL A   1      39.167  31.781  35.331  1.00  0.00    -0.014 A 
ATOM     65  C   UNL A   1      39.478  33.138  35.502  1.00  0.00     0.009 A 
ATOM     66  C   UNL A   1      38.320  31.157  36.261  1.00  0.00     0.009 A 
ATOM     67  C   UNL A   1      38.956  33.852  36.584  1.00  0.00     0.001 A 
ATOM     68  C   UNL A   1      37.777  31.879  37.324  1.00  0.00     0.001 A 
ATOM     69  C   UNL A   1      38.100  33.224  37.488  1.00  0.00     0.000 A 
ENDBRANCH  45  64
BRANCH  57  70
ATOM     70  C   UNL A   1      44.590  27.512  34.469  1.00  0.00    -0.014 A 
ATOM     71  C   UNL A   1      45.789  28.230  34.592  1.00  0.00     0.009 A 
ATOM     72  C   UNL A   1      44.396  26.365  35.252  1.00  0.00     0.009 A 
ATOM     73  C   UNL A   1      46.787  27.789  35.462  1.00  0.00     0.001 A 
ATOM     74  C   UNL A   1      45.387  25.939  36.137  1.00  0.00     0.001 A 
ATOM     75  C   UNL A   1      46.584  26.647  36.236  1.00  0.00     0.000 A 
ENDBRANCH  57  70
ENDBRANCH  31  32
ENDBRANCH  24  26
ENDBRANCH  23  24
ENDBRANCH  22  23
ENDBRANCH   1  22
TORSDOF 13
ENDMDL
MODEL 2
REMARK VINA RESULT:     -11.1      4.116      8.948
REMARK SMILES Cc1ccc(Cl)c(Nc2ccccc2C(=O)OCCOC(=O)c2ccc(-c3c4nc(c(-c5ccccc5)c5ccc([nH]5)c(-c5ccccc5)c5nc(c(-c6ccccc6)c6ccc3[nH]6)C=C5)C=C4)cc2)c1Cl
REMARK SMILES IDX 18 1 17 2 15 3 16 4 14 5 9 6 10 7 11 8 13 9 12 10 8 11 7 13
REMARK SMILES IDX 1 14 2 15 3 16 71 17 4 18 72 19 5 20 6 21 19 22 20 23 21 24
REMARK SMILES IDX 22 25 23 26 24 27 70 28 25 29 69 30 26 31 27 32 28 33 63 34
REMARK SMILES IDX 29 35 68 36 62 37 64 38 30 39 67 40 61 41 60 42 31 44 53 45
REMARK SMILES IDX 38 46 52 47 39 48 42 49 51 50 65 51 40 52 41 53 50 55 66 56
REMARK SMILES IDX 43 57 32 58 33 59 37 60 34 61 36 62 35 63 54 64 55 65 59 66
REMARK SMILES IDX 56 67 58 68 57 69 44 70 45 71 49 72 46 73 48 74 47 75
REMARK H PARENT 8 12 64 43 42 54
REMARK Flexibility Score: inf
ROOT
ATOM      1  C   UNL A   1      34.621  35.282  28.304  1.00  0.00     0.275 C 
ENDROOT
BRANCH   1   2
ATOM      2  O   UNL A   1      34.798  34.012  27.642  1.00  0.00    -0.458 OA
BRANCH   2   3
ATOM      3  C   UNL A   1      35.476  33.069  28.347  1.00  0.00     0.340 C 
ATOM      4  O   UNL A   1      36.312  33.277  29.211  1.00  0.00    -0.246 OA
BRANCH   3   5
ATOM      5  C   UNL A   1      35.020  31.706  27.985  1.00  0.00     0.083 A 
ATOM      6  C   UNL A   1      35.846  30.568  28.045  1.00  0.00     0.053 A 
ATOM      7  C   UNL A   1      35.292  29.338  27.635  1.00  0.00     0.027 A 
ATOM      8  C   UNL A   1      33.961  29.231  27.218  1.00  0.00     0.002 A 
ATOM      9  C   UNL A   1      33.672  31.582  27.598  1.00  0.00     0.018 A 
ATOM     10  C   UNL A   1      33.146  30.354  27.211  1.00  0.00     0.001 A 
BRANCH   6  11
ATOM     11  N   UNL A   1      37.147  30.519  28.592  1.00  0.00    -0.352 N 
ATOM     12  H   UNL A   1      37.611  31.387  28.605  1.00  0.00     0.167 HD
BRANCH  11  13
ATOM     13  C   UNL A   1      37.904  29.447  29.127  1.00  0.00     0.077 A 
ATOM     14  C   UNL A   1      40.285  26.621  28.053  1.00  0.00     0.046 C 
ATOM     15  C   UNL A   1      39.400  27.505  28.891  1.00  0.00    -0.030 A 
ATOM     16  C   UNL A   1      39.049  27.085  30.181  1.00  0.00     0.006 A 
ATOM     17  C   UNL A   1      38.860  28.709  28.388  1.00  0.00     0.069 A 
ATOM     18  C   UNL A   1      38.183  27.847  30.961  1.00  0.00     0.023 A 
ATOM     19  Cl  UNL A   1      39.470  29.326  26.877  1.00  0.00    -0.082 Cl
ATOM     20  C   UNL A   1      37.609  29.004  30.435  1.00  0.00     0.066 A 
ATOM     21  Cl  UNL A   1      36.477  29.862  31.426  1.00  0.00    -0.082 Cl
ENDBRANCH  11  13
ENDBRANCH   6  11
ENDBRANCH   3   5
ENDBRANCH   2   3
ENDBRANCH   1   2
BRANCH   1  22
ATOM     22  C   UNL A   1      33.203  35.445  28.837  1.00  0.00     0.275 C 
BRANCH  22  23
ATOM     23  O   UNL A   1      33.018  34.579  29.966  1.00  0.00    -0.458 OA
BRANCH  23  24
ATOM     24  C   UNL A   1      32.999  35.184  31.171  1.00  0.00     0.338 C 
ATOM     25  O   UNL A   1      32.212  36.025  31.578  1.00  0.00    -0.246 OA
BRANCH  24  26
ATOM     26  C   UNL A   1      34.095  34.657  31.994  1.00  0.00     0.060 A 
ATOM     27  C   UNL A   1      35.049  35.535  32.501  1.00  0.00     0.016 A 
ATOM     28  C   UNL A   1      34.252  33.282  32.152  1.00  0.00     0.016 A 
ATOM     29  C   UNL A   1      36.221  35.047  33.066  1.00  0.00     0.010 A 
ATOM     30  C   UNL A   1      35.379  32.797  32.820  1.00  0.00     0.010 A 
ATOM     31  C   UNL A   1      36.399  33.670  33.243  1.00  0.00    -0.014 A 
BRANCH  31  32
ATOM     32  C   UNL A   1      37.666  33.137  33.814  1.00  0.00     0.031 A 
ATOM     33  C   UNL A   1      37.885  33.158  35.303  1.00  0.00     0.074 A 
ATOM     34  C   UNL A   1      38.620  32.627  33.010  1.00  0.00     0.049 A 
ATOM     35  N   UNL A   1      38.984  32.943  35.981  1.00  0.00    -0.248 NA
ATOM     36  C   UNL A   1      36.719  33.485  36.140  1.00  0.00     0.031 C 
ATOM     37  C   UNL A   1      38.527  32.489  31.555  1.00  0.00     0.029 A 
ATOM     38  N   UNL A   1      39.862  32.124  33.311  1.00  0.00    -0.354 N 
ATOM     39  C   UNL A   1      38.661  33.185  37.311  1.00  0.00     0.074 A 
ATOM     40  C   UNL A   1      37.262  33.552  37.347  1.00  0.00     0.031 C 
ATOM     41  C   UNL A   1      39.643  31.904  31.097  1.00  0.00     0.029 A 
ATOM     42  C   UNL A   1      40.569  31.714  32.206  1.00  0.00     0.049 A 
ATOM     43  H   UNL A   1      40.213  32.063  34.229  1.00  0.00     0.167 HD
ATOM     44  C   UNL A   1      39.461  33.117  38.402  1.00  0.00     0.031 A 
ATOM     45  C   UNL A   1      41.838  31.281  32.087  1.00  0.00     0.031 A 
ATOM     46  C   UNL A   1      40.836  32.695  38.370  1.00  0.00     0.049 A 
ATOM     47  C   UNL A   1      42.710  31.221  33.305  1.00  0.00     0.074 A 
ATOM     48  C   UNL A   1      41.725  32.570  39.424  1.00  0.00     0.029 A 
ATOM     49  N   UNL A   1      41.515  32.309  37.225  1.00  0.00    -0.354 N 
ATOM     50  N   UNL A   1      42.412  31.517  34.548  1.00  0.00    -0.248 NA
ATOM     51  C   UNL A   1      44.099  30.790  33.102  1.00  0.00     0.031 C 
ATOM     52  C   UNL A   1      42.954  32.141  38.910  1.00  0.00     0.029 A 
ATOM     53  C   UNL A   1      42.816  31.958  37.543  1.00  0.00     0.049 A 
ATOM     54  H   UNL A   1      41.129  32.287  36.320  1.00  0.00     0.167 HD
ATOM     55  C   UNL A   1      43.575  31.307  35.275  1.00  0.00     0.074 A 
ATOM     56  C   UNL A   1      44.576  30.833  34.339  1.00  0.00     0.031 C 
ATOM     57  C   UNL A   1      43.798  31.499  36.597  1.00  0.00     0.031 A 
BRANCH  44  58
ATOM     58  C   UNL A   1      38.882  33.563  39.714  1.00  0.00    -0.014 A 
ATOM     59  C   UNL A   1      38.918  34.905  40.123  1.00  0.00     0.009 A 
ATOM     60  C   UNL A   1      38.266  32.615  40.548  1.00  0.00     0.009 A 
ATOM     61  C   UNL A   1      38.380  35.280  41.357  1.00  0.00     0.001 A 
ATOM     62  C   UNL A   1      37.706  32.998  41.767  1.00  0.00     0.001 A 
ATOM     63  C   UNL A   1      37.771  34.328  42.175  1.00  0.00     0.000 A 
ENDBRANCH  44  58
BRANCH  45  64
ATOM     64  C   UNL A   1      42.371  30.933  30.745  1.00  0.00    -0.014 A 
ATOM     65  C   UNL A   1      42.161  29.657  30.201  1.00  0.00     0.009 A 
ATOM     66  C   UNL A   1      43.070  31.887  29.988  1.00  0.00     0.009 A 
ATOM     67  C   UNL A   1      42.646  29.343  28.929  1.00  0.00     0.001 A 
ATOM     68  C   UNL A   1      43.528  31.580  28.706  1.00  0.00     0.001 A 
ATOM     69  C   UNL A   1      43.321  30.307  28.181  1.00  0.00     0.000 A 
ENDBRANCH  45  64
BRANCH  57  70
ATOM     70  C   UNL A   1      45.172  31.179  37.107  1.00  0.00    -0.014 A 
ATOM     71  C   UNL A   1      45.493  29.888  37.557  1.00  0.00     0.009 A 
ATOM     72  C   UNL A   1      46.162  32.172  37.112  1.00  0.00     0.009 A 
ATOM     73  C   UNL A   1      46.775  29.608  38.031  1.00  0.00     0.001 A 
ATOM     74  C   UNL A   1      47.449  31.882  37.566  1.00  0.00     0.001 A 
ATOM     75  C   UNL A   1      47.752  30.604  38.033  1.00  0.00     0.000 A 
ENDBRANCH  57  70
ENDBRANCH  31  32
ENDBRANCH  24  26
ENDBRANCH  23  24
ENDBRANCH  22  23
ENDBRANCH   1  22
TORSDOF 13
ENDMDL
MODEL 3
REMARK VINA RESULT:     -11.0      4.384      8.866
REMARK SMILES Cc1ccc(Cl)c(Nc2ccccc2C(=O)OCCOC(=O)c2ccc(-c3c4nc(c(-c5ccccc5)c5ccc([nH]5)c(-c5ccccc5)c5nc(c(-c6ccccc6)c6ccc3[nH]6)C=C5)C=C4)cc2)c1Cl
REMARK SMILES IDX 18 1 17 2 15 3 16 4 14 5 9 6 10 7 11 8 13 9 12 10 8 11 7 13
REMARK SMILES IDX 1 14 2 15 3 16 71 17 4 18 72 19 5 20 6 21 19 22 20 23 21 24
REMARK SMILES IDX 22 25 23 26 24 27 70 28 25 29 69 30 26 31 27 32 28 33 63 34
REMARK SMILES IDX 29 35 68 36 62 37 64 38 30 39 67 40 61 41 60 42 31 44 53 45
REMARK SMILES IDX 38 46 52 47 39 48 42 49 51 50 65 51 40 52 41 53 50 55 66 56
REMARK SMILES IDX 43 57 32 58 33 59 37 60 34 61 36 62 35 63 54 64 55 65 59 66
REMARK SMILES IDX 56 67 58 68 57 69 44 70 45 71 49 72 46 73 48 74 47 75
REMARK H PARENT 8 12 64 43 42 54
REMARK Flexibility Score: inf
ROOT
ATOM      1  C   UNL A   1      36.664  22.514  23.666  1.00  0.00     0.275 C 
ENDROOT
BRANCH   1   2
ATOM      2  O   UNL A   1      35.266  22.848  23.537  1.00  0.00    -0.458 OA
BRANCH   2   3
ATOM      3  C   UNL A   1      34.867  23.974  24.184  1.00  0.00     0.340 C 
ATOM      4  O   UNL A   1      35.441  24.512  25.117  1.00  0.00    -0.246 OA
BRANCH   3   5
ATOM      5  C   UNL A   1      33.646  24.539  23.562  1.00  0.00     0.083 A 
ATOM      6  C   UNL A   1      32.373  23.948  23.671  1.00  0.00     0.053 A 
ATOM      7  C   UNL A   1      31.304  24.573  22.996  1.00  0.00     0.027 A 
ATOM      8  C   UNL A   1      31.480  25.757  22.273  1.00  0.00     0.002 A 
ATOM      9  C   UNL A   1      33.806  25.750  22.861  1.00  0.00     0.018 A 
ATOM     10  C   UNL A   1      32.732  26.354  22.215  1.00  0.00     0.001 A 
BRANCH   6  11
ATOM     11  N   UNL A   1      32.039  22.851  24.493  1.00  0.00    -0.352 N 
ATOM     12  H   UNL A   1      31.361  23.051  25.177  1.00  0.00     0.167 HD
BRANCH  11  13
ATOM     13  C   UNL A   1      32.505  21.511  24.512  1.00  0.00     0.077 A 
ATOM     14  C   UNL A   1      32.274  18.224  22.524  1.00  0.00     0.046 C 
ATOM     15  C   UNL A   1      32.601  19.225  23.600  1.00  0.00    -0.030 A 
ATOM     16  C   UNL A   1      33.111  18.766  24.821  1.00  0.00     0.006 A 
ATOM     17  C   UNL A   1      32.343  20.605  23.437  1.00  0.00     0.069 A 
ATOM     18  C   UNL A   1      33.367  19.656  25.860  1.00  0.00     0.023 A 
ATOM     19  Cl  UNL A   1      31.916  21.187  21.851  1.00  0.00    -0.082 Cl
ATOM     20  C   UNL A   1      33.055  21.008  25.710  1.00  0.00     0.066 A 
ATOM     21  Cl  UNL A   1      33.320  22.050  27.069  1.00  0.00    -0.082 Cl
ENDBRANCH  11  13
ENDBRANCH   6  11
ENDBRANCH   3   5
ENDBRANCH   2   3
ENDBRANCH   1   2
BRANCH   1  22
ATOM     22  C   UNL A   1      36.868  21.277  24.534  1.00  0.00     0.275 C 
BRANCH  22  23
ATOM     23  O   UNL A   1      37.375  21.676  25.815  1.00  0.00    -0.458 OA
BRANCH  23  24
ATOM     24  C   UNL A   1      38.698  21.492  26.005  1.00  0.00     0.338 C 
ATOM     25  O   UNL A   1      39.367  20.507  25.730  1.00  0.00    -0.246 OA
BRANCH  24  26
ATOM     26  C   UNL A   1      39.275  22.705  26.597  1.00  0.00     0.060 A 
ATOM     27  C   UNL A   1      38.789  23.950  26.207  1.00  0.00     0.016 A 
ATOM     28  C   UNL A   1      40.383  22.615  27.435  1.00  0.00     0.016 A 
ATOM     29  C   UNL A   1      39.471  25.109  26.556  1.00  0.00     0.010 A 
ATOM     30  C   UNL A   1      41.003  23.787  27.876  1.00  0.00     0.010 A 
ATOM     31  C   UNL A   1      40.583  25.046  27.404  1.00  0.00    -0.014 A 
BRANCH  31  32
ATOM     32  C   UNL A   1      41.342  26.277  27.753  1.00  0.00     0.031 A 
ATOM     33  C   UNL A   1      40.738  27.290  28.689  1.00  0.00     0.074 A 
ATOM     34  C   UNL A   1      42.571  26.495  27.244  1.00  0.00     0.049 A 
ATOM     35  N   UNL A   1      41.131  28.511  28.954  1.00  0.00    -0.248 NA
ATOM     36  C   UNL A   1      39.520  26.884  29.408  1.00  0.00     0.031 C 
ATOM     37  C   UNL A   1      43.307  25.580  26.369  1.00  0.00     0.029 A 
ATOM     38  N   UNL A   1      43.422  27.562  27.395  1.00  0.00    -0.354 N 
ATOM     39  C   UNL A   1      40.169  29.042  29.804  1.00  0.00     0.074 A 
ATOM     40  C   UNL A   1      39.179  28.009  30.021  1.00  0.00     0.031 C 
ATOM     41  C   UNL A   1      44.509  26.105  26.094  1.00  0.00     0.029 A 
ATOM     42  C   UNL A   1      44.594  27.432  26.691  1.00  0.00     0.049 A 
ATOM     43  H   UNL A   1      43.212  28.345  27.955  1.00  0.00     0.167 HD
ATOM     44  C   UNL A   1      40.111  30.282  30.346  1.00  0.00     0.031 A 
ATOM     45  C   UNL A   1      45.605  28.300  26.501  1.00  0.00     0.031 A 
ATOM     46  C   UNL A   1      41.126  31.286  30.176  1.00  0.00     0.049 A 
ATOM     47  C   UNL A   1      45.517  29.671  27.103  1.00  0.00     0.074 A 
ATOM     48  C   UNL A   1      41.172  32.566  30.703  1.00  0.00     0.029 A 
ATOM     49  N   UNL A   1      42.287  31.116  29.437  1.00  0.00    -0.354 N 
ATOM     50  N   UNL A   1      44.570  30.184  27.850  1.00  0.00    -0.248 NA
ATOM     51  C   UNL A   1      46.628  30.589  26.817  1.00  0.00     0.031 C 
ATOM     52  C   UNL A   1      42.345  33.182  30.253  1.00  0.00     0.029 A 
ATOM     53  C   UNL A   1      43.049  32.271  29.482  1.00  0.00     0.049 A 
ATOM     54  H   UNL A   1      42.532  30.295  28.953  1.00  0.00     0.167 HD
ATOM     55  C   UNL A   1      44.969  31.485  28.124  1.00  0.00     0.074 A 
ATOM     56  C   UNL A   1      46.256  31.673  27.486  1.00  0.00     0.031 C 
ATOM     57  C   UNL A   1      44.322  32.441  28.833  1.00  0.00     0.031 A 
BRANCH  44  58
ATOM     58  C   UNL A   1      38.880  30.638  31.129  1.00  0.00    -0.014 A 
ATOM     59  C   UNL A   1      37.743  31.187  30.516  1.00  0.00     0.009 A 
ATOM     60  C   UNL A   1      38.854  30.394  32.513  1.00  0.00     0.009 A 
ATOM     61  C   UNL A   1      36.621  31.517  31.279  1.00  0.00     0.001 A 
ATOM     62  C   UNL A   1      37.721  30.700  33.267  1.00  0.00     0.001 A 
ATOM     63  C   UNL A   1      36.609  31.270  32.652  1.00  0.00     0.000 A 
ENDBRANCH  44  58
BRANCH  45  64
ATOM     64  C   UNL A   1      46.757  27.910  25.648  1.00  0.00    -0.014 A 
ATOM     65  C   UNL A   1      47.921  27.376  26.218  1.00  0.00     0.009 A 
ATOM     66  C   UNL A   1      46.684  28.044  24.252  1.00  0.00     0.009 A 
ATOM     67  C   UNL A   1      48.992  26.991  25.408  1.00  0.00     0.001 A 
ATOM     68  C   UNL A   1      47.744  27.632  23.443  1.00  0.00     0.001 A 
ATOM     69  C   UNL A   1      48.898  27.111  24.022  1.00  0.00     0.000 A 
ENDBRANCH  45  64
BRANCH  57  70
ATOM     70  C   UNL A   1      45.009  33.768  28.966  1.00  0.00    -0.014 A 
ATOM     71  C   UNL A   1      44.768  34.801  28.047  1.00  0.00     0.009 A 
ATOM     72  C   UNL A   1      45.887  33.994  30.036  1.00  0.00     0.009 A 
ATOM     73  C   UNL A   1      45.419  36.028  28.183  1.00  0.00     0.001 A 
ATOM     74  C   UNL A   1      46.519  35.229  30.181  1.00  0.00     0.001 A 
ATOM     75  C   UNL A   1      46.290  36.243  29.251  1.00  0.00     0.000 A 
ENDBRANCH  57  70
ENDBRANCH  31  32
ENDBRANCH  24  26
ENDBRANCH  23  24
ENDBRANCH  22  23
ENDBRANCH   1  22
TORSDOF 13
ENDMDL
