MODEL 1
REMARK VINA RESULT:     -11.1      0.000      0.000
REMARK SMILES N#Cc1ccc2c(c1)C=C(C(=O)OCCOC(=O)c1ccc(-c3c4nc(c(-c5ccccc5)c5ccc([nH]5)c(-c5ccccc5)c5nc(c(-c6ccccc6)c6ccc3[nH]6)C=C5)C=C4)cc1)[C@@H](C(F)(F)F)O2
REMARK SMILES IDX 15 1 14 2 13 3 11 4 12 5 10 6 3 7 4 8 8 9 5 10 7 11 6 12
REMARK SMILES IDX 9 13 72 14 67 15 2 16 1 17 68 18 69 19 70 20 71 21 16 22
REMARK SMILES IDX 17 23 18 24 19 25 20 26 66 27 21 28 65 29 22 30 23 31 24 32
REMARK SMILES IDX 59 33 25 34 64 35 58 36 60 37 26 38 63 39 57 40 56 41 27 43
REMARK SMILES IDX 49 44 34 45 48 46 35 47 38 48 47 49 61 50 36 51 37 52 46 54
REMARK SMILES IDX 62 55 39 56 28 57 29 58 33 59 30 60 32 61 31 62 50 63 51 64
REMARK SMILES IDX 55 65 52 66 54 67 53 68 40 69 41 70 45 71 42 72 44 73 43 74
REMARK H PARENT 60 42 38 53
REMARK Flexibility Score: inf
ROOT
ATOM      1  C   UNL A   1      35.999  20.737  25.372  1.00  0.00     0.275 C 
ENDROOT
BRANCH   1   2
ATOM      2  C   UNL A   1      35.067  21.698  26.115  1.00  0.00     0.275 C 
BRANCH   2   3
ATOM      3  O   UNL A   1      35.027  22.998  25.482  1.00  0.00    -0.459 OA
BRANCH   3   4
ATOM      4  C   UNL A   1      33.944  23.244  24.711  1.00  0.00     0.338 C 
ATOM      5  O   UNL A   1      33.565  22.577  23.760  1.00  0.00    -0.246 OA
BRANCH   4   6
ATOM      6  C   UNL A   1      33.218  24.445  25.178  1.00  0.00     0.087 C 
ATOM      7  C   UNL A   1      33.430  28.911  26.984  1.00  0.00     0.053 A 
ATOM      8  C   UNL A   1      32.073  28.837  27.315  1.00  0.00     0.023 A 
ATOM      9  C   UNL A   1      34.028  27.841  26.320  1.00  0.00     0.031 A 
ATOM     10  C   UNL A   1      31.323  27.702  26.978  1.00  0.00     0.048 A 
ATOM     11  C   UNL A   1      33.277  26.699  26.010  1.00  0.00     0.019 A 
ATOM     12  C   UNL A   1      31.926  26.626  26.330  1.00  0.00     0.128 A 
ATOM     13  C   UNL A   1      33.922  25.561  25.397  1.00  0.00     0.027 C 
ATOM     14  O   UNL A   1      31.140  25.547  26.034  1.00  0.00    -0.475 OA
ATOM     15  C   UNL A   1      31.770  24.319  25.550  1.00  0.00     0.316 C 
BRANCH   7  16
ATOM     16  C   UNL A   1      34.213  30.058  27.336  1.00  0.00     0.099 C 
ATOM     17  N   UNL A   1      34.861  30.978  27.626  1.00  0.00    -0.192 NA
ENDBRANCH   7  16
BRANCH  15  18
ATOM     18  C   UNL A   1      31.575  23.213  26.600  1.00  0.00     0.430 C 
ATOM     19  F   UNL A   1      32.532  23.262  27.555  1.00  0.00    -0.167 F 
ATOM     20  F   UNL A   1      30.386  23.335  27.240  1.00  0.00    -0.167 F 
ATOM     21  F   UNL A   1      31.611  21.979  26.049  1.00  0.00    -0.167 F 
ENDBRANCH  15  18
ENDBRANCH   4   6
ENDBRANCH   3   4
ENDBRANCH   2   3
ENDBRANCH   1   2
BRANCH   1  22
ATOM     22  O   UNL A   1      37.180  21.411  24.905  1.00  0.00    -0.458 OA
BRANCH  22  23
ATOM     23  C   UNL A   1      38.331  20.990  25.471  1.00  0.00     0.338 C 
ATOM     24  O   UNL A   1      38.851  19.892  25.377  1.00  0.00    -0.246 OA
BRANCH  23  25
ATOM     25  C   UNL A   1      39.000  22.118  26.125  1.00  0.00     0.060 A 
ATOM     26  C   UNL A   1      40.190  21.975  26.820  1.00  0.00     0.016 A 
ATOM     27  C   UNL A   1      38.492  23.384  25.873  1.00  0.00     0.016 A 
ATOM     28  C   UNL A   1      40.847  23.128  27.266  1.00  0.00     0.010 A 
ATOM     29  C   UNL A   1      39.247  24.517  26.125  1.00  0.00     0.010 A 
ATOM     30  C   UNL A   1      40.407  24.415  26.888  1.00  0.00    -0.014 A 
BRANCH  30  31
ATOM     31  C   UNL A   1      41.122  25.652  27.308  1.00  0.00     0.031 A 
ATOM     32  C   UNL A   1      42.490  25.984  26.751  1.00  0.00     0.074 A 
ATOM     33  C   UNL A   1      40.547  26.472  28.209  1.00  0.00     0.049 A 
ATOM     34  N   UNL A   1      43.223  27.050  26.961  1.00  0.00    -0.248 NA
ATOM     35  C   UNL A   1      43.144  24.992  25.876  1.00  0.00     0.031 C 
ATOM     36  C   UNL A   1      39.275  26.215  28.891  1.00  0.00     0.029 A 
ATOM     37  N   UNL A   1      40.932  27.700  28.687  1.00  0.00    -0.354 N 
ATOM     38  C   UNL A   1      44.407  26.843  26.261  1.00  0.00     0.074 A 
ATOM     39  C   UNL A   1      44.345  25.518  25.698  1.00  0.00     0.031 C 
ATOM     40  C   UNL A   1      38.938  27.292  29.613  1.00  0.00     0.029 A 
ATOM     41  C   UNL A   1      39.998  28.288  29.507  1.00  0.00     0.049 A 
ATOM     42  H   UNL A   1      41.794  28.119  28.463  1.00  0.00     0.167 HD
ATOM     43  C   UNL A   1      45.433  27.699  26.055  1.00  0.00     0.031 A 
ATOM     44  C   UNL A   1      39.982  29.500  30.098  1.00  0.00     0.031 A 
ATOM     45  C   UNL A   1      45.467  29.035  26.581  1.00  0.00     0.049 A 
ATOM     46  C   UNL A   1      41.129  30.441  29.848  1.00  0.00     0.074 A 
ATOM     47  C   UNL A   1      46.424  30.011  26.370  1.00  0.00     0.029 A 
ATOM     48  N   UNL A   1      44.506  29.583  27.414  1.00  0.00    -0.354 N 
ATOM     49  N   UNL A   1      42.187  30.266  29.093  1.00  0.00    -0.248 NA
ATOM     50  C   UNL A   1      41.076  31.749  30.514  1.00  0.00     0.031 C 
ATOM     51  C   UNL A   1      46.086  31.119  27.144  1.00  0.00     0.029 A 
ATOM     52  C   UNL A   1      44.867  30.873  27.756  1.00  0.00     0.049 A 
ATOM     53  H   UNL A   1      43.690  29.123  27.717  1.00  0.00     0.167 HD
ATOM     54  C   UNL A   1      42.913  31.447  29.173  1.00  0.00     0.074 A 
ATOM     55  C   UNL A   1      42.160  32.342  30.029  1.00  0.00     0.031 C 
ATOM     56  C   UNL A   1      44.100  31.757  28.597  1.00  0.00     0.031 A 
BRANCH  43  57
ATOM     57  C   UNL A   1      46.586  27.256  25.190  1.00  0.00    -0.014 A 
ATOM     58  C   UNL A   1      47.579  26.416  25.722  1.00  0.00     0.009 A 
ATOM     59  C   UNL A   1      46.763  27.773  23.897  1.00  0.00     0.009 A 
ATOM     60  C   UNL A   1      48.735  26.132  24.994  1.00  0.00     0.001 A 
ATOM     61  C   UNL A   1      47.903  27.454  23.153  1.00  0.00     0.001 A 
ATOM     62  C   UNL A   1      48.896  26.650  23.710  1.00  0.00     0.000 A 
ENDBRANCH  43  57
BRANCH  44  63
ATOM     63  C   UNL A   1      38.808  29.897  30.924  1.00  0.00    -0.014 A 
ATOM     64  C   UNL A   1      37.700  30.534  30.337  1.00  0.00     0.009 A 
ATOM     65  C   UNL A   1      38.813  29.709  32.315  1.00  0.00     0.009 A 
ATOM     66  C   UNL A   1      36.649  31.009  31.125  1.00  0.00     0.001 A 
ATOM     67  C   UNL A   1      37.740  30.148  33.096  1.00  0.00     0.001 A 
ATOM     68  C   UNL A   1      36.667  30.811  32.502  1.00  0.00     0.000 A 
ENDBRANCH  44  63
BRANCH  56  69
ATOM     69  C   UNL A   1      44.676  33.126  28.841  1.00  0.00    -0.014 A 
ATOM     70  C   UNL A   1      44.395  34.168  27.942  1.00  0.00     0.009 A 
ATOM     71  C   UNL A   1      45.611  33.346  29.863  1.00  0.00     0.009 A 
ATOM     72  C   UNL A   1      45.062  35.388  28.036  1.00  0.00     0.001 A 
ATOM     73  C   UNL A   1      46.246  34.584  29.982  1.00  0.00     0.001 A 
ATOM     74  C   UNL A   1      45.985  35.597  29.059  1.00  0.00     0.000 A 
ENDBRANCH  56  69
ENDBRANCH  30  31
ENDBRANCH  23  25
ENDBRANCH  22  23
ENDBRANCH   1  22
TORSDOF 13
ENDMDL
MODEL 2
REMARK VINA RESULT:     -11.0      4.572      7.082
REMARK SMILES N#Cc1ccc2c(c1)C=C(C(=O)OCCOC(=O)c1ccc(-c3c4nc(c(-c5ccccc5)c5ccc([nH]5)c(-c5ccccc5)c5nc(c(-c6ccccc6)c6ccc3[nH]6)C=C5)C=C4)cc1)[C@@H](C(F)(F)F)O2
REMARK SMILES IDX 15 1 14 2 13 3 11 4 12 5 10 6 3 7 4 8 8 9 5 10 7 11 6 12
REMARK SMILES IDX 9 13 72 14 67 15 2 16 1 17 68 18 69 19 70 20 71 21 16 22
REMARK SMILES IDX 17 23 18 24 19 25 20 26 66 27 21 28 65 29 22 30 23 31 24 32
REMARK SMILES IDX 59 33 25 34 64 35 58 36 60 37 26 38 63 39 57 40 56 41 27 43
REMARK SMILES IDX 49 44 34 45 48 46 35 47 38 48 47 49 61 50 36 51 37 52 46 54
REMARK SMILES IDX 62 55 39 56 28 57 29 58 33 59 30 60 32 61 31 62 50 63 51 64
REMARK SMILES IDX 55 65 52 66 54 67 53 68 40 69 41 70 45 71 42 72 44 73 43 74
REMARK H PARENT 60 42 38 53
REMARK Flexibility Score: inf
ROOT
ATOM      1  C   UNL A   1      40.857  19.981  26.856  1.00  0.00     0.275 C 
ENDROOT
BRANCH   1   2
ATOM      2  C   UNL A   1      41.916  19.216  27.655  1.00  0.00     0.275 C 
BRANCH   2   3
ATOM      3  O   UNL A   1      43.120  19.006  26.882  1.00  0.00    -0.459 OA
BRANCH   3   4
ATOM      4  C   UNL A   1      43.157  19.613  25.674  1.00  0.00     0.338 C 
ATOM      5  O   UNL A   1      42.635  19.212  24.645  1.00  0.00    -0.246 OA
BRANCH   4   6
ATOM      6  C   UNL A   1      43.908  20.885  25.741  1.00  0.00     0.087 C 
ATOM      7  C   UNL A   1      43.920  25.670  25.138  1.00  0.00     0.053 A 
ATOM      8  C   UNL A   1      45.318  25.668  25.181  1.00  0.00     0.023 A 
ATOM      9  C   UNL A   1      43.231  24.471  25.321  1.00  0.00     0.031 A 
ATOM     10  C   UNL A   1      46.017  24.474  25.410  1.00  0.00     0.048 A 
ATOM     11  C   UNL A   1      43.940  23.278  25.524  1.00  0.00     0.019 A 
ATOM     12  C   UNL A   1      45.328  23.274  25.575  1.00  0.00     0.128 A 
ATOM     13  C   UNL A   1      43.223  22.029  25.630  1.00  0.00     0.027 C 
ATOM     14  O   UNL A   1      46.070  22.146  25.790  1.00  0.00    -0.475 OA
ATOM     15  C   UNL A   1      45.408  20.843  25.758  1.00  0.00     0.316 C 
BRANCH   7  16
ATOM     16  C   UNL A   1      43.192  26.878  24.889  1.00  0.00     0.099 C 
ATOM     17  N   UNL A   1      42.592  27.855  24.701  1.00  0.00    -0.192 NA
ENDBRANCH   7  16
BRANCH  15  18
ATOM     18  C   UNL A   1      45.940  20.045  24.555  1.00  0.00     0.430 C 
ATOM     19  F   UNL A   1      45.191  20.259  23.449  1.00  0.00    -0.167 F 
ATOM     20  F   UNL A   1      47.208  20.405  24.238  1.00  0.00    -0.167 F 
ATOM     21  F   UNL A   1      45.947  18.714  24.794  1.00  0.00    -0.167 F 
ENDBRANCH  15  18
ENDBRANCH   4   6
ENDBRANCH   3   4
ENDBRANCH   2   3
ENDBRANCH   1   2
BRANCH   1  22
ATOM     22  O   UNL A   1      40.409  21.149  27.566  1.00  0.00    -0.458 OA
BRANCH  22  23
ATOM     23  C   UNL A   1      39.756  22.053  26.807  1.00  0.00     0.338 C 
ATOM     24  O   UNL A   1      38.802  21.864  26.073  1.00  0.00    -0.246 OA
BRANCH  23  25
ATOM     25  C   UNL A   1      40.260  23.398  27.102  1.00  0.00     0.060 A 
ATOM     26  C   UNL A   1      39.778  24.529  26.462  1.00  0.00     0.016 A 
ATOM     27  C   UNL A   1      41.119  23.527  28.184  1.00  0.00     0.016 A 
ATOM     28  C   UNL A   1      40.189  25.785  26.923  1.00  0.00     0.010 A 
ATOM     29  C   UNL A   1      41.350  24.761  28.766  1.00  0.00     0.010 A 
ATOM     30  C   UNL A   1      40.946  25.919  28.108  1.00  0.00    -0.014 A 
BRANCH  30  31
ATOM     31  C   UNL A   1      41.349  27.248  28.645  1.00  0.00     0.031 A 
ATOM     32  C   UNL A   1      42.811  27.635  28.741  1.00  0.00     0.074 A 
ATOM     33  C   UNL A   1      40.398  28.105  29.066  1.00  0.00     0.049 A 
ATOM     34  N   UNL A   1      43.332  28.774  29.125  1.00  0.00    -0.248 NA
ATOM     35  C   UNL A   1      43.823  26.616  28.402  1.00  0.00     0.031 C 
ATOM     36  C   UNL A   1      38.963  27.814  29.114  1.00  0.00     0.029 A 
ATOM     37  N   UNL A   1      40.484  29.404  29.504  1.00  0.00    -0.354 N 
ATOM     38  C   UNL A   1      44.711  28.596  29.080  1.00  0.00     0.074 A 
ATOM     39  C   UNL A   1      44.954  27.221  28.729  1.00  0.00     0.031 C 
ATOM     40  C   UNL A   1      38.299  28.927  29.454  1.00  0.00     0.029 A 
ATOM     41  C   UNL A   1      39.260  29.993  29.719  1.00  0.00     0.049 A 
ATOM     42  H   UNL A   1      41.339  29.869  29.649  1.00  0.00     0.167 HD
ATOM     43  C   UNL A   1      45.691  29.510  29.260  1.00  0.00     0.031 A 
ATOM     44  C   UNL A   1      38.939  31.253  30.073  1.00  0.00     0.031 A 
ATOM     45  C   UNL A   1      45.441  30.891  29.564  1.00  0.00     0.049 A 
ATOM     46  C   UNL A   1      40.044  32.256  30.258  1.00  0.00     0.074 A 
ATOM     47  C   UNL A   1      46.360  31.916  29.692  1.00  0.00     0.029 A 
ATOM     48  N   UNL A   1      44.187  31.438  29.783  1.00  0.00    -0.354 N 
ATOM     49  N   UNL A   1      41.336  32.093  30.104  1.00  0.00    -0.248 NA
ATOM     50  C   UNL A   1      39.652  33.616  30.649  1.00  0.00     0.031 C 
ATOM     51  C   UNL A   1      45.670  33.066  30.072  1.00  0.00     0.029 A 
ATOM     52  C   UNL A   1      44.313  32.783  30.082  1.00  0.00     0.049 A 
ATOM     53  H   UNL A   1      43.337  30.946  29.734  1.00  0.00     0.167 HD
ATOM     54  C   UNL A   1      41.910  33.333  30.355  1.00  0.00     0.074 A 
ATOM     55  C   UNL A   1      40.821  34.245  30.645  1.00  0.00     0.031 C 
ATOM     56  C   UNL A   1      43.219  33.681  30.354  1.00  0.00     0.031 A 
BRANCH  43  57
ATOM     57  C   UNL A   1      47.126  29.078  29.087  1.00  0.00    -0.014 A 
ATOM     58  C   UNL A   1      47.882  28.694  30.208  1.00  0.00     0.009 A 
ATOM     59  C   UNL A   1      47.769  29.178  27.843  1.00  0.00     0.009 A 
ATOM     60  C   UNL A   1      49.252  28.454  30.092  1.00  0.00     0.001 A 
ATOM     61  C   UNL A   1      49.133  28.898  27.722  1.00  0.00     0.001 A 
ATOM     62  C   UNL A   1      49.876  28.555  28.850  1.00  0.00     0.000 A 
ENDBRANCH  43  57
BRANCH  44  63
ATOM     63  C   UNL A   1      37.504  31.632  30.208  1.00  0.00    -0.014 A 
ATOM     64  C   UNL A   1      36.792  32.148  29.110  1.00  0.00     0.009 A 
ATOM     65  C   UNL A   1      36.855  31.553  31.449  1.00  0.00     0.009 A 
ATOM     66  C   UNL A   1      35.483  32.610  29.261  1.00  0.00     0.001 A 
ATOM     67  C   UNL A   1      35.530  31.977  31.588  1.00  0.00     0.001 A 
ATOM     68  C   UNL A   1      34.852  32.520  30.498  1.00  0.00     0.000 A 
ENDBRANCH  44  63
BRANCH  56  69
ATOM     69  C   UNL A   1      43.579  35.111  30.655  1.00  0.00    -0.014 A 
ATOM     70  C   UNL A   1      43.712  35.526  31.991  1.00  0.00     0.009 A 
ATOM     71  C   UNL A   1      43.636  36.074  29.638  1.00  0.00     0.009 A 
ATOM     72  C   UNL A   1      43.857  36.877  32.305  1.00  0.00     0.001 A 
ATOM     73  C   UNL A   1      43.826  37.421  29.952  1.00  0.00     0.001 A 
ATOM     74  C   UNL A   1      43.918  37.824  31.284  1.00  0.00     0.000 A 
ENDBRANCH  56  69
ENDBRANCH  30  31
ENDBRANCH  23  25
ENDBRANCH  22  23
ENDBRANCH   1  22
TORSDOF 13
ENDMDL
MODEL 3
REMARK VINA RESULT:     -11.0      5.296      8.815
REMARK SMILES N#Cc1ccc2c(c1)C=C(C(=O)OCCOC(=O)c1ccc(-c3c4nc(c(-c5ccccc5)c5ccc([nH]5)c(-c5ccccc5)c5nc(c(-c6ccccc6)c6ccc3[nH]6)C=C5)C=C4)cc1)[C@@H](C(F)(F)F)O2
REMARK SMILES IDX 15 1 14 2 13 3 11 4 12 5 10 6 3 7 4 8 8 9 5 10 7 11 6 12
REMARK SMILES IDX 9 13 72 14 67 15 2 16 1 17 68 18 69 19 70 20 71 21 16 22
REMARK SMILES IDX 17 23 18 24 19 25 20 26 66 27 21 28 65 29 22 30 23 31 24 32
REMARK SMILES IDX 59 33 25 34 64 35 58 36 60 37 26 38 63 39 57 40 56 41 27 43
REMARK SMILES IDX 49 44 34 45 48 46 35 47 38 48 47 49 61 50 36 51 37 52 46 54
REMARK SMILES IDX 62 55 39 56 28 57 29 58 33 59 30 60 32 61 31 62 50 63 51 64
REMARK SMILES IDX 55 65 52 66 54 67 53 68 40 69 41 70 45 71 42 72 44 73 43 74
REMARK H PARENT 60 42 38 53
REMARK Flexibility Score: inf
ROOT
ATOM      1  C   UNL A   1      33.646  33.751  28.282  1.00  0.00     0.275 C 
ENDROOT
BRANCH   1   2
ATOM      2  C   UNL A   1      34.249  34.825  29.192  1.00  0.00     0.275 C 
BRANCH   2   3
ATOM      3  O   UNL A   1      34.022  34.529  30.590  1.00  0.00    -0.459 OA
BRANCH   3   4
ATOM      4  C   UNL A   1      34.740  33.501  31.098  1.00  0.00     0.338 C 
ATOM      5  O   UNL A   1      34.390  32.333  31.157  1.00  0.00    -0.246 OA
BRANCH   4   6
ATOM      6  C   UNL A   1      36.064  33.960  31.570  1.00  0.00     0.087 C 
ATOM      7  C   UNL A   1      40.843  34.024  30.931  1.00  0.00     0.053 A 
ATOM      8  C   UNL A   1      41.008  34.488  32.240  1.00  0.00     0.023 A 
ATOM      9  C   UNL A   1      39.555  33.830  30.434  1.00  0.00     0.031 A 
ATOM     10  C   UNL A   1      39.890  34.760  33.041  1.00  0.00     0.048 A 
ATOM     11  C   UNL A   1      38.443  34.079  31.251  1.00  0.00     0.019 A 
ATOM     12  C   UNL A   1      38.603  34.549  32.549  1.00  0.00     0.128 A 
ATOM     13  C   UNL A   1      37.115  33.797  30.759  1.00  0.00     0.027 C 
ATOM     14  O   UNL A   1      37.556  34.828  33.383  1.00  0.00    -0.475 OA
ATOM     15  C   UNL A   1      36.207  34.426  32.990  1.00  0.00     0.316 C 
BRANCH   7  16
ATOM     16  C   UNL A   1      41.976  33.727  30.107  1.00  0.00     0.099 C 
ATOM     17  N   UNL A   1      42.902  33.501  29.442  1.00  0.00    -0.192 NA
ENDBRANCH   7  16
BRANCH  15  18
ATOM     18  C   UNL A   1      35.707  33.348  33.966  1.00  0.00     0.430 C 
ATOM     19  F   UNL A   1      36.155  32.119  33.619  1.00  0.00    -0.167 F 
ATOM     20  F   UNL A   1      36.142  33.575  35.229  1.00  0.00    -0.167 F 
ATOM     21  F   UNL A   1      34.356  33.292  34.009  1.00  0.00    -0.167 F 
ENDBRANCH  15  18
ENDBRANCH   4   6
ENDBRANCH   3   4
ENDBRANCH   2   3
ENDBRANCH   1   2
BRANCH   1  22
ATOM     22  O   UNL A   1      34.669  32.918  27.709  1.00  0.00    -0.458 OA
BRANCH  22  23
ATOM     23  C   UNL A   1      34.481  31.594  27.883  1.00  0.00     0.338 C 
ATOM     24  O   UNL A   1      33.468  30.949  27.674  1.00  0.00    -0.246 OA
BRANCH  23  25
ATOM     25  C   UNL A   1      35.755  30.957  28.229  1.00  0.00     0.060 A 
ATOM     26  C   UNL A   1      36.977  31.572  28.011  1.00  0.00     0.016 A 
ATOM     27  C   UNL A   1      35.693  29.778  28.958  1.00  0.00     0.016 A 
ATOM     28  C   UNL A   1      38.131  30.970  28.526  1.00  0.00     0.010 A 
ATOM     29  C   UNL A   1      36.799  29.305  29.642  1.00  0.00     0.010 A 
ATOM     30  C   UNL A   1      38.054  29.852  29.385  1.00  0.00    -0.014 A 
BRANCH  30  31
ATOM     31  C   UNL A   1      39.265  29.228  29.985  1.00  0.00     0.031 A 
ATOM     32  C   UNL A   1      39.954  28.063  29.307  1.00  0.00     0.074 A 
ATOM     33  C   UNL A   1      39.736  29.698  31.157  1.00  0.00     0.049 A 
ATOM     34  N   UNL A   1      41.054  27.444  29.661  1.00  0.00    -0.248 NA
ATOM     35  C   UNL A   1      39.325  27.489  28.102  1.00  0.00     0.031 C 
ATOM     36  C   UNL A   1      39.107  30.752  31.957  1.00  0.00     0.029 A 
ATOM     37  N   UNL A   1      40.867  29.380  31.868  1.00  0.00    -0.354 N 
ATOM     38  C   UNL A   1      41.229  26.420  28.737  1.00  0.00     0.074 A 
ATOM     39  C   UNL A   1      40.083  26.430  27.864  1.00  0.00     0.031 C 
ATOM     40  C   UNL A   1      39.907  31.063  32.984  1.00  0.00     0.029 A 
ATOM     41  C   UNL A   1      41.073  30.186  32.963  1.00  0.00     0.049 A 
ATOM     42  H   UNL A   1      41.473  28.646  31.616  1.00  0.00     0.167 HD
ATOM     43  C   UNL A   1      42.277  25.578  28.590  1.00  0.00     0.031 A 
ATOM     44  C   UNL A   1      42.091  30.230  33.846  1.00  0.00     0.031 A 
ATOM     45  C   UNL A   1      43.438  25.604  29.435  1.00  0.00     0.049 A 
ATOM     46  C   UNL A   1      43.251  29.292  33.657  1.00  0.00     0.074 A 
ATOM     47  C   UNL A   1      44.590  24.846  29.326  1.00  0.00     0.029 A 
ATOM     48  N   UNL A   1      43.597  26.428  30.537  1.00  0.00    -0.354 N 
ATOM     49  N   UNL A   1      43.447  28.405  32.712  1.00  0.00    -0.248 NA
ATOM     50  C   UNL A   1      44.337  29.369  34.644  1.00  0.00     0.031 C 
ATOM     51  C   UNL A   1      45.409  25.151  30.411  1.00  0.00     0.029 A 
ATOM     52  C   UNL A   1      44.815  26.170  31.139  1.00  0.00     0.049 A 
ATOM     53  H   UNL A   1      42.942  27.096  30.845  1.00  0.00     0.167 HD
ATOM     54  C   UNL A   1      44.687  27.835  32.974  1.00  0.00     0.074 A 
ATOM     55  C   UNL A   1      45.209  28.497  34.152  1.00  0.00     0.031 C 
ATOM     56  C   UNL A   1      45.328  26.848  32.303  1.00  0.00     0.031 A 
BRANCH  43  57
ATOM     57  C   UNL A   1      42.260  24.588  27.452  1.00  0.00    -0.014 A 
ATOM     58  C   UNL A   1      41.688  23.318  27.637  1.00  0.00     0.009 A 
ATOM     59  C   UNL A   1      42.923  24.859  26.245  1.00  0.00     0.009 A 
ATOM     60  C   UNL A   1      41.811  22.334  26.655  1.00  0.00     0.001 A 
ATOM     61  C   UNL A   1      43.010  23.885  25.247  1.00  0.00     0.001 A 
ATOM     62  C   UNL A   1      42.470  22.618  25.461  1.00  0.00     0.000 A 
ENDBRANCH  43  57
BRANCH  44  63
ATOM     63  C   UNL A   1      42.069  31.243  34.938  1.00  0.00    -0.014 A 
ATOM     64  C   UNL A   1      42.651  32.510  34.753  1.00  0.00     0.009 A 
ATOM     65  C   UNL A   1      41.533  30.929  36.196  1.00  0.00     0.009 A 
ATOM     66  C   UNL A   1      42.734  33.419  35.810  1.00  0.00     0.001 A 
ATOM     67  C   UNL A   1      41.579  31.858  37.241  1.00  0.00     0.001 A 
ATOM     68  C   UNL A   1      42.194  33.094  37.051  1.00  0.00     0.000 A 
ENDBRANCH  44  63
BRANCH  56  69
ATOM     69  C   UNL A   1      46.681  26.412  32.796  1.00  0.00    -0.014 A 
ATOM     70  C   UNL A   1      47.839  26.994  32.252  1.00  0.00     0.009 A 
ATOM     71  C   UNL A   1      46.817  25.329  33.677  1.00  0.00     0.009 A 
ATOM     72  C   UNL A   1      49.100  26.480  32.549  1.00  0.00     0.001 A 
ATOM     73  C   UNL A   1      48.085  24.845  34.008  1.00  0.00     0.001 A 
ATOM     74  C   UNL A   1      49.223  25.408  33.430  1.00  0.00     0.000 A 
ENDBRANCH  56  69
ENDBRANCH  30  31
ENDBRANCH  23  25
ENDBRANCH  22  23
ENDBRANCH   1  22
TORSDOF 13
ENDMDL
