MODEL 1
REMARK VINA RESULT:      -9.2      0.000      0.000
REMARK SMILES CC(=O)NCCc1ccc(OCC(=O)OCCOC(=O)c2ccc(-c3c4nc(c(-c5ccccc5)c5ccc([nH]5)c(-c5ccccc5)c5nc(c(-c6ccccc6)c6ccc3[nH]6)C=C5)C=C4)cc2)cc1
REMARK SMILES IDX 15 1 13 2 14 3 12 4 11 5 10 6 7 7 8 8 70 9 9 10 69 11 6 12
REMARK SMILES IDX 5 13 4 14 1 15 2 16 3 17 16 19 17 20 18 21 19 22 20 23 21 24
REMARK SMILES IDX 22 25 68 26 23 27 67 28 24 29 25 30 26 31 61 32 27 33 66 34
REMARK SMILES IDX 60 35 62 36 28 37 65 38 59 39 58 40 29 42 51 43 36 44 50 45
REMARK SMILES IDX 37 46 40 47 49 48 63 49 38 50 39 51 48 53 64 54 41 55 30 56
REMARK SMILES IDX 31 57 35 58 32 59 34 60 33 61 52 62 53 63 57 64 54 65 56 66
REMARK SMILES IDX 55 67 42 68 43 69 47 70 44 71 46 72 45 73
REMARK H PARENT 4 18 62 41 40 52
REMARK Flexibility Score: inf
ROOT
ATOM      1  O   UNL A   1      32.805  35.951  32.352  1.00  0.00    -0.460 OA
ENDROOT
BRANCH   1   2
ATOM      2  C   UNL A   1      33.875  36.430  33.041  1.00  0.00     0.344 C 
ATOM      3  O   UNL A   1      33.942  37.545  33.550  1.00  0.00    -0.248 OA
BRANCH   2   4
ATOM      4  C   UNL A   1      35.042  35.445  33.093  1.00  0.00     0.351 C 
BRANCH   4   5
ATOM      5  O   UNL A   1      35.491  34.984  34.354  1.00  0.00    -0.482 OA
BRANCH   5   6
ATOM      6  C   UNL A   1      36.526  34.097  34.409  1.00  0.00     0.120 A 
ATOM      7  C   UNL A   1      38.454  32.037  34.401  1.00  0.00    -0.046 A 
ATOM      8  C   UNL A   1      37.312  31.948  33.597  1.00  0.00     0.007 A 
ATOM      9  C   UNL A   1      38.648  33.196  35.161  1.00  0.00     0.007 A 
ATOM     10  C   UNL A   1      36.356  32.966  33.611  1.00  0.00     0.047 A 
ATOM     11  C   UNL A   1      37.697  34.226  35.149  1.00  0.00     0.047 A 
BRANCH   7  12
ATOM     12  C   UNL A   1      39.424  30.881  34.487  1.00  0.00     0.057 C 
BRANCH  12  13
ATOM     13  C   UNL A   1      39.667  30.218  33.123  1.00  0.00     0.120 C 
BRANCH  13  14
ATOM     14  N   UNL A   1      39.357  28.795  33.134  1.00  0.00    -0.356 N 
ATOM     15  C   UNL A   1      37.311  28.945  31.779  1.00  0.00     0.114 C 
ATOM     16  C   UNL A   1      38.281  28.150  32.604  1.00  0.00     0.216 C 
ATOM     17  O   UNL A   1      38.135  26.944  32.799  1.00  0.00    -0.275 OA
ATOM     18  H   UNL A   1      40.017  28.220  33.585  1.00  0.00     0.163 HD
ENDBRANCH  13  14
ENDBRANCH  12  13
ENDBRANCH   7  12
ENDBRANCH   5   6
ENDBRANCH   4   5
ENDBRANCH   2   4
ENDBRANCH   1   2
BRANCH   1  19
ATOM     19  C   UNL A   1      32.690  36.387  30.982  1.00  0.00     0.274 C 
BRANCH  19  20
ATOM     20  C   UNL A   1      33.505  35.482  30.063  1.00  0.00     0.275 C 
BRANCH  20  21
ATOM     21  O   UNL A   1      32.779  35.272  28.840  1.00  0.00    -0.458 OA
BRANCH  21  22
ATOM     22  C   UNL A   1      32.953  34.071  28.251  1.00  0.00     0.338 C 
ATOM     23  O   UNL A   1      32.154  33.476  27.537  1.00  0.00    -0.246 OA
BRANCH  22  24
ATOM     24  C   UNL A   1      34.278  33.517  28.605  1.00  0.00     0.060 A 
ATOM     25  C   UNL A   1      34.429  32.544  29.598  1.00  0.00     0.016 A 
ATOM     26  C   UNL A   1      35.407  34.040  27.971  1.00  0.00     0.016 A 
ATOM     27  C   UNL A   1      35.705  32.147  30.004  1.00  0.00     0.010 A 
ATOM     28  C   UNL A   1      36.678  33.579  28.318  1.00  0.00     0.010 A 
ATOM     29  C   UNL A   1      36.843  32.643  29.353  1.00  0.00    -0.014 A 
BRANCH  29  30
ATOM     30  C   UNL A   1      38.209  32.184  29.721  1.00  0.00     0.031 A 
ATOM     31  C   UNL A   1      38.720  30.848  29.253  1.00  0.00     0.074 A 
ATOM     32  C   UNL A   1      38.978  32.944  30.527  1.00  0.00     0.049 A 
ATOM     33  N   UNL A   1      39.791  30.195  29.628  1.00  0.00    -0.248 NA
ATOM     34  C   UNL A   1      37.914  30.150  28.238  1.00  0.00     0.031 C 
ATOM     35  C   UNL A   1      38.625  34.268  31.040  1.00  0.00     0.029 A 
ATOM     36  N   UNL A   1      40.216  32.697  31.068  1.00  0.00    -0.354 N 
ATOM     37  C   UNL A   1      39.764  28.992  28.933  1.00  0.00     0.074 A 
ATOM     38  C   UNL A   1      38.570  29.004  28.115  1.00  0.00     0.031 C 
ATOM     39  C   UNL A   1      39.628  34.724  31.806  1.00  0.00     0.029 A 
ATOM     40  C   UNL A   1      40.658  33.697  31.898  1.00  0.00     0.049 A 
ATOM     41  H   UNL A   1      40.734  31.881  30.880  1.00  0.00     0.167 HD
ATOM     42  C   UNL A   1      40.653  27.970  28.975  1.00  0.00     0.031 A 
ATOM     43  C   UNL A   1      41.748  33.768  32.684  1.00  0.00     0.031 A 
ATOM     44  C   UNL A   1      41.855  27.964  29.765  1.00  0.00     0.049 A 
ATOM     45  C   UNL A   1      42.696  32.607  32.745  1.00  0.00     0.074 A 
ATOM     46  C   UNL A   1      42.829  26.983  29.848  1.00  0.00     0.029 A 
ATOM     47  N   UNL A   1      42.253  28.992  30.605  1.00  0.00    -0.354 N 
ATOM     48  N   UNL A   1      42.642  31.466  32.102  1.00  0.00    -0.248 NA
ATOM     49  C   UNL A   1      43.845  32.740  33.649  1.00  0.00     0.031 C 
ATOM     50  C   UNL A   1      43.798  27.402  30.767  1.00  0.00     0.029 A 
ATOM     51  C   UNL A   1      43.447  28.661  31.223  1.00  0.00     0.049 A 
ATOM     52  H   UNL A   1      41.759  29.833  30.742  1.00  0.00     0.167 HD
ATOM     53  C   UNL A   1      43.756  30.750  32.517  1.00  0.00     0.074 A 
ATOM     54  C   UNL A   1      44.475  31.591  33.452  1.00  0.00     0.031 C 
ATOM     55  C   UNL A   1      44.147  29.503  32.156  1.00  0.00     0.031 A 
BRANCH  42  56
ATOM     56  C   UNL A   1      40.342  26.747  28.159  1.00  0.00    -0.014 A 
ATOM     57  C   UNL A   1      39.495  25.740  28.646  1.00  0.00     0.009 A 
ATOM     58  C   UNL A   1      40.864  26.629  26.861  1.00  0.00     0.009 A 
ATOM     59  C   UNL A   1      39.197  24.627  27.856  1.00  0.00     0.001 A 
ATOM     60  C   UNL A   1      40.546  25.527  26.066  1.00  0.00     0.001 A 
ATOM     61  C   UNL A   1      39.719  24.524  26.567  1.00  0.00     0.000 A 
ENDBRANCH  42  56
BRANCH  43  62
ATOM     62  C   UNL A   1      41.979  34.978  33.512  1.00  0.00    -0.014 A 
ATOM     63  C   UNL A   1      42.809  36.009  33.049  1.00  0.00     0.009 A 
ATOM     64  C   UNL A   1      41.356  35.113  34.764  1.00  0.00     0.009 A 
ATOM     65  C   UNL A   1      43.021  37.147  33.829  1.00  0.00     0.001 A 
ATOM     66  C   UNL A   1      41.550  36.264  35.530  1.00  0.00     0.001 A 
ATOM     67  C   UNL A   1      42.387  37.277  35.065  1.00  0.00     0.000 A 
ENDBRANCH  43  62
BRANCH  55  68
ATOM     68  C   UNL A   1      45.420  28.990  32.760  1.00  0.00    -0.014 A 
ATOM     69  C   UNL A   1      45.401  28.175  33.903  1.00  0.00     0.009 A 
ATOM     70  C   UNL A   1      46.650  29.312  32.169  1.00  0.00     0.009 A 
ATOM     71  C   UNL A   1      46.597  27.717  34.460  1.00  0.00     0.001 A 
ATOM     72  C   UNL A   1      47.842  28.835  32.717  1.00  0.00     0.001 A 
ATOM     73  C   UNL A   1      47.816  28.046  33.866  1.00  0.00     0.000 A 
ENDBRANCH  55  68
ENDBRANCH  29  30
ENDBRANCH  22  24
ENDBRANCH  21  22
ENDBRANCH  20  21
ENDBRANCH  19  20
ENDBRANCH   1  19
TORSDOF 16
ENDMDL
MODEL 2
REMARK VINA RESULT:      -8.6      3.604      8.506
REMARK SMILES CC(=O)NCCc1ccc(OCC(=O)OCCOC(=O)c2ccc(-c3c4nc(c(-c5ccccc5)c5ccc([nH]5)c(-c5ccccc5)c5nc(c(-c6ccccc6)c6ccc3[nH]6)C=C5)C=C4)cc2)cc1
REMARK SMILES IDX 15 1 13 2 14 3 12 4 11 5 10 6 7 7 8 8 70 9 9 10 69 11 6 12
REMARK SMILES IDX 5 13 4 14 1 15 2 16 3 17 16 19 17 20 18 21 19 22 20 23 21 24
REMARK SMILES IDX 22 25 68 26 23 27 67 28 24 29 25 30 26 31 61 32 27 33 66 34
REMARK SMILES IDX 60 35 62 36 28 37 65 38 59 39 58 40 29 42 51 43 36 44 50 45
REMARK SMILES IDX 37 46 40 47 49 48 63 49 38 50 39 51 48 53 64 54 41 55 30 56
REMARK SMILES IDX 31 57 35 58 32 59 34 60 33 61 52 62 53 63 57 64 54 65 56 66
REMARK SMILES IDX 55 67 42 68 43 69 47 70 44 71 46 72 45 73
REMARK H PARENT 4 18 62 41 40 52
REMARK Flexibility Score: inf
ROOT
ATOM      1  O   UNL A   1      33.516  34.094  29.250  1.00  0.00    -0.460 OA
ENDROOT
BRANCH   1   2
ATOM      2  C   UNL A   1      34.757  33.578  29.039  1.00  0.00     0.344 C 
ATOM      3  O   UNL A   1      35.770  33.911  29.647  1.00  0.00    -0.248 OA
BRANCH   2   4
ATOM      4  C   UNL A   1      34.791  32.545  27.914  1.00  0.00     0.351 C 
BRANCH   4   5
ATOM      5  O   UNL A   1      34.437  31.205  28.207  1.00  0.00    -0.482 OA
BRANCH   5   6
ATOM      6  C   UNL A   1      33.717  30.492  27.293  1.00  0.00     0.120 A 
ATOM      7  C   UNL A   1      31.961  29.184  25.515  1.00  0.00    -0.046 A 
ATOM      8  C   UNL A   1      31.611  30.412  26.087  1.00  0.00     0.007 A 
ATOM      9  C   UNL A   1      33.224  28.651  25.794  1.00  0.00     0.007 A 
ATOM     10  C   UNL A   1      32.480  31.051  26.974  1.00  0.00     0.047 A 
ATOM     11  C   UNL A   1      34.102  29.312  26.665  1.00  0.00     0.047 A 
BRANCH   7  12
ATOM     12  C   UNL A   1      30.971  28.427  24.658  1.00  0.00     0.057 C 
BRANCH  12  13
ATOM     13  C   UNL A   1      30.722  29.113  23.307  1.00  0.00     0.120 C 
BRANCH  13  14
ATOM     14  N   UNL A   1      29.308  29.165  22.963  1.00  0.00    -0.356 N 
ATOM     15  C   UNL A   1      28.910  31.456  23.763  1.00  0.00     0.114 C 
ATOM     16  C   UNL A   1      28.407  30.161  23.192  1.00  0.00     0.216 C 
ATOM     17  O   UNL A   1      27.221  29.987  22.919  1.00  0.00    -0.275 OA
ATOM     18  H   UNL A   1      28.954  28.372  22.500  1.00  0.00     0.163 HD
ENDBRANCH  13  14
ENDBRANCH  12  13
ENDBRANCH   7  12
ENDBRANCH   5   6
ENDBRANCH   4   5
ENDBRANCH   2   4
ENDBRANCH   1   2
BRANCH   1  19
ATOM     19  C   UNL A   1      33.315  35.454  28.811  1.00  0.00     0.274 C 
BRANCH  19  20
ATOM     20  C   UNL A   1      32.937  36.345  29.990  1.00  0.00     0.275 C 
BRANCH  20  21
ATOM     21  O   UNL A   1      32.349  35.539  31.024  1.00  0.00    -0.458 OA
BRANCH  21  22
ATOM     22  C   UNL A   1      32.693  35.860  32.289  1.00  0.00     0.338 C 
ATOM     23  O   UNL A   1      32.139  36.671  33.021  1.00  0.00    -0.246 OA
BRANCH  22  24
ATOM     24  C   UNL A   1      33.891  35.098  32.700  1.00  0.00     0.060 A 
ATOM     25  C   UNL A   1      35.168  35.667  32.687  1.00  0.00     0.016 A 
ATOM     26  C   UNL A   1      33.737  33.752  33.040  1.00  0.00     0.016 A 
ATOM     27  C   UNL A   1      36.292  34.879  32.945  1.00  0.00     0.010 A 
ATOM     28  C   UNL A   1      34.854  32.987  33.382  1.00  0.00     0.010 A 
ATOM     29  C   UNL A   1      36.146  33.535  33.318  1.00  0.00    -0.014 A 
BRANCH  29  30
ATOM     30  C   UNL A   1      37.322  32.694  33.664  1.00  0.00     0.031 A 
ATOM     31  C   UNL A   1      38.065  32.911  34.955  1.00  0.00     0.074 A 
ATOM     32  C   UNL A   1      37.764  31.766  32.792  1.00  0.00     0.049 A 
ATOM     33  N   UNL A   1      39.217  32.419  35.339  1.00  0.00    -0.248 NA
ATOM     34  C   UNL A   1      37.435  33.807  35.939  1.00  0.00     0.031 C 
ATOM     35  C   UNL A   1      37.134  31.431  31.514  1.00  0.00     0.029 A 
ATOM     36  N   UNL A   1      38.863  30.944  32.847  1.00  0.00    -0.354 N 
ATOM     37  C   UNL A   1      39.472  32.981  36.585  1.00  0.00     0.074 A 
ATOM     38  C   UNL A   1      38.358  33.851  36.892  1.00  0.00     0.031 C 
ATOM     39  C   UNL A   1      37.845  30.463  30.915  1.00  0.00     0.029 A 
ATOM     40  C   UNL A   1      39.017  30.164  31.728  1.00  0.00     0.049 A 
ATOM     41  H   UNL A   1      39.480  30.918  33.614  1.00  0.00     0.167 HD
ATOM     42  C   UNL A   1      40.539  32.789  37.396  1.00  0.00     0.031 A 
ATOM     43  C   UNL A   1      40.012  29.332  31.368  1.00  0.00     0.031 A 
ATOM     44  C   UNL A   1      41.637  31.905  37.108  1.00  0.00     0.049 A 
ATOM     45  C   UNL A   1      41.203  29.168  32.265  1.00  0.00     0.074 A 
ATOM     46  C   UNL A   1      42.749  31.627  37.886  1.00  0.00     0.029 A 
ATOM     47  N   UNL A   1      41.760  31.149  35.954  1.00  0.00    -0.354 N 
ATOM     48  N   UNL A   1      41.442  29.726  33.427  1.00  0.00    -0.248 NA
ATOM     49  C   UNL A   1      42.266  28.270  31.793  1.00  0.00     0.031 C 
ATOM     50  C   UNL A   1      43.563  30.730  37.185  1.00  0.00     0.029 A 
ATOM     51  C   UNL A   1      42.936  30.419  35.991  1.00  0.00     0.049 A 
ATOM     52  H   UNL A   1      41.107  31.133  35.217  1.00  0.00     0.167 HD
ATOM     53  C   UNL A   1      42.677  29.238  33.829  1.00  0.00     0.074 A 
ATOM     54  C   UNL A   1      43.129  28.328  32.797  1.00  0.00     0.031 C 
ATOM     55  C   UNL A   1      43.377  29.524  34.954  1.00  0.00     0.031 A 
BRANCH  42  56
ATOM     56  C   UNL A   1      40.591  33.580  38.673  1.00  0.00    -0.014 A 
ATOM     57  C   UNL A   1      40.040  33.083  39.863  1.00  0.00     0.009 A 
ATOM     58  C   UNL A   1      41.251  34.820  38.693  1.00  0.00     0.009 A 
ATOM     59  C   UNL A   1      40.129  33.823  41.045  1.00  0.00     0.001 A 
ATOM     60  C   UNL A   1      41.358  35.547  39.880  1.00  0.00     0.001 A 
ATOM     61  C   UNL A   1      40.790  35.051  41.053  1.00  0.00     0.000 A 
ENDBRANCH  42  56
BRANCH  43  62
ATOM     62  C   UNL A   1      39.938  28.616  30.070  1.00  0.00    -0.014 A 
ATOM     63  C   UNL A   1      39.407  27.320  30.002  1.00  0.00     0.009 A 
ATOM     64  C   UNL A   1      40.382  29.235  28.890  1.00  0.00     0.009 A 
ATOM     65  C   UNL A   1      39.336  26.651  28.779  1.00  0.00     0.001 A 
ATOM     66  C   UNL A   1      40.285  28.573  27.665  1.00  0.00     0.001 A 
ATOM     67  C   UNL A   1      39.768  27.280  27.611  1.00  0.00     0.000 A 
ENDBRANCH  43  62
BRANCH  55  68
ATOM     68  C   UNL A   1      44.691  28.823  35.132  1.00  0.00    -0.014 A 
ATOM     69  C   UNL A   1      45.886  29.400  34.674  1.00  0.00     0.009 A 
ATOM     70  C   UNL A   1      44.735  27.580  35.779  1.00  0.00     0.009 A 
ATOM     71  C   UNL A   1      47.099  28.727  34.835  1.00  0.00     0.001 A 
ATOM     72  C   UNL A   1      45.952  26.920  35.957  1.00  0.00     0.001 A 
ATOM     73  C   UNL A   1      47.131  27.490  35.478  1.00  0.00     0.000 A 
ENDBRANCH  55  68
ENDBRANCH  29  30
ENDBRANCH  22  24
ENDBRANCH  21  22
ENDBRANCH  20  21
ENDBRANCH  19  20
ENDBRANCH   1  19
TORSDOF 16
ENDMDL
MODEL 3
REMARK VINA RESULT:      -8.5      6.159     12.115
REMARK SMILES CC(=O)NCCc1ccc(OCC(=O)OCCOC(=O)c2ccc(-c3c4nc(c(-c5ccccc5)c5ccc([nH]5)c(-c5ccccc5)c5nc(c(-c6ccccc6)c6ccc3[nH]6)C=C5)C=C4)cc2)cc1
REMARK SMILES IDX 15 1 13 2 14 3 12 4 11 5 10 6 7 7 8 8 70 9 9 10 69 11 6 12
REMARK SMILES IDX 5 13 4 14 1 15 2 16 3 17 16 19 17 20 18 21 19 22 20 23 21 24
REMARK SMILES IDX 22 25 68 26 23 27 67 28 24 29 25 30 26 31 61 32 27 33 66 34
REMARK SMILES IDX 60 35 62 36 28 37 65 38 59 39 58 40 29 42 51 43 36 44 50 45
REMARK SMILES IDX 37 46 40 47 49 48 63 49 38 50 39 51 48 53 64 54 41 55 30 56
REMARK SMILES IDX 31 57 35 58 32 59 34 60 33 61 52 62 53 63 57 64 54 65 56 66
REMARK SMILES IDX 55 67 42 68 43 69 47 70 44 71 46 72 45 73
REMARK H PARENT 4 18 62 41 40 52
REMARK Flexibility Score: inf
ROOT
ATOM      1  O   UNL A   1      41.876  20.417  25.871  1.00  0.00    -0.460 OA
ENDROOT
BRANCH   1   2
ATOM      2  C   UNL A   1      41.628  21.474  26.690  1.00  0.00     0.344 C 
ATOM      3  O   UNL A   1      42.479  22.070  27.345  1.00  0.00    -0.248 OA
BRANCH   2   4
ATOM      4  C   UNL A   1      40.147  21.839  26.762  1.00  0.00     0.351 C 
BRANCH   4   5
ATOM      5  O   UNL A   1      39.245  21.212  25.869  1.00  0.00    -0.482 OA
BRANCH   5   6
ATOM      6  C   UNL A   1      38.160  21.908  25.420  1.00  0.00     0.120 A 
ATOM      7  C   UNL A   1      35.922  23.504  24.788  1.00  0.00    -0.046 A 
ATOM      8  C   UNL A   1      36.813  23.893  25.794  1.00  0.00     0.007 A 
ATOM      9  C   UNL A   1      36.199  22.341  24.062  1.00  0.00     0.007 A 
ATOM     10  C   UNL A   1      37.915  23.096  26.109  1.00  0.00     0.047 A 
ATOM     11  C   UNL A   1      37.322  21.558  24.367  1.00  0.00     0.047 A 
BRANCH   7  12
ATOM     12  C   UNL A   1      34.660  24.297  24.532  1.00  0.00     0.057 C 
BRANCH  12  13
ATOM     13  C   UNL A   1      33.400  23.418  24.559  1.00  0.00     0.120 C 
BRANCH  13  14
ATOM     14  N   UNL A   1      32.381  23.935  25.460  1.00  0.00    -0.356 N 
ATOM     15  C   UNL A   1      33.052  22.619  27.426  1.00  0.00     0.114 C 
ATOM     16  C   UNL A   1      32.118  23.580  26.749  1.00  0.00     0.216 C 
ATOM     17  O   UNL A   1      31.143  24.057  27.327  1.00  0.00    -0.275 OA
ATOM     18  H   UNL A   1      31.801  24.638  25.087  1.00  0.00     0.163 HD
ENDBRANCH  13  14
ENDBRANCH  12  13
ENDBRANCH   7  12
ENDBRANCH   5   6
ENDBRANCH   4   5
ENDBRANCH   2   4
ENDBRANCH   1   2
BRANCH   1  19
ATOM     19  C   UNL A   1      42.318  19.206  26.517  1.00  0.00     0.274 C 
BRANCH  19  20
ATOM     20  C   UNL A   1      43.348  18.484  25.653  1.00  0.00     0.275 C 
BRANCH  20  21
ATOM     21  O   UNL A   1      43.545  19.221  24.436  1.00  0.00    -0.458 OA
BRANCH  21  22
ATOM     22  C   UNL A   1      44.815  19.590  24.170  1.00  0.00     0.338 C 
ATOM     23  O   UNL A   1      45.697  18.898  23.676  1.00  0.00    -0.246 OA
BRANCH  22  24
ATOM     24  C   UNL A   1      45.037  20.991  24.586  1.00  0.00     0.060 A 
ATOM     25  C   UNL A   1      45.643  21.311  25.805  1.00  0.00     0.016 A 
ATOM     26  C   UNL A   1      44.558  22.013  23.763  1.00  0.00     0.016 A 
ATOM     27  C   UNL A   1      45.708  22.640  26.230  1.00  0.00     0.010 A 
ATOM     28  C   UNL A   1      44.702  23.346  24.150  1.00  0.00     0.010 A 
ATOM     29  C   UNL A   1      45.259  23.674  25.398  1.00  0.00    -0.014 A 
BRANCH  29  30
ATOM     30  C   UNL A   1      45.381  25.101  25.799  1.00  0.00     0.031 A 
ATOM     31  C   UNL A   1      46.708  25.806  25.727  1.00  0.00     0.074 A 
ATOM     32  C   UNL A   1      44.306  25.755  26.284  1.00  0.00     0.049 A 
ATOM     33  N   UNL A   1      47.052  26.972  26.213  1.00  0.00    -0.248 NA
ATOM     34  C   UNL A   1      47.795  25.102  25.028  1.00  0.00     0.031 C 
ATOM     35  C   UNL A   1      42.953  25.209  26.391  1.00  0.00     0.029 A 
ATOM     36  N   UNL A   1      44.194  27.026  26.793  1.00  0.00    -0.354 N 
ATOM     37  C   UNL A   1      48.403  27.122  25.920  1.00  0.00     0.074 A 
ATOM     38  C   UNL A   1      48.817  25.926  25.218  1.00  0.00     0.031 C 
ATOM     39  C   UNL A   1      42.143  26.142  26.915  1.00  0.00     0.029 A 
ATOM     40  C   UNL A   1      42.932  27.321  27.249  1.00  0.00     0.049 A 
ATOM     41  H   UNL A   1      44.944  27.662  26.829  1.00  0.00     0.167 HD
ATOM     42  C   UNL A   1      49.223  28.159  26.214  1.00  0.00     0.031 A 
ATOM     43  C   UNL A   1      42.465  28.400  27.903  1.00  0.00     0.031 A 
ATOM     44  C   UNL A   1      48.811  29.361  26.889  1.00  0.00     0.049 A 
ATOM     45  C   UNL A   1      43.402  29.518  28.253  1.00  0.00     0.074 A 
ATOM     46  C   UNL A   1      49.568  30.478  27.203  1.00  0.00     0.029 A 
ATOM     47  N   UNL A   1      47.527  29.608  27.348  1.00  0.00    -0.354 N 
ATOM     48  N   UNL A   1      44.681  29.633  27.993  1.00  0.00    -0.248 NA
ATOM     49  C   UNL A   1      42.831  30.649  28.998  1.00  0.00     0.031 C 
ATOM     50  C   UNL A   1      48.750  31.386  27.886  1.00  0.00     0.029 A 
ATOM     51  C   UNL A   1      47.475  30.850  27.959  1.00  0.00     0.049 A 
ATOM     52  H   UNL A   1      46.765  28.992  27.254  1.00  0.00     0.167 HD
ATOM     53  C   UNL A   1      45.066  30.852  28.533  1.00  0.00     0.074 A 
ATOM     54  C   UNL A   1      43.882  31.447  29.119  1.00  0.00     0.031 C 
ATOM     55  C   UNL A   1      46.294  31.426  28.545  1.00  0.00     0.031 A 
BRANCH  42  56
ATOM     56  C   UNL A   1      50.670  28.030  25.831  1.00  0.00    -0.014 A 
ATOM     57  C   UNL A   1      51.136  28.460  24.580  1.00  0.00     0.009 A 
ATOM     58  C   UNL A   1      51.589  27.519  26.762  1.00  0.00     0.009 A 
ATOM     59  C   UNL A   1      52.492  28.358  24.260  1.00  0.00     0.001 A 
ATOM     60  C   UNL A   1      52.946  27.439  26.448  1.00  0.00     0.001 A 
ATOM     61  C   UNL A   1      53.396  27.852  25.194  1.00  0.00     0.000 A 
ENDBRANCH  42  56
BRANCH  43  62
ATOM     62  C   UNL A   1      41.038  28.454  28.307  1.00  0.00    -0.014 A 
ATOM     63  C   UNL A   1      40.082  29.038  27.464  1.00  0.00     0.009 A 
ATOM     64  C   UNL A   1      40.624  27.905  29.532  1.00  0.00     0.009 A 
ATOM     65  C   UNL A   1      38.740  29.083  27.846  1.00  0.00     0.001 A 
ATOM     66  C   UNL A   1      39.277  27.929  29.899  1.00  0.00     0.001 A 
ATOM     67  C   UNL A   1      38.338  28.523  29.058  1.00  0.00     0.000 A 
ENDBRANCH  43  62
BRANCH  55  68
ATOM     68  C   UNL A   1      46.407  32.774  29.192  1.00  0.00    -0.014 A 
ATOM     69  C   UNL A   1      46.187  33.950  28.458  1.00  0.00     0.009 A 
ATOM     70  C   UNL A   1      46.721  32.867  30.556  1.00  0.00     0.009 A 
ATOM     71  C   UNL A   1      46.311  35.197  29.073  1.00  0.00     0.001 A 
ATOM     72  C   UNL A   1      46.823  34.115  31.173  1.00  0.00     0.001 A 
ATOM     73  C   UNL A   1      46.626  35.278  30.430  1.00  0.00     0.000 A 
ENDBRANCH  55  68
ENDBRANCH  29  30
ENDBRANCH  22  24
ENDBRANCH  21  22
ENDBRANCH  20  21
ENDBRANCH  19  20
ENDBRANCH   1  19
TORSDOF 16
ENDMDL
