MODEL 1
REMARK VINA RESULT:      -9.4      0.000      0.000
REMARK SMILES C[C@@H](C(=O)OCCOC(=O)c1ccc(-c2c3nc(c(-c4ccccc4)c4ccc([nH]4)c(-c4ccccc4)c4nc(c(-c5ccccc5)c5ccc2[nH]5)C=C4)C=C3)cc1)c1ccc(-c2ccccc2)c(F)c1
REMARK SMILES IDX 6 1 5 2 3 3 4 4 2 5 1 6 59 7 60 8 71 9 61 10 69 11 62 12
REMARK SMILES IDX 70 13 63 14 64 15 68 16 65 17 67 18 66 19 7 20 8 21 9 22
REMARK SMILES IDX 10 23 11 24 12 25 58 26 13 27 57 28 14 29 15 30 16 31 51 32
REMARK SMILES IDX 17 33 56 34 50 35 52 36 18 37 55 38 49 39 48 40 19 42 41 43
REMARK SMILES IDX 26 44 40 45 27 46 30 47 39 48 53 49 28 50 29 51 38 53 54 54
REMARK SMILES IDX 31 55 20 56 21 57 25 58 22 59 24 60 23 61 42 62 43 63 47 64
REMARK SMILES IDX 44 65 46 66 45 67 32 68 33 69 37 70 34 71 36 72 35 73
REMARK H PARENT 52 41 30 52
REMARK Flexibility Score: inf
ROOT
ATOM      1  C   UNL A   1      33.893  34.471  29.319  1.00  0.00     0.274 C 
ENDROOT
BRANCH   1   2
ATOM      2  O   UNL A   1      33.706  33.935  30.645  1.00  0.00    -0.462 OA
BRANCH   2   3
ATOM      3  C   UNL A   1      34.568  34.357  31.614  1.00  0.00     0.313 C 
ATOM      4  O   UNL A   1      34.567  35.496  32.068  1.00  0.00    -0.252 OA
BRANCH   3   5
ATOM      5  C   UNL A   1      35.590  33.268  32.009  1.00  0.00     0.126 C 
ATOM      6  C   UNL A   1      35.574  32.999  33.522  1.00  0.00     0.025 C 
BRANCH   5   7
ATOM      7  C   UNL A   1      36.996  33.538  31.446  1.00  0.00    -0.031 A 
ATOM      8  C   UNL A   1      37.262  33.314  30.083  1.00  0.00     0.005 A 
ATOM      9  C   UNL A   1      38.056  34.017  32.231  1.00  0.00     0.044 A 
ATOM     10  C   UNL A   1      38.515  33.609  29.518  1.00  0.00     0.012 A 
ATOM     11  C   UNL A   1      39.307  34.289  31.667  1.00  0.00     0.131 A 
ATOM     12  C   UNL A   1      39.563  34.110  30.301  1.00  0.00     0.017 A 
ATOM     13  F   UNL A   1      40.266  34.766  32.476  1.00  0.00    -0.206 F 
BRANCH  12  14
ATOM     14  C   UNL A   1      40.861  34.478  29.711  1.00  0.00    -0.015 A 
ATOM     15  C   UNL A   1      42.031  33.772  30.039  1.00  0.00     0.009 A 
ATOM     16  C   UNL A   1      40.965  35.515  28.769  1.00  0.00     0.009 A 
ATOM     17  C   UNL A   1      43.250  34.064  29.420  1.00  0.00     0.001 A 
ATOM     18  C   UNL A   1      42.188  35.820  28.164  1.00  0.00     0.001 A 
ATOM     19  C   UNL A   1      43.328  35.087  28.482  1.00  0.00     0.000 A 
ENDBRANCH  12  14
ENDBRANCH   5   7
ENDBRANCH   3   5
ENDBRANCH   2   3
ENDBRANCH   1   2
BRANCH   1  20
ATOM     20  C   UNL A   1      33.977  33.352  28.283  1.00  0.00     0.275 C 
BRANCH  20  21
ATOM     21  O   UNL A   1      34.315  32.114  28.933  1.00  0.00    -0.458 OA
BRANCH  21  22
ATOM     22  C   UNL A   1      34.383  31.025  28.137  1.00  0.00     0.338 C 
ATOM     23  O   UNL A   1      33.583  30.658  27.292  1.00  0.00    -0.246 OA
BRANCH  22  24
ATOM     24  C   UNL A   1      35.676  30.368  28.364  1.00  0.00     0.060 A 
ATOM     25  C   UNL A   1      35.895  29.790  29.610  1.00  0.00     0.016 A 
ATOM     26  C   UNL A   1      36.690  30.398  27.407  1.00  0.00     0.016 A 
ATOM     27  C   UNL A   1      37.142  29.264  29.923  1.00  0.00     0.010 A 
ATOM     28  C   UNL A   1      37.938  29.838  27.713  1.00  0.00     0.010 A 
ATOM     29  C   UNL A   1      38.177  29.287  28.984  1.00  0.00    -0.014 A 
BRANCH  29  30
ATOM     30  C   UNL A   1      39.521  28.809  29.395  1.00  0.00     0.031 A 
ATOM     31  C   UNL A   1      40.221  29.463  30.553  1.00  0.00     0.074 A 
ATOM     32  C   UNL A   1      40.055  27.711  28.826  1.00  0.00     0.049 A 
ATOM     33  N   UNL A   1      41.392  29.189  31.073  1.00  0.00    -0.248 NA
ATOM     34  C   UNL A   1      39.507  30.565  31.219  1.00  0.00     0.031 C 
ATOM     35  C   UNL A   1      39.418  26.904  27.785  1.00  0.00     0.029 A 
ATOM     36  N   UNL A   1      41.223  27.043  29.101  1.00  0.00    -0.354 N 
ATOM     37  C   UNL A   1      41.571  30.111  32.097  1.00  0.00     0.074 A 
ATOM     38  C   UNL A   1      40.388  30.942  32.136  1.00  0.00     0.031 C 
ATOM     39  C   UNL A   1      40.157  25.800  27.577  1.00  0.00     0.029 A 
ATOM     40  C   UNL A   1      41.348  25.855  28.420  1.00  0.00     0.049 A 
ATOM     41  H   UNL A   1      41.905  27.382  29.724  1.00  0.00     0.167 HD
ATOM     42  C   UNL A   1      42.634  30.262  32.923  1.00  0.00     0.031 A 
ATOM     43  C   UNL A   1      42.306  24.911  28.485  1.00  0.00     0.031 A 
ATOM     44  C   UNL A   1      43.801  29.424  32.912  1.00  0.00     0.049 A 
ATOM     45  C   UNL A   1      43.500  25.130  29.373  1.00  0.00     0.074 A 
ATOM     46  C   UNL A   1      44.960  29.547  33.659  1.00  0.00     0.029 A 
ATOM     47  N   UNL A   1      43.946  28.293  32.128  1.00  0.00    -0.354 N 
ATOM     48  N   UNL A   1      43.704  26.065  30.268  1.00  0.00    -0.248 NA
ATOM     49  C   UNL A   1      44.607  24.172  29.234  1.00  0.00     0.031 C 
ATOM     50  C   UNL A   1      45.821  28.504  33.302  1.00  0.00     0.029 A 
ATOM     51  C   UNL A   1      45.181  27.715  32.361  1.00  0.00     0.049 A 
ATOM     52  H   UNL A   1      43.270  27.951  31.500  1.00  0.00     0.167 HD
ATOM     53  C   UNL A   1      44.965  25.812  30.793  1.00  0.00     0.074 A 
ATOM     54  C   UNL A   1      45.461  24.615  30.147  1.00  0.00     0.031 C 
ATOM     55  C   UNL A   1      45.660  26.523  31.713  1.00  0.00     0.031 A 
BRANCH  42  56
ATOM     56  C   UNL A   1      42.609  31.432  33.859  1.00  0.00    -0.014 A 
ATOM     57  C   UNL A   1      42.138  31.312  35.174  1.00  0.00     0.009 A 
ATOM     58  C   UNL A   1      43.087  32.675  33.413  1.00  0.00     0.009 A 
ATOM     59  C   UNL A   1      42.126  32.424  36.019  1.00  0.00     0.001 A 
ATOM     60  C   UNL A   1      43.090  33.779  34.265  1.00  0.00     0.001 A 
ATOM     61  C   UNL A   1      42.604  33.654  35.566  1.00  0.00     0.000 A 
ENDBRANCH  42  56
BRANCH  43  62
ATOM     62  C   UNL A   1      42.188  23.658  27.699  1.00  0.00    -0.014 A 
ATOM     63  C   UNL A   1      41.620  22.516  28.284  1.00  0.00     0.009 A 
ATOM     64  C   UNL A   1      42.669  23.579  26.383  1.00  0.00     0.009 A 
ATOM     65  C   UNL A   1      41.551  21.316  27.574  1.00  0.00     0.001 A 
ATOM     66  C   UNL A   1      42.575  22.384  25.667  1.00  0.00     0.001 A 
ATOM     67  C   UNL A   1      42.025  21.252  26.265  1.00  0.00     0.000 A 
ENDBRANCH  43  62
BRANCH  55  68
ATOM     68  C   UNL A   1      47.030  26.029  32.075  1.00  0.00    -0.014 A 
ATOM     69  C   UNL A   1      48.148  26.392  31.308  1.00  0.00     0.009 A 
ATOM     70  C   UNL A   1      47.214  25.235  33.217  1.00  0.00     0.009 A 
ATOM     71  C   UNL A   1      49.423  25.950  31.664  1.00  0.00     0.001 A 
ATOM     72  C   UNL A   1      48.492  24.810  33.582  1.00  0.00     0.001 A 
ATOM     73  C   UNL A   1      49.593  25.163  32.803  1.00  0.00     0.000 A 
ENDBRANCH  55  68
ENDBRANCH  29  30
ENDBRANCH  22  24
ENDBRANCH  21  22
ENDBRANCH  20  21
ENDBRANCH   1  20
TORSDOF 13
ENDMDL
MODEL 2
REMARK VINA RESULT:      -9.3      4.791     10.752
REMARK SMILES C[C@@H](C(=O)OCCOC(=O)c1ccc(-c2c3nc(c(-c4ccccc4)c4ccc([nH]4)c(-c4ccccc4)c4nc(c(-c5ccccc5)c5ccc2[nH]5)C=C4)C=C3)cc1)c1ccc(-c2ccccc2)c(F)c1
REMARK SMILES IDX 6 1 5 2 3 3 4 4 2 5 1 6 59 7 60 8 71 9 61 10 69 11 62 12
REMARK SMILES IDX 70 13 63 14 64 15 68 16 65 17 67 18 66 19 7 20 8 21 9 22
REMARK SMILES IDX 10 23 11 24 12 25 58 26 13 27 57 28 14 29 15 30 16 31 51 32
REMARK SMILES IDX 17 33 56 34 50 35 52 36 18 37 55 38 49 39 48 40 19 42 41 43
REMARK SMILES IDX 26 44 40 45 27 46 30 47 39 48 53 49 28 50 29 51 38 53 54 54
REMARK SMILES IDX 31 55 20 56 21 57 25 58 22 59 24 60 23 61 42 62 43 63 47 64
REMARK SMILES IDX 44 65 46 66 45 67 32 68 33 69 37 70 34 71 36 72 35 73
REMARK H PARENT 52 41 30 52
REMARK Flexibility Score: inf
ROOT
ATOM      1  C   UNL A   1      42.340  19.485  26.381  1.00  0.00     0.274 C 
ENDROOT
BRANCH   1   2
ATOM      2  O   UNL A   1      43.121  19.842  25.222  1.00  0.00    -0.462 OA
BRANCH   2   3
ATOM      3  C   UNL A   1      44.171  20.691  25.416  1.00  0.00     0.313 C 
ATOM      4  O   UNL A   1      45.343  20.350  25.303  1.00  0.00    -0.252 OA
BRANCH   3   5
ATOM      5  C   UNL A   1      43.718  22.095  25.873  1.00  0.00     0.126 C 
ATOM      6  C   UNL A   1      42.875  22.797  24.797  1.00  0.00     0.025 C 
BRANCH   5   7
ATOM      7  C   UNL A   1      44.879  22.953  26.403  1.00  0.00    -0.031 A 
ATOM      8  C   UNL A   1      44.970  23.244  27.776  1.00  0.00     0.005 A 
ATOM      9  C   UNL A   1      45.889  23.469  25.575  1.00  0.00     0.044 A 
ATOM     10  C   UNL A   1      46.051  23.971  28.306  1.00  0.00     0.012 A 
ATOM     11  C   UNL A   1      46.950  24.210  26.106  1.00  0.00     0.131 A 
ATOM     12  C   UNL A   1      47.069  24.463  27.479  1.00  0.00     0.017 A 
ATOM     13  F   UNL A   1      47.890  24.652  25.256  1.00  0.00    -0.206 F 
BRANCH  12  14
ATOM     14  C   UNL A   1      48.234  25.174  28.029  1.00  0.00    -0.015 A 
ATOM     15  C   UNL A   1      49.535  24.881  27.587  1.00  0.00     0.009 A 
ATOM     16  C   UNL A   1      48.081  26.197  28.979  1.00  0.00     0.009 A 
ATOM     17  C   UNL A   1      50.637  25.610  28.045  1.00  0.00     0.001 A 
ATOM     18  C   UNL A   1      49.185  26.913  29.453  1.00  0.00     0.001 A 
ATOM     19  C   UNL A   1      50.461  26.626  28.977  1.00  0.00     0.000 A 
ENDBRANCH  12  14
ENDBRANCH   5   7
ENDBRANCH   3   5
ENDBRANCH   2   3
ENDBRANCH   1   2
BRANCH   1  20
ATOM     20  C   UNL A   1      40.847  19.658  26.108  1.00  0.00     0.275 C 
BRANCH  20  21
ATOM     21  O   UNL A   1      40.290  20.602  27.039  1.00  0.00    -0.458 OA
BRANCH  21  22
ATOM     22  C   UNL A   1      39.542  21.592  26.503  1.00  0.00     0.338 C 
ATOM     23  O   UNL A   1      38.556  21.490  25.792  1.00  0.00    -0.246 OA
BRANCH  22  24
ATOM     24  C   UNL A   1      40.042  22.875  27.010  1.00  0.00     0.060 A 
ATOM     25  C   UNL A   1      39.581  24.035  26.396  1.00  0.00     0.016 A 
ATOM     26  C   UNL A   1      41.017  22.938  28.006  1.00  0.00     0.016 A 
ATOM     27  C   UNL A   1      40.112  25.268  26.751  1.00  0.00     0.010 A 
ATOM     28  C   UNL A   1      41.529  24.186  28.386  1.00  0.00     0.010 A 
ATOM     29  C   UNL A   1      41.094  25.359  27.743  1.00  0.00    -0.014 A 
BRANCH  29  30
ATOM     30  C   UNL A   1      41.708  26.682  28.017  1.00  0.00     0.031 A 
ATOM     31  C   UNL A   1      42.967  27.081  27.300  1.00  0.00     0.074 A 
ATOM     32  C   UNL A   1      41.073  27.576  28.799  1.00  0.00     0.049 A 
ATOM     33  N   UNL A   1      43.654  28.193  27.391  1.00  0.00    -0.248 NA
ATOM     34  C   UNL A   1      43.522  26.105  26.349  1.00  0.00     0.031 C 
ATOM     35  C   UNL A   1      39.778  27.364  29.446  1.00  0.00     0.029 A 
ATOM     36  N   UNL A   1      41.398  28.872  29.117  1.00  0.00    -0.354 N 
ATOM     37  C   UNL A   1      44.742  28.031  26.544  1.00  0.00     0.074 A 
ATOM     38  C   UNL A   1      44.620  26.724  25.936  1.00  0.00     0.031 C 
ATOM     39  C   UNL A   1      39.375  28.519  30.004  1.00  0.00     0.029 A 
ATOM     40  C   UNL A   1      40.411  29.530  29.811  1.00  0.00     0.049 A 
ATOM     41  H   UNL A   1      42.257  29.288  28.873  1.00  0.00     0.167 HD
ATOM     42  C   UNL A   1      45.762  28.889  26.303  1.00  0.00     0.031 A 
ATOM     43  C   UNL A   1      40.344  30.810  30.225  1.00  0.00     0.031 A 
ATOM     44  C   UNL A   1      45.878  30.200  26.878  1.00  0.00     0.049 A 
ATOM     45  C   UNL A   1      41.513  31.725  29.988  1.00  0.00     0.074 A 
ATOM     46  C   UNL A   1      46.913  31.110  26.753  1.00  0.00     0.029 A 
ATOM     47  N   UNL A   1      44.913  30.796  27.671  1.00  0.00    -0.354 N 
ATOM     48  N   UNL A   1      42.587  31.525  29.265  1.00  0.00    -0.248 NA
ATOM     49  C   UNL A   1      41.466  33.037  30.653  1.00  0.00     0.031 C 
ATOM     50  C   UNL A   1      46.586  32.248  27.498  1.00  0.00     0.029 A 
ATOM     51  C   UNL A   1      45.333  32.057  28.055  1.00  0.00     0.049 A 
ATOM     52  H   UNL A   1      44.055  30.384  27.921  1.00  0.00     0.167 HD
ATOM     53  C   UNL A   1      43.347  32.681  29.394  1.00  0.00     0.074 A 
ATOM     54  C   UNL A   1      42.594  33.593  30.229  1.00  0.00     0.031 C 
ATOM     55  C   UNL A   1      44.572  32.954  28.884  1.00  0.00     0.031 A 
BRANCH  42  56
ATOM     56  C   UNL A   1      46.877  28.395  25.430  1.00  0.00    -0.014 A 
ATOM     57  C   UNL A   1      46.721  28.263  24.043  1.00  0.00     0.009 A 
ATOM     58  C   UNL A   1      48.113  28.076  26.015  1.00  0.00     0.009 A 
ATOM     59  C   UNL A   1      47.780  27.798  23.260  1.00  0.00     0.001 A 
ATOM     60  C   UNL A   1      49.173  27.628  25.228  1.00  0.00     0.001 A 
ATOM     61  C   UNL A   1      49.004  27.484  23.852  1.00  0.00     0.000 A 
ENDBRANCH  42  56
BRANCH  43  62
ATOM     62  C   UNL A   1      39.126  31.323  30.901  1.00  0.00    -0.014 A 
ATOM     63  C   UNL A   1      38.933  31.084  32.271  1.00  0.00     0.009 A 
ATOM     64  C   UNL A   1      38.138  32.019  30.187  1.00  0.00     0.009 A 
ATOM     65  C   UNL A   1      37.768  31.515  32.907  1.00  0.00     0.001 A 
ATOM     66  C   UNL A   1      36.986  32.470  30.833  1.00  0.00     0.001 A 
ATOM     67  C   UNL A   1      36.797  32.212  32.189  1.00  0.00     0.000 A 
ENDBRANCH  43  62
BRANCH  55  68
ATOM     68  C   UNL A   1      45.175  34.287  29.214  1.00  0.00    -0.014 A 
ATOM     69  C   UNL A   1      45.980  34.446  30.353  1.00  0.00     0.009 A 
ATOM     70  C   UNL A   1      44.980  35.380  28.358  1.00  0.00     0.009 A 
ATOM     71  C   UNL A   1      46.559  35.683  30.642  1.00  0.00     0.001 A 
ATOM     72  C   UNL A   1      45.575  36.611  28.638  1.00  0.00     0.001 A 
ATOM     73  C   UNL A   1      46.359  36.763  29.782  1.00  0.00     0.000 A 
ENDBRANCH  55  68
ENDBRANCH  29  30
ENDBRANCH  22  24
ENDBRANCH  21  22
ENDBRANCH  20  21
ENDBRANCH   1  20
TORSDOF 13
ENDMDL
MODEL 3
REMARK VINA RESULT:      -9.3      4.983     11.125
REMARK SMILES C[C@@H](C(=O)OCCOC(=O)c1ccc(-c2c3nc(c(-c4ccccc4)c4ccc([nH]4)c(-c4ccccc4)c4nc(c(-c5ccccc5)c5ccc2[nH]5)C=C4)C=C3)cc1)c1ccc(-c2ccccc2)c(F)c1
REMARK SMILES IDX 6 1 5 2 3 3 4 4 2 5 1 6 59 7 60 8 71 9 61 10 69 11 62 12
REMARK SMILES IDX 70 13 63 14 64 15 68 16 65 17 67 18 66 19 7 20 8 21 9 22
REMARK SMILES IDX 10 23 11 24 12 25 58 26 13 27 57 28 14 29 15 30 16 31 51 32
REMARK SMILES IDX 17 33 56 34 50 35 52 36 18 37 55 38 49 39 48 40 19 42 41 43
REMARK SMILES IDX 26 44 40 45 27 46 30 47 39 48 53 49 28 50 29 51 38 53 54 54
REMARK SMILES IDX 31 55 20 56 21 57 25 58 22 59 24 60 23 61 42 62 43 63 47 64
REMARK SMILES IDX 44 65 46 66 45 67 32 68 33 69 37 70 34 71 36 72 35 73
REMARK H PARENT 52 41 30 52
REMARK Flexibility Score: inf
ROOT
ATOM      1  C   UNL A   1      44.883  20.330  24.735  1.00  0.00     0.274 C 
ENDROOT
BRANCH   1   2
ATOM      2  O   UNL A   1      43.446  20.301  24.858  1.00  0.00    -0.462 OA
BRANCH   2   3
ATOM      3  C   UNL A   1      42.907  19.312  25.626  1.00  0.00     0.313 C 
ATOM      4  O   UNL A   1      43.048  18.118  25.385  1.00  0.00    -0.252 OA
BRANCH   3   5
ATOM      5  C   UNL A   1      42.034  19.866  26.774  1.00  0.00     0.126 C 
ATOM      6  C   UNL A   1      42.029  18.923  27.987  1.00  0.00     0.025 C 
BRANCH   5   7
ATOM      7  C   UNL A   1      40.628  20.280  26.308  1.00  0.00    -0.031 A 
ATOM      8  C   UNL A   1      40.188  21.604  26.489  1.00  0.00     0.005 A 
ATOM      9  C   UNL A   1      39.737  19.392  25.687  1.00  0.00     0.044 A 
ATOM     10  C   UNL A   1      38.935  22.035  26.019  1.00  0.00     0.012 A 
ATOM     11  C   UNL A   1      38.482  19.823  25.241  1.00  0.00     0.131 A 
ATOM     12  C   UNL A   1      38.058  21.151  25.378  1.00  0.00     0.017 A 
ATOM     13  F   UNL A   1      37.692  18.922  24.635  1.00  0.00    -0.206 F 
BRANCH  12  14
ATOM     14  C   UNL A   1      36.769  21.604  24.830  1.00  0.00    -0.015 A 
ATOM     15  C   UNL A   1      35.554  21.154  25.374  1.00  0.00     0.009 A 
ATOM     16  C   UNL A   1      36.711  22.532  23.777  1.00  0.00     0.009 A 
ATOM     17  C   UNL A   1      34.328  21.644  24.912  1.00  0.00     0.001 A 
ATOM     18  C   UNL A   1      35.485  23.007  23.301  1.00  0.00     0.001 A 
ATOM     19  C   UNL A   1      34.294  22.570  23.876  1.00  0.00     0.000 A 
ENDBRANCH  12  14
ENDBRANCH   5   7
ENDBRANCH   3   5
ENDBRANCH   2   3
ENDBRANCH   1   2
BRANCH   1  20
ATOM     20  C   UNL A   1      45.454  21.626  25.305  1.00  0.00     0.275 C 
BRANCH  20  21
ATOM     21  O   UNL A   1      44.390  22.429  25.844  1.00  0.00    -0.458 OA
BRANCH  21  22
ATOM     22  C   UNL A   1      44.328  23.704  25.401  1.00  0.00     0.338 C 
ATOM     23  O   UNL A   1      44.730  24.155  24.342  1.00  0.00    -0.246 OA
BRANCH  22  24
ATOM     24  C   UNL A   1      43.570  24.495  26.379  1.00  0.00     0.060 A 
ATOM     25  C   UNL A   1      43.783  25.869  26.401  1.00  0.00     0.016 A 
ATOM     26  C   UNL A   1      42.735  23.891  27.319  1.00  0.00     0.016 A 
ATOM     27  C   UNL A   1      43.189  26.650  27.383  1.00  0.00     0.010 A 
ATOM     28  C   UNL A   1      42.110  24.685  28.291  1.00  0.00     0.010 A 
ATOM     29  C   UNL A   1      42.352  26.069  28.341  1.00  0.00    -0.014 A 
BRANCH  29  30
ATOM     30  C   UNL A   1      41.821  26.921  29.434  1.00  0.00     0.031 A 
ATOM     31  C   UNL A   1      42.665  27.184  30.650  1.00  0.00     0.074 A 
ATOM     32  C   UNL A   1      40.650  27.569  29.283  1.00  0.00     0.049 A 
ATOM     33  N   UNL A   1      42.389  27.906  31.707  1.00  0.00    -0.248 NA
ATOM     34  C   UNL A   1      43.997  26.559  30.676  1.00  0.00     0.031 C 
ATOM     35  C   UNL A   1      39.797  27.507  28.094  1.00  0.00     0.029 A 
ATOM     36  N   UNL A   1      40.013  28.465  30.105  1.00  0.00    -0.354 N 
ATOM     37  C   UNL A   1      43.494  27.786  32.541  1.00  0.00     0.074 A 
ATOM     38  C   UNL A   1      44.449  26.936  31.864  1.00  0.00     0.031 C 
ATOM     39  C   UNL A   1      38.802  28.401  28.226  1.00  0.00     0.029 A 
ATOM     40  C   UNL A   1      38.909  29.047  29.531  1.00  0.00     0.049 A 
ATOM     41  H   UNL A   1      40.318  28.670  31.019  1.00  0.00     0.167 HD
ATOM     42  C   UNL A   1      43.691  28.324  33.767  1.00  0.00     0.031 A 
ATOM     43  C   UNL A   1      38.089  30.008  29.998  1.00  0.00     0.031 A 
ATOM     44  C   UNL A   1      42.762  29.193  34.436  1.00  0.00     0.049 A 
ATOM     45  C   UNL A   1      38.301  30.550  31.385  1.00  0.00     0.074 A 
ATOM     46  C   UNL A   1      42.841  29.725  35.711  1.00  0.00     0.029 A 
ATOM     47  N   UNL A   1      41.594  29.675  33.871  1.00  0.00    -0.354 N 
ATOM     48  N   UNL A   1      39.302  30.351  32.206  1.00  0.00    -0.248 NA
ATOM     49  C   UNL A   1      37.249  31.431  31.915  1.00  0.00     0.031 C 
ATOM     50  C   UNL A   1      41.701  30.507  35.929  1.00  0.00     0.029 A 
ATOM     51  C   UNL A   1      40.934  30.487  34.776  1.00  0.00     0.049 A 
ATOM     52  H   UNL A   1      41.282  29.471  32.960  1.00  0.00     0.167 HD
ATOM     53  C   UNL A   1      38.997  31.074  33.352  1.00  0.00     0.074 A 
ATOM     54  C   UNL A   1      37.740  31.749  33.105  1.00  0.00     0.031 C 
ATOM     55  C   UNL A   1      39.687  31.154  34.515  1.00  0.00     0.031 A 
BRANCH  42  56
ATOM     56  C   UNL A   1      44.936  27.919  34.498  1.00  0.00    -0.014 A 
ATOM     57  C   UNL A   1      46.120  28.663  34.401  1.00  0.00     0.009 A 
ATOM     58  C   UNL A   1      44.908  26.777  35.315  1.00  0.00     0.009 A 
ATOM     59  C   UNL A   1      47.263  28.256  35.094  1.00  0.00     0.001 A 
ATOM     60  C   UNL A   1      46.046  26.383  36.019  1.00  0.00     0.001 A 
ATOM     61  C   UNL A   1      47.224  27.119  35.903  1.00  0.00     0.000 A 
ENDBRANCH  42  56
BRANCH  43  62
ATOM     62  C   UNL A   1      36.989  30.540  29.156  1.00  0.00    -0.014 A 
ATOM     63  C   UNL A   1      37.007  31.884  28.749  1.00  0.00     0.009 A 
ATOM     64  C   UNL A   1      35.904  29.732  28.783  1.00  0.00     0.009 A 
ATOM     65  C   UNL A   1      35.953  32.412  28.001  1.00  0.00     0.001 A 
ATOM     66  C   UNL A   1      34.864  30.257  28.014  1.00  0.00     0.001 A 
ATOM     67  C   UNL A   1      34.884  31.597  27.630  1.00  0.00     0.000 A 
ENDBRANCH  43  62
BRANCH  55  68
ATOM     68  C   UNL A   1      39.099  31.996  35.609  1.00  0.00    -0.014 A 
ATOM     69  C   UNL A   1      39.431  33.355  35.724  1.00  0.00     0.009 A 
ATOM     70  C   UNL A   1      38.168  31.442  36.501  1.00  0.00     0.009 A 
ATOM     71  C   UNL A   1      38.861  34.139  36.729  1.00  0.00     0.001 A 
ATOM     72  C   UNL A   1      37.585  32.233  37.493  1.00  0.00     0.001 A 
ATOM     73  C   UNL A   1      37.936  33.577  37.609  1.00  0.00     0.000 A 
ENDBRANCH  55  68
ENDBRANCH  29  30
ENDBRANCH  22  24
ENDBRANCH  21  22
ENDBRANCH  20  21
ENDBRANCH   1  20
TORSDOF 13
ENDMDL
