MODEL 1
REMARK VINA RESULT:     -10.6      0.000      0.000
REMARK SMILES O=C(COc1ccccc1C[N@H+]1C[C@@H]2[C@H]3CC[C@H](C3)[C@@H]2C1)OCCOC(=O)c1ccc(-c2c3nc(c(-c4ccccc4)c4ccc([nH]4)c(-c4ccccc4)c4nc(c(-c5ccccc5)c5ccc2[nH]5)C=C4)C=C3)cc1
REMARK SMILES IDX 23 1 22 2 2 3 1 4 3 5 4 6 5 7 6 8 10 9 7 10 9 11 8 12 11 13
REMARK SMILES IDX 12 14 13 15 21 16 14 18 20 19 15 20 18 21 16 22 19 23 17 24
REMARK SMILES IDX 24 25 25 26 26 27 27 28 28 29 29 30 75 31 30 32 74 33 31 34
REMARK SMILES IDX 32 35 33 36 68 37 34 38 73 39 67 40 69 41 35 42 72 43 66 44
REMARK SMILES IDX 65 45 36 47 58 48 43 49 57 50 44 51 47 52 56 53 70 54 45 55
REMARK SMILES IDX 46 56 55 58 71 59 48 60 37 61 38 62 42 63 39 64 41 65 40 66
REMARK SMILES IDX 59 67 60 68 64 69 61 70 63 71 62 72 49 73 50 74 54 75 51 76
REMARK SMILES IDX 53 77 52 78
REMARK H PARENT 12 17 69 46 47 57
REMARK Flexibility Score: inf
ROOT
ATOM      1  C   UNL A   1      31.589  31.671  26.625  1.00  0.00     0.274 C 
ENDROOT
BRANCH   1   2
ATOM      2  O   UNL A   1      32.536  30.872  27.367  1.00  0.00    -0.460 OA
BRANCH   2   3
ATOM      3  C   UNL A   1      33.613  30.253  26.834  1.00  0.00     0.344 C 
ATOM      4  O   UNL A   1      34.745  30.671  27.082  1.00  0.00    -0.248 OA
BRANCH   3   5
ATOM      5  C   UNL A   1      33.405  29.030  25.964  1.00  0.00     0.351 C 
BRANCH   5   6
ATOM      6  O   UNL A   1      32.363  28.219  26.500  1.00  0.00    -0.481 OA
BRANCH   6   7
ATOM      7  C   UNL A   1      31.569  27.697  25.512  1.00  0.00     0.129 A 
ATOM      8  C   UNL A   1      31.009  28.594  24.596  1.00  0.00     0.047 A 
ATOM      9  C   UNL A   1      31.276  26.323  25.452  1.00  0.00     0.048 A 
ATOM     10  C   UNL A   1      30.159  28.129  23.593  1.00  0.00     0.004 A 
ATOM     11  C   UNL A   1      30.395  25.881  24.451  1.00  0.00     0.013 A 
ATOM     12  C   UNL A   1      29.847  26.774  23.527  1.00  0.00     0.001 A 
BRANCH   9  13
ATOM     13  C   UNL A   1      31.935  25.297  26.346  1.00  0.00     0.302 C 
BRANCH  13  14
ATOM     14  N   UNL A   1      32.965  24.484  25.689  1.00  0.00    -0.331 N 
ATOM     15  C   UNL A   1      34.197  25.236  25.437  1.00  0.00     0.266 C 
ATOM     16  C   UNL A   1      33.370  23.347  26.521  1.00  0.00     0.266 C 
ATOM     17  H   UNL A   1      32.532  24.182  24.816  1.00  0.00     0.348 HD
ATOM     18  C   UNL A   1      35.303  24.183  25.319  1.00  0.00     0.056 C 
ATOM     19  C   UNL A   1      34.750  22.935  26.029  1.00  0.00     0.056 C 
ATOM     20  C   UNL A   1      35.591  23.657  23.894  1.00  0.00    -0.002 C 
ATOM     21  C   UNL A   1      34.767  21.862  24.911  1.00  0.00    -0.002 C 
ATOM     22  C   UNL A   1      36.813  22.716  23.980  1.00  0.00     0.004 C 
ATOM     23  C   UNL A   1      34.467  22.653  23.639  1.00  0.00     0.008 C 
ATOM     24  C   UNL A   1      36.236  21.466  24.667  1.00  0.00     0.004 C 
ENDBRANCH  13  14
ENDBRANCH   9  13
ENDBRANCH   6   7
ENDBRANCH   5   6
ENDBRANCH   3   5
ENDBRANCH   2   3
ENDBRANCH   1   2
BRANCH   1  25
ATOM     25  C   UNL A   1      31.950  33.144  26.810  1.00  0.00     0.275 C 
BRANCH  25  26
ATOM     26  O   UNL A   1      32.149  33.389  28.213  1.00  0.00    -0.458 OA
BRANCH  26  27
ATOM     27  C   UNL A   1      33.042  34.366  28.518  1.00  0.00     0.338 C 
ATOM     28  O   UNL A   1      32.818  35.551  28.680  1.00  0.00    -0.246 OA
BRANCH  27  29
ATOM     29  C   UNL A   1      34.320  33.703  28.842  1.00  0.00     0.060 A 
ATOM     30  C   UNL A   1      34.363  32.803  29.916  1.00  0.00     0.016 A 
ATOM     31  C   UNL A   1      35.458  33.937  28.066  1.00  0.00     0.016 A 
ATOM     32  C   UNL A   1      35.545  32.133  30.219  1.00  0.00     0.010 A 
ATOM     33  C   UNL A   1      36.650  33.298  28.392  1.00  0.00     0.010 A 
ATOM     34  C   UNL A   1      36.702  32.418  29.487  1.00  0.00    -0.014 A 
BRANCH  34  35
ATOM     35  C   UNL A   1      38.029  32.037  30.010  1.00  0.00     0.031 A 
ATOM     36  C   UNL A   1      38.626  30.758  29.497  1.00  0.00     0.074 A 
ATOM     37  C   UNL A   1      38.643  32.759  30.961  1.00  0.00     0.049 A 
ATOM     38  N   UNL A   1      39.692  30.121  29.899  1.00  0.00    -0.248 NA
ATOM     39  C   UNL A   1      37.910  30.104  28.388  1.00  0.00     0.031 C 
ATOM     40  C   UNL A   1      38.176  34.033  31.499  1.00  0.00     0.029 A 
ATOM     41  N   UNL A   1      39.792  32.493  31.660  1.00  0.00    -0.354 N 
ATOM     42  C   UNL A   1      39.768  28.987  29.100  1.00  0.00     0.074 A 
ATOM     43  C   UNL A   1      38.633  29.013  28.206  1.00  0.00     0.031 C 
ATOM     44  C   UNL A   1      39.020  34.429  32.469  1.00  0.00     0.029 A 
ATOM     45  C   UNL A   1      40.061  33.417  32.638  1.00  0.00     0.049 A 
ATOM     46  H   UNL A   1      40.368  31.716  31.478  1.00  0.00     0.167 HD
ATOM     47  C   UNL A   1      40.696  28.004  29.115  1.00  0.00     0.031 A 
ATOM     48  C   UNL A   1      41.023  33.419  33.581  1.00  0.00     0.031 A 
ATOM     49  C   UNL A   1      41.794  27.960  30.038  1.00  0.00     0.049 A 
ATOM     50  C   UNL A   1      42.001  32.273  33.634  1.00  0.00     0.074 A 
ATOM     51  C   UNL A   1      42.790  27.008  30.149  1.00  0.00     0.029 A 
ATOM     52  N   UNL A   1      42.029  28.910  31.019  1.00  0.00    -0.354 N 
ATOM     53  N   UNL A   1      42.078  31.215  32.863  1.00  0.00    -0.248 NA
ATOM     54  C   UNL A   1      43.023  32.324  34.688  1.00  0.00     0.031 C 
ATOM     55  C   UNL A   1      43.602  27.359  31.234  1.00  0.00     0.029 A 
ATOM     56  C   UNL A   1      43.143  28.557  31.758  1.00  0.00     0.049 A 
ATOM     57  H   UNL A   1      41.483  29.717  31.167  1.00  0.00     0.167 HD
ATOM     58  C   UNL A   1      43.175  30.492  33.316  1.00  0.00     0.074 A 
ATOM     59  C   UNL A   1      43.734  31.236  34.427  1.00  0.00     0.031 C 
ATOM     60  C   UNL A   1      43.680  29.322  32.854  1.00  0.00     0.031 A 
BRANCH  47  61
ATOM     61  C   UNL A   1      40.513  26.883  28.135  1.00  0.00    -0.014 A 
ATOM     62  C   UNL A   1      41.112  26.922  26.864  1.00  0.00     0.009 A 
ATOM     63  C   UNL A   1      39.711  25.785  28.476  1.00  0.00     0.009 A 
ATOM     64  C   UNL A   1      40.877  25.901  25.942  1.00  0.00     0.001 A 
ATOM     65  C   UNL A   1      39.501  24.752  27.561  1.00  0.00     0.001 A 
ATOM     66  C   UNL A   1      40.074  24.816  26.292  1.00  0.00     0.000 A 
ENDBRANCH  47  61
BRANCH  48  67
ATOM     67  C   UNL A   1      41.104  34.529  34.566  1.00  0.00    -0.014 A 
ATOM     68  C   UNL A   1      40.396  34.461  35.776  1.00  0.00     0.009 A 
ATOM     69  C   UNL A   1      41.874  35.670  34.295  1.00  0.00     0.009 A 
ATOM     70  C   UNL A   1      40.440  35.523  36.682  1.00  0.00     0.001 A 
ATOM     71  C   UNL A   1      41.936  36.719  35.214  1.00  0.00     0.001 A 
ATOM     72  C   UNL A   1      41.212  36.649  36.403  1.00  0.00     0.000 A 
ENDBRANCH  48  67
BRANCH  60  73
ATOM     73  C   UNL A   1      44.924  28.798  33.513  1.00  0.00    -0.014 A 
ATOM     74  C   UNL A   1      46.201  29.148  33.050  1.00  0.00     0.009 A 
ATOM     75  C   UNL A   1      44.809  27.994  34.658  1.00  0.00     0.009 A 
ATOM     76  C   UNL A   1      47.340  28.680  33.707  1.00  0.00     0.001 A 
ATOM     77  C   UNL A   1      45.949  27.551  35.329  1.00  0.00     0.001 A 
ATOM     78  C   UNL A   1      47.213  27.888  34.850  1.00  0.00     0.000 A 
ENDBRANCH  60  73
ENDBRANCH  34  35
ENDBRANCH  27  29
ENDBRANCH  26  27
ENDBRANCH  25  26
ENDBRANCH   1  25
TORSDOF 15
ENDMDL
MODEL 2
REMARK VINA RESULT:     -10.4      3.588      8.010
REMARK SMILES O=C(COc1ccccc1C[N@H+]1C[C@@H]2[C@H]3CC[C@H](C3)[C@@H]2C1)OCCOC(=O)c1ccc(-c2c3nc(c(-c4ccccc4)c4ccc([nH]4)c(-c4ccccc4)c4nc(c(-c5ccccc5)c5ccc2[nH]5)C=C4)C=C3)cc1
REMARK SMILES IDX 23 1 22 2 2 3 1 4 3 5 4 6 5 7 6 8 10 9 7 10 9 11 8 12 11 13
REMARK SMILES IDX 12 14 13 15 21 16 14 18 20 19 15 20 18 21 16 22 19 23 17 24
REMARK SMILES IDX 24 25 25 26 26 27 27 28 28 29 29 30 75 31 30 32 74 33 31 34
REMARK SMILES IDX 32 35 33 36 68 37 34 38 73 39 67 40 69 41 35 42 72 43 66 44
REMARK SMILES IDX 65 45 36 47 58 48 43 49 57 50 44 51 47 52 56 53 70 54 45 55
REMARK SMILES IDX 46 56 55 58 71 59 48 60 37 61 38 62 42 63 39 64 41 65 40 66
REMARK SMILES IDX 59 67 60 68 64 69 61 70 63 71 62 72 49 73 50 74 54 75 51 76
REMARK SMILES IDX 53 77 52 78
REMARK H PARENT 12 17 69 46 47 57
REMARK Flexibility Score: inf
ROOT
ATOM      1  C   UNL A   1      34.606  34.533  31.120  1.00  0.00     0.274 C 
ENDROOT
BRANCH   1   2
ATOM      2  O   UNL A   1      33.353  34.591  30.404  1.00  0.00    -0.460 OA
BRANCH   2   3
ATOM      3  C   UNL A   1      33.215  34.968  29.113  1.00  0.00     0.344 C 
ATOM      4  O   UNL A   1      32.532  35.954  28.833  1.00  0.00    -0.248 OA
BRANCH   3   5
ATOM      5  C   UNL A   1      33.933  34.183  28.034  1.00  0.00     0.351 C 
BRANCH   5   6
ATOM      6  O   UNL A   1      33.332  32.900  27.880  1.00  0.00    -0.481 OA
BRANCH   6   7
ATOM      7  C   UNL A   1      34.272  31.904  27.819  1.00  0.00     0.129 A 
ATOM      8  C   UNL A   1      35.597  32.254  28.101  1.00  0.00     0.047 A 
ATOM      9  C   UNL A   1      33.934  30.597  27.429  1.00  0.00     0.048 A 
ATOM     10  C   UNL A   1      36.605  31.294  28.015  1.00  0.00     0.004 A 
ATOM     11  C   UNL A   1      34.971  29.654  27.321  1.00  0.00     0.013 A 
ATOM     12  C   UNL A   1      36.293  29.997  27.618  1.00  0.00     0.001 A 
BRANCH   9  13
ATOM     13  C   UNL A   1      32.509  30.138  27.217  1.00  0.00     0.302 C 
BRANCH  13  14
ATOM     14  N   UNL A   1      32.334  29.168  26.130  1.00  0.00    -0.331 N 
ATOM     15  C   UNL A   1      31.606  27.971  26.557  1.00  0.00     0.266 C 
ATOM     16  C   UNL A   1      31.545  29.726  25.027  1.00  0.00     0.266 C 
ATOM     17  H   UNL A   1      33.284  28.938  25.839  1.00  0.00     0.348 HD
ATOM     18  C   UNL A   1      31.010  27.375  25.279  1.00  0.00     0.056 C 
ATOM     19  C   UNL A   1      30.978  28.536  24.269  1.00  0.00     0.056 C 
ATOM     20  C   UNL A   1      31.876  26.322  24.551  1.00  0.00    -0.002 C 
ATOM     21  C   UNL A   1      31.854  28.007  23.105  1.00  0.00    -0.002 C 
ATOM     22  C   UNL A   1      31.044  25.760  23.378  1.00  0.00     0.004 C 
ATOM     23  C   UNL A   1      32.914  27.155  23.801  1.00  0.00     0.008 C 
ATOM     24  C   UNL A   1      31.046  26.921  22.368  1.00  0.00     0.004 C 
ENDBRANCH  13  14
ENDBRANCH   9  13
ENDBRANCH   6   7
ENDBRANCH   5   6
ENDBRANCH   3   5
ENDBRANCH   2   3
ENDBRANCH   1   2
BRANCH   1  25
ATOM     25  C   UNL A   1      34.342  33.959  32.510  1.00  0.00     0.275 C 
BRANCH  25  26
ATOM     26  O   UNL A   1      34.907  32.638  32.570  1.00  0.00    -0.458 OA
BRANCH  26  27
ATOM     27  C   UNL A   1      36.057  32.522  33.282  1.00  0.00     0.338 C 
ATOM     28  O   UNL A   1      36.236  32.801  34.453  1.00  0.00    -0.246 OA
BRANCH  27  29
ATOM     29  C   UNL A   1      37.018  31.781  32.442  1.00  0.00     0.060 A 
ATOM     30  C   UNL A   1      37.470  30.527  32.875  1.00  0.00     0.016 A 
ATOM     31  C   UNL A   1      37.438  32.303  31.216  1.00  0.00     0.016 A 
ATOM     32  C   UNL A   1      38.345  29.787  32.084  1.00  0.00     0.010 A 
ATOM     33  C   UNL A   1      38.343  31.582  30.443  1.00  0.00     0.010 A 
ATOM     34  C   UNL A   1      38.820  30.338  30.889  1.00  0.00    -0.014 A 
BRANCH  34  35
ATOM     35  C   UNL A   1      40.017  29.776  30.233  1.00  0.00     0.031 A 
ATOM     36  C   UNL A   1      41.218  30.671  30.118  1.00  0.00     0.074 A 
ATOM     37  C   UNL A   1      40.011  28.547  29.692  1.00  0.00     0.049 A 
ATOM     38  N   UNL A   1      42.331  30.484  29.460  1.00  0.00    -0.248 NA
ATOM     39  C   UNL A   1      41.142  31.957  30.832  1.00  0.00     0.031 C 
ATOM     40  C   UNL A   1      38.919  27.582  29.780  1.00  0.00     0.029 A 
ATOM     41  N   UNL A   1      40.962  27.918  28.931  1.00  0.00    -0.354 N 
ATOM     42  C   UNL A   1      43.081  31.634  29.672  1.00  0.00     0.074 A 
ATOM     43  C   UNL A   1      42.294  32.517  30.502  1.00  0.00     0.031 C 
ATOM     44  C   UNL A   1      39.252  26.487  29.074  1.00  0.00     0.029 A 
ATOM     45  C   UNL A   1      40.561  26.693  28.460  1.00  0.00     0.049 A 
ATOM     46  H   UNL A   1      41.847  28.307  28.742  1.00  0.00     0.167 HD
ATOM     47  C   UNL A   1      44.316  31.933  29.210  1.00  0.00     0.031 A 
ATOM     48  C   UNL A   1      41.176  25.856  27.602  1.00  0.00     0.031 A 
ATOM     49  C   UNL A   1      45.074  31.072  28.349  1.00  0.00     0.049 A 
ATOM     50  C   UNL A   1      42.517  26.244  27.034  1.00  0.00     0.074 A 
ATOM     51  C   UNL A   1      46.332  31.276  27.813  1.00  0.00     0.029 A 
ATOM     52  N   UNL A   1      44.631  29.842  27.887  1.00  0.00    -0.354 N 
ATOM     53  N   UNL A   1      43.230  27.323  27.255  1.00  0.00    -0.248 NA
ATOM     54  C   UNL A   1      43.137  25.296  26.097  1.00  0.00     0.031 C 
ATOM     55  C   UNL A   1      46.630  30.188  26.985  1.00  0.00     0.029 A 
ATOM     56  C   UNL A   1      45.581  29.283  27.053  1.00  0.00     0.049 A 
ATOM     57  H   UNL A   1      43.768  29.429  28.119  1.00  0.00     0.167 HD
ATOM     58  C   UNL A   1      44.395  27.169  26.513  1.00  0.00     0.074 A 
ATOM     59  C   UNL A   1      44.294  25.890  25.839  1.00  0.00     0.031 C 
ATOM     60  C   UNL A   1      45.456  28.005  26.402  1.00  0.00     0.031 A 
BRANCH  47  61
ATOM     61  C   UNL A   1      44.880  33.269  29.595  1.00  0.00    -0.014 A 
ATOM     62  C   UNL A   1      44.692  34.399  28.781  1.00  0.00     0.009 A 
ATOM     63  C   UNL A   1      45.630  33.395  30.772  1.00  0.00     0.009 A 
ATOM     64  C   UNL A   1      45.280  35.619  29.123  1.00  0.00     0.001 A 
ATOM     65  C   UNL A   1      46.193  34.622  31.124  1.00  0.00     0.001 A 
ATOM     66  C   UNL A   1      46.027  35.730  30.295  1.00  0.00     0.000 A 
ENDBRANCH  47  61
BRANCH  48  67
ATOM     67  C   UNL A   1      40.528  24.578  27.210  1.00  0.00    -0.014 A 
ATOM     68  C   UNL A   1      39.298  24.580  26.535  1.00  0.00     0.009 A 
ATOM     69  C   UNL A   1      41.126  23.348  27.523  1.00  0.00     0.009 A 
ATOM     70  C   UNL A   1      38.669  23.377  26.204  1.00  0.00     0.001 A 
ATOM     71  C   UNL A   1      40.509  22.147  27.168  1.00  0.00     0.001 A 
ATOM     72  C   UNL A   1      39.276  22.162  26.516  1.00  0.00     0.000 A 
ENDBRANCH  48  67
BRANCH  60  73
ATOM     73  C   UNL A   1      46.613  27.545  25.561  1.00  0.00    -0.014 A 
ATOM     74  C   UNL A   1      47.602  26.696  26.079  1.00  0.00     0.009 A 
ATOM     75  C   UNL A   1      46.672  27.918  24.209  1.00  0.00     0.009 A 
ATOM     76  C   UNL A   1      48.643  26.250  25.263  1.00  0.00     0.001 A 
ATOM     77  C   UNL A   1      47.698  27.449  23.389  1.00  0.00     0.001 A 
ATOM     78  C   UNL A   1      48.687  26.622  23.918  1.00  0.00     0.000 A 
ENDBRANCH  60  73
ENDBRANCH  34  35
ENDBRANCH  27  29
ENDBRANCH  26  27
ENDBRANCH  25  26
ENDBRANCH   1  25
TORSDOF 15
ENDMDL
MODEL 3
REMARK VINA RESULT:     -10.3      2.716      7.174
REMARK SMILES O=C(COc1ccccc1C[N@H+]1C[C@@H]2[C@H]3CC[C@H](C3)[C@@H]2C1)OCCOC(=O)c1ccc(-c2c3nc(c(-c4ccccc4)c4ccc([nH]4)c(-c4ccccc4)c4nc(c(-c5ccccc5)c5ccc2[nH]5)C=C4)C=C3)cc1
REMARK SMILES IDX 23 1 22 2 2 3 1 4 3 5 4 6 5 7 6 8 10 9 7 10 9 11 8 12 11 13
REMARK SMILES IDX 12 14 13 15 21 16 14 18 20 19 15 20 18 21 16 22 19 23 17 24
REMARK SMILES IDX 24 25 25 26 26 27 27 28 28 29 29 30 75 31 30 32 74 33 31 34
REMARK SMILES IDX 32 35 33 36 68 37 34 38 73 39 67 40 69 41 35 42 72 43 66 44
REMARK SMILES IDX 65 45 36 47 58 48 43 49 57 50 44 51 47 52 56 53 70 54 45 55
REMARK SMILES IDX 46 56 55 58 71 59 48 60 37 61 38 62 42 63 39 64 41 65 40 66
REMARK SMILES IDX 59 67 60 68 64 69 61 70 63 71 62 72 49 73 50 74 54 75 51 76
REMARK SMILES IDX 53 77 52 78
REMARK H PARENT 12 17 69 46 47 57
REMARK Flexibility Score: inf
ROOT
ATOM      1  C   UNL A   1      33.466  27.780  24.949  1.00  0.00     0.274 C 
ENDROOT
BRANCH   1   2
ATOM      2  O   UNL A   1      33.230  27.972  23.538  1.00  0.00    -0.460 OA
BRANCH   2   3
ATOM      3  C   UNL A   1      32.969  26.982  22.654  1.00  0.00     0.344 C 
ATOM      4  O   UNL A   1      33.713  26.813  21.687  1.00  0.00    -0.248 OA
BRANCH   3   5
ATOM      5  C   UNL A   1      31.778  26.076  22.891  1.00  0.00     0.351 C 
BRANCH   5   6
ATOM      6  O   UNL A   1      32.218  24.786  23.307  1.00  0.00    -0.481 OA
BRANCH   6   7
ATOM      7  C   UNL A   1      31.518  24.340  24.397  1.00  0.00     0.129 A 
ATOM      8  C   UNL A   1      30.641  25.240  25.011  1.00  0.00     0.047 A 
ATOM      9  C   UNL A   1      31.716  23.050  24.921  1.00  0.00     0.048 A 
ATOM     10  C   UNL A   1      29.932  24.859  26.149  1.00  0.00     0.004 A 
ATOM     11  C   UNL A   1      31.012  22.697  26.085  1.00  0.00     0.013 A 
ATOM     12  C   UNL A   1      30.124  23.590  26.690  1.00  0.00     0.001 A 
BRANCH   9  13
ATOM     13  C   UNL A   1      32.568  22.002  24.240  1.00  0.00     0.302 C 
BRANCH  13  14
ATOM     14  N   UNL A   1      34.011  22.155  24.451  1.00  0.00    -0.331 N 
ATOM     15  C   UNL A   1      34.325  23.123  25.505  1.00  0.00     0.266 C 
ATOM     16  C   UNL A   1      34.632  20.900  24.883  1.00  0.00     0.266 C 
ATOM     17  H   UNL A   1      34.369  22.466  23.548  1.00  0.00     0.348 HD
ATOM     18  C   UNL A   1      35.727  22.754  25.998  1.00  0.00     0.056 C 
ATOM     19  C   UNL A   1      35.929  21.286  25.578  1.00  0.00     0.056 C 
ATOM     20  C   UNL A   1      36.904  23.467  25.294  1.00  0.00    -0.002 C 
ATOM     21  C   UNL A   1      37.180  21.355  24.666  1.00  0.00    -0.002 C 
ATOM     22  C   UNL A   1      38.203  23.056  26.021  1.00  0.00     0.004 C 
ATOM     23  C   UNL A   1      37.057  22.712  23.975  1.00  0.00     0.008 C 
ATOM     24  C   UNL A   1      38.404  21.599  25.569  1.00  0.00     0.004 C 
ENDBRANCH  13  14
ENDBRANCH   9  13
ENDBRANCH   6   7
ENDBRANCH   5   6
ENDBRANCH   3   5
ENDBRANCH   2   3
ENDBRANCH   1   2
BRANCH   1  25
ATOM     25  C   UNL A   1      33.787  29.136  25.574  1.00  0.00     0.275 C 
BRANCH  25  26
ATOM     26  O   UNL A   1      34.198  28.922  26.935  1.00  0.00    -0.458 OA
BRANCH  26  27
ATOM     27  C   UNL A   1      34.596  30.031  27.610  1.00  0.00     0.338 C 
ATOM     28  O   UNL A   1      33.913  30.981  27.946  1.00  0.00    -0.246 OA
BRANCH  27  29
ATOM     29  C   UNL A   1      35.978  29.790  28.070  1.00  0.00     0.060 A 
ATOM     30  C   UNL A   1      37.032  29.943  27.159  1.00  0.00     0.016 A 
ATOM     31  C   UNL A   1      36.234  29.455  29.402  1.00  0.00     0.016 A 
ATOM     32  C   UNL A   1      38.348  29.762  27.575  1.00  0.00     0.010 A 
ATOM     33  C   UNL A   1      37.546  29.235  29.810  1.00  0.00     0.010 A 
ATOM     34  C   UNL A   1      38.602  29.359  28.891  1.00  0.00    -0.014 A 
BRANCH  34  35
ATOM     35  C   UNL A   1      39.913  28.789  29.257  1.00  0.00     0.031 A 
ATOM     36  C   UNL A   1      40.882  29.697  29.958  1.00  0.00     0.074 A 
ATOM     37  C   UNL A   1      40.258  27.539  28.910  1.00  0.00     0.049 A 
ATOM     38  N   UNL A   1      42.140  29.502  30.249  1.00  0.00    -0.248 NA
ATOM     39  C   UNL A   1      40.360  31.011  30.372  1.00  0.00     0.031 C 
ATOM     40  C   UNL A   1      39.385  26.561  28.267  1.00  0.00     0.029 A 
ATOM     41  N   UNL A   1      41.461  26.893  29.034  1.00  0.00    -0.354 N 
ATOM     42  C   UNL A   1      42.561  30.671  30.870  1.00  0.00     0.074 A 
ATOM     43  C   UNL A   1      41.435  31.576  30.897  1.00  0.00     0.031 C 
ATOM     44  C   UNL A   1      40.092  25.442  28.027  1.00  0.00     0.029 A 
ATOM     45  C   UNL A   1      41.470  25.643  28.468  1.00  0.00     0.049 A 
ATOM     46  H   UNL A   1      42.242  27.288  29.487  1.00  0.00     0.167 HD
ATOM     47  C   UNL A   1      43.782  30.970  31.367  1.00  0.00     0.031 A 
ATOM     48  C   UNL A   1      42.491  24.781  28.301  1.00  0.00     0.031 A 
ATOM     49  C   UNL A   1      44.910  30.085  31.296  1.00  0.00     0.049 A 
ATOM     50  C   UNL A   1      43.864  25.165  28.789  1.00  0.00     0.074 A 
ATOM     51  C   UNL A   1      46.196  30.287  31.759  1.00  0.00     0.029 A 
ATOM     52  N   UNL A   1      44.882  28.830  30.707  1.00  0.00    -0.354 N 
ATOM     53  N   UNL A   1      44.251  26.264  29.393  1.00  0.00    -0.248 NA
ATOM     54  C   UNL A   1      44.941  24.189  28.572  1.00  0.00     0.031 C 
ATOM     55  C   UNL A   1      46.962  29.169  31.406  1.00  0.00     0.029 A 
ATOM     56  C   UNL A   1      46.136  28.252  30.775  1.00  0.00     0.049 A 
ATOM     57  H   UNL A   1      44.087  28.413  30.302  1.00  0.00     0.167 HD
ATOM     58  C   UNL A   1      45.605  26.098  29.658  1.00  0.00     0.074 A 
ATOM     59  C   UNL A   1      45.971  24.790  29.152  1.00  0.00     0.031 C 
ATOM     60  C   UNL A   1      46.468  26.945  30.269  1.00  0.00     0.031 A 
BRANCH  47  61
ATOM     61  C   UNL A   1      43.953  32.330  31.977  1.00  0.00    -0.014 A 
ATOM     62  C   UNL A   1      44.368  33.427  31.204  1.00  0.00     0.009 A 
ATOM     63  C   UNL A   1      43.721  32.511  33.348  1.00  0.00     0.009 A 
ATOM     64  C   UNL A   1      44.584  34.670  31.802  1.00  0.00     0.001 A 
ATOM     65  C   UNL A   1      43.912  33.762  33.937  1.00  0.00     0.001 A 
ATOM     66  C   UNL A   1      44.354  34.837  33.168  1.00  0.00     0.000 A 
ENDBRANCH  47  61
BRANCH  48  67
ATOM     67  C   UNL A   1      42.265  23.477  27.625  1.00  0.00    -0.014 A 
ATOM     68  C   UNL A   1      41.924  22.338  28.370  1.00  0.00     0.009 A 
ATOM     69  C   UNL A   1      42.406  23.359  26.234  1.00  0.00     0.009 A 
ATOM     70  C   UNL A   1      41.753  21.104  27.739  1.00  0.00     0.001 A 
ATOM     71  C   UNL A   1      42.209  22.129  25.602  1.00  0.00     0.001 A 
ATOM     72  C   UNL A   1      41.891  21.001  26.356  1.00  0.00     0.000 A 
ENDBRANCH  48  67
BRANCH  60  73
ATOM     73  C   UNL A   1      47.879  26.469  30.469  1.00  0.00    -0.014 A 
ATOM     74  C   UNL A   1      48.265  25.796  31.637  1.00  0.00     0.009 A 
ATOM     75  C   UNL A   1      48.816  26.641  29.438  1.00  0.00     0.009 A 
ATOM     76  C   UNL A   1      49.572  25.327  31.779  1.00  0.00     0.001 A 
ATOM     77  C   UNL A   1      50.113  26.147  29.571  1.00  0.00     0.001 A 
ATOM     78  C   UNL A   1      50.493  25.497  30.744  1.00  0.00     0.000 A 
ENDBRANCH  60  73
ENDBRANCH  34  35
ENDBRANCH  27  29
ENDBRANCH  26  27
ENDBRANCH  25  26
ENDBRANCH   1  25
TORSDOF 15
ENDMDL
