MODEL 1
REMARK VINA RESULT:     -10.3      0.000      0.000
REMARK SMILES NS(=O)(=O)c1ccc(-n2nc(NC(=O)NCCCCCCCCCCC(=O)OCCOC(=O)c3ccc(-c4c5nc(c(-c6ccccc6)c6ccc([nH]6)c(-c6ccccc6)c6nc(c(-c7ccccc7)c7ccc4[nH]7)C=C6)C=C5)cc3)cc2-c2ccccc2)cc1
REMARK SMILES IDX 22 1 21 2 20 3 19 4 18 5 17 6 16 7 15 8 12 9 13 10 14 12
REMARK SMILES IDX 11 14 9 15 10 16 83 17 82 18 8 19 5 20 6 21 91 22 7 23 90 24
REMARK SMILES IDX 2 25 3 26 4 27 1 28 84 31 85 32 89 33 86 34 88 35 87 36
REMARK SMILES IDX 23 37 24 38 25 39 26 40 27 41 28 42 29 43 30 44 31 45 32 46
REMARK SMILES IDX 33 47 34 48 35 49 81 50 36 51 80 52 37 53 38 54 39 55 74 56
REMARK SMILES IDX 40 57 79 58 73 59 75 60 41 61 78 62 72 63 71 64 42 66 64 67
REMARK SMILES IDX 49 68 63 69 50 70 53 71 62 72 76 73 51 74 52 75 61 77 77 78
REMARK SMILES IDX 54 79 43 80 44 81 48 82 45 83 47 84 46 85 65 86 66 87 70 88
REMARK SMILES IDX 67 89 69 90 68 91 55 92 56 93 60 94 57 95 59 96 58 97
REMARK H PARENT 12 11 15 13 1 29 1 30 75 65 53 76
REMARK Flexibility Score: inf
ROOT
ATOM      1  C   UNL A   1      33.717  27.434  26.222  1.00  0.00     0.000 C 
ENDROOT
BRANCH   1   2
ATOM      2  C   UNL A   1      34.022  27.012  24.790  1.00  0.00     0.000 C 
BRANCH   2   3
ATOM      3  C   UNL A   1      33.753  28.114  23.767  1.00  0.00     0.000 C 
BRANCH   3   4
ATOM      4  C   UNL A   1      32.946  27.675  22.540  1.00  0.00     0.000 C 
BRANCH   4   5
ATOM      5  C   UNL A   1      32.106  26.409  22.745  1.00  0.00     0.002 C 
BRANCH   5   6
ATOM      6  C   UNL A   1      30.637  26.648  23.101  1.00  0.00     0.021 C 
BRANCH   6   7
ATOM      7  C   UNL A   1      29.946  25.487  23.803  1.00  0.00     0.117 C 
BRANCH   7   8
ATOM      8  N   UNL A   1      29.284  25.833  25.039  1.00  0.00    -0.338 N 
ATOM      9  N   UNL A   1      29.913  24.010  26.438  1.00  0.00    -0.291 N 
ATOM     10  C   UNL A   1      29.236  25.157  26.207  1.00  0.00     0.320 C 
ATOM     11  H   UNL A   1      29.530  23.456  27.157  1.00  0.00     0.173 HD
ATOM     12  O   UNL A   1      28.443  25.556  27.067  1.00  0.00    -0.248 OA
ATOM     13  H   UNL A   1      28.796  26.687  25.029  1.00  0.00     0.165 HD
BRANCH   9  14
ATOM     14  C   UNL A   1      31.037  23.471  25.854  1.00  0.00     0.157 A 
ATOM     15  N   UNL A   1      32.371  22.034  25.055  1.00  0.00    -0.231 N 
ATOM     16  N   UNL A   1      31.068  22.380  25.088  1.00  0.00    -0.149 NA
ATOM     17  C   UNL A   1      33.182  23.118  25.362  1.00  0.00     0.076 A 
ATOM     18  C   UNL A   1      32.330  24.042  25.940  1.00  0.00     0.078 A 
BRANCH  15  19
ATOM     19  C   UNL A   1      32.746  20.679  24.835  1.00  0.00     0.065 A 
ATOM     20  C   UNL A   1      33.484  18.025  24.409  1.00  0.00     0.082 A 
ATOM     21  C   UNL A   1      33.783  18.635  25.629  1.00  0.00     0.024 A 
ATOM     22  C   UNL A   1      32.803  18.726  23.408  1.00  0.00     0.024 A 
ATOM     23  C   UNL A   1      33.422  19.966  25.837  1.00  0.00     0.030 A 
ATOM     24  C   UNL A   1      32.408  20.049  23.632  1.00  0.00     0.030 A 
BRANCH  20  25
ATOM     25  S   UNL A   1      34.002  16.361  24.117  1.00  0.00     0.238 S 
ATOM     26  O   UNL A   1      35.056  16.024  25.043  1.00  0.00    -0.207 OA
ATOM     27  O   UNL A   1      34.118  16.161  22.690  1.00  0.00    -0.207 OA
BRANCH  25  28
ATOM     28  N   UNL A   1      32.674  15.456  24.615  1.00  0.00    -0.225 NA
ATOM     29  H   UNL A   1      32.726  15.302  25.621  1.00  0.00     0.137 HD
ATOM     30  H   UNL A   1      32.674  14.558  24.132  1.00  0.00     0.137 HD
ENDBRANCH  25  28
ENDBRANCH  20  25
ENDBRANCH  15  19
BRANCH  17  31
ATOM     31  C   UNL A   1      34.613  23.156  25.074  1.00  0.00     0.000 A 
ATOM     32  C   UNL A   1      35.523  23.231  26.141  1.00  0.00     0.010 A 
ATOM     33  C   UNL A   1      35.090  23.206  23.762  1.00  0.00     0.010 A 
ATOM     34  C   UNL A   1      36.884  23.407  25.903  1.00  0.00     0.001 A 
ATOM     35  C   UNL A   1      36.457  23.379  23.526  1.00  0.00     0.001 A 
ATOM     36  C   UNL A   1      37.349  23.489  24.594  1.00  0.00     0.000 A 
ENDBRANCH  17  31
ENDBRANCH   9  14
ENDBRANCH   7   8
ENDBRANCH   6   7
ENDBRANCH   5   6
ENDBRANCH   4   5
ENDBRANCH   3   4
ENDBRANCH   2   3
ENDBRANCH   1   2
BRANCH   1  37
ATOM     37  C   UNL A   1      32.231  27.709  26.445  1.00  0.00     0.001 C 
BRANCH  37  38
ATOM     38  C   UNL A   1      31.951  29.118  26.979  1.00  0.00     0.012 C 
BRANCH  38  39
ATOM     39  C   UNL A   1      32.983  30.198  26.631  1.00  0.00     0.123 C 
BRANCH  39  40
ATOM     40  C   UNL A   1      32.789  31.576  27.233  1.00  0.00     0.305 C 
ATOM     41  O   UNL A   1      31.868  32.320  26.916  1.00  0.00    -0.252 OA
BRANCH  40  42
ATOM     42  O   UNL A   1      33.706  31.858  28.194  1.00  0.00    -0.462 OA
BRANCH  42  43
ATOM     43  C   UNL A   1      34.619  32.942  27.952  1.00  0.00     0.274 C 
BRANCH  43  44
ATOM     44  C   UNL A   1      35.003  33.650  29.245  1.00  0.00     0.275 C 
BRANCH  44  45
ATOM     45  O   UNL A   1      36.247  33.160  29.742  1.00  0.00    -0.458 OA
BRANCH  45  46
ATOM     46  C   UNL A   1      36.147  32.029  30.470  1.00  0.00     0.338 C 
ATOM     47  O   UNL A   1      35.493  31.856  31.484  1.00  0.00    -0.246 OA
BRANCH  46  48
ATOM     48  C   UNL A   1      37.114  31.044  29.997  1.00  0.00     0.060 A 
ATOM     49  C   UNL A   1      36.780  29.689  30.091  1.00  0.00     0.016 A 
ATOM     50  C   UNL A   1      38.425  31.479  29.775  1.00  0.00     0.016 A 
ATOM     51  C   UNL A   1      37.803  28.763  30.113  1.00  0.00     0.010 A 
ATOM     52  C   UNL A   1      39.441  30.560  29.821  1.00  0.00     0.010 A 
ATOM     53  C   UNL A   1      39.125  29.223  30.057  1.00  0.00    -0.014 A 
BRANCH  53  54
ATOM     54  C   UNL A   1      40.198  28.259  30.148  1.00  0.00     0.031 A 
ATOM     55  C   UNL A   1      40.817  28.210  31.487  1.00  0.00     0.074 A 
ATOM     56  C   UNL A   1      40.479  27.384  29.163  1.00  0.00     0.049 A 
ATOM     57  N   UNL A   1      42.014  28.562  31.810  1.00  0.00    -0.248 NA
ATOM     58  C   UNL A   1      39.952  27.868  32.629  1.00  0.00     0.031 C 
ATOM     59  C   UNL A   1      39.697  27.144  27.946  1.00  0.00     0.029 A 
ATOM     60  N   UNL A   1      41.447  26.428  29.107  1.00  0.00    -0.354 N 
ATOM     61  C   UNL A   1      42.122  28.284  33.167  1.00  0.00     0.074 A 
ATOM     62  C   UNL A   1      40.787  28.055  33.652  1.00  0.00     0.031 C 
ATOM     63  C   UNL A   1      40.073  25.964  27.406  1.00  0.00     0.029 A 
ATOM     64  C   UNL A   1      41.211  25.451  28.152  1.00  0.00     0.049 A 
ATOM     65  H   UNL A   1      42.241  26.432  29.690  1.00  0.00     0.167 HD
ATOM     66  C   UNL A   1      43.320  27.939  33.709  1.00  0.00     0.031 A 
ATOM     67  C   UNL A   1      41.865  24.272  28.029  1.00  0.00     0.031 A 
ATOM     68  C   UNL A   1      44.408  28.213  32.808  1.00  0.00     0.049 A 
ATOM     69  C   UNL A   1      43.170  24.399  28.714  1.00  0.00     0.074 A 
ATOM     70  C   UNL A   1      45.094  29.318  32.361  1.00  0.00     0.029 A 
ATOM     71  N   UNL A   1      44.665  27.188  31.936  1.00  0.00    -0.354 N 
ATOM     72  N   UNL A   1      44.121  25.187  28.303  1.00  0.00    -0.248 NA
ATOM     73  C   UNL A   1      43.326  23.891  30.073  1.00  0.00     0.031 C 
ATOM     74  C   UNL A   1      45.623  28.964  31.084  1.00  0.00     0.029 A 
ATOM     75  C   UNL A   1      45.271  27.645  30.799  1.00  0.00     0.049 A 
ATOM     76  H   UNL A   1      44.442  26.244  32.106  1.00  0.00     0.167 HD
ATOM     77  C   UNL A   1      44.733  25.619  29.464  1.00  0.00     0.074 A 
ATOM     78  C   UNL A   1      44.340  24.658  30.484  1.00  0.00     0.031 C 
ATOM     79  C   UNL A   1      45.225  26.888  29.564  1.00  0.00     0.031 A 
BRANCH  66  80
ATOM     80  C   UNL A   1      43.463  26.879  34.776  1.00  0.00    -0.014 A 
ATOM     81  C   UNL A   1      44.285  27.155  35.882  1.00  0.00     0.009 A 
ATOM     82  C   UNL A   1      43.089  25.535  34.585  1.00  0.00     0.009 A 
ATOM     83  C   UNL A   1      44.747  26.132  36.720  1.00  0.00     0.001 A 
ATOM     84  C   UNL A   1      43.516  24.516  35.440  1.00  0.00     0.001 A 
ATOM     85  C   UNL A   1      44.366  24.813  36.495  1.00  0.00     0.000 A 
ENDBRANCH  66  80
BRANCH  67  86
ATOM     86  C   UNL A   1      41.341  22.966  27.576  1.00  0.00    -0.014 A 
ATOM     87  C   UNL A   1      41.034  22.749  26.224  1.00  0.00     0.009 A 
ATOM     88  C   UNL A   1      41.409  21.845  28.423  1.00  0.00     0.009 A 
ATOM     89  C   UNL A   1      40.854  21.452  25.727  1.00  0.00     0.001 A 
ATOM     90  C   UNL A   1      41.225  20.551  27.928  1.00  0.00     0.001 A 
ATOM     91  C   UNL A   1      40.966  20.352  26.577  1.00  0.00     0.000 A 
ENDBRANCH  67  86
BRANCH  79  92
ATOM     92  C   UNL A   1      45.560  27.605  28.287  1.00  0.00    -0.014 A 
ATOM     93  C   UNL A   1      46.739  27.389  27.557  1.00  0.00     0.009 A 
ATOM     94  C   UNL A   1      44.601  28.488  27.768  1.00  0.00     0.009 A 
ATOM     95  C   UNL A   1      46.963  28.067  26.354  1.00  0.00     0.001 A 
ATOM     96  C   UNL A   1      44.815  29.145  26.556  1.00  0.00     0.001 A 
ATOM     97  C   UNL A   1      45.999  28.941  25.853  1.00  0.00     0.000 A 
ENDBRANCH  79  92
ENDBRANCH  53  54
ENDBRANCH  46  48
ENDBRANCH  45  46
ENDBRANCH  44  45
ENDBRANCH  43  44
ENDBRANCH  42  43
ENDBRANCH  40  42
ENDBRANCH  39  40
ENDBRANCH  38  39
ENDBRANCH  37  38
ENDBRANCH   1  37
TORSDOF 26
ENDMDL
MODEL 2
REMARK VINA RESULT:      -9.1      4.362      9.804
REMARK SMILES NS(=O)(=O)c1ccc(-n2nc(NC(=O)NCCCCCCCCCCC(=O)OCCOC(=O)c3ccc(-c4c5nc(c(-c6ccccc6)c6ccc([nH]6)c(-c6ccccc6)c6nc(c(-c7ccccc7)c7ccc4[nH]7)C=C6)C=C5)cc3)cc2-c2ccccc2)cc1
REMARK SMILES IDX 22 1 21 2 20 3 19 4 18 5 17 6 16 7 15 8 12 9 13 10 14 12
REMARK SMILES IDX 11 14 9 15 10 16 83 17 82 18 8 19 5 20 6 21 91 22 7 23 90 24
REMARK SMILES IDX 2 25 3 26 4 27 1 28 84 31 85 32 89 33 86 34 88 35 87 36
REMARK SMILES IDX 23 37 24 38 25 39 26 40 27 41 28 42 29 43 30 44 31 45 32 46
REMARK SMILES IDX 33 47 34 48 35 49 81 50 36 51 80 52 37 53 38 54 39 55 74 56
REMARK SMILES IDX 40 57 79 58 73 59 75 60 41 61 78 62 72 63 71 64 42 66 64 67
REMARK SMILES IDX 49 68 63 69 50 70 53 71 62 72 76 73 51 74 52 75 61 77 77 78
REMARK SMILES IDX 54 79 43 80 44 81 48 82 45 83 47 84 46 85 65 86 66 87 70 88
REMARK SMILES IDX 67 89 69 90 68 91 55 92 56 93 60 94 57 95 59 96 58 97
REMARK H PARENT 12 11 15 13 1 29 1 30 75 65 53 76
REMARK Flexibility Score: inf
ROOT
ATOM      1  C   UNL A   1      36.185  23.555  24.511  1.00  0.00     0.000 C 
ENDROOT
BRANCH   1   2
ATOM      2  C   UNL A   1      36.707  23.491  25.941  1.00  0.00     0.000 C 
BRANCH   2   3
ATOM      3  C   UNL A   1      38.233  23.456  26.025  1.00  0.00     0.000 C 
BRANCH   3   4
ATOM      4  C   UNL A   1      38.867  24.622  26.791  1.00  0.00     0.000 C 
BRANCH   4   5
ATOM      5  C   UNL A   1      40.057  24.234  27.677  1.00  0.00     0.002 C 
BRANCH   5   6
ATOM      6  C   UNL A   1      41.426  24.290  26.997  1.00  0.00     0.021 C 
BRANCH   6   7
ATOM      7  C   UNL A   1      42.141  25.630  27.095  1.00  0.00     0.117 C 
BRANCH   7   8
ATOM      8  N   UNL A   1      41.474  26.725  26.431  1.00  0.00    -0.338 N 
ATOM      9  N   UNL A   1      43.325  27.986  25.620  1.00  0.00    -0.291 N 
ATOM     10  C   UNL A   1      41.999  27.799  25.803  1.00  0.00     0.320 C 
ATOM     11  H   UNL A   1      43.582  28.927  25.482  1.00  0.00     0.173 HD
ATOM     12  O   UNL A   1      41.226  28.707  25.479  1.00  0.00    -0.248 OA
ATOM     13  H   UNL A   1      40.490  26.682  26.436  1.00  0.00     0.165 HD
BRANCH   9  14
ATOM     14  C   UNL A   1      44.384  27.106  25.594  1.00  0.00     0.157 A 
ATOM     15  N   UNL A   1      45.459  25.290  25.424  1.00  0.00    -0.231 N 
ATOM     16  N   UNL A   1      44.448  25.989  24.869  1.00  0.00    -0.149 NA
ATOM     17  C   UNL A   1      46.311  26.125  26.134  1.00  0.00     0.076 A 
ATOM     18  C   UNL A   1      45.595  27.297  26.302  1.00  0.00     0.078 A 
BRANCH  15  19
ATOM     19  C   UNL A   1      45.486  23.871  25.327  1.00  0.00     0.065 A 
ATOM     20  C   UNL A   1      45.544  21.090  25.134  1.00  0.00     0.082 A 
ATOM     21  C   UNL A   1      46.414  21.852  24.352  1.00  0.00     0.024 A 
ATOM     22  C   UNL A   1      44.659  21.706  26.025  1.00  0.00     0.024 A 
ATOM     23  C   UNL A   1      46.378  23.244  24.443  1.00  0.00     0.030 A 
ATOM     24  C   UNL A   1      44.649  23.100  26.142  1.00  0.00     0.030 A 
BRANCH  20  25
ATOM     25  S   UNL A   1      45.540  19.331  24.971  1.00  0.00     0.238 S 
ATOM     26  O   UNL A   1      44.262  18.818  25.402  1.00  0.00    -0.207 OA
ATOM     27  O   UNL A   1      46.798  18.822  25.469  1.00  0.00    -0.207 OA
BRANCH  25  28
ATOM     28  N   UNL A   1      45.564  19.103  23.304  1.00  0.00    -0.225 NA
ATOM     29  H   UNL A   1      46.311  19.664  22.895  1.00  0.00     0.137 HD
ATOM     30  H   UNL A   1      44.669  19.389  22.908  1.00  0.00     0.137 HD
ENDBRANCH  25  28
ENDBRANCH  20  25
ENDBRANCH  15  19
BRANCH  17  31
ATOM     31  C   UNL A   1      47.657  25.736  26.545  1.00  0.00     0.000 A 
ATOM     32  C   UNL A   1      47.861  25.258  27.849  1.00  0.00     0.010 A 
ATOM     33  C   UNL A   1      48.755  25.910  25.699  1.00  0.00     0.010 A 
ATOM     34  C   UNL A   1      49.148  25.008  28.320  1.00  0.00     0.001 A 
ATOM     35  C   UNL A   1      50.045  25.655  26.173  1.00  0.00     0.001 A 
ATOM     36  C   UNL A   1      50.241  25.214  27.483  1.00  0.00     0.000 A 
ENDBRANCH  17  31
ENDBRANCH   9  14
ENDBRANCH   7   8
ENDBRANCH   6   7
ENDBRANCH   5   6
ENDBRANCH   4   5
ENDBRANCH   3   4
ENDBRANCH   2   3
ENDBRANCH   1   2
BRANCH   1  37
ATOM     37  C   UNL A   1      34.721  23.987  24.444  1.00  0.00     0.001 C 
BRANCH  37  38
ATOM     38  C   UNL A   1      34.154  24.412  25.803  1.00  0.00     0.012 C 
BRANCH  38  39
ATOM     39  C   UNL A   1      32.706  24.917  25.812  1.00  0.00     0.123 C 
BRANCH  39  40
ATOM     40  C   UNL A   1      32.347  26.037  24.854  1.00  0.00     0.305 C 
ATOM     41  O   UNL A   1      31.404  25.970  24.073  1.00  0.00    -0.252 OA
BRANCH  40  42
ATOM     42  O   UNL A   1      33.142  27.127  25.004  1.00  0.00    -0.462 OA
BRANCH  42  43
ATOM     43  C   UNL A   1      32.506  28.389  25.267  1.00  0.00     0.274 C 
BRANCH  43  44
ATOM     44  C   UNL A   1      32.684  28.813  26.720  1.00  0.00     0.275 C 
BRANCH  44  45
ATOM     45  O   UNL A   1      34.065  28.987  27.032  1.00  0.00    -0.458 OA
BRANCH  45  46
ATOM     46  C   UNL A   1      34.345  30.125  27.701  1.00  0.00     0.338 C 
ATOM     47  O   UNL A   1      33.740  31.181  27.650  1.00  0.00    -0.246 OA
BRANCH  46  48
ATOM     48  C   UNL A   1      35.633  30.004  28.375  1.00  0.00     0.060 A 
ATOM     49  C   UNL A   1      35.695  30.282  29.744  1.00  0.00     0.016 A 
ATOM     50  C   UNL A   1      36.777  29.929  27.573  1.00  0.00     0.016 A 
ATOM     51  C   UNL A   1      36.912  30.640  30.285  1.00  0.00     0.010 A 
ATOM     52  C   UNL A   1      37.983  30.308  28.108  1.00  0.00     0.010 A 
ATOM     53  C   UNL A   1      38.024  30.724  29.437  1.00  0.00    -0.014 A 
BRANCH  53  54
ATOM     54  C   UNL A   1      39.285  31.164  29.991  1.00  0.00     0.031 A 
ATOM     55  C   UNL A   1      40.173  30.046  30.363  1.00  0.00     0.074 A 
ATOM     56  C   UNL A   1      39.666  32.456  30.002  1.00  0.00     0.049 A 
ATOM     57  N   UNL A   1      40.545  29.701  31.548  1.00  0.00    -0.248 NA
ATOM     58  C   UNL A   1      40.575  29.109  29.301  1.00  0.00     0.031 C 
ATOM     59  C   UNL A   1      38.991  33.581  29.348  1.00  0.00     0.029 A 
ATOM     60  N   UNL A   1      40.811  33.014  30.483  1.00  0.00    -0.354 N 
ATOM     61  C   UNL A   1      41.405  28.626  31.362  1.00  0.00     0.074 A 
ATOM     62  C   UNL A   1      41.229  28.184  30.004  1.00  0.00     0.031 C 
ATOM     63  C   UNL A   1      39.850  34.622  29.262  1.00  0.00     0.029 A 
ATOM     64  C   UNL A   1      41.067  34.282  29.982  1.00  0.00     0.049 A 
ATOM     65  H   UNL A   1      41.401  32.560  31.128  1.00  0.00     0.167 HD
ATOM     66  C   UNL A   1      42.425  28.398  32.231  1.00  0.00     0.031 A 
ATOM     67  C   UNL A   1      42.226  34.973  30.095  1.00  0.00     0.031 A 
ATOM     68  C   UNL A   1      42.277  29.170  33.436  1.00  0.00     0.049 A 
ATOM     69  C   UNL A   1      42.981  34.415  31.239  1.00  0.00     0.074 A 
ATOM     70  C   UNL A   1      41.499  29.131  34.569  1.00  0.00     0.029 A 
ATOM     71  N   UNL A   1      42.817  30.426  33.349  1.00  0.00    -0.354 N 
ATOM     72  N   UNL A   1      42.582  34.510  32.474  1.00  0.00    -0.248 NA
ATOM     73  C   UNL A   1      44.043  33.445  31.001  1.00  0.00     0.031 C 
ATOM     74  C   UNL A   1      41.446  30.472  35.056  1.00  0.00     0.029 A 
ATOM     75  C   UNL A   1      42.216  31.286  34.225  1.00  0.00     0.049 A 
ATOM     76  H   UNL A   1      43.544  30.677  32.733  1.00  0.00     0.167 HD
ATOM     77  C   UNL A   1      43.008  33.334  33.062  1.00  0.00     0.074 A 
ATOM     78  C   UNL A   1      44.048  32.821  32.182  1.00  0.00     0.031 C 
ATOM     79  C   UNL A   1      42.256  32.720  34.021  1.00  0.00     0.031 A 
BRANCH  66  80
ATOM     80  C   UNL A   1      43.792  27.932  31.787  1.00  0.00    -0.014 A 
ATOM     81  C   UNL A   1      44.525  28.755  30.914  1.00  0.00     0.009 A 
ATOM     82  C   UNL A   1      44.241  26.605  31.931  1.00  0.00     0.009 A 
ATOM     83  C   UNL A   1      45.616  28.260  30.190  1.00  0.00     0.001 A 
ATOM     84  C   UNL A   1      45.352  26.117  31.240  1.00  0.00     0.001 A 
ATOM     85  C   UNL A   1      46.025  26.939  30.349  1.00  0.00     0.000 A 
ENDBRANCH  66  80
BRANCH  67  86
ATOM     86  C   UNL A   1      42.839  35.915  29.136  1.00  0.00    -0.014 A 
ATOM     87  C   UNL A   1      42.773  35.673  27.755  1.00  0.00     0.009 A 
ATOM     88  C   UNL A   1      43.241  37.195  29.560  1.00  0.00     0.009 A 
ATOM     89  C   UNL A   1      43.049  36.690  26.833  1.00  0.00     0.001 A 
ATOM     90  C   UNL A   1      43.521  38.209  28.639  1.00  0.00     0.001 A 
ATOM     91  C   UNL A   1      43.407  37.962  27.276  1.00  0.00     0.000 A 
ENDBRANCH  67  86
BRANCH  79  92
ATOM     92  C   UNL A   1      41.273  33.565  34.779  1.00  0.00    -0.014 A 
ATOM     93  C   UNL A   1      39.890  33.564  34.533  1.00  0.00     0.009 A 
ATOM     94  C   UNL A   1      41.766  34.345  35.836  1.00  0.00     0.009 A 
ATOM     95  C   UNL A   1      39.031  34.351  35.308  1.00  0.00     0.001 A 
ATOM     96  C   UNL A   1      40.905  35.110  36.623  1.00  0.00     0.001 A 
ATOM     97  C   UNL A   1      39.539  35.120  36.354  1.00  0.00     0.000 A 
ENDBRANCH  79  92
ENDBRANCH  53  54
ENDBRANCH  46  48
ENDBRANCH  45  46
ENDBRANCH  44  45
ENDBRANCH  43  44
ENDBRANCH  42  43
ENDBRANCH  40  42
ENDBRANCH  39  40
ENDBRANCH  38  39
ENDBRANCH  37  38
ENDBRANCH   1  37
TORSDOF 26
ENDMDL
MODEL 3
REMARK VINA RESULT:      -8.9      4.573      9.516
REMARK SMILES NS(=O)(=O)c1ccc(-n2nc(NC(=O)NCCCCCCCCCCC(=O)OCCOC(=O)c3ccc(-c4c5nc(c(-c6ccccc6)c6ccc([nH]6)c(-c6ccccc6)c6nc(c(-c7ccccc7)c7ccc4[nH]7)C=C6)C=C5)cc3)cc2-c2ccccc2)cc1
REMARK SMILES IDX 22 1 21 2 20 3 19 4 18 5 17 6 16 7 15 8 12 9 13 10 14 12
REMARK SMILES IDX 11 14 9 15 10 16 83 17 82 18 8 19 5 20 6 21 91 22 7 23 90 24
REMARK SMILES IDX 2 25 3 26 4 27 1 28 84 31 85 32 89 33 86 34 88 35 87 36
REMARK SMILES IDX 23 37 24 38 25 39 26 40 27 41 28 42 29 43 30 44 31 45 32 46
REMARK SMILES IDX 33 47 34 48 35 49 81 50 36 51 80 52 37 53 38 54 39 55 74 56
REMARK SMILES IDX 40 57 79 58 73 59 75 60 41 61 78 62 72 63 71 64 42 66 64 67
REMARK SMILES IDX 49 68 63 69 50 70 53 71 62 72 76 73 51 74 52 75 61 77 77 78
REMARK SMILES IDX 54 79 43 80 44 81 48 82 45 83 47 84 46 85 65 86 66 87 70 88
REMARK SMILES IDX 67 89 69 90 68 91 55 92 56 93 60 94 57 95 59 96 58 97
REMARK H PARENT 12 11 15 13 1 29 1 30 75 65 53 76
REMARK Flexibility Score: inf
ROOT
ATOM      1  C   UNL A   1      42.695  25.772  26.420  1.00  0.00     0.000 C 
ENDROOT
BRANCH   1   2
ATOM      2  C   UNL A   1      42.194  24.614  27.275  1.00  0.00     0.000 C 
BRANCH   2   3
ATOM      3  C   UNL A   1      41.363  25.068  28.475  1.00  0.00     0.000 C 
BRANCH   3   4
ATOM      4  C   UNL A   1      39.873  25.280  28.187  1.00  0.00     0.000 C 
BRANCH   4   5
ATOM      5  C   UNL A   1      39.474  25.108  26.716  1.00  0.00     0.002 C 
BRANCH   5   6
ATOM      6  C   UNL A   1      38.267  24.202  26.467  1.00  0.00     0.021 C 
BRANCH   6   7
ATOM      7  C   UNL A   1      38.537  22.712  26.619  1.00  0.00     0.117 C 
BRANCH   7   8
ATOM      8  N   UNL A   1      39.869  22.295  26.248  1.00  0.00    -0.338 N 
ATOM      9  N   UNL A   1      39.463  20.099  25.417  1.00  0.00    -0.291 N 
ATOM     10  C   UNL A   1      40.293  21.115  25.746  1.00  0.00     0.320 C 
ATOM     11  H   UNL A   1      39.897  19.215  25.407  1.00  0.00     0.173 HD
ATOM     12  O   UNL A   1      41.512  20.922  25.688  1.00  0.00    -0.248 OA
ATOM     13  H   UNL A   1      40.573  22.970  26.380  1.00  0.00     0.165 HD
BRANCH   9  14
ATOM     14  C   UNL A   1      38.125  20.070  25.098  1.00  0.00     0.157 A 
ATOM     15  N   UNL A   1      36.121  20.710  24.862  1.00  0.00    -0.231 N 
ATOM     16  N   UNL A   1      37.397  21.116  24.705  1.00  0.00    -0.149 NA
ATOM     17  C   UNL A   1      36.036  19.325  24.875  1.00  0.00     0.076 A 
ATOM     18  C   UNL A   1      37.334  18.896  25.087  1.00  0.00     0.078 A 
BRANCH  15  19
ATOM     19  C   UNL A   1      35.089  21.664  25.091  1.00  0.00     0.065 A 
ATOM     20  C   UNL A   1      33.070  23.532  25.544  1.00  0.00     0.082 A 
ATOM     21  C   UNL A   1      33.823  23.059  26.620  1.00  0.00     0.024 A 
ATOM     22  C   UNL A   1      33.330  23.092  24.242  1.00  0.00     0.024 A 
ATOM     23  C   UNL A   1      34.827  22.117  26.393  1.00  0.00     0.030 A 
ATOM     24  C   UNL A   1      34.361  22.176  24.010  1.00  0.00     0.030 A 
BRANCH  20  25
ATOM     25  S   UNL A   1      31.752  24.672  25.837  1.00  0.00     0.238 S 
ATOM     26  O   UNL A   1      32.136  25.974  25.349  1.00  0.00    -0.207 OA
ATOM     27  O   UNL A   1      31.247  24.453  27.174  1.00  0.00    -0.207 OA
BRANCH  25  28
ATOM     28  N   UNL A   1      30.551  24.144  24.785  1.00  0.00    -0.225 NA
ATOM     29  H   UNL A   1      30.879  23.323  24.277  1.00  0.00     0.137 HD
ATOM     30  H   UNL A   1      30.328  24.888  24.123  1.00  0.00     0.137 HD
ENDBRANCH  25  28
ENDBRANCH  20  25
ENDBRANCH  15  19
BRANCH  17  31
ATOM     31  C   UNL A   1      34.786  18.596  24.681  1.00  0.00     0.000 A 
ATOM     32  C   UNL A   1      33.686  18.896  25.500  1.00  0.00     0.010 A 
ATOM     33  C   UNL A   1      34.689  17.550  23.759  1.00  0.00     0.010 A 
ATOM     34  C   UNL A   1      32.524  18.130  25.437  1.00  0.00     0.001 A 
ATOM     35  C   UNL A   1      33.521  16.786  23.696  1.00  0.00     0.001 A 
ATOM     36  C   UNL A   1      32.446  17.069  24.539  1.00  0.00     0.000 A 
ENDBRANCH  17  31
ENDBRANCH   9  14
ENDBRANCH   7   8
ENDBRANCH   6   7
ENDBRANCH   5   6
ENDBRANCH   4   5
ENDBRANCH   3   4
ENDBRANCH   2   3
ENDBRANCH   1   2
BRANCH   1  37
ATOM     37  C   UNL A   1      43.014  25.344  24.988  1.00  0.00     0.001 C 
BRANCH  37  38
ATOM     38  C   UNL A   1      43.601  23.931  24.897  1.00  0.00     0.012 C 
BRANCH  38  39
ATOM     39  C   UNL A   1      45.130  23.829  24.840  1.00  0.00     0.123 C 
BRANCH  39  40
ATOM     40  C   UNL A   1      45.828  23.093  25.968  1.00  0.00     0.305 C 
ATOM     41  O   UNL A   1      46.189  21.925  25.879  1.00  0.00    -0.252 OA
BRANCH  40  42
ATOM     42  O   UNL A   1      46.057  23.886  27.046  1.00  0.00    -0.462 OA
BRANCH  42  43
ATOM     43  C   UNL A   1      46.614  25.190  26.812  1.00  0.00     0.274 C 
BRANCH  43  44
ATOM     44  C   UNL A   1      46.556  26.056  28.065  1.00  0.00     0.275 C 
BRANCH  44  45
ATOM     45  O   UNL A   1      46.339  25.256  29.225  1.00  0.00    -0.458 OA
BRANCH  45  46
ATOM     46  C   UNL A   1      45.093  25.343  29.736  1.00  0.00     0.338 C 
ATOM     47  O   UNL A   1      44.324  24.428  29.970  1.00  0.00    -0.246 OA
BRANCH  46  48
ATOM     48  C   UNL A   1      44.674  26.740  29.793  1.00  0.00     0.060 A 
ATOM     49  C   UNL A   1      44.337  27.280  31.038  1.00  0.00     0.016 A 
ATOM     50  C   UNL A   1      44.330  27.361  28.588  1.00  0.00     0.016 A 
ATOM     51  C   UNL A   1      43.510  28.384  31.069  1.00  0.00     0.010 A 
ATOM     52  C   UNL A   1      43.489  28.444  28.621  1.00  0.00     0.010 A 
ATOM     53  C   UNL A   1      43.035  28.901  29.857  1.00  0.00    -0.014 A 
BRANCH  53  54
ATOM     54  C   UNL A   1      42.115  30.016  29.893  1.00  0.00     0.031 A 
ATOM     55  C   UNL A   1      42.777  31.316  29.674  1.00  0.00     0.074 A 
ATOM     56  C   UNL A   1      40.779  29.858  29.950  1.00  0.00     0.049 A 
ATOM     57  N   UNL A   1      42.917  32.278  30.521  1.00  0.00    -0.248 NA
ATOM     58  C   UNL A   1      43.500  31.511  28.406  1.00  0.00     0.031 C 
ATOM     59  C   UNL A   1      40.032  28.602  29.829  1.00  0.00     0.029 A 
ATOM     60  N   UNL A   1      39.799  30.803  29.989  1.00  0.00    -0.354 N 
ATOM     61  C   UNL A   1      43.563  33.288  29.822  1.00  0.00     0.074 A 
ATOM     62  C   UNL A   1      44.070  32.699  28.612  1.00  0.00     0.031 C 
ATOM     63  C   UNL A   1      38.738  28.882  29.559  1.00  0.00     0.029 A 
ATOM     64  C   UNL A   1      38.546  30.322  29.637  1.00  0.00     0.049 A 
ATOM     65  H   UNL A   1      39.964  31.739  30.245  1.00  0.00     0.167 HD
ATOM     66  C   UNL A   1      43.345  34.594  30.134  1.00  0.00     0.031 A 
ATOM     67  C   UNL A   1      37.447  31.064  29.363  1.00  0.00     0.031 A 
ATOM     68  C   UNL A   1      42.669  34.731  31.396  1.00  0.00     0.049 A 
ATOM     69  C   UNL A   1      37.631  32.396  29.978  1.00  0.00     0.074 A 
ATOM     70  C   UNL A   1      42.988  34.619  32.729  1.00  0.00     0.029 A 
ATOM     71  N   UNL A   1      41.303  34.672  31.293  1.00  0.00    -0.354 N 
ATOM     72  N   UNL A   1      37.675  32.591  31.264  1.00  0.00    -0.248 NA
ATOM     73  C   UNL A   1      38.101  33.511  29.164  1.00  0.00     0.031 C 
ATOM     74  C   UNL A   1      41.769  34.303  33.401  1.00  0.00     0.029 A 
ATOM     75  C   UNL A   1      40.735  34.260  32.466  1.00  0.00     0.049 A 
ATOM     76  H   UNL A   1      40.797  34.896  30.478  1.00  0.00     0.167 HD
ATOM     77  C   UNL A   1      38.569  33.633  31.422  1.00  0.00     0.074 A 
ATOM     78  C   UNL A   1      38.644  34.273  30.118  1.00  0.00     0.031 C 
ATOM     79  C   UNL A   1      39.409  33.676  32.496  1.00  0.00     0.031 A 
BRANCH  66  80
ATOM     80  C   UNL A   1      43.236  35.680  29.089  1.00  0.00    -0.014 A 
ATOM     81  C   UNL A   1      43.825  36.926  29.360  1.00  0.00     0.009 A 
ATOM     82  C   UNL A   1      42.325  35.630  28.015  1.00  0.00     0.009 A 
ATOM     83  C   UNL A   1      43.482  38.069  28.627  1.00  0.00     0.001 A 
ATOM     84  C   UNL A   1      42.009  36.760  27.257  1.00  0.00     0.001 A 
ATOM     85  C   UNL A   1      42.570  37.986  27.580  1.00  0.00     0.000 A 
ENDBRANCH  66  80
BRANCH  67  86
ATOM     86  C   UNL A   1      36.362  30.788  28.399  1.00  0.00    -0.014 A 
ATOM     87  C   UNL A   1      36.279  29.546  27.751  1.00  0.00     0.009 A 
ATOM     88  C   UNL A   1      35.245  31.641  28.328  1.00  0.00     0.009 A 
ATOM     89  C   UNL A   1      35.103  29.150  27.101  1.00  0.00     0.001 A 
ATOM     90  C   UNL A   1      34.074  31.249  27.674  1.00  0.00     0.001 A 
ATOM     91  C   UNL A   1      33.996  29.996  27.078  1.00  0.00     0.000 A 
ENDBRANCH  67  86
BRANCH  79  92
ATOM     92  C   UNL A   1      39.010  32.904  33.721  1.00  0.00    -0.014 A 
ATOM     93  C   UNL A   1      37.939  33.263  34.556  1.00  0.00     0.009 A 
ATOM     94  C   UNL A   1      39.710  31.720  34.000  1.00  0.00     0.009 A 
ATOM     95  C   UNL A   1      37.602  32.471  35.659  1.00  0.00     0.001 A 
ATOM     96  C   UNL A   1      39.357  30.918  35.086  1.00  0.00     0.001 A 
ATOM     97  C   UNL A   1      38.309  31.298  35.920  1.00  0.00     0.000 A 
ENDBRANCH  79  92
ENDBRANCH  53  54
ENDBRANCH  46  48
ENDBRANCH  45  46
ENDBRANCH  44  45
ENDBRANCH  43  44
ENDBRANCH  42  43
ENDBRANCH  40  42
ENDBRANCH  39  40
ENDBRANCH  38  39
ENDBRANCH  37  38
ENDBRANCH   1  37
TORSDOF 26
ENDMDL
