MODEL 1
REMARK VINA RESULT:     -11.2      0.000      0.000
REMARK SMILES COc1cccc(NC(=O)[C@@H]2[C@@H](C(=O)OCCOC(=O)c3ccc(-c4c5nc(c(-c6ccccc6)c6ccc([nH]6)c(-c6ccccc6)c6nc(c(-c7ccccc7)c7ccc4[nH]7)C=C6)C=C5)cc3)[C@H]3C=C[C@@H]2C3)c1
REMARK SMILES IDX 16 1 15 2 13 3 14 4 12 5 11 6 72 7 69 8 71 9 73 10 70 11
REMARK SMILES IDX 9 12 8 13 10 15 7 16 3 17 4 18 74 19 5 20 6 21 2 22 1 23
REMARK SMILES IDX 17 24 18 25 19 26 20 27 21 28 22 29 68 30 23 31 67 32 24 33
REMARK SMILES IDX 25 34 26 35 61 36 27 37 66 38 60 39 62 40 28 41 65 42 59 43
REMARK SMILES IDX 58 44 29 46 51 47 36 48 50 49 37 50 40 51 49 52 63 53 38 54
REMARK SMILES IDX 39 55 48 57 64 58 41 59 30 60 31 61 35 62 32 63 34 64 33 65
REMARK SMILES IDX 52 66 53 67 57 68 54 69 56 70 55 71 42 72 43 73 47 74 44 75
REMARK SMILES IDX 46 76 45 77
REMARK H PARENT 8 14 62 45 40 56
REMARK Flexibility Score: inf
ROOT
ATOM      1  C   UNL A   1      38.148  21.295  25.004  1.00  0.00     0.274 C 
ENDROOT
BRANCH   1   2
ATOM      2  O   UNL A   1      36.952  21.551  25.769  1.00  0.00    -0.462 OA
BRANCH   2   3
ATOM      3  C   UNL A   1      36.712  22.859  26.025  1.00  0.00     0.310 C 
ATOM      4  O   UNL A   1      37.588  23.716  26.051  1.00  0.00    -0.252 OA
BRANCH   3   5
ATOM      5  C   UNL A   1      35.257  23.217  26.163  1.00  0.00     0.119 C 
ATOM      6  C   UNL A   1      34.303  22.144  25.546  1.00  0.00     0.100 C 
ATOM      7  C   UNL A   1      33.237  23.052  24.856  1.00  0.00     0.025 C 
ATOM      8  C   UNL A   1      34.771  24.537  25.528  1.00  0.00     0.027 C 
ATOM      9  C   UNL A   1      33.906  23.599  23.611  1.00  0.00    -0.027 C 
ATOM     10  C   UNL A   1      33.259  24.340  25.693  1.00  0.00     0.017 C 
ATOM     11  C   UNL A   1      34.840  24.472  24.018  1.00  0.00    -0.027 C 
BRANCH   6  12
ATOM     12  C   UNL A   1      33.690  21.254  26.611  1.00  0.00     0.228 C 
ATOM     13  N   UNL A   1      33.198  20.003  26.389  1.00  0.00    -0.326 N 
ATOM     14  H   UNL A   1      32.905  19.580  27.228  1.00  0.00     0.169 HD
ATOM     15  O   UNL A   1      33.669  21.634  27.790  1.00  0.00    -0.274 OA
BRANCH  13  16
ATOM     16  C   UNL A   1      32.993  19.146  25.286  1.00  0.00     0.044 A 
ATOM     17  C   UNL A   1      33.208  16.857  24.454  1.00  0.00     0.120 A 
ATOM     18  C   UNL A   1      32.818  17.259  23.185  1.00  0.00     0.046 A 
ATOM     19  C   UNL A   1      33.310  17.790  25.494  1.00  0.00     0.072 A 
ATOM     20  C   UNL A   1      32.458  18.584  22.977  1.00  0.00     0.006 A 
ATOM     21  C   UNL A   1      32.523  19.511  24.027  1.00  0.00     0.026 A 
BRANCH  17  22
ATOM     22  O   UNL A   1      33.561  15.544  24.608  1.00  0.00    -0.497 OA
ATOM     23  C   UNL A   1      32.632  14.837  25.429  1.00  0.00     0.278 C 
ENDBRANCH  17  22
ENDBRANCH  13  16
ENDBRANCH   6  12
ENDBRANCH   3   5
ENDBRANCH   2   3
ENDBRANCH   1   2
BRANCH   1  24
ATOM     24  C   UNL A   1      38.650  19.854  25.167  1.00  0.00     0.275 C 
BRANCH  24  25
ATOM     25  O   UNL A   1      39.446  19.662  26.354  1.00  0.00    -0.458 OA
BRANCH  25  26
ATOM     26  C   UNL A   1      40.784  19.722  26.169  1.00  0.00     0.338 C 
ATOM     27  O   UNL A   1      41.484  18.892  25.600  1.00  0.00    -0.246 OA
BRANCH  26  28
ATOM     28  C   UNL A   1      41.318  21.015  26.631  1.00  0.00     0.060 A 
ATOM     29  C   UNL A   1      41.156  21.340  27.980  1.00  0.00     0.016 A 
ATOM     30  C   UNL A   1      41.888  21.937  25.751  1.00  0.00     0.016 A 
ATOM     31  C   UNL A   1      41.547  22.581  28.463  1.00  0.00     0.010 A 
ATOM     32  C   UNL A   1      42.281  23.191  26.235  1.00  0.00     0.010 A 
ATOM     33  C   UNL A   1      42.100  23.521  27.590  1.00  0.00    -0.014 A 
BRANCH  33  34
ATOM     34  C   UNL A   1      42.432  24.867  28.106  1.00  0.00     0.031 A 
ATOM     35  C   UNL A   1      43.854  25.205  28.444  1.00  0.00     0.074 A 
ATOM     36  C   UNL A   1      41.466  25.796  28.214  1.00  0.00     0.049 A 
ATOM     37  N   UNL A   1      44.342  26.306  28.956  1.00  0.00    -0.248 NA
ATOM     38  C   UNL A   1      44.861  24.168  28.167  1.00  0.00     0.031 C 
ATOM     39  C   UNL A   1      40.063  25.602  27.849  1.00  0.00     0.029 A 
ATOM     40  N   UNL A   1      41.523  27.092  28.659  1.00  0.00    -0.354 N 
ATOM     41  C   UNL A   1      45.708  26.090  29.080  1.00  0.00     0.074 A 
ATOM     42  C   UNL A   1      45.970  24.748  28.603  1.00  0.00     0.031 C 
ATOM     43  C   UNL A   1      39.391  26.742  28.083  1.00  0.00     0.029 A 
ATOM     44  C   UNL A   1      40.305  27.725  28.656  1.00  0.00     0.049 A 
ATOM     45  H   UNL A   1      42.357  27.525  28.952  1.00  0.00     0.167 HD
ATOM     46  C   UNL A   1      46.656  26.933  29.551  1.00  0.00     0.031 A 
ATOM     47  C   UNL A   1      39.963  28.949  29.098  1.00  0.00     0.031 A 
ATOM     48  C   UNL A   1      46.389  28.263  30.030  1.00  0.00     0.049 A 
ATOM     49  C   UNL A   1      41.019  29.833  29.701  1.00  0.00     0.074 A 
ATOM     50  C   UNL A   1      47.279  29.196  30.534  1.00  0.00     0.029 A 
ATOM     51  N   UNL A   1      45.133  28.849  30.066  1.00  0.00    -0.354 N 
ATOM     52  N   UNL A   1      42.306  29.613  29.829  1.00  0.00    -0.248 NA
ATOM     53  C   UNL A   1      40.574  31.130  30.226  1.00  0.00     0.031 C 
ATOM     54  C   UNL A   1      46.554  30.328  30.919  1.00  0.00     0.029 A 
ATOM     55  C   UNL A   1      45.220  30.121  30.607  1.00  0.00     0.049 A 
ATOM     56  H   UNL A   1      44.301  28.424  29.754  1.00  0.00     0.167 HD
ATOM     57  C   UNL A   1      42.826  30.750  30.434  1.00  0.00     0.074 A 
ATOM     58  C   UNL A   1      41.719  31.665  30.629  1.00  0.00     0.031 C 
ATOM     59  C   UNL A   1      44.105  31.014  30.796  1.00  0.00     0.031 A 
BRANCH  46  60
ATOM     60  C   UNL A   1      48.066  26.419  29.615  1.00  0.00    -0.014 A 
ATOM     61  C   UNL A   1      48.948  26.567  28.534  1.00  0.00     0.009 A 
ATOM     62  C   UNL A   1      48.525  25.798  30.787  1.00  0.00     0.009 A 
ATOM     63  C   UNL A   1      50.252  26.073  28.615  1.00  0.00     0.001 A 
ATOM     64  C   UNL A   1      49.836  25.327  30.875  1.00  0.00     0.001 A 
ATOM     65  C   UNL A   1      50.695  25.457  29.785  1.00  0.00     0.000 A 
ENDBRANCH  46  60
BRANCH  47  66
ATOM     66  C   UNL A   1      38.547  29.394  29.023  1.00  0.00    -0.014 A 
ATOM     67  C   UNL A   1      37.683  29.220  30.115  1.00  0.00     0.009 A 
ATOM     68  C   UNL A   1      38.050  29.990  27.854  1.00  0.00     0.009 A 
ATOM     69  C   UNL A   1      36.347  29.617  30.028  1.00  0.00     0.001 A 
ATOM     70  C   UNL A   1      36.722  30.411  27.779  1.00  0.00     0.001 A 
ATOM     71  C   UNL A   1      35.869  30.216  28.863  1.00  0.00     0.000 A 
ENDBRANCH  47  66
BRANCH  59  72
ATOM     72  C   UNL A   1      44.379  32.355  31.413  1.00  0.00    -0.014 A 
ATOM     73  C   UNL A   1      44.679  33.472  30.618  1.00  0.00     0.009 A 
ATOM     74  C   UNL A   1      44.294  32.511  32.804  1.00  0.00     0.009 A 
ATOM     75  C   UNL A   1      44.919  34.714  31.209  1.00  0.00     0.001 A 
ATOM     76  C   UNL A   1      44.510  33.758  33.391  1.00  0.00     0.001 A 
ATOM     77  C   UNL A   1      44.830  34.857  32.594  1.00  0.00     0.000 A 
ENDBRANCH  59  72
ENDBRANCH  33  34
ENDBRANCH  26  28
ENDBRANCH  25  26
ENDBRANCH  24  25
ENDBRANCH   1  24
TORSDOF 14
ENDMDL
MODEL 2
REMARK VINA RESULT:     -11.1      0.333      5.928
REMARK SMILES COc1cccc(NC(=O)[C@@H]2[C@@H](C(=O)OCCOC(=O)c3ccc(-c4c5nc(c(-c6ccccc6)c6ccc([nH]6)c(-c6ccccc6)c6nc(c(-c7ccccc7)c7ccc4[nH]7)C=C6)C=C5)cc3)[C@H]3C=C[C@@H]2C3)c1
REMARK SMILES IDX 16 1 15 2 13 3 14 4 12 5 11 6 72 7 69 8 71 9 73 10 70 11
REMARK SMILES IDX 9 12 8 13 10 15 7 16 3 17 4 18 74 19 5 20 6 21 2 22 1 23
REMARK SMILES IDX 17 24 18 25 19 26 20 27 21 28 22 29 68 30 23 31 67 32 24 33
REMARK SMILES IDX 25 34 26 35 61 36 27 37 66 38 60 39 62 40 28 41 65 42 59 43
REMARK SMILES IDX 58 44 29 46 51 47 36 48 50 49 37 50 40 51 49 52 63 53 38 54
REMARK SMILES IDX 39 55 48 57 64 58 41 59 30 60 31 61 35 62 32 63 34 64 33 65
REMARK SMILES IDX 52 66 53 67 57 68 54 69 56 70 55 71 42 72 43 73 47 74 44 75
REMARK SMILES IDX 46 76 45 77
REMARK H PARENT 8 14 62 45 40 56
REMARK Flexibility Score: inf
ROOT
ATOM      1  C   UNL A   1      37.799  21.129  24.760  1.00  0.00     0.274 C 
ENDROOT
BRANCH   1   2
ATOM      2  O   UNL A   1      36.934  21.520  25.847  1.00  0.00    -0.462 OA
BRANCH   2   3
ATOM      3  C   UNL A   1      36.706  22.851  25.940  1.00  0.00     0.310 C 
ATOM      4  O   UNL A   1      37.581  23.699  25.812  1.00  0.00    -0.252 OA
BRANCH   3   5
ATOM      5  C   UNL A   1      35.258  23.231  26.096  1.00  0.00     0.119 C 
ATOM      6  C   UNL A   1      34.278  22.154  25.530  1.00  0.00     0.100 C 
ATOM      7  C   UNL A   1      33.210  23.055  24.835  1.00  0.00     0.025 C 
ATOM      8  C   UNL A   1      34.776  24.539  25.433  1.00  0.00     0.027 C 
ATOM      9  C   UNL A   1      33.861  23.557  23.562  1.00  0.00    -0.027 C 
ATOM     10  C   UNL A   1      33.265  24.366  25.634  1.00  0.00     0.017 C 
ATOM     11  C   UNL A   1      34.813  24.429  23.925  1.00  0.00    -0.027 C 
BRANCH   6  12
ATOM     12  C   UNL A   1      33.676  21.302  26.632  1.00  0.00     0.228 C 
ATOM     13  N   UNL A   1      33.195  20.039  26.462  1.00  0.00    -0.326 N 
ATOM     14  H   UNL A   1      32.909  19.648  27.319  1.00  0.00     0.169 HD
ATOM     15  O   UNL A   1      33.654  21.730  27.795  1.00  0.00    -0.274 OA
BRANCH  13  16
ATOM     16  C   UNL A   1      32.996  19.136  25.396  1.00  0.00     0.044 A 
ATOM     17  C   UNL A   1      33.235  16.818  24.656  1.00  0.00     0.120 A 
ATOM     18  C   UNL A   1      32.833  17.164  23.374  1.00  0.00     0.046 A 
ATOM     19  C   UNL A   1      33.330  17.793  25.656  1.00  0.00     0.072 A 
ATOM     20  C   UNL A   1      32.455  18.475  23.115  1.00  0.00     0.006 A 
ATOM     21  C   UNL A   1      32.513  19.444  24.126  1.00  0.00     0.026 A 
BRANCH  17  22
ATOM     22  O   UNL A   1      33.606  15.516  24.861  1.00  0.00    -0.497 OA
ATOM     23  C   UNL A   1      32.541  14.742  25.411  1.00  0.00     0.278 C 
ENDBRANCH  17  22
ENDBRANCH  13  16
ENDBRANCH   6  12
ENDBRANCH   3   5
ENDBRANCH   2   3
ENDBRANCH   1   2
BRANCH   1  24
ATOM     24  C   UNL A   1      38.560  19.830  25.053  1.00  0.00     0.275 C 
BRANCH  24  25
ATOM     25  O   UNL A   1      39.304  19.876  26.287  1.00  0.00    -0.458 OA
BRANCH  25  26
ATOM     26  C   UNL A   1      40.649  19.840  26.153  1.00  0.00     0.338 C 
ATOM     27  O   UNL A   1      41.310  18.960  25.614  1.00  0.00    -0.246 OA
BRANCH  26  28
ATOM     28  C   UNL A   1      41.256  21.095  26.630  1.00  0.00     0.060 A 
ATOM     29  C   UNL A   1      41.179  21.374  27.997  1.00  0.00     0.016 A 
ATOM     30  C   UNL A   1      41.811  22.029  25.754  1.00  0.00     0.016 A 
ATOM     31  C   UNL A   1      41.641  22.582  28.501  1.00  0.00     0.010 A 
ATOM     32  C   UNL A   1      42.275  23.249  26.259  1.00  0.00     0.010 A 
ATOM     33  C   UNL A   1      42.181  23.534  27.633  1.00  0.00    -0.014 A 
BRANCH  33  34
ATOM     34  C   UNL A   1      42.590  24.847  28.178  1.00  0.00     0.031 A 
ATOM     35  C   UNL A   1      41.561  25.916  28.395  1.00  0.00     0.074 A 
ATOM     36  C   UNL A   1      43.871  25.053  28.528  1.00  0.00     0.049 A 
ATOM     37  N   UNL A   1      41.723  27.146  28.813  1.00  0.00    -0.248 NA
ATOM     38  C   UNL A   1      40.164  25.554  28.108  1.00  0.00     0.031 C 
ATOM     39  C   UNL A   1      44.945  24.063  28.427  1.00  0.00     0.029 A 
ATOM     40  N   UNL A   1      44.486  26.165  29.045  1.00  0.00    -0.354 N 
ATOM     41  C   UNL A   1      40.454  27.711  28.821  1.00  0.00     0.074 A 
ATOM     42  C   UNL A   1      39.535  26.694  28.355  1.00  0.00     0.031 C 
ATOM     43  C   UNL A   1      46.086  24.613  28.871  1.00  0.00     0.029 A 
ATOM     44  C   UNL A   1      45.834  26.002  29.242  1.00  0.00     0.049 A 
ATOM     45  H   UNL A   1      44.005  26.998  29.255  1.00  0.00     0.167 HD
ATOM     46  C   UNL A   1      40.091  28.963  29.183  1.00  0.00     0.031 A 
ATOM     47  C   UNL A   1      46.765  26.887  29.645  1.00  0.00     0.031 A 
ATOM     48  C   UNL A   1      41.010  29.971  29.640  1.00  0.00     0.049 A 
ATOM     49  C   UNL A   1      46.349  28.299  29.954  1.00  0.00     0.074 A 
ATOM     50  C   UNL A   1      40.743  31.274  30.026  1.00  0.00     0.029 A 
ATOM     51  N   UNL A   1      42.378  29.788  29.772  1.00  0.00    -0.354 N 
ATOM     52  N   UNL A   1      45.150  28.828  29.944  1.00  0.00    -0.248 NA
ATOM     53  C   UNL A   1      47.418  29.236  30.325  1.00  0.00     0.031 C 
ATOM     54  C   UNL A   1      41.957  31.892  30.344  1.00  0.00     0.029 A 
ATOM     55  C   UNL A   1      42.973  30.960  30.207  1.00  0.00     0.049 A 
ATOM     56  H   UNL A   1      42.856  28.948  29.583  1.00  0.00     0.167 HD
ATOM     57  C   UNL A   1      45.316  30.153  30.321  1.00  0.00     0.074 A 
ATOM     58  C   UNL A   1      46.731  30.343  30.572  1.00  0.00     0.031 C 
ATOM     59  C   UNL A   1      44.383  31.128  30.448  1.00  0.00     0.031 A 
BRANCH  46  60
ATOM     60  C   UNL A   1      38.639  29.325  29.052  1.00  0.00    -0.014 A 
ATOM     61  C   UNL A   1      38.109  29.798  27.842  1.00  0.00     0.009 A 
ATOM     62  C   UNL A   1      37.782  29.164  30.153  1.00  0.00     0.009 A 
ATOM     63  C   UNL A   1      36.757  30.134  27.748  1.00  0.00     0.001 A 
ATOM     64  C   UNL A   1      36.426  29.478  30.049  1.00  0.00     0.001 A 
ATOM     65  C   UNL A   1      35.917  29.972  28.849  1.00  0.00     0.000 A 
ENDBRANCH  46  60
BRANCH  47  66
ATOM     66  C   UNL A   1      48.189  26.473  29.739  1.00  0.00    -0.014 A 
ATOM     67  C   UNL A   1      48.694  25.906  30.918  1.00  0.00     0.009 A 
ATOM     68  C   UNL A   1      49.054  26.650  28.647  1.00  0.00     0.009 A 
ATOM     69  C   UNL A   1      50.040  25.545  31.008  1.00  0.00     0.001 A 
ATOM     70  C   UNL A   1      50.392  26.262  28.730  1.00  0.00     0.001 A 
ATOM     71  C   UNL A   1      50.886  25.718  29.914  1.00  0.00     0.000 A 
ENDBRANCH  47  66
BRANCH  59  72
ATOM     72  C   UNL A   1      44.859  32.477  30.905  1.00  0.00    -0.014 A 
ATOM     73  C   UNL A   1      45.230  33.467  29.982  1.00  0.00     0.009 A 
ATOM     74  C   UNL A   1      44.898  32.773  32.276  1.00  0.00     0.009 A 
ATOM     75  C   UNL A   1      45.661  34.719  30.426  1.00  0.00     0.001 A 
ATOM     76  C   UNL A   1      45.304  34.033  32.716  1.00  0.00     0.001 A 
ATOM     77  C   UNL A   1      45.692  35.002  31.792  1.00  0.00     0.000 A 
ENDBRANCH  59  72
ENDBRANCH  33  34
ENDBRANCH  26  28
ENDBRANCH  25  26
ENDBRANCH  24  25
ENDBRANCH   1  24
TORSDOF 14
ENDMDL
MODEL 3
REMARK VINA RESULT:     -10.9      4.857      9.572
REMARK SMILES COc1cccc(NC(=O)[C@@H]2[C@@H](C(=O)OCCOC(=O)c3ccc(-c4c5nc(c(-c6ccccc6)c6ccc([nH]6)c(-c6ccccc6)c6nc(c(-c7ccccc7)c7ccc4[nH]7)C=C6)C=C5)cc3)[C@H]3C=C[C@@H]2C3)c1
REMARK SMILES IDX 16 1 15 2 13 3 14 4 12 5 11 6 72 7 69 8 71 9 73 10 70 11
REMARK SMILES IDX 9 12 8 13 10 15 7 16 3 17 4 18 74 19 5 20 6 21 2 22 1 23
REMARK SMILES IDX 17 24 18 25 19 26 20 27 21 28 22 29 68 30 23 31 67 32 24 33
REMARK SMILES IDX 25 34 26 35 61 36 27 37 66 38 60 39 62 40 28 41 65 42 59 43
REMARK SMILES IDX 58 44 29 46 51 47 36 48 50 49 37 50 40 51 49 52 63 53 38 54
REMARK SMILES IDX 39 55 48 57 64 58 41 59 30 60 31 61 35 62 32 63 34 64 33 65
REMARK SMILES IDX 52 66 53 67 57 68 54 69 56 70 55 71 42 72 43 73 47 74 44 75
REMARK SMILES IDX 46 76 45 77
REMARK H PARENT 8 14 62 45 40 56
REMARK Flexibility Score: inf
ROOT
ATOM      1  C   UNL A   1      33.752  31.137  27.263  1.00  0.00     0.274 C 
ENDROOT
BRANCH   1   2
ATOM      2  O   UNL A   1      33.237  29.974  26.582  1.00  0.00    -0.462 OA
BRANCH   2   3
ATOM      3  C   UNL A   1      34.160  29.020  26.313  1.00  0.00     0.310 C 
ATOM      4  O   UNL A   1      35.243  28.947  26.880  1.00  0.00    -0.252 OA
BRANCH   3   5
ATOM      5  C   UNL A   1      33.709  27.967  25.337  1.00  0.00     0.119 C 
ATOM      6  C   UNL A   1      32.337  28.299  24.669  1.00  0.00     0.100 C 
ATOM      7  C   UNL A   1      31.652  26.897  24.674  1.00  0.00     0.025 C 
ATOM      8  C   UNL A   1      33.514  26.528  25.861  1.00  0.00     0.027 C 
ATOM      9  C   UNL A   1      31.228  26.652  26.108  1.00  0.00    -0.027 C 
ATOM     10  C   UNL A   1      32.833  25.915  24.631  1.00  0.00     0.017 C 
ATOM     11  C   UNL A   1      32.347  26.453  26.820  1.00  0.00    -0.027 C 
BRANCH   6  12
ATOM     12  C   UNL A   1      32.510  28.844  23.263  1.00  0.00     0.228 C 
ATOM     13  N   UNL A   1      31.506  29.363  22.502  1.00  0.00    -0.326 N 
ATOM     14  H   UNL A   1      31.849  29.714  21.649  1.00  0.00     0.169 HD
ATOM     15  O   UNL A   1      33.640  28.889  22.758  1.00  0.00    -0.274 OA
BRANCH  13  16
ATOM     16  C   UNL A   1      30.108  29.536  22.601  1.00  0.00     0.044 A 
ATOM     17  C   UNL A   1      28.288  31.166  22.686  1.00  0.00     0.120 A 
ATOM     18  C   UNL A   1      27.368  30.157  22.931  1.00  0.00     0.046 A 
ATOM     19  C   UNL A   1      29.647  30.865  22.535  1.00  0.00     0.072 A 
ATOM     20  C   UNL A   1      27.801  28.838  22.951  1.00  0.00     0.006 A 
ATOM     21  C   UNL A   1      29.156  28.532  22.762  1.00  0.00     0.026 A 
BRANCH  17  22
ATOM     22  O   UNL A   1      27.815  32.451  22.683  1.00  0.00    -0.497 OA
ATOM     23  C   UNL A   1      28.840  33.394  22.995  1.00  0.00     0.278 C 
ENDBRANCH  17  22
ENDBRANCH  13  16
ENDBRANCH   6  12
ENDBRANCH   3   5
ENDBRANCH   2   3
ENDBRANCH   1   2
BRANCH   1  24
ATOM     24  C   UNL A   1      32.649  32.137  27.631  1.00  0.00     0.275 C 
BRANCH  24  25
ATOM     25  O   UNL A   1      33.081  33.511  27.560  1.00  0.00    -0.458 OA
BRANCH  25  26
ATOM     26  C   UNL A   1      33.309  34.108  28.752  1.00  0.00     0.338 C 
ATOM     27  O   UNL A   1      32.539  34.835  29.367  1.00  0.00    -0.246 OA
BRANCH  26  28
ATOM     28  C   UNL A   1      34.594  33.664  29.321  1.00  0.00     0.060 A 
ATOM     29  C   UNL A   1      35.759  33.976  28.616  1.00  0.00     0.016 A 
ATOM     30  C   UNL A   1      34.660  32.880  30.474  1.00  0.00     0.016 A 
ATOM     31  C   UNL A   1      36.994  33.506  29.042  1.00  0.00     0.010 A 
ATOM     32  C   UNL A   1      35.904  32.402  30.905  1.00  0.00     0.010 A 
ATOM     33  C   UNL A   1      37.073  32.703  30.183  1.00  0.00    -0.014 A 
BRANCH  33  34
ATOM     34  C   UNL A   1      38.385  32.143  30.573  1.00  0.00     0.031 A 
ATOM     35  C   UNL A   1      38.860  30.861  29.956  1.00  0.00     0.074 A 
ATOM     36  C   UNL A   1      39.168  32.818  31.432  1.00  0.00     0.049 A 
ATOM     37  N   UNL A   1      39.951  30.181  30.201  1.00  0.00    -0.248 NA
ATOM     38  C   UNL A   1      37.994  30.265  28.927  1.00  0.00     0.031 C 
ATOM     39  C   UNL A   1      38.841  34.107  32.041  1.00  0.00     0.029 A 
ATOM     40  N   UNL A   1      40.405  32.510  31.939  1.00  0.00    -0.354 N 
ATOM     41  C   UNL A   1      39.895  29.069  29.371  1.00  0.00     0.074 A 
ATOM     42  C   UNL A   1      38.658  29.158  28.626  1.00  0.00     0.031 C 
ATOM     43  C   UNL A   1      39.855  34.482  32.838  1.00  0.00     0.029 A 
ATOM     44  C   UNL A   1      40.877  33.439  32.832  1.00  0.00     0.049 A 
ATOM     45  H   UNL A   1      40.905  31.700  31.687  1.00  0.00     0.167 HD
ATOM     46  C   UNL A   1      40.795  28.065  29.244  1.00  0.00     0.031 A 
ATOM     47  C   UNL A   1      41.993  33.432  33.584  1.00  0.00     0.031 A 
ATOM     48  C   UNL A   1      42.021  27.979  29.993  1.00  0.00     0.049 A 
ATOM     49  C   UNL A   1      42.931  32.261  33.491  1.00  0.00     0.074 A 
ATOM     50  C   UNL A   1      42.997  26.999  29.942  1.00  0.00     0.029 A 
ATOM     51  N   UNL A   1      42.437  28.911  30.931  1.00  0.00    -0.354 N 
ATOM     52  N   UNL A   1      42.862  31.206  32.716  1.00  0.00    -0.248 NA
ATOM     53  C   UNL A   1      44.098  32.277  34.384  1.00  0.00     0.031 C 
ATOM     54  C   UNL A   1      43.981  27.314  30.885  1.00  0.00     0.029 A 
ATOM     55  C   UNL A   1      43.643  28.517  31.485  1.00  0.00     0.049 A 
ATOM     56  H   UNL A   1      41.948  29.732  31.168  1.00  0.00     0.167 HD
ATOM     57  C   UNL A   1      43.982  30.442  33.014  1.00  0.00     0.074 A 
ATOM     58  C   UNL A   1      44.725  31.163  34.028  1.00  0.00     0.031 C 
ATOM     59  C   UNL A   1      44.363  29.248  32.496  1.00  0.00     0.031 A 
BRANCH  46  60
ATOM     60  C   UNL A   1      40.457  26.954  28.292  1.00  0.00    -0.014 A 
ATOM     61  C   UNL A   1      40.954  26.938  26.980  1.00  0.00     0.009 A 
ATOM     62  C   UNL A   1      39.648  25.892  28.725  1.00  0.00     0.009 A 
ATOM     63  C   UNL A   1      40.620  25.898  26.111  1.00  0.00     0.001 A 
ATOM     64  C   UNL A   1      39.335  24.840  27.862  1.00  0.00     0.001 A 
ATOM     65  C   UNL A   1      39.814  24.849  26.553  1.00  0.00     0.000 A 
ENDBRANCH  46  60
BRANCH  47  66
ATOM     66  C   UNL A   1      42.262  34.553  34.521  1.00  0.00    -0.014 A 
ATOM     67  C   UNL A   1      41.805  34.505  35.846  1.00  0.00     0.009 A 
ATOM     68  C   UNL A   1      42.975  35.684  34.090  1.00  0.00     0.009 A 
ATOM     69  C   UNL A   1      42.039  35.575  36.713  1.00  0.00     0.001 A 
ATOM     70  C   UNL A   1      43.232  36.739  34.966  1.00  0.00     0.001 A 
ATOM     71  C   UNL A   1      42.756  36.688  36.275  1.00  0.00     0.000 A 
ENDBRANCH  47  66
BRANCH  59  72
ATOM     72  C   UNL A   1      45.653  28.666  32.997  1.00  0.00    -0.014 A 
ATOM     73  C   UNL A   1      45.677  27.791  34.094  1.00  0.00     0.009 A 
ATOM     74  C   UNL A   1      46.855  28.963  32.336  1.00  0.00     0.009 A 
ATOM     75  C   UNL A   1      46.885  27.251  34.539  1.00  0.00     0.001 A 
ATOM     76  C   UNL A   1      48.057  28.402  32.766  1.00  0.00     0.001 A 
ATOM     77  C   UNL A   1      48.073  27.552  33.871  1.00  0.00     0.000 A 
ENDBRANCH  59  72
ENDBRANCH  33  34
ENDBRANCH  26  28
ENDBRANCH  25  26
ENDBRANCH  24  25
ENDBRANCH   1  24
TORSDOF 14
ENDMDL
