MODEL 1
REMARK VINA RESULT:     -11.0      0.000      0.000
REMARK SMILES CO[C@@H]1C[C@@H](C(=O)OCCOC(=O)c2ccc(-c3c4nc(c(-c5ccccc5)c5ccc([nH]5)c(-c5ccccc5)c5nc(c(-c6ccccc6)c6ccc3[nH]6)C=C5)C=C4)cc2)N(S(=O)(=O)c2ccc(Cl)cc2F)C1
REMARK SMILES IDX 9 1 8 2 6 3 7 4 5 5 3 6 4 7 74 8 62 9 2 10 1 11 63 12 64 13
REMARK SMILES IDX 65 14 66 15 67 16 72 17 68 18 71 19 73 20 69 21 70 22 10 23
REMARK SMILES IDX 11 24 12 25 13 26 14 27 15 28 61 29 16 30 60 31 17 32 18 33
REMARK SMILES IDX 19 34 54 35 20 36 59 37 53 38 55 39 21 40 58 41 52 42 51 43
REMARK SMILES IDX 22 45 44 46 29 47 43 48 30 49 33 50 42 51 56 52 31 53 32 54
REMARK SMILES IDX 41 56 57 57 34 58 23 59 24 60 28 61 25 62 27 63 26 64 45 65
REMARK SMILES IDX 46 66 50 67 47 68 49 69 48 70 35 71 36 72 40 73 37 74 39 75
REMARK SMILES IDX 38 76
REMARK H PARENT 55 44 33 55
REMARK Flexibility Score: inf
ROOT
ATOM      1  C   UNL A   1      31.378  29.183  24.642  1.00  0.00     0.274 C 
ENDROOT
BRANCH   1   2
ATOM      2  O   UNL A   1      30.997  27.860  25.085  1.00  0.00    -0.461 OA
BRANCH   2   3
ATOM      3  C   UNL A   1      30.751  27.013  24.052  1.00  0.00     0.324 C 
ATOM      4  O   UNL A   1      30.504  27.410  22.937  1.00  0.00    -0.250 OA
BRANCH   3   5
ATOM      5  C   UNL A   1      30.756  25.551  24.407  1.00  0.00     0.185 C 
ATOM      6  C   UNL A   1      31.410  24.476  26.510  1.00  0.00     0.135 C 
ATOM      7  C   UNL A   1      30.318  25.315  25.859  1.00  0.00     0.065 C 
ATOM      8  C   UNL A   1      32.047  23.758  25.321  1.00  0.00     0.135 C 
ATOM      9  N   UNL A   1      32.035  24.758  24.189  1.00  0.00    -0.181 NA
BRANCH   6  10
ATOM     10  O   UNL A   1      30.796  23.566  27.421  1.00  0.00    -0.380 OA
ATOM     11  C   UNL A   1      29.953  22.614  26.782  1.00  0.00     0.195 C 
ENDBRANCH   6  10
BRANCH   9  12
ATOM     12  S   UNL A   1      33.598  25.488  24.009  1.00  0.00     0.246 S 
ATOM     13  O   UNL A   1      33.671  25.960  22.645  1.00  0.00    -0.207 OA
ATOM     14  O   UNL A   1      33.697  26.447  25.094  1.00  0.00    -0.207 OA
BRANCH  12  15
ATOM     15  C   UNL A   1      34.861  24.288  24.350  1.00  0.00     0.118 A 
ATOM     16  C   UNL A   1      35.697  24.453  25.460  1.00  0.00     0.026 A 
ATOM     17  C   UNL A   1      35.070  23.204  23.492  1.00  0.00     0.144 A 
ATOM     18  C   UNL A   1      36.664  23.481  25.749  1.00  0.00     0.022 A 
ATOM     19  C   UNL A   1      35.981  22.200  23.818  1.00  0.00     0.061 A 
ATOM     20  F   UNL A   1      34.367  23.051  22.362  1.00  0.00    -0.205 F 
ATOM     21  C   UNL A   1      36.772  22.339  24.951  1.00  0.00     0.044 A 
ATOM     22  Cl  UNL A   1      37.888  21.099  25.369  1.00  0.00    -0.084 Cl
ENDBRANCH  12  15
ENDBRANCH   9  12
ENDBRANCH   3   5
ENDBRANCH   2   3
ENDBRANCH   1   2
BRANCH   1  23
ATOM     23  C   UNL A   1      32.558  29.867  25.368  1.00  0.00     0.275 C 
BRANCH  23  24
ATOM     24  O   UNL A   1      32.326  30.221  26.749  1.00  0.00    -0.458 OA
BRANCH  24  25
ATOM     25  C   UNL A   1      32.990  31.327  27.165  1.00  0.00     0.338 C 
ATOM     26  O   UNL A   1      32.495  32.425  27.376  1.00  0.00    -0.246 OA
BRANCH  25  27
ATOM     27  C   UNL A   1      34.405  31.065  27.505  1.00  0.00     0.060 A 
ATOM     28  C   UNL A   1      34.749  29.747  27.800  1.00  0.00     0.016 A 
ATOM     29  C   UNL A   1      35.307  32.083  27.806  1.00  0.00     0.016 A 
ATOM     30  C   UNL A   1      35.926  29.429  28.459  1.00  0.00     0.010 A 
ATOM     31  C   UNL A   1      36.529  31.760  28.429  1.00  0.00     0.010 A 
ATOM     32  C   UNL A   1      36.830  30.433  28.799  1.00  0.00    -0.014 A 
BRANCH  32  33
ATOM     33  C   UNL A   1      38.005  30.074  29.641  1.00  0.00     0.031 A 
ATOM     34  C   UNL A   1      39.113  29.237  29.056  1.00  0.00     0.074 A 
ATOM     35  C   UNL A   1      38.146  30.579  30.883  1.00  0.00     0.049 A 
ATOM     36  N   UNL A   1      40.163  28.720  29.645  1.00  0.00    -0.248 NA
ATOM     37  C   UNL A   1      39.031  28.947  27.616  1.00  0.00     0.031 C 
ATOM     38  C   UNL A   1      37.217  31.507  31.536  1.00  0.00     0.029 A 
ATOM     39  N   UNL A   1      39.141  30.401  31.814  1.00  0.00    -0.354 N 
ATOM     40  C   UNL A   1      40.832  27.999  28.662  1.00  0.00     0.074 A 
ATOM     41  C   UNL A   1      40.070  28.143  27.441  1.00  0.00     0.031 C 
ATOM     42  C   UNL A   1      37.700  31.832  32.745  1.00  0.00     0.029 A 
ATOM     43  C   UNL A   1      38.918  31.070  32.992  1.00  0.00     0.049 A 
ATOM     44  H   UNL A   1      39.939  29.846  31.651  1.00  0.00     0.167 HD
ATOM     45  C   UNL A   1      41.973  27.277  28.771  1.00  0.00     0.031 A 
ATOM     46  C   UNL A   1      39.586  31.036  34.161  1.00  0.00     0.031 A 
ATOM     47  C   UNL A   1      42.743  27.159  29.981  1.00  0.00     0.049 A 
ATOM     48  C   UNL A   1      40.790  30.146  34.289  1.00  0.00     0.074 A 
ATOM     49  C   UNL A   1      43.908  26.443  30.197  1.00  0.00     0.029 A 
ATOM     50  N   UNL A   1      42.432  27.786  31.179  1.00  0.00    -0.354 N 
ATOM     51  N   UNL A   1      41.375  29.411  33.375  1.00  0.00    -0.248 NA
ATOM     52  C   UNL A   1      41.416  30.067  35.617  1.00  0.00     0.031 C 
ATOM     53  C   UNL A   1      44.267  26.587  31.542  1.00  0.00     0.029 A 
ATOM     54  C   UNL A   1      43.364  27.448  32.146  1.00  0.00     0.049 A 
ATOM     55  H   UNL A   1      41.661  28.381  31.321  1.00  0.00     0.167 HD
ATOM     56  C   UNL A   1      42.447  28.797  34.011  1.00  0.00     0.074 A 
ATOM     57  C   UNL A   1      42.445  29.265  35.381  1.00  0.00     0.031 C 
ATOM     58  C   UNL A   1      43.349  27.921  33.506  1.00  0.00     0.031 A 
BRANCH  45  59
ATOM     59  C   UNL A   1      42.417  26.497  27.564  1.00  0.00    -0.014 A 
ATOM     60  C   UNL A   1      41.969  25.190  27.315  1.00  0.00     0.009 A 
ATOM     61  C   UNL A   1      43.292  27.098  26.644  1.00  0.00     0.009 A 
ATOM     62  C   UNL A   1      42.421  24.490  26.193  1.00  0.00     0.001 A 
ATOM     63  C   UNL A   1      43.716  26.409  25.508  1.00  0.00     0.001 A 
ATOM     64  C   UNL A   1      43.290  25.100  25.288  1.00  0.00     0.000 A 
ENDBRANCH  45  59
BRANCH  46  65
ATOM     65  C   UNL A   1      39.085  31.809  35.332  1.00  0.00    -0.014 A 
ATOM     66  C   UNL A   1      39.463  33.145  35.530  1.00  0.00     0.009 A 
ATOM     67  C   UNL A   1      38.233  31.202  36.270  1.00  0.00     0.009 A 
ATOM     68  C   UNL A   1      39.016  33.849  36.651  1.00  0.00     0.001 A 
ATOM     69  C   UNL A   1      37.759  31.918  37.371  1.00  0.00     0.001 A 
ATOM     70  C   UNL A   1      38.158  33.238  37.566  1.00  0.00     0.000 A 
ENDBRANCH  46  65
BRANCH  58  71
ATOM     71  C   UNL A   1      44.431  27.440  34.432  1.00  0.00    -0.014 A 
ATOM     72  C   UNL A   1      45.634  28.149  34.581  1.00  0.00     0.009 A 
ATOM     73  C   UNL A   1      44.228  26.278  35.193  1.00  0.00     0.009 A 
ATOM     74  C   UNL A   1      46.625  27.683  35.447  1.00  0.00     0.001 A 
ATOM     75  C   UNL A   1      45.207  25.832  36.081  1.00  0.00     0.001 A 
ATOM     76  C   UNL A   1      46.409  26.529  36.200  1.00  0.00     0.000 A 
ENDBRANCH  58  71
ENDBRANCH  32  33
ENDBRANCH  25  27
ENDBRANCH  24  25
ENDBRANCH  23  24
ENDBRANCH   1  23
TORSDOF 14
ENDMDL
MODEL 2
REMARK VINA RESULT:     -10.9      4.013      8.706
REMARK SMILES CO[C@@H]1C[C@@H](C(=O)OCCOC(=O)c2ccc(-c3c4nc(c(-c5ccccc5)c5ccc([nH]5)c(-c5ccccc5)c5nc(c(-c6ccccc6)c6ccc3[nH]6)C=C5)C=C4)cc2)N(S(=O)(=O)c2ccc(Cl)cc2F)C1
REMARK SMILES IDX 9 1 8 2 6 3 7 4 5 5 3 6 4 7 74 8 62 9 2 10 1 11 63 12 64 13
REMARK SMILES IDX 65 14 66 15 67 16 72 17 68 18 71 19 73 20 69 21 70 22 10 23
REMARK SMILES IDX 11 24 12 25 13 26 14 27 15 28 61 29 16 30 60 31 17 32 18 33
REMARK SMILES IDX 19 34 54 35 20 36 59 37 53 38 55 39 21 40 58 41 52 42 51 43
REMARK SMILES IDX 22 45 44 46 29 47 43 48 30 49 33 50 42 51 56 52 31 53 32 54
REMARK SMILES IDX 41 56 57 57 34 58 23 59 24 60 28 61 25 62 27 63 26 64 45 65
REMARK SMILES IDX 46 66 50 67 47 68 49 69 48 70 35 71 36 72 40 73 37 74 39 75
REMARK SMILES IDX 38 76
REMARK H PARENT 55 44 33 55
REMARK Flexibility Score: inf
ROOT
ATOM      1  C   UNL A   1      35.225  21.661  25.320  1.00  0.00     0.274 C 
ENDROOT
BRANCH   1   2
ATOM      2  O   UNL A   1      34.501  22.061  24.134  1.00  0.00    -0.461 OA
BRANCH   2   3
ATOM      3  C   UNL A   1      33.161  22.144  24.343  1.00  0.00     0.324 C 
ATOM      4  O   UNL A   1      32.364  21.533  23.670  1.00  0.00    -0.250 OA
BRANCH   3   5
ATOM      5  C   UNL A   1      32.740  23.089  25.435  1.00  0.00     0.185 C 
ATOM      6  C   UNL A   1      30.485  23.823  26.056  1.00  0.00     0.135 C 
ATOM      7  C   UNL A   1      31.439  22.636  26.111  1.00  0.00     0.065 C 
ATOM      8  C   UNL A   1      31.431  25.019  25.962  1.00  0.00     0.135 C 
ATOM      9  N   UNL A   1      32.578  24.563  25.094  1.00  0.00    -0.181 NA
BRANCH   6  10
ATOM     10  O   UNL A   1      29.716  23.840  27.257  1.00  0.00    -0.380 OA
ATOM     11  C   UNL A   1      29.126  22.581  27.563  1.00  0.00     0.195 C 
ENDBRANCH   6  10
BRANCH   9  12
ATOM     12  S   UNL A   1      32.389  25.159  23.476  1.00  0.00     0.246 S 
ATOM     13  O   UNL A   1      33.718  25.229  22.911  1.00  0.00    -0.207 OA
ATOM     14  O   UNL A   1      31.407  24.284  22.861  1.00  0.00    -0.207 OA
BRANCH  12  15
ATOM     15  C   UNL A   1      31.613  26.755  23.513  1.00  0.00     0.118 A 
ATOM     16  C   UNL A   1      30.298  26.900  23.059  1.00  0.00     0.026 A 
ATOM     17  C   UNL A   1      32.319  27.884  23.940  1.00  0.00     0.144 A 
ATOM     18  C   UNL A   1      29.675  28.154  23.131  1.00  0.00     0.022 A 
ATOM     19  C   UNL A   1      31.679  29.115  24.080  1.00  0.00     0.061 A 
ATOM     20  F   UNL A   1      33.610  27.821  24.290  1.00  0.00    -0.205 F 
ATOM     21  C   UNL A   1      30.355  29.244  23.680  1.00  0.00     0.044 A 
ATOM     22  Cl  UNL A   1      29.553  30.755  23.863  1.00  0.00    -0.084 Cl
ENDBRANCH  12  15
ENDBRANCH   9  12
ENDBRANCH   3   5
ENDBRANCH   2   3
ENDBRANCH   1   2
BRANCH   1  23
ATOM     23  C   UNL A   1      36.474  20.772  25.126  1.00  0.00     0.275 C 
BRANCH  23  24
ATOM     24  O   UNL A   1      37.710  21.473  24.863  1.00  0.00    -0.458 OA
BRANCH  24  25
ATOM     25  C   UNL A   1      38.730  21.146  25.694  1.00  0.00     0.338 C 
ATOM     26  O   UNL A   1      39.286  20.058  25.754  1.00  0.00    -0.246 OA
BRANCH  25  27
ATOM     27  C   UNL A   1      39.249  22.298  26.462  1.00  0.00     0.060 A 
ATOM     28  C   UNL A   1      38.719  23.550  26.155  1.00  0.00     0.016 A 
ATOM     29  C   UNL A   1      40.399  22.223  27.244  1.00  0.00     0.016 A 
ATOM     30  C   UNL A   1      39.351  24.723  26.538  1.00  0.00     0.010 A 
ATOM     31  C   UNL A   1      41.016  23.411  27.681  1.00  0.00     0.010 A 
ATOM     32  C   UNL A   1      40.519  24.674  27.294  1.00  0.00    -0.014 A 
BRANCH  32  33
ATOM     33  C   UNL A   1      41.251  25.945  27.553  1.00  0.00     0.031 A 
ATOM     34  C   UNL A   1      40.647  26.981  28.466  1.00  0.00     0.074 A 
ATOM     35  C   UNL A   1      42.496  26.137  27.071  1.00  0.00     0.049 A 
ATOM     36  N   UNL A   1      41.060  28.194  28.734  1.00  0.00    -0.248 NA
ATOM     37  C   UNL A   1      39.416  26.597  29.176  1.00  0.00     0.031 C 
ATOM     38  C   UNL A   1      43.261  25.170  26.279  1.00  0.00     0.029 A 
ATOM     39  N   UNL A   1      43.350  27.206  27.199  1.00  0.00    -0.354 N 
ATOM     40  C   UNL A   1      40.112  28.736  29.594  1.00  0.00     0.074 A 
ATOM     41  C   UNL A   1      39.103  27.722  29.803  1.00  0.00     0.031 C 
ATOM     42  C   UNL A   1      44.473  25.680  26.015  1.00  0.00     0.029 A 
ATOM     43  C   UNL A   1      44.541  27.041  26.536  1.00  0.00     0.049 A 
ATOM     44  H   UNL A   1      43.128  28.014  27.717  1.00  0.00     0.167 HD
ATOM     45  C   UNL A   1      40.084  29.970  30.153  1.00  0.00     0.031 A 
ATOM     46  C   UNL A   1      45.554  27.902  26.323  1.00  0.00     0.031 A 
ATOM     47  C   UNL A   1      41.105  30.967  29.967  1.00  0.00     0.049 A 
ATOM     48  C   UNL A   1      45.452  29.299  26.866  1.00  0.00     0.074 A 
ATOM     49  C   UNL A   1      41.163  32.250  30.481  1.00  0.00     0.029 A 
ATOM     50  N   UNL A   1      42.255  30.786  29.214  1.00  0.00    -0.354 N 
ATOM     51  N   UNL A   1      44.518  29.827  27.619  1.00  0.00    -0.248 NA
ATOM     52  C   UNL A   1      46.537  30.227  26.513  1.00  0.00     0.031 C 
ATOM     53  C   UNL A   1      42.318  32.867  29.989  1.00  0.00     0.029 A 
ATOM     54  C   UNL A   1      43.014  31.944  29.224  1.00  0.00     0.049 A 
ATOM     55  H   UNL A   1      42.496  29.957  28.740  1.00  0.00     0.167 HD
ATOM     56  C   UNL A   1      44.910  31.140  27.845  1.00  0.00     0.074 A 
ATOM     57  C   UNL A   1      46.178  31.321  27.170  1.00  0.00     0.031 C 
ATOM     58  C   UNL A   1      44.274  32.110  28.546  1.00  0.00     0.031 A 
BRANCH  45  59
ATOM     59  C   UNL A   1      38.869  30.335  30.964  1.00  0.00    -0.014 A 
ATOM     60  C   UNL A   1      37.768  30.997  30.398  1.00  0.00     0.009 A 
ATOM     61  C   UNL A   1      38.825  29.989  32.324  1.00  0.00     0.009 A 
ATOM     62  C   UNL A   1      36.667  31.338  31.189  1.00  0.00     0.001 A 
ATOM     63  C   UNL A   1      37.711  30.302  33.104  1.00  0.00     0.001 A 
ATOM     64  C   UNL A   1      36.636  30.987  32.538  1.00  0.00     0.000 A 
ENDBRANCH  45  59
BRANCH  46  65
ATOM     65  C   UNL A   1      46.720  27.494  25.491  1.00  0.00    -0.014 A 
ATOM     66  C   UNL A   1      47.787  26.772  26.046  1.00  0.00     0.009 A 
ATOM     67  C   UNL A   1      46.777  27.842  24.131  1.00  0.00     0.009 A 
ATOM     68  C   UNL A   1      48.892  26.427  25.265  1.00  0.00     0.001 A 
ATOM     69  C   UNL A   1      47.865  27.464  23.342  1.00  0.00     0.001 A 
ATOM     70  C   UNL A   1      48.927  26.765  23.912  1.00  0.00     0.000 A 
ENDBRANCH  46  65
BRANCH  58  71
ATOM     71  C   UNL A   1      44.960  33.444  28.648  1.00  0.00    -0.014 A 
ATOM     72  C   UNL A   1      45.859  33.727  29.689  1.00  0.00     0.009 A 
ATOM     73  C   UNL A   1      44.728  34.420  27.667  1.00  0.00     0.009 A 
ATOM     74  C   UNL A   1      46.483  34.973  29.763  1.00  0.00     0.001 A 
ATOM     75  C   UNL A   1      45.378  35.653  27.725  1.00  0.00     0.001 A 
ATOM     76  C   UNL A   1      46.247  35.932  28.779  1.00  0.00     0.000 A 
ENDBRANCH  58  71
ENDBRANCH  32  33
ENDBRANCH  25  27
ENDBRANCH  24  25
ENDBRANCH  23  24
ENDBRANCH   1  23
TORSDOF 14
ENDMDL
MODEL 3
REMARK VINA RESULT:     -10.7      4.003      8.492
REMARK SMILES CO[C@@H]1C[C@@H](C(=O)OCCOC(=O)c2ccc(-c3c4nc(c(-c5ccccc5)c5ccc([nH]5)c(-c5ccccc5)c5nc(c(-c6ccccc6)c6ccc3[nH]6)C=C5)C=C4)cc2)N(S(=O)(=O)c2ccc(Cl)cc2F)C1
REMARK SMILES IDX 9 1 8 2 6 3 7 4 5 5 3 6 4 7 74 8 62 9 2 10 1 11 63 12 64 13
REMARK SMILES IDX 65 14 66 15 67 16 72 17 68 18 71 19 73 20 69 21 70 22 10 23
REMARK SMILES IDX 11 24 12 25 13 26 14 27 15 28 61 29 16 30 60 31 17 32 18 33
REMARK SMILES IDX 19 34 54 35 20 36 59 37 53 38 55 39 21 40 58 41 52 42 51 43
REMARK SMILES IDX 22 45 44 46 29 47 43 48 30 49 33 50 42 51 56 52 31 53 32 54
REMARK SMILES IDX 41 56 57 57 34 58 23 59 24 60 28 61 25 62 27 63 26 64 45 65
REMARK SMILES IDX 46 66 50 67 47 68 49 69 48 70 35 71 36 72 40 73 37 74 39 75
REMARK SMILES IDX 38 76
REMARK H PARENT 55 44 33 55
REMARK Flexibility Score: inf
ROOT
ATOM      1  C   UNL A   1      36.656  22.631  23.510  1.00  0.00     0.274 C 
ENDROOT
BRANCH   1   2
ATOM      2  O   UNL A   1      35.230  22.869  23.489  1.00  0.00    -0.461 OA
BRANCH   2   3
ATOM      3  C   UNL A   1      34.877  23.992  24.168  1.00  0.00     0.324 C 
ATOM      4  O   UNL A   1      35.519  24.409  25.104  1.00  0.00    -0.250 OA
BRANCH   3   5
ATOM      5  C   UNL A   1      33.604  24.646  23.706  1.00  0.00     0.185 C 
ATOM      6  C   UNL A   1      32.169  26.239  24.893  1.00  0.00     0.135 C 
ATOM      7  C   UNL A   1      33.507  26.103  24.179  1.00  0.00     0.065 C 
ATOM      8  C   UNL A   1      31.330  25.127  24.266  1.00  0.00     0.135 C 
ATOM      9  N   UNL A   1      32.281  23.976  24.045  1.00  0.00    -0.181 NA
BRANCH   6  10
ATOM     10  O   UNL A   1      31.639  27.534  24.615  1.00  0.00    -0.380 OA
ATOM     11  C   UNL A   1      30.443  27.498  23.844  1.00  0.00     0.195 C 
ENDBRANCH   6  10
BRANCH   9  12
ATOM     12  S   UNL A   1      32.099  22.790  25.298  1.00  0.00     0.246 S 
ATOM     13  O   UNL A   1      32.967  23.203  26.377  1.00  0.00    -0.207 OA
ATOM     14  O   UNL A   1      30.669  22.705  25.536  1.00  0.00    -0.207 OA
BRANCH  12  15
ATOM     15  C   UNL A   1      32.550  21.190  24.676  1.00  0.00     0.118 A 
ATOM     16  C   UNL A   1      33.334  20.334  25.458  1.00  0.00     0.026 A 
ATOM     17  C   UNL A   1      32.177  20.791  23.389  1.00  0.00     0.144 A 
ATOM     18  C   UNL A   1      33.650  19.055  24.980  1.00  0.00     0.022 A 
ATOM     19  C   UNL A   1      32.430  19.494  22.942  1.00  0.00     0.061 A 
ATOM     20  F   UNL A   1      31.514  21.607  22.559  1.00  0.00    -0.205 F 
ATOM     21  C   UNL A   1      33.161  18.628  23.743  1.00  0.00     0.044 A 
ATOM     22  Cl  UNL A   1      33.464  17.021  23.207  1.00  0.00    -0.084 Cl
ENDBRANCH  12  15
ENDBRANCH   9  12
ENDBRANCH   3   5
ENDBRANCH   2   3
ENDBRANCH   1   2
BRANCH   1  23
ATOM     23  C   UNL A   1      37.167  21.425  24.331  1.00  0.00     0.275 C 
BRANCH  23  24
ATOM     24  O   UNL A   1      37.468  21.692  25.718  1.00  0.00    -0.458 OA
BRANCH  24  25
ATOM     25  C   UNL A   1      38.778  21.562  26.044  1.00  0.00     0.338 C 
ATOM     26  O   UNL A   1      39.521  20.660  25.683  1.00  0.00    -0.246 OA
BRANCH  25  27
ATOM     27  C   UNL A   1      39.313  22.724  26.785  1.00  0.00     0.060 A 
ATOM     28  C   UNL A   1      38.794  23.975  26.456  1.00  0.00     0.016 A 
ATOM     29  C   UNL A   1      40.467  22.653  27.562  1.00  0.00     0.016 A 
ATOM     30  C   UNL A   1      39.440  25.149  26.811  1.00  0.00     0.010 A 
ATOM     31  C   UNL A   1      41.098  23.844  27.971  1.00  0.00     0.010 A 
ATOM     32  C   UNL A   1      40.612  25.103  27.562  1.00  0.00    -0.014 A 
BRANCH  32  33
ATOM     33  C   UNL A   1      41.358  26.372  27.790  1.00  0.00     0.031 A 
ATOM     34  C   UNL A   1      40.790  27.414  28.719  1.00  0.00     0.074 A 
ATOM     35  C   UNL A   1      42.587  26.556  27.266  1.00  0.00     0.049 A 
ATOM     36  N   UNL A   1      41.217  28.626  28.968  1.00  0.00    -0.248 NA
ATOM     37  C   UNL A   1      39.582  27.039  29.471  1.00  0.00     0.031 C 
ATOM     38  C   UNL A   1      43.320  25.582  26.452  1.00  0.00     0.029 A 
ATOM     39  N   UNL A   1      43.449  27.621  27.361  1.00  0.00    -0.354 N 
ATOM     40  C   UNL A   1      40.302  29.177  29.858  1.00  0.00     0.074 A 
ATOM     41  C   UNL A   1      39.295  28.168  30.104  1.00  0.00     0.031 C 
ATOM     42  C   UNL A   1      44.525  26.085  26.146  1.00  0.00     0.029 A 
ATOM     43  C   UNL A   1      44.617  27.447  26.658  1.00  0.00     0.049 A 
ATOM     44  H   UNL A   1      43.249  28.432  27.883  1.00  0.00     0.167 HD
ATOM     45  C   UNL A   1      40.298  30.413  30.412  1.00  0.00     0.031 A 
ATOM     46  C   UNL A   1      45.626  28.303  26.408  1.00  0.00     0.031 A 
ATOM     47  C   UNL A   1      41.317  31.404  30.187  1.00  0.00     0.049 A 
ATOM     48  C   UNL A   1      45.548  29.703  26.948  1.00  0.00     0.074 A 
ATOM     49  C   UNL A   1      41.398  32.689  30.694  1.00  0.00     0.029 A 
ATOM     50  N   UNL A   1      42.440  31.214  29.396  1.00  0.00    -0.354 N 
ATOM     51  N   UNL A   1      44.643  30.238  27.731  1.00  0.00    -0.248 NA
ATOM     52  C   UNL A   1      46.625  30.624  26.555  1.00  0.00     0.031 C 
ATOM     53  C   UNL A   1      42.539  33.298  30.161  1.00  0.00     0.029 A 
ATOM     54  C   UNL A   1      43.204  32.369  29.376  1.00  0.00     0.049 A 
ATOM     55  H   UNL A   1      42.661  30.383  28.919  1.00  0.00     0.167 HD
ATOM     56  C   UNL A   1      45.049  31.550  27.938  1.00  0.00     0.074 A 
ATOM     57  C   UNL A   1      46.294  31.723  27.219  1.00  0.00     0.031 C 
ATOM     58  C   UNL A   1      44.441  32.526  28.656  1.00  0.00     0.031 A 
BRANCH  45  59
ATOM     59  C   UNL A   1      39.113  30.787  31.262  1.00  0.00    -0.014 A 
ATOM     60  C   UNL A   1      39.102  30.589  32.651  1.00  0.00     0.009 A 
ATOM     61  C   UNL A   1      37.990  31.370  30.652  1.00  0.00     0.009 A 
ATOM     62  C   UNL A   1      37.974  30.931  33.404  1.00  0.00     0.001 A 
ATOM     63  C   UNL A   1      36.879  31.739  31.410  1.00  0.00     0.001 A 
ATOM     64  C   UNL A   1      36.866  31.509  32.785  1.00  0.00     0.000 A 
ENDBRANCH  45  59
BRANCH  46  65
ATOM     65  C   UNL A   1      46.762  27.886  25.539  1.00  0.00    -0.014 A 
ATOM     66  C   UNL A   1      47.943  27.371  26.092  1.00  0.00     0.009 A 
ATOM     67  C   UNL A   1      46.671  28.018  24.143  1.00  0.00     0.009 A 
ATOM     68  C   UNL A   1      49.015  27.017  25.268  1.00  0.00     0.001 A 
ATOM     69  C   UNL A   1      47.730  27.631  23.320  1.00  0.00     0.001 A 
ATOM     70  C   UNL A   1      48.905  27.139  23.884  1.00  0.00     0.000 A 
ENDBRANCH  46  65
BRANCH  58  71
ATOM     71  C   UNL A   1      45.136  33.857  28.729  1.00  0.00    -0.014 A 
ATOM     72  C   UNL A   1      46.058  34.146  29.748  1.00  0.00     0.009 A 
ATOM     73  C   UNL A   1      44.890  34.824  27.742  1.00  0.00     0.009 A 
ATOM     74  C   UNL A   1      46.691  35.389  29.796  1.00  0.00     0.001 A 
ATOM     75  C   UNL A   1      45.548  36.054  27.774  1.00  0.00     0.001 A 
ATOM     76  C   UNL A   1      46.440  36.339  28.807  1.00  0.00     0.000 A 
ENDBRANCH  58  71
ENDBRANCH  32  33
ENDBRANCH  25  27
ENDBRANCH  24  25
ENDBRANCH  23  24
ENDBRANCH   1  23
TORSDOF 14
ENDMDL
