MODEL 1
REMARK VINA RESULT:     -10.1      0.000      0.000
REMARK SMILES C[C@@H](CC(=O)OCCOC(=O)c1ccc(-c2c3nc(c(-c4ccccc4)c4ccc([nH]4)c(-c4ccccc4)c4nc(c(-c5ccccc5)c5ccc2[nH]5)C=C4)C=C3)cc1)NC(=O)[C@@H]1CCCN(C(N)=O)C1
REMARK SMILES IDX 7 1 6 2 4 3 5 4 3 5 2 6 1 7 60 8 61 9 62 11 63 12 64 13
REMARK SMILES IDX 71 14 65 15 67 16 66 17 68 18 69 19 70 20 8 23 9 24 10 25
REMARK SMILES IDX 11 26 12 27 13 28 59 29 14 30 58 31 15 32 16 33 17 34 52 35
REMARK SMILES IDX 18 36 57 37 51 38 53 39 19 40 56 41 50 42 49 43 20 45 42 46
REMARK SMILES IDX 27 47 41 48 28 49 31 50 40 51 54 52 29 53 30 54 39 56 55 57
REMARK SMILES IDX 32 58 21 59 22 60 26 61 23 62 25 63 24 64 43 65 44 66 48 67
REMARK SMILES IDX 45 68 47 69 46 70 33 71 34 72 38 73 35 74 37 75 36 76
REMARK H PARENT 60 10 69 21 69 22 53 44 31 55
REMARK Flexibility Score: inf
ROOT
ATOM      1  C   UNL A   1      38.142  21.161  25.282  1.00  0.00     0.274 C 
ENDROOT
BRANCH   1   2
ATOM      2  O   UNL A   1      36.910  21.128  24.532  1.00  0.00    -0.462 OA
BRANCH   2   3
ATOM      3  C   UNL A   1      36.493  22.298  23.997  1.00  0.00     0.307 C 
ATOM      4  O   UNL A   1      36.976  22.811  22.993  1.00  0.00    -0.252 OA
BRANCH   3   5
ATOM      5  C   UNL A   1      35.430  22.997  24.814  1.00  0.00     0.147 C 
BRANCH   5   6
ATOM      6  C   UNL A   1      34.060  23.338  24.207  1.00  0.00     0.090 C 
ATOM      7  C   UNL A   1      33.228  22.110  23.837  1.00  0.00     0.031 C 
BRANCH   6   8
ATOM      8  N   UNL A   1      34.098  24.261  23.076  1.00  0.00    -0.353 N 
ATOM      9  C   UNL A   1      33.573  25.510  22.887  1.00  0.00     0.225 C 
ATOM     10  H   UNL A   1      34.598  23.919  22.300  1.00  0.00     0.163 HD
ATOM     11  O   UNL A   1      33.697  25.998  21.761  1.00  0.00    -0.275 OA
BRANCH   9  12
ATOM     12  C   UNL A   1      32.973  26.323  24.047  1.00  0.00     0.098 C 
ATOM     13  C   UNL A   1      31.851  25.652  24.838  1.00  0.00     0.017 C 
ATOM     14  C   UNL A   1      32.484  27.713  23.555  1.00  0.00     0.134 C 
ATOM     15  C   UNL A   1      30.592  25.548  24.000  1.00  0.00     0.022 C 
ATOM     16  N   UNL A   1      31.096  27.784  23.050  1.00  0.00    -0.324 N 
ATOM     17  C   UNL A   1      30.088  26.940  23.683  1.00  0.00     0.121 C 
BRANCH  16  18
ATOM     18  C   UNL A   1      30.592  28.815  22.278  1.00  0.00     0.314 C 
ATOM     19  N   UNL A   1      31.450  29.778  21.887  1.00  0.00    -0.351 N 
ATOM     20  O   UNL A   1      29.409  28.929  21.966  1.00  0.00    -0.249 OA
ATOM     21  H   UNL A   1      32.404  29.714  22.122  1.00  0.00     0.161 HD
ATOM     22  H   UNL A   1      31.123  30.547  21.367  1.00  0.00     0.161 HD
ENDBRANCH  16  18
ENDBRANCH   9  12
ENDBRANCH   6   8
ENDBRANCH   5   6
ENDBRANCH   3   5
ENDBRANCH   2   3
ENDBRANCH   1   2
BRANCH   1  23
ATOM     23  C   UNL A   1      38.961  19.879  25.093  1.00  0.00     0.275 C 
BRANCH  23  24
ATOM     24  O   UNL A   1      39.827  19.621  26.214  1.00  0.00    -0.458 OA
BRANCH  24  25
ATOM     25  C   UNL A   1      41.139  19.872  25.989  1.00  0.00     0.338 C 
ATOM     26  O   UNL A   1      41.889  19.250  25.257  1.00  0.00    -0.246 OA
BRANCH  25  27
ATOM     27  C   UNL A   1      41.516  21.147  26.612  1.00  0.00     0.060 A 
ATOM     28  C   UNL A   1      41.994  22.166  25.782  1.00  0.00     0.016 A 
ATOM     29  C   UNL A   1      41.454  21.326  27.992  1.00  0.00     0.016 A 
ATOM     30  C   UNL A   1      42.384  23.385  26.322  1.00  0.00     0.010 A 
ATOM     31  C   UNL A   1      41.847  22.553  28.537  1.00  0.00     0.010 A 
ATOM     32  C   UNL A   1      42.303  23.590  27.703  1.00  0.00    -0.014 A 
BRANCH  32  33
ATOM     33  C   UNL A   1      42.686  24.898  28.274  1.00  0.00     0.031 A 
ATOM     34  C   UNL A   1      41.648  25.956  28.490  1.00  0.00     0.074 A 
ATOM     35  C   UNL A   1      43.970  25.127  28.600  1.00  0.00     0.049 A 
ATOM     36  N   UNL A   1      41.807  27.203  28.852  1.00  0.00    -0.248 NA
ATOM     37  C   UNL A   1      40.248  25.560  28.273  1.00  0.00     0.031 C 
ATOM     38  C   UNL A   1      45.055  24.149  28.504  1.00  0.00     0.029 A 
ATOM     39  N   UNL A   1      44.580  26.260  29.075  1.00  0.00    -0.354 N 
ATOM     40  C   UNL A   1      40.531  27.749  28.885  1.00  0.00     0.074 A 
ATOM     41  C   UNL A   1      39.610  26.700  28.500  1.00  0.00     0.031 C 
ATOM     42  C   UNL A   1      46.199  24.724  28.909  1.00  0.00     0.029 A 
ATOM     43  C   UNL A   1      45.937  26.123  29.233  1.00  0.00     0.049 A 
ATOM     44  H   UNL A   1      44.093  27.090  29.283  1.00  0.00     0.167 HD
ATOM     45  C   UNL A   1      40.166  29.014  29.202  1.00  0.00     0.031 A 
ATOM     46  C   UNL A   1      46.871  27.034  29.561  1.00  0.00     0.031 A 
ATOM     47  C   UNL A   1      41.088  30.054  29.575  1.00  0.00     0.049 A 
ATOM     48  C   UNL A   1      46.451  28.455  29.804  1.00  0.00     0.074 A 
ATOM     49  C   UNL A   1      40.817  31.370  29.908  1.00  0.00     0.029 A 
ATOM     50  N   UNL A   1      42.462  29.894  29.661  1.00  0.00    -0.354 N 
ATOM     51  N   UNL A   1      45.247  28.973  29.800  1.00  0.00    -0.248 NA
ATOM     52  C   UNL A   1      47.523  29.422  30.080  1.00  0.00     0.031 C 
ATOM     53  C   UNL A   1      42.034  32.018  30.152  1.00  0.00     0.029 A 
ATOM     54  C   UNL A   1      43.058  31.093  30.017  1.00  0.00     0.049 A 
ATOM     55  H   UNL A   1      42.945  29.053  29.493  1.00  0.00     0.167 HD
ATOM     56  C   UNL A   1      45.413  30.319  30.089  1.00  0.00     0.074 A 
ATOM     57  C   UNL A   1      46.833  30.537  30.276  1.00  0.00     0.031 C 
ATOM     58  C   UNL A   1      44.472  31.290  30.191  1.00  0.00     0.031 A 
BRANCH  45  59
ATOM     59  C   UNL A   1      38.707  29.352  29.108  1.00  0.00    -0.014 A 
ATOM     60  C   UNL A   1      38.128  29.763  27.897  1.00  0.00     0.009 A 
ATOM     61  C   UNL A   1      37.893  29.236  30.245  1.00  0.00     0.009 A 
ATOM     62  C   UNL A   1      36.770  30.081  27.835  1.00  0.00     0.001 A 
ATOM     63  C   UNL A   1      36.531  29.532  30.177  1.00  0.00     0.001 A 
ATOM     64  C   UNL A   1      35.973  29.962  28.975  1.00  0.00     0.000 A 
ENDBRANCH  45  59
BRANCH  46  65
ATOM     65  C   UNL A   1      48.301  26.639  29.629  1.00  0.00    -0.014 A 
ATOM     66  C   UNL A   1      48.816  26.029  30.781  1.00  0.00     0.009 A 
ATOM     67  C   UNL A   1      49.154  26.867  28.538  1.00  0.00     0.009 A 
ATOM     68  C   UNL A   1      50.164  25.668  30.845  1.00  0.00     0.001 A 
ATOM     69  C   UNL A   1      50.495  26.483  28.595  1.00  0.00     0.001 A 
ATOM     70  C   UNL A   1      50.999  25.889  29.751  1.00  0.00     0.000 A 
ENDBRANCH  46  65
BRANCH  58  71
ATOM     71  C   UNL A   1      44.952  32.667  30.546  1.00  0.00    -0.014 A 
ATOM     72  C   UNL A   1      45.271  33.603  29.551  1.00  0.00     0.009 A 
ATOM     73  C   UNL A   1      45.054  33.041  31.895  1.00  0.00     0.009 A 
ATOM     74  C   UNL A   1      45.708  34.882  29.902  1.00  0.00     0.001 A 
ATOM     75  C   UNL A   1      45.470  34.327  32.242  1.00  0.00     0.001 A 
ATOM     76  C   UNL A   1      45.803  35.243  31.246  1.00  0.00     0.000 A 
ENDBRANCH  58  71
ENDBRANCH  32  33
ENDBRANCH  25  27
ENDBRANCH  24  25
ENDBRANCH  23  24
ENDBRANCH   1  23
TORSDOF 15
ENDMDL
MODEL 2
REMARK VINA RESULT:     -10.0      5.028      9.480
REMARK SMILES C[C@@H](CC(=O)OCCOC(=O)c1ccc(-c2c3nc(c(-c4ccccc4)c4ccc([nH]4)c(-c4ccccc4)c4nc(c(-c5ccccc5)c5ccc2[nH]5)C=C4)C=C3)cc1)NC(=O)[C@@H]1CCCN(C(N)=O)C1
REMARK SMILES IDX 7 1 6 2 4 3 5 4 3 5 2 6 1 7 60 8 61 9 62 11 63 12 64 13
REMARK SMILES IDX 71 14 65 15 67 16 66 17 68 18 69 19 70 20 8 23 9 24 10 25
REMARK SMILES IDX 11 26 12 27 13 28 59 29 14 30 58 31 15 32 16 33 17 34 52 35
REMARK SMILES IDX 18 36 57 37 51 38 53 39 19 40 56 41 50 42 49 43 20 45 42 46
REMARK SMILES IDX 27 47 41 48 28 49 31 50 40 51 54 52 29 53 30 54 39 56 55 57
REMARK SMILES IDX 32 58 21 59 22 60 26 61 23 62 25 63 24 64 43 65 44 66 48 67
REMARK SMILES IDX 45 68 47 69 46 70 33 71 34 72 38 73 35 74 37 75 36 76
REMARK H PARENT 60 10 69 21 69 22 53 44 31 55
REMARK Flexibility Score: inf
ROOT
ATOM      1  C   UNL A   1      32.656  31.829  27.533  1.00  0.00     0.274 C 
ENDROOT
BRANCH   1   2
ATOM      2  O   UNL A   1      33.635  31.033  26.835  1.00  0.00    -0.462 OA
BRANCH   2   3
ATOM      3  C   UNL A   1      34.518  30.348  27.597  1.00  0.00     0.307 C 
ATOM      4  O   UNL A   1      35.062  30.799  28.600  1.00  0.00    -0.252 OA
BRANCH   3   5
ATOM      5  C   UNL A   1      34.876  28.988  27.042  1.00  0.00     0.147 C 
BRANCH   5   6
ATOM      6  C   UNL A   1      33.885  28.203  26.168  1.00  0.00     0.090 C 
ATOM      7  C   UNL A   1      34.160  26.700  26.122  1.00  0.00     0.031 C 
BRANCH   6   8
ATOM      8  N   UNL A   1      33.724  28.712  24.808  1.00  0.00    -0.353 N 
ATOM      9  C   UNL A   1      32.619  28.971  24.046  1.00  0.00     0.225 C 
ATOM     10  H   UNL A   1      34.575  28.905  24.353  1.00  0.00     0.163 HD
ATOM     11  O   UNL A   1      32.821  29.307  22.876  1.00  0.00    -0.275 OA
BRANCH   9  12
ATOM     12  C   UNL A   1      31.202  28.975  24.644  1.00  0.00     0.098 C 
ATOM     13  C   UNL A   1      30.462  27.638  24.643  1.00  0.00     0.017 C 
ATOM     14  C   UNL A   1      30.312  30.046  23.956  1.00  0.00     0.134 C 
ATOM     15  C   UNL A   1      30.079  27.237  23.232  1.00  0.00     0.022 C 
ATOM     16  N   UNL A   1      29.584  29.619  22.741  1.00  0.00    -0.324 N 
ATOM     17  C   UNL A   1      29.094  28.246  22.678  1.00  0.00     0.121 C 
BRANCH  16  18
ATOM     18  C   UNL A   1      29.023  30.480  21.817  1.00  0.00     0.314 C 
ATOM     19  N   UNL A   1      29.388  31.777  21.871  1.00  0.00    -0.351 N 
ATOM     20  O   UNL A   1      28.184  30.148  20.983  1.00  0.00    -0.249 OA
ATOM     21  H   UNL A   1      30.059  32.074  22.528  1.00  0.00     0.161 HD
ATOM     22  H   UNL A   1      28.984  32.429  21.253  1.00  0.00     0.161 HD
ENDBRANCH  16  18
ENDBRANCH   9  12
ENDBRANCH   6   8
ENDBRANCH   5   6
ENDBRANCH   3   5
ENDBRANCH   2   3
ENDBRANCH   1   2
BRANCH   1  23
ATOM     23  C   UNL A   1      32.851  33.328  27.279  1.00  0.00     0.275 C 
BRANCH  23  24
ATOM     24  O   UNL A   1      32.313  34.132  28.346  1.00  0.00    -0.458 OA
BRANCH  24  25
ATOM     25  C   UNL A   1      33.135  35.113  28.788  1.00  0.00     0.338 C 
ATOM     26  O   UNL A   1      32.884  36.304  28.855  1.00  0.00    -0.246 OA
BRANCH  25  27
ATOM     27  C   UNL A   1      34.345  34.523  29.376  1.00  0.00     0.060 A 
ATOM     28  C   UNL A   1      34.231  33.897  30.620  1.00  0.00     0.016 A 
ATOM     29  C   UNL A   1      35.582  34.627  28.744  1.00  0.00     0.016 A 
ATOM     30  C   UNL A   1      35.348  33.341  31.230  1.00  0.00     0.010 A 
ATOM     31  C   UNL A   1      36.707  34.068  29.356  1.00  0.00     0.010 A 
ATOM     32  C   UNL A   1      36.593  33.414  30.597  1.00  0.00    -0.014 A 
BRANCH  32  33
ATOM     33  C   UNL A   1      37.774  32.792  31.230  1.00  0.00     0.031 A 
ATOM     34  C   UNL A   1      38.446  31.620  30.581  1.00  0.00     0.074 A 
ATOM     35  C   UNL A   1      38.243  33.290  32.388  1.00  0.00     0.049 A 
ATOM     36  N   UNL A   1      39.404  30.862  31.044  1.00  0.00    -0.248 NA
ATOM     37  C   UNL A   1      37.978  31.256  29.235  1.00  0.00     0.031 C 
ATOM     38  C   UNL A   1      37.719  34.472  33.075  1.00  0.00     0.029 A 
ATOM     39  N   UNL A   1      39.265  32.859  33.194  1.00  0.00    -0.354 N 
ATOM     40  C   UNL A   1      39.642  29.914  30.058  1.00  0.00     0.074 A 
ATOM     41  C   UNL A   1      38.722  30.190  28.974  1.00  0.00     0.031 C 
ATOM     42  C   UNL A   1      38.425  34.673  34.199  1.00  0.00     0.029 A 
ATOM     43  C   UNL A   1      39.406  33.601  34.340  1.00  0.00     0.049 A 
ATOM     44  H   UNL A   1      39.843  32.093  32.972  1.00  0.00     0.167 HD
ATOM     45  C   UNL A   1      40.543  28.903  30.063  1.00  0.00     0.031 A 
ATOM     46  C   UNL A   1      40.207  33.414  35.405  1.00  0.00     0.031 A 
ATOM     47  C   UNL A   1      41.448  28.629  31.148  1.00  0.00     0.049 A 
ATOM     48  C   UNL A   1      41.121  32.224  35.431  1.00  0.00     0.074 A 
ATOM     49  C   UNL A   1      42.393  27.624  31.251  1.00  0.00     0.029 A 
ATOM     50  N   UNL A   1      41.516  29.365  32.321  1.00  0.00    -0.354 N 
ATOM     51  N   UNL A   1      41.317  31.312  34.509  1.00  0.00    -0.248 NA
ATOM     52  C   UNL A   1      41.914  32.026  36.653  1.00  0.00     0.031 C 
ATOM     53  C   UNL A   1      43.003  27.725  32.507  1.00  0.00     0.029 A 
ATOM     54  C   UNL A   1      42.469  28.822  33.166  1.00  0.00     0.049 A 
ATOM     55  H   UNL A   1      40.967  30.156  32.524  1.00  0.00     0.167 HD
ATOM     56  C   UNL A   1      42.265  30.444  35.031  1.00  0.00     0.074 A 
ATOM     57  C   UNL A   1      42.616  30.944  36.344  1.00  0.00     0.031 C 
ATOM     58  C   UNL A   1      42.798  29.331  34.471  1.00  0.00     0.031 A 
BRANCH  45  59
ATOM     59  C   UNL A   1      40.554  27.988  28.873  1.00  0.00    -0.014 A 
ATOM     60  C   UNL A   1      41.358  28.254  27.754  1.00  0.00     0.009 A 
ATOM     61  C   UNL A   1      39.762  26.830  28.882  1.00  0.00     0.009 A 
ATOM     62  C   UNL A   1      41.344  27.393  26.655  1.00  0.00     0.001 A 
ATOM     63  C   UNL A   1      39.767  25.958  27.791  1.00  0.00     0.001 A 
ATOM     64  C   UNL A   1      40.551  26.245  26.676  1.00  0.00     0.000 A 
ENDBRANCH  45  59
BRANCH  46  65
ATOM     65  C   UNL A   1      40.142  34.351  36.555  1.00  0.00    -0.014 A 
ATOM     66  C   UNL A   1      40.964  35.486  36.596  1.00  0.00     0.009 A 
ATOM     67  C   UNL A   1      39.253  34.115  37.616  1.00  0.00     0.009 A 
ATOM     68  C   UNL A   1      40.907  36.359  37.684  1.00  0.00     0.001 A 
ATOM     69  C   UNL A   1      39.180  35.002  38.690  1.00  0.00     0.001 A 
ATOM     70  C   UNL A   1      40.012  36.120  38.726  1.00  0.00     0.000 A 
ENDBRANCH  46  65
BRANCH  58  71
ATOM     71  C   UNL A   1      43.836  28.599  35.270  1.00  0.00    -0.014 A 
ATOM     72  C   UNL A   1      43.478  27.569  36.154  1.00  0.00     0.009 A 
ATOM     73  C   UNL A   1      45.193  28.922  35.111  1.00  0.00     0.009 A 
ATOM     74  C   UNL A   1      44.460  26.894  36.883  1.00  0.00     0.001 A 
ATOM     75  C   UNL A   1      46.172  28.231  35.824  1.00  0.00     0.001 A 
ATOM     76  C   UNL A   1      45.805  27.223  36.714  1.00  0.00     0.000 A 
ENDBRANCH  58  71
ENDBRANCH  32  33
ENDBRANCH  25  27
ENDBRANCH  24  25
ENDBRANCH  23  24
ENDBRANCH   1  23
TORSDOF 15
ENDMDL
MODEL 3
REMARK VINA RESULT:     -10.0      0.948      6.136
REMARK SMILES C[C@@H](CC(=O)OCCOC(=O)c1ccc(-c2c3nc(c(-c4ccccc4)c4ccc([nH]4)c(-c4ccccc4)c4nc(c(-c5ccccc5)c5ccc2[nH]5)C=C4)C=C3)cc1)NC(=O)[C@@H]1CCCN(C(N)=O)C1
REMARK SMILES IDX 7 1 6 2 4 3 5 4 3 5 2 6 1 7 60 8 61 9 62 11 63 12 64 13
REMARK SMILES IDX 71 14 65 15 67 16 66 17 68 18 69 19 70 20 8 23 9 24 10 25
REMARK SMILES IDX 11 26 12 27 13 28 59 29 14 30 58 31 15 32 16 33 17 34 52 35
REMARK SMILES IDX 18 36 57 37 51 38 53 39 19 40 56 41 50 42 49 43 20 45 42 46
REMARK SMILES IDX 27 47 41 48 28 49 31 50 40 51 54 52 29 53 30 54 39 56 55 57
REMARK SMILES IDX 32 58 21 59 22 60 26 61 23 62 25 63 24 64 43 65 44 66 48 67
REMARK SMILES IDX 45 68 47 69 46 70 33 71 34 72 38 73 35 74 37 75 36 76
REMARK H PARENT 60 10 69 21 69 22 53 44 31 55
REMARK Flexibility Score: inf
ROOT
ATOM      1  C   UNL A   1      38.530  21.003  25.410  1.00  0.00     0.274 C 
ENDROOT
BRANCH   1   2
ATOM      2  O   UNL A   1      37.396  21.104  24.525  1.00  0.00    -0.462 OA
BRANCH   2   3
ATOM      3  C   UNL A   1      36.843  22.331  24.381  1.00  0.00     0.307 C 
ATOM      4  O   UNL A   1      36.732  22.919  23.310  1.00  0.00    -0.252 OA
BRANCH   3   5
ATOM      5  C   UNL A   1      36.463  22.985  25.690  1.00  0.00     0.147 C 
BRANCH   5   6
ATOM      6  C   UNL A   1      35.111  23.696  25.858  1.00  0.00     0.090 C 
ATOM      7  C   UNL A   1      34.232  23.096  26.955  1.00  0.00     0.031 C 
BRANCH   6   8
ATOM      8  N   UNL A   1      34.331  23.837  24.630  1.00  0.00    -0.353 N 
ATOM      9  C   UNL A   1      33.659  24.893  24.082  1.00  0.00     0.225 C 
ATOM     10  H   UNL A   1      34.281  23.012  24.094  1.00  0.00     0.163 HD
ATOM     11  O   UNL A   1      33.000  24.662  23.064  1.00  0.00    -0.275 OA
BRANCH   9  12
ATOM     12  C   UNL A   1      33.813  26.324  24.624  1.00  0.00     0.098 C 
ATOM     13  C   UNL A   1      33.153  26.615  25.971  1.00  0.00     0.017 C 
ATOM     14  C   UNL A   1      33.320  27.368  23.583  1.00  0.00     0.134 C 
ATOM     15  C   UNL A   1      31.642  26.617  25.839  1.00  0.00     0.022 C 
ATOM     16  N   UNL A   1      31.883  27.718  23.628  1.00  0.00    -0.324 N 
ATOM     17  C   UNL A   1      31.223  27.752  24.929  1.00  0.00     0.121 C 
BRANCH  16  18
ATOM     18  C   UNL A   1      31.196  28.349  22.609  1.00  0.00     0.314 C 
ATOM     19  N   UNL A   1      31.752  29.454  22.073  1.00  0.00    -0.351 N 
ATOM     20  O   UNL A   1      30.095  27.993  22.195  1.00  0.00    -0.249 OA
ATOM     21  H   UNL A   1      32.632  29.764  22.384  1.00  0.00     0.161 HD
ATOM     22  H   UNL A   1      31.276  29.953  21.369  1.00  0.00     0.161 HD
ENDBRANCH  16  18
ENDBRANCH   9  12
ENDBRANCH   6   8
ENDBRANCH   5   6
ENDBRANCH   3   5
ENDBRANCH   2   3
ENDBRANCH   1   2
BRANCH   1  23
ATOM     23  C   UNL A   1      39.254  19.661  25.262  1.00  0.00     0.275 C 
BRANCH  23  24
ATOM     24  O   UNL A   1      40.219  19.448  26.309  1.00  0.00    -0.458 OA
BRANCH  24  25
ATOM     25  C   UNL A   1      41.486  19.808  25.996  1.00  0.00     0.338 C 
ATOM     26  O   UNL A   1      42.239  19.241  25.224  1.00  0.00    -0.246 OA
BRANCH  25  27
ATOM     27  C   UNL A   1      41.790  21.121  26.578  1.00  0.00     0.060 A 
ATOM     28  C   UNL A   1      42.200  22.143  25.716  1.00  0.00     0.016 A 
ATOM     29  C   UNL A   1      41.727  21.337  27.954  1.00  0.00     0.016 A 
ATOM     30  C   UNL A   1      42.519  23.398  26.217  1.00  0.00     0.010 A 
ATOM     31  C   UNL A   1      42.048  22.600  28.459  1.00  0.00     0.010 A 
ATOM     32  C   UNL A   1      42.436  23.638  27.593  1.00  0.00    -0.014 A 
BRANCH  32  33
ATOM     33  C   UNL A   1      42.742  24.983  28.122  1.00  0.00     0.031 A 
ATOM     34  C   UNL A   1      44.144  25.337  28.511  1.00  0.00     0.074 A 
ATOM     35  C   UNL A   1      41.752  25.885  28.245  1.00  0.00     0.049 A 
ATOM     36  N   UNL A   1      44.585  26.411  29.113  1.00  0.00    -0.248 NA
ATOM     37  C   UNL A   1      45.187  24.356  28.177  1.00  0.00     0.031 C 
ATOM     38  C   UNL A   1      40.363  25.681  27.830  1.00  0.00     0.029 A 
ATOM     39  N   UNL A   1      41.765  27.156  28.761  1.00  0.00    -0.354 N 
ATOM     40  C   UNL A   1      45.954  26.228  29.253  1.00  0.00     0.074 A 
ATOM     41  C   UNL A   1      46.270  24.936  28.679  1.00  0.00     0.031 C 
ATOM     42  C   UNL A   1      39.657  26.788  28.107  1.00  0.00     0.029 A 
ATOM     43  C   UNL A   1      40.529  27.752  28.772  1.00  0.00     0.049 A 
ATOM     44  H   UNL A   1      42.581  27.598  29.091  1.00  0.00     0.167 HD
ATOM     45  C   UNL A   1      46.860  27.061  29.816  1.00  0.00     0.031 A 
ATOM     46  C   UNL A   1      40.134  28.927  29.297  1.00  0.00     0.031 A 
ATOM     47  C   UNL A   1      46.537  28.339  30.394  1.00  0.00     0.049 A 
ATOM     48  C   UNL A   1      41.139  29.783  30.010  1.00  0.00     0.074 A 
ATOM     49  C   UNL A   1      47.384  29.254  30.995  1.00  0.00     0.029 A 
ATOM     50  N   UNL A   1      45.262  28.880  30.443  1.00  0.00    -0.354 N 
ATOM     51  N   UNL A   1      42.426  29.588  30.168  1.00  0.00    -0.248 NA
ATOM     52  C   UNL A   1      40.635  31.015  30.632  1.00  0.00     0.031 C 
ATOM     53  C   UNL A   1      46.613  30.330  31.449  1.00  0.00     0.029 A 
ATOM     54  C   UNL A   1      45.293  30.106  31.087  1.00  0.00     0.049 A 
ATOM     55  H   UNL A   1      44.453  28.456  30.076  1.00  0.00     0.167 HD
ATOM     56  C   UNL A   1      42.888  30.677  30.892  1.00  0.00     0.074 A 
ATOM     57  C   UNL A   1      41.747  31.538  31.131  1.00  0.00     0.031 C 
ATOM     58  C   UNL A   1      44.146  30.942  31.321  1.00  0.00     0.031 A 
BRANCH  45  59
ATOM     59  C   UNL A   1      48.283  26.586  29.878  1.00  0.00    -0.014 A 
ATOM     60  C   UNL A   1      49.217  26.946  28.893  1.00  0.00     0.009 A 
ATOM     61  C   UNL A   1      48.700  25.783  30.950  1.00  0.00     0.009 A 
ATOM     62  C   UNL A   1      50.532  26.485  28.967  1.00  0.00     0.001 A 
ATOM     63  C   UNL A   1      50.022  25.341  31.033  1.00  0.00     0.001 A 
ATOM     64  C   UNL A   1      50.934  25.685  30.038  1.00  0.00     0.000 A 
ENDBRANCH  45  59
BRANCH  46  65
ATOM     65  C   UNL A   1      38.708  29.335  29.211  1.00  0.00    -0.014 A 
ATOM     66  C   UNL A   1      37.825  29.060  30.264  1.00  0.00     0.009 A 
ATOM     67  C   UNL A   1      38.228  30.007  28.076  1.00  0.00     0.009 A 
ATOM     68  C   UNL A   1      36.483  29.437  30.175  1.00  0.00     0.001 A 
ATOM     69  C   UNL A   1      36.892  30.405  28.000  1.00  0.00     0.001 A 
ATOM     70  C   UNL A   1      36.020  30.113  29.048  1.00  0.00     0.000 A 
ENDBRANCH  46  65
BRANCH  58  71
ATOM     71  C   UNL A   1      44.353  32.229  32.067  1.00  0.00    -0.014 A 
ATOM     72  C   UNL A   1      44.643  33.422  31.388  1.00  0.00     0.009 A 
ATOM     73  C   UNL A   1      44.222  32.251  33.464  1.00  0.00     0.009 A 
ATOM     74  C   UNL A   1      44.826  34.610  32.099  1.00  0.00     0.001 A 
ATOM     75  C   UNL A   1      44.383  33.444  34.169  1.00  0.00     0.001 A 
ATOM     76  C   UNL A   1      44.691  34.620  33.487  1.00  0.00     0.000 A 
ENDBRANCH  58  71
ENDBRANCH  32  33
ENDBRANCH  25  27
ENDBRANCH  24  25
ENDBRANCH  23  24
ENDBRANCH   1  23
TORSDOF 15
ENDMDL
