MODEL 1
REMARK VINA RESULT:     -12.2      0.000      0.000
REMARK SMILES CC(C)(C)c1cc(Nc2ccccc2C(=O)OCCOC(=O)c2ccc(-c3c4nc(c(-c5ccccc5)c5ccc([nH]5)c(-c5ccccc5)c5nc(c(-c6ccccc6)c6ccc3[nH]6)C=C5)C=C4)cc2)cc2c1OCC2(C)C
REMARK SMILES IDX 18 1 17 2 15 3 16 4 14 5 9 6 10 7 11 8 13 9 12 10 8 11 7 13
REMARK SMILES IDX 5 14 6 15 73 16 72 17 74 18 71 19 76 20 75 21 77 22 78 23
REMARK SMILES IDX 2 24 1 25 3 26 4 27 19 28 20 29 21 30 22 31 23 32 24 33
REMARK SMILES IDX 70 34 25 35 69 36 26 37 27 38 28 39 63 40 29 41 68 42 62 43
REMARK SMILES IDX 64 44 30 45 67 46 61 47 60 48 31 50 53 51 38 52 52 53 39 54
REMARK SMILES IDX 42 55 51 56 65 57 40 58 41 59 50 61 66 62 43 63 32 64 33 65
REMARK SMILES IDX 37 66 34 67 36 68 35 69 54 70 55 71 59 72 56 73 58 74 57 75
REMARK SMILES IDX 44 76 45 77 49 78 46 79 48 80 47 81
REMARK H PARENT 8 12 64 49 42 60
REMARK Flexibility Score: inf
ROOT
ATOM      1  C   UNL A   1      42.258  19.075  26.632  1.00  0.00     0.275 C 
ENDROOT
BRANCH   1   2
ATOM      2  O   UNL A   1      41.611  20.179  25.969  1.00  0.00    -0.458 OA
BRANCH   2   3
ATOM      3  C   UNL A   1      40.253  20.188  25.932  1.00  0.00     0.340 C 
ATOM      4  O   UNL A   1      39.544  19.236  25.672  1.00  0.00    -0.246 OA
BRANCH   3   5
ATOM      5  C   UNL A   1      39.710  21.521  26.343  1.00  0.00     0.083 A 
ATOM      6  C   UNL A   1      38.522  22.087  25.841  1.00  0.00     0.053 A 
ATOM      7  C   UNL A   1      38.187  23.392  26.255  1.00  0.00     0.027 A 
ATOM      8  C   UNL A   1      39.014  24.134  27.100  1.00  0.00     0.002 A 
ATOM      9  C   UNL A   1      40.501  22.251  27.254  1.00  0.00     0.018 A 
ATOM     10  C   UNL A   1      40.174  23.561  27.601  1.00  0.00     0.001 A 
BRANCH   6  11
ATOM     11  N   UNL A   1      37.720  21.426  24.884  1.00  0.00    -0.355 N 
ATOM     12  H   UNL A   1      38.216  20.935  24.190  1.00  0.00     0.167 HD
BRANCH  11  13
ATOM     13  C   UNL A   1      36.317  21.362  24.776  1.00  0.00     0.039 A 
ATOM     14  C   UNL A   1      34.276  19.951  24.679  1.00  0.00     0.002 A 
ATOM     15  C   UNL A   1      35.682  20.101  24.737  1.00  0.00     0.034 A 
ATOM     16  C   UNL A   1      33.544  21.138  24.755  1.00  0.00     0.127 A 
ATOM     17  C   UNL A   1      34.151  22.383  24.782  1.00  0.00     0.006 A 
ATOM     18  O   UNL A   1      32.180  21.219  24.851  1.00  0.00    -0.492 OA
ATOM     19  C   UNL A   1      35.526  22.508  24.761  1.00  0.00     0.034 A 
ATOM     20  C   UNL A   1      33.145  23.474  24.892  1.00  0.00     0.028 C 
ATOM     21  C   UNL A   1      31.858  22.631  24.829  1.00  0.00     0.240 C 
ATOM     22  C   UNL A   1      33.287  24.209  26.231  1.00  0.00     0.020 C 
ATOM     23  C   UNL A   1      33.234  24.469  23.731  1.00  0.00     0.020 C 
BRANCH  14  24
ATOM     24  C   UNL A   1      33.610  18.570  24.569  1.00  0.00    -0.009 C 
ATOM     25  C   UNL A   1      34.695  17.504  24.326  1.00  0.00     0.016 C 
ATOM     26  C   UNL A   1      32.589  18.476  23.407  1.00  0.00     0.016 C 
ATOM     27  C   UNL A   1      32.819  18.214  25.849  1.00  0.00     0.016 C 
ENDBRANCH  14  24
ENDBRANCH  11  13
ENDBRANCH   6  11
ENDBRANCH   3   5
ENDBRANCH   2   3
ENDBRANCH   1   2
BRANCH   1  28
ATOM     28  C   UNL A   1      43.349  18.467  25.748  1.00  0.00     0.275 C 
BRANCH  28  29
ATOM     29  O   UNL A   1      43.529  19.266  24.563  1.00  0.00    -0.458 OA
BRANCH  29  30
ATOM     30  C   UNL A   1      44.809  19.577  24.260  1.00  0.00     0.338 C 
ATOM     31  O   UNL A   1      45.632  18.882  23.683  1.00  0.00    -0.246 OA
BRANCH  30  32
ATOM     32  C   UNL A   1      45.025  20.999  24.560  1.00  0.00     0.060 A 
ATOM     33  C   UNL A   1      44.754  22.008  23.636  1.00  0.00     0.016 A 
ATOM     34  C   UNL A   1      45.495  21.315  25.837  1.00  0.00     0.016 A 
ATOM     35  C   UNL A   1      44.978  23.340  24.000  1.00  0.00     0.010 A 
ATOM     36  C   UNL A   1      45.731  22.639  26.195  1.00  0.00     0.010 A 
ATOM     37  C   UNL A   1      45.469  23.665  25.281  1.00  0.00    -0.014 A 
BRANCH  37  38
ATOM     38  C   UNL A   1      45.568  25.080  25.713  1.00  0.00     0.031 A 
ATOM     39  C   UNL A   1      44.381  25.845  26.218  1.00  0.00     0.074 A 
ATOM     40  C   UNL A   1      46.760  25.694  25.598  1.00  0.00     0.049 A 
ATOM     41  N   UNL A   1      44.349  27.032  26.771  1.00  0.00    -0.248 NA
ATOM     42  C   UNL A   1      43.060  25.217  26.065  1.00  0.00     0.031 C 
ATOM     43  C   UNL A   1      47.961  25.089  25.018  1.00  0.00     0.029 A 
ATOM     44  N   UNL A   1      47.165  26.950  25.975  1.00  0.00    -0.354 N 
ATOM     45  C   UNL A   1      43.012  27.288  27.048  1.00  0.00     0.074 A 
ATOM     46  C   UNL A   1      42.257  26.158  26.548  1.00  0.00     0.031 C 
ATOM     47  C   UNL A   1      48.983  25.948  25.135  1.00  0.00     0.029 A 
ATOM     48  C   UNL A   1      48.508  27.167  25.784  1.00  0.00     0.049 A 
ATOM     49  H   UNL A   1      46.555  27.627  26.345  1.00  0.00     0.167 HD
ATOM     50  C   UNL A   1      42.474  28.356  27.685  1.00  0.00     0.031 A 
ATOM     51  C   UNL A   1      49.283  28.211  26.129  1.00  0.00     0.031 A 
ATOM     52  C   UNL A   1      43.238  29.481  28.167  1.00  0.00     0.049 A 
ATOM     53  C   UNL A   1      48.674  29.365  26.873  1.00  0.00     0.074 A 
ATOM     54  C   UNL A   1      42.796  30.570  28.900  1.00  0.00     0.029 A 
ATOM     55  N   UNL A   1      44.595  29.669  27.954  1.00  0.00    -0.354 N 
ATOM     56  N   UNL A   1      47.432  29.534  27.253  1.00  0.00    -0.248 NA
ATOM     57  C   UNL A   1      49.578  30.456  27.257  1.00  0.00     0.031 C 
ATOM     58  C   UNL A   1      43.870  31.447  29.072  1.00  0.00     0.029 A 
ATOM     59  C   UNL A   1      44.998  30.872  28.512  1.00  0.00     0.049 A 
ATOM     60  H   UNL A   1      45.185  29.041  27.478  1.00  0.00     0.167 HD
ATOM     61  C   UNL A   1      47.404  30.746  27.929  1.00  0.00     0.074 A 
ATOM     62  C   UNL A   1      48.762  31.252  27.936  1.00  0.00     0.031 C 
ATOM     63  C   UNL A   1      46.346  31.384  28.488  1.00  0.00     0.031 A 
BRANCH  50  64
ATOM     64  C   UNL A   1      40.990  28.362  27.937  1.00  0.00    -0.014 A 
ATOM     65  C   UNL A   1      40.142  29.160  27.151  1.00  0.00     0.009 A 
ATOM     66  C   UNL A   1      40.443  27.671  29.030  1.00  0.00     0.009 A 
ATOM     67  C   UNL A   1      38.785  29.279  27.464  1.00  0.00     0.001 A 
ATOM     68  C   UNL A   1      39.080  27.768  29.323  1.00  0.00     0.001 A 
ATOM     69  C   UNL A   1      38.255  28.580  28.547  1.00  0.00     0.000 A 
ENDBRANCH  50  64
BRANCH  51  70
ATOM     70  C   UNL A   1      50.742  28.151  25.849  1.00  0.00    -0.014 A 
ATOM     71  C   UNL A   1      51.256  28.585  24.617  1.00  0.00     0.009 A 
ATOM     72  C   UNL A   1      51.617  27.585  26.788  1.00  0.00     0.009 A 
ATOM     73  C   UNL A   1      52.611  28.430  24.322  1.00  0.00     0.001 A 
ATOM     74  C   UNL A   1      52.978  27.460  26.503  1.00  0.00     0.001 A 
ATOM     75  C   UNL A   1      53.471  27.872  25.266  1.00  0.00     0.000 A 
ENDBRANCH  51  70
BRANCH  63  76
ATOM     76  C   UNL A   1      46.602  32.717  29.137  1.00  0.00    -0.014 A 
ATOM     77  C   UNL A   1      46.539  33.895  28.375  1.00  0.00     0.009 A 
ATOM     78  C   UNL A   1      46.977  32.804  30.488  1.00  0.00     0.009 A 
ATOM     79  C   UNL A   1      46.849  35.130  28.949  1.00  0.00     0.001 A 
ATOM     80  C   UNL A   1      47.254  34.043  31.068  1.00  0.00     0.001 A 
ATOM     81  C   UNL A   1      47.198  35.204  30.297  1.00  0.00     0.000 A 
ENDBRANCH  63  76
ENDBRANCH  37  38
ENDBRANCH  30  32
ENDBRANCH  29  30
ENDBRANCH  28  29
ENDBRANCH   1  28
TORSDOF 14
ENDMDL
MODEL 2
REMARK VINA RESULT:     -12.0      7.448     12.563
REMARK SMILES CC(C)(C)c1cc(Nc2ccccc2C(=O)OCCOC(=O)c2ccc(-c3c4nc(c(-c5ccccc5)c5ccc([nH]5)c(-c5ccccc5)c5nc(c(-c6ccccc6)c6ccc3[nH]6)C=C5)C=C4)cc2)cc2c1OCC2(C)C
REMARK SMILES IDX 18 1 17 2 15 3 16 4 14 5 9 6 10 7 11 8 13 9 12 10 8 11 7 13
REMARK SMILES IDX 5 14 6 15 73 16 72 17 74 18 71 19 76 20 75 21 77 22 78 23
REMARK SMILES IDX 2 24 1 25 3 26 4 27 19 28 20 29 21 30 22 31 23 32 24 33
REMARK SMILES IDX 70 34 25 35 69 36 26 37 27 38 28 39 63 40 29 41 68 42 62 43
REMARK SMILES IDX 64 44 30 45 67 46 61 47 60 48 31 50 53 51 38 52 52 53 39 54
REMARK SMILES IDX 42 55 51 56 65 57 40 58 41 59 50 61 66 62 43 63 32 64 33 65
REMARK SMILES IDX 37 66 34 67 36 68 35 69 54 70 55 71 59 72 56 73 58 74 57 75
REMARK SMILES IDX 44 76 45 77 49 78 46 79 48 80 47 81
REMARK H PARENT 8 12 64 49 42 60
REMARK Flexibility Score: inf
ROOT
ATOM      1  C   UNL A   1      33.673  35.334  28.697  1.00  0.00     0.275 C 
ENDROOT
BRANCH   1   2
ATOM      2  O   UNL A   1      33.634  33.931  29.027  1.00  0.00    -0.458 OA
BRANCH   2   3
ATOM      3  C   UNL A   1      33.301  33.058  28.041  1.00  0.00     0.340 C 
ATOM      4  O   UNL A   1      32.311  33.123  27.339  1.00  0.00    -0.246 OA
BRANCH   3   5
ATOM      5  C   UNL A   1      34.366  32.023  27.853  1.00  0.00     0.083 A 
ATOM      6  C   UNL A   1      34.118  30.660  27.597  1.00  0.00     0.053 A 
ATOM      7  C   UNL A   1      35.224  29.789  27.535  1.00  0.00     0.027 A 
ATOM      8  C   UNL A   1      36.528  30.233  27.761  1.00  0.00     0.002 A 
ATOM      9  C   UNL A   1      35.693  32.475  28.005  1.00  0.00     0.018 A 
ATOM     10  C   UNL A   1      36.763  31.580  27.995  1.00  0.00     0.001 A 
BRANCH   6  11
ATOM     11  N   UNL A   1      32.808  30.142  27.491  1.00  0.00    -0.355 N 
ATOM     12  H   UNL A   1      32.171  30.475  28.163  1.00  0.00     0.167 HD
BRANCH  11  13
ATOM     13  C   UNL A   1      32.277  29.222  26.565  1.00  0.00     0.039 A 
ATOM     14  C   UNL A   1      30.953  28.843  24.499  1.00  0.00     0.002 A 
ATOM     15  C   UNL A   1      31.483  29.694  25.497  1.00  0.00     0.034 A 
ATOM     16  C   UNL A   1      31.345  27.505  24.585  1.00  0.00     0.127 A 
ATOM     17  C   UNL A   1      32.114  27.023  25.632  1.00  0.00     0.006 A 
ATOM     18  O   UNL A   1      31.064  26.539  23.655  1.00  0.00    -0.492 OA
ATOM     19  C   UNL A   1      32.556  27.860  26.638  1.00  0.00     0.034 A 
ATOM     20  C   UNL A   1      32.410  25.574  25.465  1.00  0.00     0.028 C 
ATOM     21  C   UNL A   1      31.595  25.301  24.188  1.00  0.00     0.240 C 
ATOM     22  C   UNL A   1      33.913  25.350  25.249  1.00  0.00     0.020 C 
ATOM     23  C   UNL A   1      31.915  24.737  26.649  1.00  0.00     0.020 C 
BRANCH  14  24
ATOM     24  C   UNL A   1      30.036  29.370  23.384  1.00  0.00    -0.009 C 
ATOM     25  C   UNL A   1      28.862  28.392  23.191  1.00  0.00     0.016 C 
ATOM     26  C   UNL A   1      30.757  29.517  22.019  1.00  0.00     0.016 C 
ATOM     27  C   UNL A   1      29.483  30.776  23.717  1.00  0.00     0.016 C 
ENDBRANCH  14  24
ENDBRANCH  11  13
ENDBRANCH   6  11
ENDBRANCH   3   5
ENDBRANCH   2   3
ENDBRANCH   1   2
BRANCH   1  28
ATOM     28  C   UNL A   1      32.908  36.162  29.732  1.00  0.00     0.275 C 
BRANCH  28  29
ATOM     29  O   UNL A   1      32.490  35.324  30.826  1.00  0.00    -0.458 OA
BRANCH  29  30
ATOM     30  C   UNL A   1      32.803  35.778  32.059  1.00  0.00     0.338 C 
ATOM     31  O   UNL A   1      32.182  36.578  32.744  1.00  0.00    -0.246 OA
BRANCH  30  32
ATOM     32  C   UNL A   1      33.940  34.997  32.568  1.00  0.00     0.060 A 
ATOM     33  C   UNL A   1      33.781  33.748  33.167  1.00  0.00     0.016 A 
ATOM     34  C   UNL A   1      35.213  35.547  32.401  1.00  0.00     0.016 A 
ATOM     35  C   UNL A   1      34.914  33.062  33.617  1.00  0.00     0.010 A 
ATOM     36  C   UNL A   1      36.339  34.871  32.862  1.00  0.00     0.010 A 
ATOM     37  C   UNL A   1      36.201  33.619  33.469  1.00  0.00    -0.014 A 
BRANCH  37  38
ATOM     38  C   UNL A   1      37.407  32.829  33.814  1.00  0.00     0.031 A 
ATOM     39  C   UNL A   1      37.998  31.822  32.873  1.00  0.00     0.074 A 
ATOM     40  C   UNL A   1      37.948  33.003  35.035  1.00  0.00     0.049 A 
ATOM     41  N   UNL A   1      39.132  31.174  32.977  1.00  0.00    -0.248 NA
ATOM     42  C   UNL A   1      37.215  31.477  31.678  1.00  0.00     0.031 C 
ATOM     43  C   UNL A   1      37.398  33.871  36.078  1.00  0.00     0.029 A 
ATOM     44  N   UNL A   1      39.082  32.476  35.599  1.00  0.00    -0.354 N 
ATOM     45  C   UNL A   1      39.209  30.358  31.856  1.00  0.00     0.074 A 
ATOM     46  C   UNL A   1      37.979  30.548  31.115  1.00  0.00     0.031 C 
ATOM     47  C   UNL A   1      38.228  33.868  37.130  1.00  0.00     0.029 A 
ATOM     48  C   UNL A   1      39.359  32.990  36.843  1.00  0.00     0.049 A 
ATOM     49  H   UNL A   1      39.643  31.799  35.157  1.00  0.00     0.167 HD
ATOM     50  C   UNL A   1      40.225  29.548  31.472  1.00  0.00     0.031 A 
ATOM     51  C   UNL A   1      40.421  32.809  37.648  1.00  0.00     0.031 A 
ATOM     52  C   UNL A   1      41.439  29.358  32.228  1.00  0.00     0.049 A 
ATOM     53  C   UNL A   1      41.556  31.941  37.183  1.00  0.00     0.074 A 
ATOM     54  C   UNL A   1      42.562  28.627  31.881  1.00  0.00     0.029 A 
ATOM     55  N   UNL A   1      41.684  29.892  33.484  1.00  0.00    -0.354 N 
ATOM     56  N   UNL A   1      41.680  31.283  36.057  1.00  0.00    -0.248 NA
ATOM     57  C   UNL A   1      42.706  31.814  38.088  1.00  0.00     0.031 C 
ATOM     58  C   UNL A   1      43.457  28.662  32.954  1.00  0.00     0.029 A 
ATOM     59  C   UNL A   1      42.925  29.476  33.940  1.00  0.00     0.049 A 
ATOM     60  H   UNL A   1      41.067  30.479  33.979  1.00  0.00     0.167 HD
ATOM     61  C   UNL A   1      42.924  30.669  36.113  1.00  0.00     0.074 A 
ATOM     62  C   UNL A   1      43.529  31.063  37.369  1.00  0.00     0.031 C 
ATOM     63  C   UNL A   1      43.509  29.848  35.205  1.00  0.00     0.031 A 
BRANCH  50  64
ATOM     64  C   UNL A   1      40.099  28.820  30.160  1.00  0.00    -0.014 A 
ATOM     65  C   UNL A   1      40.436  29.464  28.958  1.00  0.00     0.009 A 
ATOM     66  C   UNL A   1      39.532  27.536  30.102  1.00  0.00     0.009 A 
ATOM     67  C   UNL A   1      40.194  28.847  27.728  1.00  0.00     0.001 A 
ATOM     68  C   UNL A   1      39.318  26.910  28.871  1.00  0.00     0.001 A 
ATOM     69  C   UNL A   1      39.638  27.569  27.687  1.00  0.00     0.000 A 
ENDBRANCH  50  64
BRANCH  51  70
ATOM     70  C   UNL A   1      40.487  33.550  38.934  1.00  0.00    -0.014 A 
ATOM     71  C   UNL A   1      39.936  33.007  40.105  1.00  0.00     0.009 A 
ATOM     72  C   UNL A   1      41.035  34.841  38.977  1.00  0.00     0.009 A 
ATOM     73  C   UNL A   1      39.909  33.752  41.286  1.00  0.00     0.001 A 
ATOM     74  C   UNL A   1      41.035  35.572  40.167  1.00  0.00     0.001 A 
ATOM     75  C   UNL A   1      40.462  35.031  41.316  1.00  0.00     0.000 A 
ENDBRANCH  51  70
BRANCH  63  76
ATOM     76  C   UNL A   1      44.866  29.294  35.542  1.00  0.00    -0.014 A 
ATOM     77  C   UNL A   1      46.025  29.997  35.174  1.00  0.00     0.009 A 
ATOM     78  C   UNL A   1      45.003  28.042  36.162  1.00  0.00     0.009 A 
ATOM     79  C   UNL A   1      47.290  29.456  35.413  1.00  0.00     0.001 A 
ATOM     80  C   UNL A   1      46.269  27.519  36.432  1.00  0.00     0.001 A 
ATOM     81  C   UNL A   1      47.411  28.222  36.050  1.00  0.00     0.000 A 
ENDBRANCH  63  76
ENDBRANCH  37  38
ENDBRANCH  30  32
ENDBRANCH  29  30
ENDBRANCH  28  29
ENDBRANCH   1  28
TORSDOF 14
ENDMDL
MODEL 3
REMARK VINA RESULT:     -11.8      4.413      6.751
REMARK SMILES CC(C)(C)c1cc(Nc2ccccc2C(=O)OCCOC(=O)c2ccc(-c3c4nc(c(-c5ccccc5)c5ccc([nH]5)c(-c5ccccc5)c5nc(c(-c6ccccc6)c6ccc3[nH]6)C=C5)C=C4)cc2)cc2c1OCC2(C)C
REMARK SMILES IDX 18 1 17 2 15 3 16 4 14 5 9 6 10 7 11 8 13 9 12 10 8 11 7 13
REMARK SMILES IDX 5 14 6 15 73 16 72 17 74 18 71 19 76 20 75 21 77 22 78 23
REMARK SMILES IDX 2 24 1 25 3 26 4 27 19 28 20 29 21 30 22 31 23 32 24 33
REMARK SMILES IDX 70 34 25 35 69 36 26 37 27 38 28 39 63 40 29 41 68 42 62 43
REMARK SMILES IDX 64 44 30 45 67 46 61 47 60 48 31 50 53 51 38 52 52 53 39 54
REMARK SMILES IDX 42 55 51 56 65 57 40 58 41 59 50 61 66 62 43 63 32 64 33 65
REMARK SMILES IDX 37 66 34 67 36 68 35 69 54 70 55 71 59 72 56 73 58 74 57 75
REMARK SMILES IDX 44 76 45 77 49 78 46 79 48 80 47 81
REMARK H PARENT 8 12 64 49 42 60
REMARK Flexibility Score: inf
ROOT
ATOM      1  C   UNL A   1      42.436  19.674  26.272  1.00  0.00     0.275 C 
ENDROOT
BRANCH   1   2
ATOM      2  O   UNL A   1      41.284  20.311  26.859  1.00  0.00    -0.458 OA
BRANCH   2   3
ATOM      3  C   UNL A   1      40.110  20.249  26.177  1.00  0.00     0.340 C 
ATOM      4  O   UNL A   1      39.671  19.270  25.607  1.00  0.00    -0.246 OA
BRANCH   3   5
ATOM      5  C   UNL A   1      39.355  21.537  26.284  1.00  0.00     0.083 A 
ATOM      6  C   UNL A   1      38.115  21.789  25.663  1.00  0.00     0.053 A 
ATOM      7  C   UNL A   1      37.569  23.083  25.781  1.00  0.00     0.027 A 
ATOM      8  C   UNL A   1      38.239  24.109  26.450  1.00  0.00     0.002 A 
ATOM      9  C   UNL A   1      39.987  22.560  27.021  1.00  0.00     0.018 A 
ATOM     10  C   UNL A   1      39.451  23.846  27.072  1.00  0.00     0.001 A 
BRANCH   6  11
ATOM     11  N   UNL A   1      37.463  20.821  24.868  1.00  0.00    -0.355 N 
ATOM     12  H   UNL A   1      38.049  20.315  24.259  1.00  0.00     0.167 HD
BRANCH  11  13
ATOM     13  C   UNL A   1      36.100  20.468  24.817  1.00  0.00     0.039 A 
ATOM     14  C   UNL A   1      33.738  21.217  24.643  1.00  0.00     0.002 A 
ATOM     15  C   UNL A   1      35.124  21.487  24.746  1.00  0.00     0.034 A 
ATOM     16  C   UNL A   1      33.400  19.867  24.522  1.00  0.00     0.127 A 
ATOM     17  C   UNL A   1      34.343  18.856  24.601  1.00  0.00     0.006 A 
ATOM     18  O   UNL A   1      32.140  19.389  24.277  1.00  0.00    -0.492 OA
ATOM     19  C   UNL A   1      35.683  19.140  24.780  1.00  0.00     0.034 A 
ATOM     20  C   UNL A   1      33.720  17.517  24.414  1.00  0.00     0.028 C 
ATOM     21  C   UNL A   1      32.245  17.945  24.307  1.00  0.00     0.240 C 
ATOM     22  C   UNL A   1      34.226  16.861  23.122  1.00  0.00     0.020 C 
ATOM     23  C   UNL A   1      33.961  16.588  25.608  1.00  0.00     0.020 C 
BRANCH  14  24
ATOM     24  C   UNL A   1      32.690  22.341  24.635  1.00  0.00    -0.009 C 
ATOM     25  C   UNL A   1      32.128  22.497  23.210  1.00  0.00     0.016 C 
ATOM     26  C   UNL A   1      33.266  23.713  25.069  1.00  0.00     0.016 C 
ATOM     27  C   UNL A   1      31.530  22.046  25.615  1.00  0.00     0.016 C 
ENDBRANCH  14  24
ENDBRANCH  11  13
ENDBRANCH   6  11
ENDBRANCH   3   5
ENDBRANCH   2   3
ENDBRANCH   1   2
BRANCH   1  28
ATOM     28  C   UNL A   1      43.333  20.699  25.574  1.00  0.00     0.275 C 
BRANCH  28  29
ATOM     29  O   UNL A   1      43.457  21.883  26.385  1.00  0.00    -0.458 OA
BRANCH  29  30
ATOM     30  C   UNL A   1      43.510  23.050  25.706  1.00  0.00     0.338 C 
ATOM     31  O   UNL A   1      43.632  23.210  24.500  1.00  0.00    -0.246 OA
BRANCH  30  32
ATOM     32  C   UNL A   1      43.189  24.143  26.634  1.00  0.00     0.060 A 
ATOM     33  C   UNL A   1      43.111  25.473  26.224  1.00  0.00     0.016 A 
ATOM     34  C   UNL A   1      42.933  23.794  27.962  1.00  0.00     0.016 A 
ATOM     35  C   UNL A   1      42.790  26.457  27.167  1.00  0.00     0.010 A 
ATOM     36  C   UNL A   1      42.629  24.773  28.903  1.00  0.00     0.010 A 
ATOM     37  C   UNL A   1      42.549  26.114  28.513  1.00  0.00    -0.014 A 
BRANCH  37  38
ATOM     38  C   UNL A   1      42.069  27.135  29.475  1.00  0.00     0.031 A 
ATOM     39  C   UNL A   1      40.807  27.912  29.251  1.00  0.00     0.074 A 
ATOM     40  C   UNL A   1      42.830  27.391  30.556  1.00  0.00     0.049 A 
ATOM     41  N   UNL A   1      40.188  28.721  30.075  1.00  0.00    -0.248 NA
ATOM     42  C   UNL A   1      40.166  27.792  27.933  1.00  0.00     0.031 C 
ATOM     43  C   UNL A   1      44.133  26.779  30.826  1.00  0.00     0.029 A 
ATOM     44  N   UNL A   1      42.615  28.213  31.633  1.00  0.00    -0.354 N 
ATOM     45  C   UNL A   1      39.078  29.192  29.386  1.00  0.00     0.074 A 
ATOM     46  C   UNL A   1      39.140  28.626  28.055  1.00  0.00     0.031 C 
ATOM     47  C   UNL A   1      44.572  27.197  32.021  1.00  0.00     0.029 A 
ATOM     48  C   UNL A   1      43.591  28.114  32.595  1.00  0.00     0.049 A 
ATOM     49  H   UNL A   1      41.838  28.813  31.709  1.00  0.00     0.167 HD
ATOM     50  C   UNL A   1      38.089  30.001  29.837  1.00  0.00     0.031 A 
ATOM     51  C   UNL A   1      43.671  28.666  33.819  1.00  0.00     0.031 A 
ATOM     52  C   UNL A   1      38.047  30.568  31.162  1.00  0.00     0.049 A 
ATOM     53  C   UNL A   1      42.542  29.523  34.315  1.00  0.00     0.074 A 
ATOM     54  C   UNL A   1      37.044  31.329  31.741  1.00  0.00     0.029 A 
ATOM     55  N   UNL A   1      39.053  30.450  32.109  1.00  0.00    -0.354 N 
ATOM     56  N   UNL A   1      41.429  29.851  33.706  1.00  0.00    -0.248 NA
ATOM     57  C   UNL A   1      42.669  30.064  35.674  1.00  0.00     0.031 C 
ATOM     58  C   UNL A   1      37.472  31.725  33.011  1.00  0.00     0.029 A 
ATOM     59  C   UNL A   1      38.709  31.152  33.254  1.00  0.00     0.049 A 
ATOM     60  H   UNL A   1      39.887  29.942  31.986  1.00  0.00     0.167 HD
ATOM     61  C   UNL A   1      40.718  30.629  34.609  1.00  0.00     0.074 A 
ATOM     62  C   UNL A   1      41.511  30.695  35.819  1.00  0.00     0.031 C 
ATOM     63  C   UNL A   1      39.518  31.239  34.445  1.00  0.00     0.031 A 
BRANCH  50  64
ATOM     64  C   UNL A   1      36.941  30.306  28.911  1.00  0.00    -0.014 A 
ATOM     65  C   UNL A   1      36.699  31.626  28.495  1.00  0.00     0.009 A 
ATOM     66  C   UNL A   1      36.025  29.306  28.547  1.00  0.00     0.009 A 
ATOM     67  C   UNL A   1      35.559  31.939  27.749  1.00  0.00     0.001 A 
ATOM     68  C   UNL A   1      34.901  29.617  27.777  1.00  0.00     0.001 A 
ATOM     69  C   UNL A   1      34.664  30.934  27.389  1.00  0.00     0.000 A 
ENDBRANCH  50  64
BRANCH  51  70
ATOM     70  C   UNL A   1      44.831  28.332  34.686  1.00  0.00    -0.014 A 
ATOM     71  C   UNL A   1      46.006  29.100  34.642  1.00  0.00     0.009 A 
ATOM     72  C   UNL A   1      44.794  27.195  35.507  1.00  0.00     0.009 A 
ATOM     73  C   UNL A   1      47.128  28.721  35.381  1.00  0.00     0.001 A 
ATOM     74  C   UNL A   1      45.907  26.836  36.270  1.00  0.00     0.001 A 
ATOM     75  C   UNL A   1      47.076  27.592  36.197  1.00  0.00     0.000 A 
ENDBRANCH  51  70
BRANCH  63  76
ATOM     76  C   UNL A   1      38.991  32.055  35.593  1.00  0.00    -0.014 A 
ATOM     77  C   UNL A   1      39.333  33.413  35.708  1.00  0.00     0.009 A 
ATOM     78  C   UNL A   1      38.213  31.466  36.603  1.00  0.00     0.009 A 
ATOM     79  C   UNL A   1      38.913  34.160  36.810  1.00  0.00     0.001 A 
ATOM     80  C   UNL A   1      37.764  32.224  37.686  1.00  0.00     0.001 A 
ATOM     81  C   UNL A   1      38.122  33.568  37.793  1.00  0.00     0.000 A 
ENDBRANCH  63  76
ENDBRANCH  37  38
ENDBRANCH  30  32
ENDBRANCH  29  30
ENDBRANCH  28  29
ENDBRANCH   1  28
TORSDOF 14
ENDMDL
