MODEL 1
REMARK VINA RESULT:     -11.8      0.000      0.000
REMARK SMILES C[C@H]1C[N@H+]2CCCC[C@@H]2CN1c1ccc(C(=O)OCCOC(=O)c2ccc(-c3c4nc(c(-c5ccccc5)c5ccc([nH]5)c(-c5ccccc5)c5nc(c(-c6ccccc6)c6ccc3[nH]6)C=C5)C=C4)cc2)cc1Cl
REMARK SMILES IDX 20 1 19 2 18 3 16 4 17 5 15 6 12 7 13 8 73 9 14 10 72 11
REMARK SMILES IDX 74 12 11 13 1 14 2 15 3 16 4 17 10 18 5 19 9 20 6 22 8 23
REMARK SMILES IDX 7 24 21 25 22 26 23 27 24 28 25 29 71 30 26 31 70 32 27 33
REMARK SMILES IDX 28 34 29 35 64 36 30 37 69 38 63 39 65 40 31 41 68 42 62 43
REMARK SMILES IDX 61 44 32 46 54 47 39 48 53 49 40 50 43 51 52 52 66 53 41 54
REMARK SMILES IDX 42 55 51 57 67 58 44 59 33 60 34 61 38 62 35 63 37 64 36 65
REMARK SMILES IDX 55 66 56 67 60 68 57 69 59 70 58 71 45 72 46 73 50 74 47 75
REMARK SMILES IDX 49 76 48 77
REMARK H PARENT 4 21 65 45 43 56
REMARK Flexibility Score: inf
ROOT
ATOM      1  C   UNL A   1      43.351  21.386  25.535  1.00  0.00     0.275 C 
ENDROOT
BRANCH   1   2
ATOM      2  C   UNL A   1      42.391  20.550  26.381  1.00  0.00     0.275 C 
BRANCH   2   3
ATOM      3  O   UNL A   1      41.030  20.984  26.189  1.00  0.00    -0.458 OA
BRANCH   3   4
ATOM      4  C   UNL A   1      40.146  20.031  25.804  1.00  0.00     0.338 C 
ATOM      5  O   UNL A   1      40.346  18.828  25.751  1.00  0.00    -0.246 OA
BRANCH   4   6
ATOM      6  C   UNL A   1      38.813  20.635  25.561  1.00  0.00     0.061 A 
ATOM      7  C   UNL A   1      36.197  21.649  25.210  1.00  0.00     0.056 A 
ATOM      8  C   UNL A   1      36.508  20.331  24.857  1.00  0.00     0.028 A 
ATOM      9  C   UNL A   1      37.248  22.464  25.694  1.00  0.00     0.065 A 
ATOM     10  C   UNL A   1      37.806  19.836  25.006  1.00  0.00     0.018 A 
ATOM     11  C   UNL A   1      38.538  21.962  25.885  1.00  0.00     0.038 A 
ATOM     12  Cl  UNL A   1      36.979  24.127  26.109  1.00  0.00    -0.082 Cl
BRANCH   7  13
ATOM     13  N   UNL A   1      34.911  22.140  25.054  1.00  0.00    -0.356 N 
ATOM     14  C   UNL A   1      34.183  21.617  27.394  1.00  0.00     0.037 C 
ATOM     15  C   UNL A   1      33.773  21.772  25.924  1.00  0.00     0.134 C 
ATOM     16  C   UNL A   1      32.682  22.892  25.842  1.00  0.00     0.287 C 
ATOM     17  N   UNL A   1      32.304  23.324  24.471  1.00  0.00    -0.329 N 
ATOM     18  C   UNL A   1      34.526  22.466  23.672  1.00  0.00     0.182 C 
ATOM     19  C   UNL A   1      31.424  24.502  24.547  1.00  0.00     0.262 C 
ATOM     20  C   UNL A   1      33.532  23.649  23.696  1.00  0.00     0.203 C 
ATOM     21  H   UNL A   1      31.805  22.569  24.001  1.00  0.00     0.348 HD
ATOM     22  C   UNL A   1      31.024  25.006  23.158  1.00  0.00     0.062 C 
ATOM     23  C   UNL A   1      33.161  24.051  22.263  1.00  0.00     0.067 C 
ATOM     24  C   UNL A   1      32.240  25.266  22.277  1.00  0.00     0.012 C 
ENDBRANCH   7  13
ENDBRANCH   4   6
ENDBRANCH   3   4
ENDBRANCH   2   3
ENDBRANCH   1   2
BRANCH   1  25
ATOM     25  O   UNL A   1      42.672  22.551  25.034  1.00  0.00    -0.458 OA
BRANCH  25  26
ATOM     26  C   UNL A   1      43.398  23.692  25.006  1.00  0.00     0.338 C 
ATOM     27  O   UNL A   1      44.367  23.946  24.314  1.00  0.00    -0.246 OA
BRANCH  26  28
ATOM     28  C   UNL A   1      42.824  24.657  25.956  1.00  0.00     0.060 A 
ATOM     29  C   UNL A   1      43.308  25.962  25.966  1.00  0.00     0.016 A 
ATOM     30  C   UNL A   1      41.905  24.242  26.916  1.00  0.00     0.016 A 
ATOM     31  C   UNL A   1      42.936  26.841  26.981  1.00  0.00     0.010 A 
ATOM     32  C   UNL A   1      41.466  25.152  27.886  1.00  0.00     0.010 A 
ATOM     33  C   UNL A   1      42.001  26.454  27.950  1.00  0.00    -0.014 A 
BRANCH  33  34
ATOM     34  C   UNL A   1      41.618  27.383  29.052  1.00  0.00     0.031 A 
ATOM     35  C   UNL A   1      42.411  27.407  30.334  1.00  0.00     0.074 A 
ATOM     36  C   UNL A   1      40.569  28.218  28.915  1.00  0.00     0.049 A 
ATOM     37  N   UNL A   1      42.138  28.009  31.466  1.00  0.00    -0.248 NA
ATOM     38  C   UNL A   1      43.671  26.646  30.349  1.00  0.00     0.031 C 
ATOM     39  C   UNL A   1      39.737  28.352  27.718  1.00  0.00     0.029 A 
ATOM     40  N   UNL A   1      40.027  29.123  29.796  1.00  0.00    -0.354 N 
ATOM     41  C   UNL A   1      43.156  27.649  32.342  1.00  0.00     0.074 A 
ATOM     42  C   UNL A   1      44.053  26.778  31.611  1.00  0.00     0.031 C 
ATOM     43  C   UNL A   1      38.818  29.308  27.924  1.00  0.00     0.029 A 
ATOM     44  C   UNL A   1      38.936  29.793  29.294  1.00  0.00     0.049 A 
ATOM     45  H   UNL A   1      40.384  29.277  30.699  1.00  0.00     0.167 HD
ATOM     46  C   UNL A   1      43.327  28.004  33.638  1.00  0.00     0.031 A 
ATOM     47  C   UNL A   1      38.095  30.667  29.879  1.00  0.00     0.031 A 
ATOM     48  C   UNL A   1      42.464  28.905  34.356  1.00  0.00     0.049 A 
ATOM     49  C   UNL A   1      38.281  31.020  31.326  1.00  0.00     0.074 A 
ATOM     50  C   UNL A   1      42.563  29.332  35.670  1.00  0.00     0.029 A 
ATOM     51  N   UNL A   1      41.351  29.531  33.817  1.00  0.00    -0.354 N 
ATOM     52  N   UNL A   1      39.213  30.623  32.158  1.00  0.00    -0.248 NA
ATOM     53  C   UNL A   1      37.288  31.926  31.919  1.00  0.00     0.031 C 
ATOM     54  C   UNL A   1      41.489  30.189  35.936  1.00  0.00     0.029 A 
ATOM     55  C   UNL A   1      40.749  30.332  34.774  1.00  0.00     0.049 A 
ATOM     56  H   UNL A   1      41.036  29.422  32.890  1.00  0.00     0.167 HD
ATOM     57  C   UNL A   1      38.924  31.239  33.368  1.00  0.00     0.074 A 
ATOM     58  C   UNL A   1      37.744  32.052  33.157  1.00  0.00     0.031 C 
ATOM     59  C   UNL A   1      39.576  31.134  34.551  1.00  0.00     0.031 A 
BRANCH  46  60
ATOM     60  C   UNL A   1      44.473  27.381  34.385  1.00  0.00    -0.014 A 
ATOM     61  C   UNL A   1      45.723  28.011  34.476  1.00  0.00     0.009 A 
ATOM     62  C   UNL A   1      44.281  26.155  35.042  1.00  0.00     0.009 A 
ATOM     63  C   UNL A   1      46.767  27.409  35.183  1.00  0.00     0.001 A 
ATOM     64  C   UNL A   1      45.317  25.569  35.770  1.00  0.00     0.001 A 
ATOM     65  C   UNL A   1      46.562  26.191  35.833  1.00  0.00     0.000 A 
ENDBRANCH  46  60
BRANCH  47  66
ATOM     66  C   UNL A   1      36.960  31.232  29.102  1.00  0.00    -0.014 A 
ATOM     67  C   UNL A   1      35.857  30.434  28.765  1.00  0.00     0.009 A 
ATOM     68  C   UNL A   1      36.974  32.577  28.698  1.00  0.00     0.009 A 
ATOM     69  C   UNL A   1      34.797  30.969  28.028  1.00  0.00     0.001 A 
ATOM     70  C   UNL A   1      35.900  33.117  27.989  1.00  0.00     0.001 A 
ATOM     71  C   UNL A   1      34.815  32.310  27.648  1.00  0.00     0.000 A 
ENDBRANCH  47  66
BRANCH  59  72
ATOM     72  C   UNL A   1      39.046  31.945  35.698  1.00  0.00    -0.014 A 
ATOM     73  C   UNL A   1      38.148  31.393  36.623  1.00  0.00     0.009 A 
ATOM     74  C   UNL A   1      39.477  33.269  35.871  1.00  0.00     0.009 A 
ATOM     75  C   UNL A   1      37.666  32.163  37.684  1.00  0.00     0.001 A 
ATOM     76  C   UNL A   1      39.013  34.028  36.945  1.00  0.00     0.001 A 
ATOM     77  C   UNL A   1      38.103  33.479  37.845  1.00  0.00     0.000 A 
ENDBRANCH  59  72
ENDBRANCH  33  34
ENDBRANCH  26  28
ENDBRANCH  25  26
ENDBRANCH   1  25
TORSDOF 12
ENDMDL
MODEL 2
REMARK VINA RESULT:     -11.6      4.580      6.854
REMARK SMILES C[C@H]1C[N@H+]2CCCC[C@@H]2CN1c1ccc(C(=O)OCCOC(=O)c2ccc(-c3c4nc(c(-c5ccccc5)c5ccc([nH]5)c(-c5ccccc5)c5nc(c(-c6ccccc6)c6ccc3[nH]6)C=C5)C=C4)cc2)cc1Cl
REMARK SMILES IDX 20 1 19 2 18 3 16 4 17 5 15 6 12 7 13 8 73 9 14 10 72 11
REMARK SMILES IDX 74 12 11 13 1 14 2 15 3 16 4 17 10 18 5 19 9 20 6 22 8 23
REMARK SMILES IDX 7 24 21 25 22 26 23 27 24 28 25 29 71 30 26 31 70 32 27 33
REMARK SMILES IDX 28 34 29 35 64 36 30 37 69 38 63 39 65 40 31 41 68 42 62 43
REMARK SMILES IDX 61 44 32 46 54 47 39 48 53 49 40 50 43 51 52 52 66 53 41 54
REMARK SMILES IDX 42 55 51 57 67 58 44 59 33 60 34 61 38 62 35 63 37 64 36 65
REMARK SMILES IDX 55 66 56 67 60 68 57 69 59 70 58 71 45 72 46 73 50 74 47 75
REMARK SMILES IDX 49 76 48 77
REMARK H PARENT 4 21 65 45 43 56
REMARK Flexibility Score: inf
ROOT
ATOM      1  C   UNL A   1      43.229  18.624  25.818  1.00  0.00     0.275 C 
ENDROOT
BRANCH   1   2
ATOM      2  C   UNL A   1      42.207  19.389  26.657  1.00  0.00     0.275 C 
BRANCH   2   3
ATOM      3  O   UNL A   1      41.868  20.643  26.031  1.00  0.00    -0.458 OA
BRANCH   3   4
ATOM      4  C   UNL A   1      41.354  21.599  26.843  1.00  0.00     0.338 C 
ATOM      5  O   UNL A   1      41.953  22.225  27.703  1.00  0.00    -0.246 OA
BRANCH   4   6
ATOM      6  C   UNL A   1      39.951  21.895  26.465  1.00  0.00     0.061 A 
ATOM      7  C   UNL A   1      37.344  22.589  25.620  1.00  0.00     0.056 A 
ATOM      8  C   UNL A   1      38.205  23.554  26.154  1.00  0.00     0.028 A 
ATOM      9  C   UNL A   1      37.806  21.252  25.570  1.00  0.00     0.065 A 
ATOM     10  C   UNL A   1      39.483  23.208  26.596  1.00  0.00     0.018 A 
ATOM     11  C   UNL A   1      39.100  20.908  25.971  1.00  0.00     0.038 A 
ATOM     12  Cl  UNL A   1      36.797  19.972  24.975  1.00  0.00    -0.082 Cl
BRANCH   7  13
ATOM     13  N   UNL A   1      36.072  22.933  25.190  1.00  0.00    -0.356 N 
ATOM     14  C   UNL A   1      36.654  22.952  22.753  1.00  0.00     0.037 C 
ATOM     15  C   UNL A   1      35.778  23.532  23.870  1.00  0.00     0.134 C 
ATOM     16  C   UNL A   1      34.281  23.256  23.504  1.00  0.00     0.287 C 
ATOM     17  N   UNL A   1      33.290  23.571  24.566  1.00  0.00    -0.329 N 
ATOM     18  C   UNL A   1      35.137  23.338  26.251  1.00  0.00     0.182 C 
ATOM     19  C   UNL A   1      31.959  23.087  24.161  1.00  0.00     0.262 C 
ATOM     20  C   UNL A   1      33.706  22.926  25.841  1.00  0.00     0.203 C 
ATOM     21  H   UNL A   1      33.246  24.580  24.703  1.00  0.00     0.348 HD
ATOM     22  C   UNL A   1      30.901  23.362  25.233  1.00  0.00     0.062 C 
ATOM     23  C   UNL A   1      32.717  23.281  26.958  1.00  0.00     0.067 C 
ATOM     24  C   UNL A   1      31.314  22.809  26.592  1.00  0.00     0.012 C 
ENDBRANCH   7  13
ENDBRANCH   4   6
ENDBRANCH   3   4
ENDBRANCH   2   3
ENDBRANCH   1   2
BRANCH   1  25
ATOM     25  O   UNL A   1      43.427  19.293  24.560  1.00  0.00    -0.458 OA
BRANCH  25  26
ATOM     26  C   UNL A   1      44.711  19.564  24.231  1.00  0.00     0.338 C 
ATOM     27  O   UNL A   1      45.532  18.814  23.734  1.00  0.00    -0.246 OA
BRANCH  26  28
ATOM     28  C   UNL A   1      45.006  20.971  24.543  1.00  0.00     0.060 A 
ATOM     29  C   UNL A   1      45.636  21.277  25.746  1.00  0.00     0.016 A 
ATOM     30  C   UNL A   1      44.547  21.990  23.712  1.00  0.00     0.016 A 
ATOM     31  C   UNL A   1      45.746  22.601  26.164  1.00  0.00     0.010 A 
ATOM     32  C   UNL A   1      44.734  23.324  24.094  1.00  0.00     0.010 A 
ATOM     33  C   UNL A   1      45.306  23.646  25.341  1.00  0.00    -0.014 A 
BRANCH  33  34
ATOM     34  C   UNL A   1      45.399  25.064  25.795  1.00  0.00     0.031 A 
ATOM     35  C   UNL A   1      46.711  25.802  25.713  1.00  0.00     0.074 A 
ATOM     36  C   UNL A   1      44.314  25.706  26.272  1.00  0.00     0.049 A 
ATOM     37  N   UNL A   1      47.038  26.968  26.213  1.00  0.00    -0.248 NA
ATOM     38  C   UNL A   1      47.802  25.137  24.982  1.00  0.00     0.031 C 
ATOM     39  C   UNL A   1      42.963  25.148  26.363  1.00  0.00     0.029 A 
ATOM     40  N   UNL A   1      44.177  26.982  26.765  1.00  0.00    -0.354 N 
ATOM     41  C   UNL A   1      48.383  27.146  25.913  1.00  0.00     0.074 A 
ATOM     42  C   UNL A   1      48.812  25.970  25.185  1.00  0.00     0.031 C 
ATOM     43  C   UNL A   1      42.131  26.084  26.841  1.00  0.00     0.029 A 
ATOM     44  C   UNL A   1      42.898  27.278  27.175  1.00  0.00     0.049 A 
ATOM     45  H   UNL A   1      44.922  27.621  26.820  1.00  0.00     0.167 HD
ATOM     46  C   UNL A   1      49.191  28.190  26.219  1.00  0.00     0.031 A 
ATOM     47  C   UNL A   1      42.402  28.368  27.791  1.00  0.00     0.031 A 
ATOM     48  C   UNL A   1      48.760  29.381  26.902  1.00  0.00     0.049 A 
ATOM     49  C   UNL A   1      43.322  29.497  28.152  1.00  0.00     0.074 A 
ATOM     50  C   UNL A   1      49.506  30.496  27.247  1.00  0.00     0.029 A 
ATOM     51  N   UNL A   1      47.464  29.621  27.330  1.00  0.00    -0.354 N 
ATOM     52  N   UNL A   1      44.605  29.624  27.916  1.00  0.00    -0.248 NA
ATOM     53  C   UNL A   1      42.728  30.626  28.884  1.00  0.00     0.031 C 
ATOM     54  C   UNL A   1      48.667  31.395  27.916  1.00  0.00     0.029 A 
ATOM     55  C   UNL A   1      47.391  30.860  27.945  1.00  0.00     0.049 A 
ATOM     56  H   UNL A   1      46.707  29.001  27.213  1.00  0.00     0.167 HD
ATOM     57  C   UNL A   1      44.969  30.849  28.459  1.00  0.00     0.074 A 
ATOM     58  C   UNL A   1      43.768  31.436  29.018  1.00  0.00     0.031 C 
ATOM     59  C   UNL A   1      46.191  31.432  28.497  1.00  0.00     0.031 A 
BRANCH  46  60
ATOM     60  C   UNL A   1      50.645  28.073  25.855  1.00  0.00    -0.014 A 
ATOM     61  C   UNL A   1      51.138  28.539  24.627  1.00  0.00     0.009 A 
ATOM     62  C   UNL A   1      51.544  27.519  26.781  1.00  0.00     0.009 A 
ATOM     63  C   UNL A   1      52.496  28.423  24.321  1.00  0.00     0.001 A 
ATOM     64  C   UNL A   1      52.904  27.428  26.484  1.00  0.00     0.001 A 
ATOM     65  C   UNL A   1      53.378  27.871  25.252  1.00  0.00     0.000 A 
ENDBRANCH  46  60
BRANCH  47  66
ATOM     66  C   UNL A   1      40.961  28.419  28.154  1.00  0.00    -0.014 A 
ATOM     67  C   UNL A   1      40.513  27.897  29.376  1.00  0.00     0.009 A 
ATOM     68  C   UNL A   1      40.027  28.997  27.278  1.00  0.00     0.009 A 
ATOM     69  C   UNL A   1      39.156  27.941  29.708  1.00  0.00     0.001 A 
ATOM     70  C   UNL A   1      38.677  29.068  27.626  1.00  0.00     0.001 A 
ATOM     71  C   UNL A   1      38.242  28.533  28.838  1.00  0.00     0.000 A 
ENDBRANCH  47  66
BRANCH  59  72
ATOM     72  C   UNL A   1      46.283  32.787  29.135  1.00  0.00    -0.014 A 
ATOM     73  C   UNL A   1      46.189  33.958  28.368  1.00  0.00     0.009 A 
ATOM     74  C   UNL A   1      46.437  32.892  30.526  1.00  0.00     0.009 A 
ATOM     75  C   UNL A   1      46.277  35.210  28.980  1.00  0.00     0.001 A 
ATOM     76  C   UNL A   1      46.500  34.144  31.137  1.00  0.00     0.001 A 
ATOM     77  C   UNL A   1      46.429  35.301  30.365  1.00  0.00     0.000 A 
ENDBRANCH  59  72
ENDBRANCH  33  34
ENDBRANCH  26  28
ENDBRANCH  25  26
ENDBRANCH   1  25
TORSDOF 12
ENDMDL
MODEL 3
REMARK VINA RESULT:     -11.6      4.703      9.354
REMARK SMILES C[C@H]1C[N@H+]2CCCC[C@@H]2CN1c1ccc(C(=O)OCCOC(=O)c2ccc(-c3c4nc(c(-c5ccccc5)c5ccc([nH]5)c(-c5ccccc5)c5nc(c(-c6ccccc6)c6ccc3[nH]6)C=C5)C=C4)cc2)cc1Cl
REMARK SMILES IDX 20 1 19 2 18 3 16 4 17 5 15 6 12 7 13 8 73 9 14 10 72 11
REMARK SMILES IDX 74 12 11 13 1 14 2 15 3 16 4 17 10 18 5 19 9 20 6 22 8 23
REMARK SMILES IDX 7 24 21 25 22 26 23 27 24 28 25 29 71 30 26 31 70 32 27 33
REMARK SMILES IDX 28 34 29 35 64 36 30 37 69 38 63 39 65 40 31 41 68 42 62 43
REMARK SMILES IDX 61 44 32 46 54 47 39 48 53 49 40 50 43 51 52 52 66 53 41 54
REMARK SMILES IDX 42 55 51 57 67 58 44 59 33 60 34 61 38 62 35 63 37 64 36 65
REMARK SMILES IDX 55 66 56 67 60 68 57 69 59 70 58 71 45 72 46 73 50 74 47 75
REMARK SMILES IDX 49 76 48 77
REMARK H PARENT 4 21 65 45 43 56
REMARK Flexibility Score: inf
ROOT
ATOM      1  C   UNL A   1      32.934  36.203  29.750  1.00  0.00     0.275 C 
ENDROOT
BRANCH   1   2
ATOM      2  C   UNL A   1      33.864  35.400  28.842  1.00  0.00     0.275 C 
BRANCH   2   3
ATOM      3  O   UNL A   1      33.858  34.006  29.208  1.00  0.00    -0.458 OA
BRANCH   3   4
ATOM      4  C   UNL A   1      34.902  33.264  28.764  1.00  0.00     0.338 C 
ATOM      5  O   UNL A   1      36.083  33.441  29.018  1.00  0.00    -0.246 OA
BRANCH   4   6
ATOM      6  C   UNL A   1      34.411  32.090  28.002  1.00  0.00     0.061 A 
ATOM      7  C   UNL A   1      33.491  29.749  26.710  1.00  0.00     0.056 A 
ATOM      8  C   UNL A   1      34.743  29.778  27.336  1.00  0.00     0.028 A 
ATOM      9  C   UNL A   1      32.734  30.945  26.702  1.00  0.00     0.065 A 
ATOM     10  C   UNL A   1      35.209  30.941  27.952  1.00  0.00     0.018 A 
ATOM     11  C   UNL A   1      33.178  32.099  27.353  1.00  0.00     0.038 A 
ATOM     12  Cl  UNL A   1      31.194  31.029  25.907  1.00  0.00    -0.082 Cl
BRANCH   7  13
ATOM     13  N   UNL A   1      33.033  28.597  26.093  1.00  0.00    -0.356 N 
ATOM     14  C   UNL A   1      31.390  28.012  27.892  1.00  0.00     0.037 C 
ATOM     15  C   UNL A   1      32.337  27.500  26.799  1.00  0.00     0.134 C 
ATOM     16  C   UNL A   1      31.487  26.685  25.767  1.00  0.00     0.287 C 
ATOM     17  N   UNL A   1      32.198  26.275  24.527  1.00  0.00    -0.329 N 
ATOM     18  C   UNL A   1      33.815  28.155  24.927  1.00  0.00     0.182 C 
ATOM     19  C   UNL A   1      31.238  25.693  23.574  1.00  0.00     0.262 C 
ATOM     20  C   UNL A   1      32.868  27.459  23.924  1.00  0.00     0.203 C 
ATOM     21  H   UNL A   1      32.903  25.575  24.754  1.00  0.00     0.348 HD
ATOM     22  C   UNL A   1      31.914  25.277  22.265  1.00  0.00     0.062 C 
ATOM     23  C   UNL A   1      33.645  27.043  22.669  1.00  0.00     0.067 C 
ATOM     24  C   UNL A   1      32.702  26.425  21.644  1.00  0.00     0.012 C 
ENDBRANCH   7  13
ENDBRANCH   4   6
ENDBRANCH   3   4
ENDBRANCH   2   3
ENDBRANCH   1   2
BRANCH   1  25
ATOM     25  O   UNL A   1      32.493  35.382  30.847  1.00  0.00    -0.458 OA
BRANCH  25  26
ATOM     26  C   UNL A   1      32.789  35.841  32.084  1.00  0.00     0.338 C 
ATOM     27  O   UNL A   1      32.226  36.722  32.710  1.00  0.00    -0.246 OA
BRANCH  26  28
ATOM     28  C   UNL A   1      33.927  35.083  32.625  1.00  0.00     0.060 A 
ATOM     29  C   UNL A   1      35.199  35.647  32.572  1.00  0.00     0.016 A 
ATOM     30  C   UNL A   1      33.758  33.772  33.063  1.00  0.00     0.016 A 
ATOM     31  C   UNL A   1      36.320  34.881  32.885  1.00  0.00     0.010 A 
ATOM     32  C   UNL A   1      34.878  33.030  33.459  1.00  0.00     0.010 A 
ATOM     33  C   UNL A   1      36.176  33.564  33.343  1.00  0.00    -0.014 A 
BRANCH  33  34
ATOM     34  C   UNL A   1      37.374  32.733  33.656  1.00  0.00     0.031 A 
ATOM     35  C   UNL A   1      38.105  32.915  34.962  1.00  0.00     0.074 A 
ATOM     36  C   UNL A   1      37.813  31.802  32.785  1.00  0.00     0.049 A 
ATOM     37  N   UNL A   1      39.256  32.420  35.344  1.00  0.00    -0.248 NA
ATOM     38  C   UNL A   1      37.460  33.776  35.968  1.00  0.00     0.031 C 
ATOM     39  C   UNL A   1      37.184  31.468  31.505  1.00  0.00     0.029 A 
ATOM     40  N   UNL A   1      38.895  30.957  32.851  1.00  0.00    -0.354 N 
ATOM     41  C   UNL A   1      39.502  32.958  36.602  1.00  0.00     0.074 A 
ATOM     42  C   UNL A   1      38.380  33.815  36.921  1.00  0.00     0.031 C 
ATOM     43  C   UNL A   1      37.865  30.467  30.928  1.00  0.00     0.029 A 
ATOM     44  C   UNL A   1      39.027  30.146  31.747  1.00  0.00     0.049 A 
ATOM     45  H   UNL A   1      39.515  30.934  33.613  1.00  0.00     0.167 HD
ATOM     46  C   UNL A   1      40.567  32.762  37.417  1.00  0.00     0.031 A 
ATOM     47  C   UNL A   1      39.995  29.275  31.407  1.00  0.00     0.031 A 
ATOM     48  C   UNL A   1      41.664  31.876  37.125  1.00  0.00     0.049 A 
ATOM     49  C   UNL A   1      41.183  29.099  32.308  1.00  0.00     0.074 A 
ATOM     50  C   UNL A   1      42.782  31.606  37.895  1.00  0.00     0.029 A 
ATOM     51  N   UNL A   1      41.771  31.104  35.979  1.00  0.00    -0.354 N 
ATOM     52  N   UNL A   1      41.431  29.662  33.465  1.00  0.00    -0.248 NA
ATOM     53  C   UNL A   1      42.236  28.183  31.844  1.00  0.00     0.031 C 
ATOM     54  C   UNL A   1      43.585  30.696  37.198  1.00  0.00     0.029 A 
ATOM     55  C   UNL A   1      42.943  30.365  36.016  1.00  0.00     0.049 A 
ATOM     56  H   UNL A   1      41.113  31.084  35.248  1.00  0.00     0.167 HD
ATOM     57  C   UNL A   1      42.660  29.160  33.872  1.00  0.00     0.074 A 
ATOM     58  C   UNL A   1      43.098  28.232  32.849  1.00  0.00     0.031 C 
ATOM     59  C   UNL A   1      43.366  29.448  34.992  1.00  0.00     0.031 A 
BRANCH  46  60
ATOM     60  C   UNL A   1      40.623  33.558  38.691  1.00  0.00    -0.014 A 
ATOM     61  C   UNL A   1      40.088  33.066  39.891  1.00  0.00     0.009 A 
ATOM     62  C   UNL A   1      41.261  34.809  38.694  1.00  0.00     0.009 A 
ATOM     63  C   UNL A   1      40.162  33.826  41.060  1.00  0.00     0.001 A 
ATOM     64  C   UNL A   1      41.357  35.554  39.870  1.00  0.00     0.001 A 
ATOM     65  C   UNL A   1      40.800  35.067  41.050  1.00  0.00     0.000 A 
ENDBRANCH  46  60
BRANCH  47  66
ATOM     66  C   UNL A   1      39.904  28.534  30.121  1.00  0.00    -0.014 A 
ATOM     67  C   UNL A   1      39.388  27.231  30.082  1.00  0.00     0.009 A 
ATOM     68  C   UNL A   1      40.331  29.132  28.924  1.00  0.00     0.009 A 
ATOM     69  C   UNL A   1      39.313  26.537  28.871  1.00  0.00     0.001 A 
ATOM     70  C   UNL A   1      40.225  28.448  27.712  1.00  0.00     0.001 A 
ATOM     71  C   UNL A   1      39.724  27.149  27.688  1.00  0.00     0.000 A 
ENDBRANCH  47  66
BRANCH  59  72
ATOM     72  C   UNL A   1      44.668  28.726  35.184  1.00  0.00    -0.014 A 
ATOM     73  C   UNL A   1      44.721  27.483  35.830  1.00  0.00     0.009 A 
ATOM     74  C   UNL A   1      45.854  29.287  34.684  1.00  0.00     0.009 A 
ATOM     75  C   UNL A   1      45.942  26.827  35.999  1.00  0.00     0.001 A 
ATOM     76  C   UNL A   1      47.069  28.619  34.832  1.00  0.00     0.001 A 
ATOM     77  C   UNL A   1      47.114  27.395  35.496  1.00  0.00     0.000 A 
ENDBRANCH  59  72
ENDBRANCH  33  34
ENDBRANCH  26  28
ENDBRANCH  25  26
ENDBRANCH   1  25
TORSDOF 12
ENDMDL
