MODEL 1
REMARK VINA RESULT:     -12.4      0.000      0.000
REMARK SMILES O=C(OCCOC(=O)c1cc(-c2ccccn2)nc2ccc(F)cc12)c1ccc(-c2c3nc(c(-c4ccccc4)c4ccc([nH]4)c(-c4ccccc4)c4nc(c(-c5ccccc5)c5ccc2[nH]5)C=C4)C=C3)cc1
REMARK SMILES IDX 4 1 3 2 2 3 1 4 26 5 27 6 73 7 28 8 72 9 29 10 30 11 31 12
REMARK SMILES IDX 66 13 32 14 71 15 65 16 67 17 33 18 70 19 64 20 63 21 34 23
REMARK SMILES IDX 56 24 41 25 55 26 42 27 45 28 54 29 68 30 43 31 44 32 53 34
REMARK SMILES IDX 69 35 46 36 35 37 36 38 40 39 37 40 39 41 38 42 57 43 58 44
REMARK SMILES IDX 62 45 59 46 61 47 60 48 47 49 48 50 52 51 49 52 51 53 50 54
REMARK SMILES IDX 5 55 6 56 7 57 8 58 9 59 10 60 25 61 11 62 19 63 24 64 18 65
REMARK SMILES IDX 20 66 22 67 21 68 23 69 12 70 13 71 17 72 14 73 16 74 15 75
REMARK H PARENT 67 22 45 33
REMARK Flexibility Score: inf
ROOT
ATOM      1  C   UNL A   1      45.356  20.582  24.937  1.00  0.00     0.275 C 
ENDROOT
BRANCH   1   2
ATOM      2  O   UNL A   1      44.824  21.862  25.333  1.00  0.00    -0.458 OA
BRANCH   2   3
ATOM      3  C   UNL A   1      44.983  23.057  24.705  1.00  0.00     0.338 C 
ATOM      4  O   UNL A   1      45.804  23.196  23.807  1.00  0.00    -0.246 OA
BRANCH   3   5
ATOM      5  C   UNL A   1      44.330  24.254  25.277  1.00  0.00     0.060 A 
ATOM      6  C   UNL A   1      45.166  25.171  25.919  1.00  0.00     0.016 A 
ATOM      7  C   UNL A   1      42.951  24.461  25.269  1.00  0.00     0.016 A 
ATOM      8  C   UNL A   1      44.611  26.125  26.762  1.00  0.00     0.010 A 
ATOM      9  C   UNL A   1      42.392  25.405  26.121  1.00  0.00     0.010 A 
ATOM     10  C   UNL A   1      43.221  26.181  26.927  1.00  0.00    -0.014 A 
BRANCH  10  11
ATOM     11  C   UNL A   1      42.639  27.038  27.961  1.00  0.00     0.031 A 
ATOM     12  C   UNL A   1      41.616  28.058  27.597  1.00  0.00     0.074 A 
ATOM     13  C   UNL A   1      42.954  26.837  29.258  1.00  0.00     0.049 A 
ATOM     14  N   UNL A   1      40.847  28.601  28.464  1.00  0.00    -0.248 NA
ATOM     15  C   UNL A   1      41.369  28.534  26.259  1.00  0.00     0.031 C 
ATOM     16  C   UNL A   1      43.990  25.922  29.724  1.00  0.00     0.029 A 
ATOM     17  N   UNL A   1      42.475  27.423  30.412  1.00  0.00    -0.354 N 
ATOM     18  C   UNL A   1      39.548  29.182  27.883  1.00  0.00     0.074 A 
ATOM     19  C   UNL A   1      40.251  29.255  26.406  1.00  0.00     0.031 C 
ATOM     20  C   UNL A   1      44.154  26.099  31.042  1.00  0.00     0.029 A 
ATOM     21  C   UNL A   1      43.224  27.129  31.521  1.00  0.00     0.049 A 
ATOM     22  H   UNL A   1      41.674  27.996  30.436  1.00  0.00     0.167 HD
ATOM     23  C   UNL A   1      37.905  29.506  28.721  1.00  0.00     0.031 A 
ATOM     24  C   UNL A   1      43.239  27.635  32.773  1.00  0.00     0.031 A 
ATOM     25  C   UNL A   1      37.444  29.620  30.404  1.00  0.00     0.049 A 
ATOM     26  C   UNL A   1      42.146  28.543  33.286  1.00  0.00     0.074 A 
ATOM     27  C   UNL A   1      36.492  30.450  31.014  1.00  0.00     0.029 A 
ATOM     28  N   UNL A   1      38.099  29.070  31.561  1.00  0.00    -0.354 N 
ATOM     29  N   UNL A   1      40.948  28.781  32.803  1.00  0.00    -0.248 NA
ATOM     30  C   UNL A   1      42.414  29.225  34.560  1.00  0.00     0.031 C 
ATOM     31  C   UNL A   1      36.986  30.813  32.287  1.00  0.00     0.029 A 
ATOM     32  C   UNL A   1      38.113  30.054  32.560  1.00  0.00     0.049 A 
ATOM     33  H   UNL A   1      38.473  28.163  31.637  1.00  0.00     0.167 HD
ATOM     34  C   UNL A   1      40.311  29.632  33.706  1.00  0.00     0.074 A 
ATOM     35  C   UNL A   1      41.257  29.831  34.794  1.00  0.00     0.031 C 
ATOM     36  C   UNL A   1      39.078  30.213  33.642  1.00  0.00     0.031 A 
BRANCH  23  37
ATOM     37  C   UNL A   1      36.296  30.016  28.203  1.00  0.00    -0.014 A 
ATOM     38  C   UNL A   1      35.351  29.067  27.724  1.00  0.00     0.009 A 
ATOM     39  C   UNL A   1      35.957  31.380  28.088  1.00  0.00     0.009 A 
ATOM     40  C   UNL A   1      34.092  29.454  27.255  1.00  0.00     0.001 A 
ATOM     41  C   UNL A   1      34.685  31.761  27.626  1.00  0.00     0.001 A 
ATOM     42  C   UNL A   1      33.753  30.801  27.225  1.00  0.00     0.000 A 
ENDBRANCH  23  37
BRANCH  24  43
ATOM     43  C   UNL A   1      44.456  27.330  33.596  1.00  0.00    -0.014 A 
ATOM     44  C   UNL A   1      45.633  28.085  33.396  1.00  0.00     0.009 A 
ATOM     45  C   UNL A   1      44.501  26.252  34.486  1.00  0.00     0.009 A 
ATOM     46  C   UNL A   1      46.837  27.719  34.001  1.00  0.00     0.001 A 
ATOM     47  C   UNL A   1      45.700  25.912  35.122  1.00  0.00     0.001 A 
ATOM     48  C   UNL A   1      46.870  26.630  34.863  1.00  0.00     0.000 A 
ENDBRANCH  24  43
BRANCH  36  49
ATOM     49  C   UNL A   1      38.716  31.188  34.756  1.00  0.00    -0.014 A 
ATOM     50  C   UNL A   1      39.010  32.552  34.601  1.00  0.00     0.009 A 
ATOM     51  C   UNL A   1      38.162  30.769  35.983  1.00  0.00     0.009 A 
ATOM     52  C   UNL A   1      38.758  33.467  35.629  1.00  0.00     0.001 A 
ATOM     53  C   UNL A   1      37.872  31.693  36.997  1.00  0.00     0.001 A 
ATOM     54  C   UNL A   1      38.180  33.039  36.822  1.00  0.00     0.000 A 
ENDBRANCH  36  49
ENDBRANCH  10  11
ENDBRANCH   3   5
ENDBRANCH   2   3
ENDBRANCH   1   2
BRANCH   1  55
ATOM     55  C   UNL A   1      44.422  19.376  25.129  1.00  0.00     0.275 C 
BRANCH  55  56
ATOM     56  O   UNL A   1      43.015  19.606  24.870  1.00  0.00    -0.458 OA
BRANCH  56  57
ATOM     57  C   UNL A   1      42.160  19.248  25.872  1.00  0.00     0.339 C 
ATOM     58  O   UNL A   1      42.238  18.238  26.552  1.00  0.00    -0.246 OA
BRANCH  57  59
ATOM     59  C   UNL A   1      41.082  20.257  26.088  1.00  0.00     0.071 A 
ATOM     60  C   UNL A   1      39.831  20.087  25.479  1.00  0.00     0.047 A 
ATOM     61  C   UNL A   1      41.268  21.323  26.964  1.00  0.00     0.018 A 
ATOM     62  C   UNL A   1      38.812  21.068  25.562  1.00  0.00     0.090 A 
ATOM     63  C   UNL A   1      40.176  22.223  27.098  1.00  0.00     0.072 A 
ATOM     64  C   UNL A   1      42.470  21.518  27.692  1.00  0.00     0.050 A 
ATOM     65  N   UNL A   1      39.006  22.117  26.394  1.00  0.00    -0.246 NA
ATOM     66  C   UNL A   1      40.349  23.269  28.001  1.00  0.00     0.032 A 
ATOM     67  C   UNL A   1      42.594  22.592  28.554  1.00  0.00     0.123 A 
ATOM     68  C   UNL A   1      41.538  23.465  28.724  1.00  0.00     0.041 A 
ATOM     69  F   UNL A   1      43.743  22.786  29.212  1.00  0.00    -0.207 F 
BRANCH  62  70
ATOM     70  C   UNL A   1      37.544  20.983  24.626  1.00  0.00     0.089 A 
ATOM     71  C   UNL A   1      37.030  22.659  24.052  1.00  0.00     0.030 A 
ATOM     72  N   UNL A   1      36.251  19.739  25.001  1.00  0.00    -0.255 NA
ATOM     73  C   UNL A   1      35.226  23.104  23.962  1.00  0.00     0.004 A 
ATOM     74  C   UNL A   1      34.441  20.216  24.950  1.00  0.00     0.112 A 
ATOM     75  C   UNL A   1      33.929  21.887  24.413  1.00  0.00     0.020 A 
ENDBRANCH  62  70
ENDBRANCH  57  59
ENDBRANCH  56  57
ENDBRANCH  55  56
ENDBRANCH   1  55
TORSDOF 12
ENDMDL
MODEL 2
REMARK VINA RESULT:     -12.2      3.751      5.247
REMARK SMILES O=C(OCCOC(=O)c1cc(-c2ccccn2)nc2ccc(F)cc12)c1ccc(-c2c3nc(c(-c4ccccc4)c4ccc([nH]4)c(-c4ccccc4)c4nc(c(-c5ccccc5)c5ccc2[nH]5)C=C4)C=C3)cc1
REMARK SMILES IDX 4 1 3 2 2 3 1 4 26 5 27 6 73 7 28 8 72 9 29 10 30 11 31 12
REMARK SMILES IDX 66 13 32 14 71 15 65 16 67 17 33 18 70 19 64 20 63 21 34 23
REMARK SMILES IDX 56 24 41 25 55 26 42 27 45 28 54 29 68 30 43 31 44 32 53 34
REMARK SMILES IDX 69 35 46 36 35 37 36 38 40 39 37 40 39 41 38 42 57 43 58 44
REMARK SMILES IDX 62 45 59 46 61 47 60 48 47 49 48 50 52 51 49 52 51 53 50 54
REMARK SMILES IDX 5 55 6 56 7 57 8 58 9 59 10 60 25 61 11 62 19 63 24 64 18 65
REMARK SMILES IDX 20 66 22 67 21 68 23 69 12 70 13 71 17 72 14 73 16 74 15 75
REMARK H PARENT 67 22 45 33
REMARK Flexibility Score: inf
ROOT
ATOM      1  C   UNL A   1      44.160  18.807  24.272  1.00  0.00     0.275 C 
ENDROOT
BRANCH   1   2
ATOM      2  O   UNL A   1      45.532  18.915  24.698  1.00  0.00    -0.458 OA
BRANCH   2   3
ATOM      3  C   UNL A   1      46.322  20.022  24.679  1.00  0.00     0.338 C 
ATOM      4  O   UNL A   1      47.542  19.929  24.612  1.00  0.00    -0.246 OA
BRANCH   3   5
ATOM      5  C   UNL A   1      45.716  21.334  24.988  1.00  0.00     0.060 A 
ATOM      6  C   UNL A   1      45.905  22.345  24.042  1.00  0.00     0.016 A 
ATOM      7  C   UNL A   1      45.051  21.618  26.181  1.00  0.00     0.016 A 
ATOM      8  C   UNL A   1      45.673  23.667  24.399  1.00  0.00     0.010 A 
ATOM      9  C   UNL A   1      44.829  22.939  26.548  1.00  0.00     0.010 A 
ATOM     10  C   UNL A   1      45.215  23.966  25.689  1.00  0.00    -0.014 A 
BRANCH  10  11
ATOM     11  C   UNL A   1      45.163  25.356  26.145  1.00  0.00     0.031 A 
ATOM     12  C   UNL A   1      43.893  26.128  26.045  1.00  0.00     0.074 A 
ATOM     13  C   UNL A   1      46.237  25.907  26.748  1.00  0.00     0.049 A 
ATOM     14  N   UNL A   1      43.690  27.206  26.704  1.00  0.00    -0.248 NA
ATOM     15  C   UNL A   1      42.767  25.756  25.226  1.00  0.00     0.031 C 
ATOM     16  C   UNL A   1      47.550  25.276  26.836  1.00  0.00     0.029 A 
ATOM     17  N   UNL A   1      46.412  27.137  27.351  1.00  0.00    -0.354 N 
ATOM     18  C   UNL A   1      42.207  27.554  26.906  1.00  0.00     0.074 A 
ATOM     19  C   UNL A   1      41.819  26.612  25.625  1.00  0.00     0.031 C 
ATOM     20  C   UNL A   1      48.418  26.164  27.340  1.00  0.00     0.029 A 
ATOM     21  C   UNL A   1      47.723  27.425  27.626  1.00  0.00     0.049 A 
ATOM     22  H   UNL A   1      45.667  27.746  27.562  1.00  0.00     0.167 HD
ATOM     23  C   UNL A   1      41.396  28.602  28.231  1.00  0.00     0.031 A 
ATOM     24  C   UNL A   1      48.347  28.559  28.008  1.00  0.00     0.031 A 
ATOM     25  C   UNL A   1      42.035  29.769  29.364  1.00  0.00     0.049 A 
ATOM     26  C   UNL A   1      47.585  29.774  28.485  1.00  0.00     0.074 A 
ATOM     27  C   UNL A   1      41.459  30.954  29.845  1.00  0.00     0.029 A 
ATOM     28  N   UNL A   1      43.378  29.902  29.866  1.00  0.00    -0.354 N 
ATOM     29  N   UNL A   1      46.333  29.893  28.863  1.00  0.00    -0.248 NA
ATOM     30  C   UNL A   1      48.362  31.015  28.620  1.00  0.00     0.031 C 
ATOM     31  C   UNL A   1      42.494  31.902  30.010  1.00  0.00     0.029 A 
ATOM     32  C   UNL A   1      43.713  31.263  29.851  1.00  0.00     0.049 A 
ATOM     33  H   UNL A   1      43.959  29.165  30.166  1.00  0.00     0.167 HD
ATOM     34  C   UNL A   1      46.163  31.211  29.287  1.00  0.00     0.074 A 
ATOM     35  C   UNL A   1      47.469  31.839  29.154  1.00  0.00     0.031 C 
ATOM     36  C   UNL A   1      45.042  31.853  29.724  1.00  0.00     0.031 A 
BRANCH  23  37
ATOM     37  C   UNL A   1      39.739  28.987  28.704  1.00  0.00    -0.014 A 
ATOM     38  C   UNL A   1      39.168  28.424  29.879  1.00  0.00     0.009 A 
ATOM     39  C   UNL A   1      38.883  29.721  27.857  1.00  0.00     0.009 A 
ATOM     40  C   UNL A   1      37.841  28.669  30.243  1.00  0.00     0.001 A 
ATOM     41  C   UNL A   1      37.553  29.973  28.236  1.00  0.00     0.001 A 
ATOM     42  C   UNL A   1      37.039  29.460  29.430  1.00  0.00     0.000 A 
ENDBRANCH  23  37
BRANCH  24  43
ATOM     43  C   UNL A   1      49.837  28.586  27.836  1.00  0.00    -0.014 A 
ATOM     44  C   UNL A   1      50.382  28.862  26.562  1.00  0.00     0.009 A 
ATOM     45  C   UNL A   1      50.711  28.243  28.873  1.00  0.00     0.009 A 
ATOM     46  C   UNL A   1      51.747  28.716  26.314  1.00  0.00     0.001 A 
ATOM     47  C   UNL A   1      52.086  28.136  28.630  1.00  0.00     0.001 A 
ATOM     48  C   UNL A   1      52.600  28.350  27.349  1.00  0.00     0.000 A 
ENDBRANCH  24  43
BRANCH  36  49
ATOM     49  C   UNL A   1      45.168  33.343  30.017  1.00  0.00    -0.014 A 
ATOM     50  C   UNL A   1      45.385  33.770  31.336  1.00  0.00     0.009 A 
ATOM     51  C   UNL A   1      44.999  34.330  29.024  1.00  0.00     0.009 A 
ATOM     52  C   UNL A   1      45.437  35.132  31.655  1.00  0.00     0.001 A 
ATOM     53  C   UNL A   1      45.091  35.693  29.338  1.00  0.00     0.001 A 
ATOM     54  C   UNL A   1      45.300  36.092  30.655  1.00  0.00     0.000 A 
ENDBRANCH  36  49
ENDBRANCH  10  11
ENDBRANCH   3   5
ENDBRANCH   2   3
ENDBRANCH   1   2
BRANCH   1  55
ATOM     55  C   UNL A   1      43.106  18.810  25.391  1.00  0.00     0.275 C 
BRANCH  55  56
ATOM     56  O   UNL A   1      42.195  19.937  25.413  1.00  0.00    -0.458 OA
BRANCH  56  57
ATOM     57  C   UNL A   1      41.520  20.134  26.583  1.00  0.00     0.339 C 
ATOM     58  O   UNL A   1      41.763  19.592  27.649  1.00  0.00    -0.246 OA
BRANCH  57  59
ATOM     59  C   UNL A   1      40.419  21.133  26.445  1.00  0.00     0.071 A 
ATOM     60  C   UNL A   1      39.238  20.784  25.774  1.00  0.00     0.047 A 
ATOM     61  C   UNL A   1      40.508  22.381  27.054  1.00  0.00     0.018 A 
ATOM     62  C   UNL A   1      38.211  21.726  25.520  1.00  0.00     0.090 A 
ATOM     63  C   UNL A   1      39.404  23.253  26.861  1.00  0.00     0.072 A 
ATOM     64  C   UNL A   1      41.628  22.780  27.828  1.00  0.00     0.050 A 
ATOM     65  N   UNL A   1      38.312  22.949  26.092  1.00  0.00    -0.246 NA
ATOM     66  C   UNL A   1      39.477  24.489  27.499  1.00  0.00     0.032 A 
ATOM     67  C   UNL A   1      41.658  24.031  28.415  1.00  0.00     0.123 A 
ATOM     68  C   UNL A   1      40.585  24.887  28.268  1.00  0.00     0.041 A 
ATOM     69  F   UNL A   1      42.732  24.411  29.117  1.00  0.00    -0.207 F 
BRANCH  62  70
ATOM     70  C   UNL A   1      37.045  21.383  24.512  1.00  0.00     0.089 A 
ATOM     71  C   UNL A   1      36.586  22.857  23.502  1.00  0.00     0.030 A 
ATOM     72  N   UNL A   1      35.725  20.229  25.047  1.00  0.00    -0.255 NA
ATOM     73  C   UNL A   1      34.799  23.216  23.130  1.00  0.00     0.004 A 
ATOM     74  C   UNL A   1      33.928  20.628  24.704  1.00  0.00     0.112 A 
ATOM     75  C   UNL A   1      33.468  22.106  23.731  1.00  0.00     0.020 A 
ENDBRANCH  62  70
ENDBRANCH  57  59
ENDBRANCH  56  57
ENDBRANCH  55  56
ENDBRANCH   1  55
TORSDOF 12
ENDMDL
MODEL 3
REMARK VINA RESULT:     -11.7      3.998      6.701
REMARK SMILES O=C(OCCOC(=O)c1cc(-c2ccccn2)nc2ccc(F)cc12)c1ccc(-c2c3nc(c(-c4ccccc4)c4ccc([nH]4)c(-c4ccccc4)c4nc(c(-c5ccccc5)c5ccc2[nH]5)C=C4)C=C3)cc1
REMARK SMILES IDX 4 1 3 2 2 3 1 4 26 5 27 6 73 7 28 8 72 9 29 10 30 11 31 12
REMARK SMILES IDX 66 13 32 14 71 15 65 16 67 17 33 18 70 19 64 20 63 21 34 23
REMARK SMILES IDX 56 24 41 25 55 26 42 27 45 28 54 29 68 30 43 31 44 32 53 34
REMARK SMILES IDX 69 35 46 36 35 37 36 38 40 39 37 40 39 41 38 42 57 43 58 44
REMARK SMILES IDX 62 45 59 46 61 47 60 48 47 49 48 50 52 51 49 52 51 53 50 54
REMARK SMILES IDX 5 55 6 56 7 57 8 58 9 59 10 60 25 61 11 62 19 63 24 64 18 65
REMARK SMILES IDX 20 66 22 67 21 68 23 69 12 70 13 71 17 72 14 73 16 74 15 75
REMARK H PARENT 67 22 45 33
REMARK Flexibility Score: inf
ROOT
ATOM      1  C   UNL A   1      43.783  18.328  26.058  1.00  0.00     0.275 C 
ENDROOT
BRANCH   1   2
ATOM      2  O   UNL A   1      44.852  18.702  25.167  1.00  0.00    -0.458 OA
BRANCH   2   3
ATOM      3  C   UNL A   1      44.864  19.720  24.267  1.00  0.00     0.338 C 
ATOM      4  O   UNL A   1      44.654  19.515  23.077  1.00  0.00    -0.246 OA
BRANCH   3   5
ATOM      5  C   UNL A   1      45.374  21.040  24.691  1.00  0.00     0.060 A 
ATOM      6  C   UNL A   1      45.345  21.307  26.063  1.00  0.00     0.016 A 
ATOM      7  C   UNL A   1      45.795  22.029  23.803  1.00  0.00     0.016 A 
ATOM      8  C   UNL A   1      45.479  22.616  26.507  1.00  0.00     0.010 A 
ATOM      9  C   UNL A   1      45.917  23.342  24.240  1.00  0.00     0.010 A 
ATOM     10  C   UNL A   1      45.678  23.646  25.578  1.00  0.00    -0.014 A 
BRANCH  10  11
ATOM     11  C   UNL A   1      45.615  25.044  26.008  1.00  0.00     0.031 A 
ATOM     12  C   UNL A   1      44.343  25.808  25.878  1.00  0.00     0.074 A 
ATOM     13  C   UNL A   1      46.679  25.611  26.614  1.00  0.00     0.049 A 
ATOM     14  N   UNL A   1      44.127  26.897  26.515  1.00  0.00    -0.248 NA
ATOM     15  C   UNL A   1      43.229  25.417  25.052  1.00  0.00     0.031 C 
ATOM     16  C   UNL A   1      47.993  24.987  26.730  1.00  0.00     0.029 A 
ATOM     17  N   UNL A   1      46.841  26.852  27.197  1.00  0.00    -0.354 N 
ATOM     18  C   UNL A   1      42.640  27.243  26.692  1.00  0.00     0.074 A 
ATOM     19  C   UNL A   1      42.272  26.276  25.423  1.00  0.00     0.031 C 
ATOM     20  C   UNL A   1      48.851  25.888  27.228  1.00  0.00     0.029 A 
ATOM     21  C   UNL A   1      48.147  27.151  27.483  1.00  0.00     0.049 A 
ATOM     22  H   UNL A   1      46.091  27.462  27.387  1.00  0.00     0.167 HD
ATOM     23  C   UNL A   1      41.809  28.311  27.987  1.00  0.00     0.031 A 
ATOM     24  C   UNL A   1      48.762  28.295  27.852  1.00  0.00     0.031 A 
ATOM     25  C   UNL A   1      42.429  29.501  29.107  1.00  0.00     0.049 A 
ATOM     26  C   UNL A   1      47.989  29.515  28.297  1.00  0.00     0.074 A 
ATOM     27  C   UNL A   1      41.842  30.693  29.559  1.00  0.00     0.029 A 
ATOM     28  N   UNL A   1      43.764  29.650  29.623  1.00  0.00    -0.354 N 
ATOM     29  N   UNL A   1      46.732  29.635  28.657  1.00  0.00    -0.248 NA
ATOM     30  C   UNL A   1      48.759  30.761  28.419  1.00  0.00     0.031 C 
ATOM     31  C   UNL A   1      42.871  31.649  29.719  1.00  0.00     0.029 A 
ATOM     32  C   UNL A   1      44.095  31.012  29.587  1.00  0.00     0.049 A 
ATOM     33  H   UNL A   1      44.345  28.921  29.943  1.00  0.00     0.167 HD
ATOM     34  C   UNL A   1      46.552  30.959  29.054  1.00  0.00     0.074 A 
ATOM     35  C   UNL A   1      47.856  31.591  28.926  1.00  0.00     0.031 C 
ATOM     36  C   UNL A   1      45.422  31.605  29.466  1.00  0.00     0.031 A 
BRANCH  23  37
ATOM     37  C   UNL A   1      40.145  28.698  28.433  1.00  0.00    -0.014 A 
ATOM     38  C   UNL A   1      39.550  28.129  29.593  1.00  0.00     0.009 A 
ATOM     39  C   UNL A   1      39.306  29.440  27.575  1.00  0.00     0.009 A 
ATOM     40  C   UNL A   1      38.218  28.375  29.934  1.00  0.00     0.001 A 
ATOM     41  C   UNL A   1      37.970  29.693  27.931  1.00  0.00     0.001 A 
ATOM     42  C   UNL A   1      37.433  29.174  29.112  1.00  0.00     0.000 A 
ENDBRANCH  23  37
BRANCH  24  43
ATOM     43  C   UNL A   1      50.254  28.325  27.698  1.00  0.00    -0.014 A 
ATOM     44  C   UNL A   1      51.071  28.046  28.817  1.00  0.00     0.009 A 
ATOM     45  C   UNL A   1      50.871  28.723  26.508  1.00  0.00     0.009 A 
ATOM     46  C   UNL A   1      52.452  28.242  28.769  1.00  0.00     0.001 A 
ATOM     47  C   UNL A   1      52.261  28.880  26.452  1.00  0.00     0.001 A 
ATOM     48  C   UNL A   1      53.047  28.663  27.585  1.00  0.00     0.000 A 
ENDBRANCH  24  43
BRANCH  36  49
ATOM     49  C   UNL A   1      45.539  33.100  29.733  1.00  0.00    -0.014 A 
ATOM     50  C   UNL A   1      45.717  33.554  31.049  1.00  0.00     0.009 A 
ATOM     51  C   UNL A   1      45.399  34.067  28.716  1.00  0.00     0.009 A 
ATOM     52  C   UNL A   1      45.757  34.922  31.342  1.00  0.00     0.001 A 
ATOM     53  C   UNL A   1      45.480  35.437  29.006  1.00  0.00     0.001 A 
ATOM     54  C   UNL A   1      45.650  35.862  30.321  1.00  0.00     0.000 A 
ENDBRANCH  36  49
ENDBRANCH  10  11
ENDBRANCH   3   5
ENDBRANCH   2   3
ENDBRANCH   1   2
BRANCH   1  55
ATOM     55  C   UNL A   1      42.402  18.926  25.740  1.00  0.00     0.275 C 
BRANCH  55  56
ATOM     56  O   UNL A   1      42.205  20.315  26.100  1.00  0.00    -0.458 OA
BRANCH  56  57
ATOM     57  C   UNL A   1      41.541  20.538  27.272  1.00  0.00     0.339 C 
ATOM     58  O   UNL A   1      41.033  19.684  27.980  1.00  0.00    -0.246 OA
BRANCH  57  59
ATOM     59  C   UNL A   1      41.506  21.984  27.642  1.00  0.00     0.071 A 
ATOM     60  C   UNL A   1      42.614  22.573  28.268  1.00  0.00     0.047 A 
ATOM     61  C   UNL A   1      40.423  22.785  27.290  1.00  0.00     0.018 A 
ATOM     62  C   UNL A   1      42.591  23.909  28.737  1.00  0.00     0.090 A 
ATOM     63  C   UNL A   1      40.494  24.146  27.689  1.00  0.00     0.072 A 
ATOM     64  C   UNL A   1      39.303  22.289  26.574  1.00  0.00     0.050 A 
ATOM     65  N   UNL A   1      41.525  24.679  28.417  1.00  0.00    -0.246 NA
ATOM     66  C   UNL A   1      39.427  24.955  27.306  1.00  0.00     0.032 A 
ATOM     67  C   UNL A   1      38.259  23.133  26.246  1.00  0.00     0.123 A 
ATOM     68  C   UNL A   1      38.316  24.468  26.596  1.00  0.00     0.041 A 
ATOM     69  F   UNL A   1      37.192  22.651  25.599  1.00  0.00    -0.207 F 
BRANCH  62  70
ATOM     70  C   UNL A   1      43.730  24.438  29.694  1.00  0.00     0.089 A 
ATOM     71  C   UNL A   1      44.000  23.281  31.106  1.00  0.00     0.030 A 
ATOM     72  N   UNL A   1      43.870  26.242  29.988  1.00  0.00    -0.255 NA
ATOM     73  C   UNL A   1      44.303  23.947  32.816  1.00  0.00     0.004 A 
ATOM     74  C   UNL A   1      44.131  26.898  31.722  1.00  0.00     0.112 A 
ATOM     75  C   UNL A   1      44.366  25.754  33.128  1.00  0.00     0.020 A 
ENDBRANCH  62  70
ENDBRANCH  57  59
ENDBRANCH  56  57
ENDBRANCH  55  56
ENDBRANCH   1  55
TORSDOF 12
ENDMDL
