MODEL 1
REMARK VINA RESULT:     -11.5      0.000      0.000
REMARK SMILES Cc1ccn2c([C@@H]3CCCC[C@@H]3C(=O)OCCOC(=O)c3ccc(-c4c5nc(c(-c6ccccc6)c6ccc([nH]6)c(-c6ccccc6)c6nc(c(-c7ccccc7)c7ccc4[nH]7)C=C6)C=C5)cc3)nnc2c1
REMARK SMILES IDX 17 1 16 2 15 3 13 4 14 5 12 6 7 7 8 8 9 9 11 10 10 11 6 12
REMARK SMILES IDX 1 13 2 14 3 15 72 16 4 17 71 18 5 19 70 20 69 21 18 22 19 23
REMARK SMILES IDX 20 24 21 25 22 26 68 27 23 28 67 29 24 30 25 31 26 32 61 33
REMARK SMILES IDX 27 34 66 35 60 36 62 37 28 38 65 39 59 40 58 41 29 43 51 44
REMARK SMILES IDX 36 45 50 46 37 47 40 48 49 49 63 50 38 51 39 52 48 54 64 55
REMARK SMILES IDX 41 56 30 57 31 58 35 59 32 60 34 61 33 62 52 63 53 64 57 65
REMARK SMILES IDX 54 66 56 67 55 68 42 69 43 70 47 71 44 72 46 73 45 74
REMARK H PARENT 62 42 40 53
REMARK Flexibility Score: inf
ROOT
ATOM      1  C   UNL A   1      33.128  31.302  27.141  1.00  0.00     0.275 C 
ENDROOT
BRANCH   1   2
ATOM      2  C   UNL A   1      32.532  29.895  27.045  1.00  0.00     0.274 C 
BRANCH   2   3
ATOM      3  O   UNL A   1      33.208  29.099  26.043  1.00  0.00    -0.462 OA
BRANCH   3   4
ATOM      4  C   UNL A   1      32.632  29.047  24.815  1.00  0.00     0.309 C 
ATOM      5  O   UNL A   1      33.251  29.153  23.763  1.00  0.00    -0.252 OA
BRANCH   4   6
ATOM      6  C   UNL A   1      31.115  28.952  24.857  1.00  0.00     0.110 C 
ATOM      7  C   UNL A   1      30.551  27.561  24.507  1.00  0.00     0.072 C 
ATOM      8  C   UNL A   1      30.385  27.329  23.008  1.00  0.00     0.012 C 
ATOM      9  C   UNL A   1      29.580  28.454  22.360  1.00  0.00     0.001 C 
ATOM     10  C   UNL A   1      30.414  30.086  24.085  1.00  0.00     0.016 C 
ATOM     11  C   UNL A   1      30.220  29.811  22.602  1.00  0.00     0.001 C 
BRANCH   7  12
ATOM     12  C   UNL A   1      31.186  26.407  25.241  1.00  0.00     0.141 A 
ATOM     13  C   UNL A   1      36.126  23.803  24.979  1.00  0.00     0.044 C 
ATOM     14  C   UNL A   1      34.757  24.414  25.009  1.00  0.00    -0.046 A 
ATOM     15  C   UNL A   1      34.296  25.033  23.768  1.00  0.00     0.022 A 
ATOM     16  C   UNL A   1      33.969  24.410  26.107  1.00  0.00     0.053 A 
ATOM     17  C   UNL A   1      33.111  25.663  23.748  1.00  0.00     0.095 A 
ATOM     18  C   UNL A   1      32.693  25.037  26.066  1.00  0.00     0.161 A 
ATOM     19  N   UNL A   1      32.340  25.717  24.908  1.00  0.00    -0.286 N 
ATOM     20  N   UNL A   1      31.706  25.110  26.929  1.00  0.00    -0.130 NA
ATOM     21  N   UNL A   1      30.754  25.952  26.404  1.00  0.00    -0.134 NA
ENDBRANCH   7  12
ENDBRANCH   4   6
ENDBRANCH   3   4
ENDBRANCH   2   3
ENDBRANCH   1   2
BRANCH   1  22
ATOM     22  O   UNL A   1      33.986  31.366  28.290  1.00  0.00    -0.458 OA
BRANCH  22  23
ATOM     23  C   UNL A   1      35.031  32.220  28.194  1.00  0.00     0.338 C 
ATOM     24  O   UNL A   1      35.021  33.414  28.467  1.00  0.00    -0.246 OA
BRANCH  23  25
ATOM     25  C   UNL A   1      36.267  31.408  28.089  1.00  0.00     0.060 A 
ATOM     26  C   UNL A   1      36.243  30.071  27.680  1.00  0.00     0.016 A 
ATOM     27  C   UNL A   1      37.410  31.935  28.699  1.00  0.00     0.016 A 
ATOM     28  C   UNL A   1      37.298  29.232  28.034  1.00  0.00     0.010 A 
ATOM     29  C   UNL A   1      38.432  31.085  29.100  1.00  0.00     0.010 A 
ATOM     30  C   UNL A   1      38.357  29.718  28.820  1.00  0.00    -0.014 A 
BRANCH  30  31
ATOM     31  C   UNL A   1      39.545  28.882  29.000  1.00  0.00     0.031 A 
ATOM     32  C   UNL A   1      39.758  28.624  30.433  1.00  0.00     0.074 A 
ATOM     33  C   UNL A   1      40.395  28.325  28.115  1.00  0.00     0.049 A 
ATOM     34  N   UNL A   1      40.527  29.317  31.200  1.00  0.00    -0.248 NA
ATOM     35  C   UNL A   1      38.878  27.679  31.131  1.00  0.00     0.031 C 
ATOM     36  C   UNL A   1      40.278  28.228  26.670  1.00  0.00     0.029 A 
ATOM     37  N   UNL A   1      41.570  27.663  28.365  1.00  0.00    -0.354 N 
ATOM     38  C   UNL A   1      40.374  28.773  32.460  1.00  0.00     0.074 A 
ATOM     39  C   UNL A   1      39.206  27.931  32.398  1.00  0.00     0.031 C 
ATOM     40  C   UNL A   1      41.223  27.382  26.183  1.00  0.00     0.029 A 
ATOM     41  C   UNL A   1      42.122  27.013  27.264  1.00  0.00     0.049 A 
ATOM     42  H   UNL A   1      41.991  27.648  29.255  1.00  0.00     0.167 HD
ATOM     43  C   UNL A   1      41.375  28.865  33.373  1.00  0.00     0.031 A 
ATOM     44  C   UNL A   1      43.259  26.270  27.236  1.00  0.00     0.031 A 
ATOM     45  C   UNL A   1      42.391  29.800  32.948  1.00  0.00     0.049 A 
ATOM     46  C   UNL A   1      44.110  26.739  28.347  1.00  0.00     0.074 A 
ATOM     47  C   UNL A   1      42.427  31.157  32.701  1.00  0.00     0.029 A 
ATOM     48  N   UNL A   1      43.473  29.252  32.303  1.00  0.00    -0.354 N 
ATOM     49  N   UNL A   1      44.681  27.907  28.376  1.00  0.00    -0.248 NA
ATOM     50  C   UNL A   1      44.050  26.038  29.618  1.00  0.00     0.031 C 
ATOM     51  C   UNL A   1      43.323  31.320  31.605  1.00  0.00     0.029 A 
ATOM     52  C   UNL A   1      43.849  30.070  31.268  1.00  0.00     0.049 A 
ATOM     53  H   UNL A   1      43.912  28.404  32.545  1.00  0.00     0.167 HD
ATOM     54  C   UNL A   1      44.615  28.286  29.706  1.00  0.00     0.074 A 
ATOM     55  C   UNL A   1      44.361  27.047  30.436  1.00  0.00     0.031 C 
ATOM     56  C   UNL A   1      44.481  29.599  30.049  1.00  0.00     0.031 A 
BRANCH  43  57
ATOM     57  C   UNL A   1      41.631  27.813  34.415  1.00  0.00    -0.014 A 
ATOM     58  C   UNL A   1      42.086  26.514  34.122  1.00  0.00     0.009 A 
ATOM     59  C   UNL A   1      41.652  28.199  35.765  1.00  0.00     0.009 A 
ATOM     60  C   UNL A   1      42.525  25.636  35.116  1.00  0.00     0.001 A 
ATOM     61  C   UNL A   1      42.132  27.340  36.760  1.00  0.00     0.001 A 
ATOM     62  C   UNL A   1      42.566  26.059  36.435  1.00  0.00     0.000 A 
ENDBRANCH  43  57
BRANCH  44  63
ATOM     63  C   UNL A   1      43.572  24.994  26.543  1.00  0.00    -0.014 A 
ATOM     64  C   UNL A   1      44.545  24.968  25.532  1.00  0.00     0.009 A 
ATOM     65  C   UNL A   1      42.680  23.906  26.616  1.00  0.00     0.009 A 
ATOM     66  C   UNL A   1      44.581  23.933  24.586  1.00  0.00     0.001 A 
ATOM     67  C   UNL A   1      42.714  22.871  25.669  1.00  0.00     0.001 A 
ATOM     68  C   UNL A   1      43.651  22.897  24.640  1.00  0.00     0.000 A 
ENDBRANCH  44  63
BRANCH  56  69
ATOM     69  C   UNL A   1      44.797  30.648  29.002  1.00  0.00    -0.014 A 
ATOM     70  C   UNL A   1      43.819  30.906  28.028  1.00  0.00     0.009 A 
ATOM     71  C   UNL A   1      46.051  31.265  28.858  1.00  0.00     0.009 A 
ATOM     72  C   UNL A   1      44.089  31.725  26.930  1.00  0.00     0.001 A 
ATOM     73  C   UNL A   1      46.313  32.114  27.774  1.00  0.00     0.001 A 
ATOM     74  C   UNL A   1      45.336  32.331  26.803  1.00  0.00     0.000 A 
ENDBRANCH  56  69
ENDBRANCH  30  31
ENDBRANCH  23  25
ENDBRANCH  22  23
ENDBRANCH   1  22
TORSDOF 12
ENDMDL
MODEL 2
REMARK VINA RESULT:     -11.4      3.146      7.959
REMARK SMILES Cc1ccn2c([C@@H]3CCCC[C@@H]3C(=O)OCCOC(=O)c3ccc(-c4c5nc(c(-c6ccccc6)c6ccc([nH]6)c(-c6ccccc6)c6nc(c(-c7ccccc7)c7ccc4[nH]7)C=C6)C=C5)cc3)nnc2c1
REMARK SMILES IDX 17 1 16 2 15 3 13 4 14 5 12 6 7 7 8 8 9 9 11 10 10 11 6 12
REMARK SMILES IDX 1 13 2 14 3 15 72 16 4 17 71 18 5 19 70 20 69 21 18 22 19 23
REMARK SMILES IDX 20 24 21 25 22 26 68 27 23 28 67 29 24 30 25 31 26 32 61 33
REMARK SMILES IDX 27 34 66 35 60 36 62 37 28 38 65 39 59 40 58 41 29 43 51 44
REMARK SMILES IDX 36 45 50 46 37 47 40 48 49 49 63 50 38 51 39 52 48 54 64 55
REMARK SMILES IDX 41 56 30 57 31 58 35 59 32 60 34 61 33 62 52 63 53 64 57 65
REMARK SMILES IDX 54 66 56 67 55 68 42 69 43 70 47 71 44 72 46 73 45 74
REMARK H PARENT 62 42 40 53
REMARK Flexibility Score: inf
ROOT
ATOM      1  C   UNL A   1      38.522  21.170  25.344  1.00  0.00     0.275 C 
ENDROOT
BRANCH   1   2
ATOM      2  C   UNL A   1      37.341  21.914  24.715  1.00  0.00     0.274 C 
BRANCH   2   3
ATOM      3  O   UNL A   1      36.425  22.405  25.722  1.00  0.00    -0.462 OA
BRANCH   3   4
ATOM      4  C   UNL A   1      35.254  21.731  25.861  1.00  0.00     0.309 C 
ATOM      5  O   UNL A   1      34.621  21.670  26.908  1.00  0.00    -0.252 OA
BRANCH   4   6
ATOM      6  C   UNL A   1      34.844  20.957  24.618  1.00  0.00     0.110 C 
ATOM      7  C   UNL A   1      33.622  21.535  23.879  1.00  0.00     0.072 C 
ATOM      8  C   UNL A   1      32.286  21.061  24.445  1.00  0.00     0.012 C 
ATOM      9  C   UNL A   1      32.234  19.537  24.537  1.00  0.00     0.001 C 
ATOM     10  C   UNL A   1      34.728  19.440  24.858  1.00  0.00     0.016 C 
ATOM     11  C   UNL A   1      33.373  18.988  25.380  1.00  0.00     0.001 C 
BRANCH   7  12
ATOM     12  C   UNL A   1      33.681  23.016  23.601  1.00  0.00     0.141 A 
ATOM     13  C   UNL A   1      32.868  27.638  26.638  1.00  0.00     0.044 C 
ATOM     14  C   UNL A   1      32.997  26.421  25.772  1.00  0.00    -0.046 A 
ATOM     15  C   UNL A   1      32.258  25.237  26.203  1.00  0.00     0.022 A 
ATOM     16  C   UNL A   1      33.747  26.390  24.648  1.00  0.00     0.053 A 
ATOM     17  C   UNL A   1      32.389  24.092  25.514  1.00  0.00     0.095 A 
ATOM     18  C   UNL A   1      33.843  25.187  23.893  1.00  0.00     0.161 A 
ATOM     19  N   UNL A   1      33.225  24.052  24.400  1.00  0.00    -0.286 N 
ATOM     20  N   UNL A   1      34.412  24.896  22.746  1.00  0.00    -0.130 NA
ATOM     21  N   UNL A   1      34.293  23.540  22.553  1.00  0.00    -0.134 NA
ENDBRANCH   7  12
ENDBRANCH   4   6
ENDBRANCH   3   4
ENDBRANCH   2   3
ENDBRANCH   1   2
BRANCH   1  22
ATOM     22  O   UNL A   1      38.882  21.823  26.571  1.00  0.00    -0.458 OA
BRANCH  22  23
ATOM     23  C   UNL A   1      40.094  22.425  26.580  1.00  0.00     0.338 C 
ATOM     24  O   UNL A   1      41.059  22.127  25.888  1.00  0.00    -0.246 OA
BRANCH  23  25
ATOM     25  C   UNL A   1      39.940  23.733  27.261  1.00  0.00     0.060 A 
ATOM     26  C   UNL A   1      38.905  24.618  26.942  1.00  0.00     0.016 A 
ATOM     27  C   UNL A   1      41.032  24.173  28.015  1.00  0.00     0.016 A 
ATOM     28  C   UNL A   1      39.054  25.973  27.235  1.00  0.00     0.010 A 
ATOM     29  C   UNL A   1      41.203  25.531  28.255  1.00  0.00     0.010 A 
ATOM     30  C   UNL A   1      40.242  26.445  27.817  1.00  0.00    -0.014 A 
BRANCH  30  31
ATOM     31  C   UNL A   1      40.291  27.825  28.304  1.00  0.00     0.031 A 
ATOM     32  C   UNL A   1      41.462  28.512  27.736  1.00  0.00     0.074 A 
ATOM     33  C   UNL A   1      39.467  28.523  29.111  1.00  0.00     0.049 A 
ATOM     34  N   UNL A   1      42.609  28.611  28.311  1.00  0.00    -0.248 NA
ATOM     35  C   UNL A   1      41.441  28.917  26.325  1.00  0.00     0.031 C 
ATOM     36  C   UNL A   1      38.148  28.165  29.604  1.00  0.00     0.029 A 
ATOM     37  N   UNL A   1      39.651  29.778  29.633  1.00  0.00    -0.354 N 
ATOM     38  C   UNL A   1      43.419  29.264  27.405  1.00  0.00     0.074 A 
ATOM     39  C   UNL A   1      42.724  29.231  26.144  1.00  0.00     0.031 C 
ATOM     40  C   UNL A   1      37.561  29.243  30.184  1.00  0.00     0.029 A 
ATOM     41  C   UNL A   1      38.532  30.322  30.259  1.00  0.00     0.049 A 
ATOM     42  H   UNL A   1      40.509  30.258  29.571  1.00  0.00     0.167 HD
ATOM     43  C   UNL A   1      44.476  30.001  27.835  1.00  0.00     0.031 A 
ATOM     44  C   UNL A   1      38.430  31.547  30.837  1.00  0.00     0.031 A 
ATOM     45  C   UNL A   1      44.758  29.752  29.230  1.00  0.00     0.049 A 
ATOM     46  C   UNL A   1      39.794  31.954  31.230  1.00  0.00     0.074 A 
ATOM     47  C   UNL A   1      45.162  28.655  29.963  1.00  0.00     0.029 A 
ATOM     48  N   UNL A   1      44.198  30.637  30.119  1.00  0.00    -0.354 N 
ATOM     49  N   UNL A   1      40.473  31.383  32.180  1.00  0.00    -0.248 NA
ATOM     50  C   UNL A   1      40.564  32.787  30.322  1.00  0.00     0.031 C 
ATOM     51  C   UNL A   1      44.490  28.767  31.215  1.00  0.00     0.029 A 
ATOM     52  C   UNL A   1      43.757  29.956  31.224  1.00  0.00     0.049 A 
ATOM     53  H   UNL A   1      44.126  31.611  29.986  1.00  0.00     0.167 HD
ATOM     54  C   UNL A   1      41.777  31.388  31.718  1.00  0.00     0.074 A 
ATOM     55  C   UNL A   1      41.795  32.390  30.656  1.00  0.00     0.031 C 
ATOM     56  C   UNL A   1      42.634  30.377  32.043  1.00  0.00     0.031 A 
BRANCH  43  57
ATOM     57  C   UNL A   1      44.962  31.230  27.120  1.00  0.00    -0.014 A 
ATOM     58  C   UNL A   1      44.150  32.345  26.836  1.00  0.00     0.009 A 
ATOM     59  C   UNL A   1      46.344  31.393  26.932  1.00  0.00     0.009 A 
ATOM     60  C   UNL A   1      44.677  33.552  26.374  1.00  0.00     0.001 A 
ATOM     61  C   UNL A   1      46.882  32.614  26.512  1.00  0.00     0.001 A 
ATOM     62  C   UNL A   1      46.048  33.692  26.231  1.00  0.00     0.000 A 
ENDBRANCH  43  57
BRANCH  44  63
ATOM     63  C   UNL A   1      37.329  32.543  30.822  1.00  0.00    -0.014 A 
ATOM     64  C   UNL A   1      36.382  32.556  31.858  1.00  0.00     0.009 A 
ATOM     65  C   UNL A   1      37.002  33.225  29.633  1.00  0.00     0.009 A 
ATOM     66  C   UNL A   1      35.129  33.161  31.689  1.00  0.00     0.001 A 
ATOM     67  C   UNL A   1      35.747  33.831  29.463  1.00  0.00     0.001 A 
ATOM     68  C   UNL A   1      34.802  33.778  30.483  1.00  0.00     0.000 A 
ENDBRANCH  44  63
BRANCH  56  69
ATOM     69  C   UNL A   1      42.272  29.478  33.208  1.00  0.00    -0.014 A 
ATOM     70  C   UNL A   1      42.896  29.733  34.441  1.00  0.00     0.009 A 
ATOM     71  C   UNL A   1      41.475  28.327  33.097  1.00  0.00     0.009 A 
ATOM     72  C   UNL A   1      42.756  28.856  35.517  1.00  0.00     0.001 A 
ATOM     73  C   UNL A   1      41.307  27.462  34.187  1.00  0.00     0.001 A 
ATOM     74  C   UNL A   1      41.960  27.720  35.392  1.00  0.00     0.000 A 
ENDBRANCH  56  69
ENDBRANCH  30  31
ENDBRANCH  23  25
ENDBRANCH  22  23
ENDBRANCH   1  22
TORSDOF 12
ENDMDL
MODEL 3
REMARK VINA RESULT:     -11.3      1.185      3.006
REMARK SMILES Cc1ccn2c([C@@H]3CCCC[C@@H]3C(=O)OCCOC(=O)c3ccc(-c4c5nc(c(-c6ccccc6)c6ccc([nH]6)c(-c6ccccc6)c6nc(c(-c7ccccc7)c7ccc4[nH]7)C=C6)C=C5)cc3)nnc2c1
REMARK SMILES IDX 17 1 16 2 15 3 13 4 14 5 12 6 7 7 8 8 9 9 11 10 10 11 6 12
REMARK SMILES IDX 1 13 2 14 3 15 72 16 4 17 71 18 5 19 70 20 69 21 18 22 19 23
REMARK SMILES IDX 20 24 21 25 22 26 68 27 23 28 67 29 24 30 25 31 26 32 61 33
REMARK SMILES IDX 27 34 66 35 60 36 62 37 28 38 65 39 59 40 58 41 29 43 51 44
REMARK SMILES IDX 36 45 50 46 37 47 40 48 49 49 63 50 38 51 39 52 48 54 64 55
REMARK SMILES IDX 41 56 30 57 31 58 35 59 32 60 34 61 33 62 52 63 53 64 57 65
REMARK SMILES IDX 54 66 56 67 55 68 42 69 43 70 47 71 44 72 46 73 45 74
REMARK H PARENT 62 42 40 53
REMARK Flexibility Score: inf
ROOT
ATOM      1  C   UNL A   1      32.775  31.241  26.953  1.00  0.00     0.275 C 
ENDROOT
BRANCH   1   2
ATOM      2  C   UNL A   1      32.695  29.942  26.148  1.00  0.00     0.274 C 
BRANCH   2   3
ATOM      3  O   UNL A   1      31.641  29.079  26.637  1.00  0.00    -0.462 OA
BRANCH   3   4
ATOM      4  C   UNL A   1      31.867  27.741  26.569  1.00  0.00     0.309 C 
ATOM      5  O   UNL A   1      31.670  26.966  27.497  1.00  0.00    -0.252 OA
BRANCH   4   6
ATOM      6  C   UNL A   1      32.497  27.295  25.259  1.00  0.00     0.110 C 
ATOM      7  C   UNL A   1      31.584  26.427  24.372  1.00  0.00     0.072 C 
ATOM      8  C   UNL A   1      31.615  24.944  24.731  1.00  0.00     0.012 C 
ATOM      9  C   UNL A   1      33.047  24.415  24.771  1.00  0.00     0.001 C 
ATOM     10  C   UNL A   1      33.901  26.686  25.437  1.00  0.00     0.016 C 
ATOM     11  C   UNL A   1      33.906  25.198  25.750  1.00  0.00     0.001 C 
BRANCH   7  12
ATOM     12  C   UNL A   1      30.198  26.976  24.147  1.00  0.00     0.141 A 
ATOM     13  C   UNL A   1      28.028  31.050  20.993  1.00  0.00     0.044 C 
ATOM     14  C   UNL A   1      28.589  30.017  21.924  1.00  0.00    -0.046 A 
ATOM     15  C   UNL A   1      29.978  30.201  22.337  1.00  0.00     0.022 A 
ATOM     16  C   UNL A   1      27.874  28.961  22.374  1.00  0.00     0.053 A 
ATOM     17  C   UNL A   1      30.564  29.273  23.110  1.00  0.00     0.095 A 
ATOM     18  C   UNL A   1      28.486  28.006  23.233  1.00  0.00     0.161 A 
ATOM     19  N   UNL A   1      29.839  28.151  23.506  1.00  0.00    -0.286 N 
ATOM     20  N   UNL A   1      28.024  26.959  23.876  1.00  0.00    -0.130 NA
ATOM     21  N   UNL A   1      29.092  26.325  24.465  1.00  0.00    -0.134 NA
ENDBRANCH   7  12
ENDBRANCH   4   6
ENDBRANCH   3   4
ENDBRANCH   2   3
ENDBRANCH   1   2
BRANCH   1  22
ATOM     22  O   UNL A   1      33.763  31.090  27.983  1.00  0.00    -0.458 OA
BRANCH  22  23
ATOM     23  C   UNL A   1      34.876  31.846  27.843  1.00  0.00     0.338 C 
ATOM     24  O   UNL A   1      34.914  33.051  27.626  1.00  0.00    -0.246 OA
BRANCH  23  25
ATOM     25  C   UNL A   1      36.018  31.069  28.381  1.00  0.00     0.060 A 
ATOM     26  C   UNL A   1      37.130  31.689  28.959  1.00  0.00     0.016 A 
ATOM     27  C   UNL A   1      36.076  29.719  28.019  1.00  0.00     0.016 A 
ATOM     28  C   UNL A   1      38.341  31.000  29.017  1.00  0.00     0.010 A 
ATOM     29  C   UNL A   1      37.296  29.055  28.024  1.00  0.00     0.010 A 
ATOM     30  C   UNL A   1      38.447  29.709  28.471  1.00  0.00    -0.014 A 
BRANCH  30  31
ATOM     31  C   UNL A   1      39.660  28.931  28.728  1.00  0.00     0.031 A 
ATOM     32  C   UNL A   1      39.816  28.718  30.176  1.00  0.00     0.074 A 
ATOM     33  C   UNL A   1      40.573  28.389  27.898  1.00  0.00     0.049 A 
ATOM     34  N   UNL A   1      40.518  29.462  30.958  1.00  0.00    -0.248 NA
ATOM     35  C   UNL A   1      38.945  27.753  30.857  1.00  0.00     0.031 C 
ATOM     36  C   UNL A   1      40.529  28.251  26.452  1.00  0.00     0.029 A 
ATOM     37  N   UNL A   1      41.763  27.785  28.220  1.00  0.00    -0.354 N 
ATOM     38  C   UNL A   1      40.329  28.944  32.223  1.00  0.00     0.074 A 
ATOM     39  C   UNL A   1      39.202  28.051  32.131  1.00  0.00     0.031 C 
ATOM     40  C   UNL A   1      41.531  27.435  26.033  1.00  0.00     0.029 A 
ATOM     41  C   UNL A   1      42.393  27.133  27.163  1.00  0.00     0.049 A 
ATOM     42  H   UNL A   1      42.142  27.811  29.128  1.00  0.00     0.167 HD
ATOM     43  C   UNL A   1      41.281  29.102  33.179  1.00  0.00     0.031 A 
ATOM     44  C   UNL A   1      43.560  26.440  27.207  1.00  0.00     0.031 A 
ATOM     45  C   UNL A   1      42.275  30.069  32.777  1.00  0.00     0.049 A 
ATOM     46  C   UNL A   1      44.337  26.973  28.343  1.00  0.00     0.074 A 
ATOM     47  C   UNL A   1      42.265  31.420  32.495  1.00  0.00     0.029 A 
ATOM     48  N   UNL A   1      43.409  29.554  32.196  1.00  0.00    -0.354 N 
ATOM     49  N   UNL A   1      44.856  28.165  28.367  1.00  0.00    -0.248 NA
ATOM     50  C   UNL A   1      44.247  26.302  29.629  1.00  0.00     0.031 C 
ATOM     51  C   UNL A   1      43.204  31.595  31.437  1.00  0.00     0.029 A 
ATOM     52  C   UNL A   1      43.798  30.361  31.159  1.00  0.00     0.049 A 
ATOM     53  H   UNL A   1      43.872  28.732  32.481  1.00  0.00     0.167 HD
ATOM     54  C   UNL A   1      44.712  28.573  29.682  1.00  0.00     0.074 A 
ATOM     55  C   UNL A   1      44.477  27.343  30.433  1.00  0.00     0.031 C 
ATOM     56  C   UNL A   1      44.507  29.888  29.983  1.00  0.00     0.031 A 
BRANCH  43  57
ATOM     57  C   UNL A   1      41.532  28.089  34.260  1.00  0.00    -0.014 A 
ATOM     58  C   UNL A   1      42.005  26.785  34.018  1.00  0.00     0.009 A 
ATOM     59  C   UNL A   1      41.528  28.520  35.596  1.00  0.00     0.009 A 
ATOM     60  C   UNL A   1      42.438  25.946  35.047  1.00  0.00     0.001 A 
ATOM     61  C   UNL A   1      42.002  27.700  36.626  1.00  0.00     0.001 A 
ATOM     62  C   UNL A   1      42.454  26.413  36.351  1.00  0.00     0.000 A 
ENDBRANCH  43  57
BRANCH  44  63
ATOM     63  C   UNL A   1      43.960  25.162  26.564  1.00  0.00    -0.014 A 
ATOM     64  C   UNL A   1      43.166  24.016  26.732  1.00  0.00     0.009 A 
ATOM     65  C   UNL A   1      45.278  24.979  26.101  1.00  0.00     0.009 A 
ATOM     66  C   UNL A   1      43.690  22.734  26.518  1.00  0.00     0.001 A 
ATOM     67  C   UNL A   1      45.803  23.695  25.888  1.00  0.00     0.001 A 
ATOM     68  C   UNL A   1      45.015  22.571  26.119  1.00  0.00     0.000 A 
ENDBRANCH  44  63
BRANCH  56  69
ATOM     69  C   UNL A   1      44.827  30.924  28.924  1.00  0.00    -0.014 A 
ATOM     70  C   UNL A   1      43.876  31.128  27.910  1.00  0.00     0.009 A 
ATOM     71  C   UNL A   1      46.065  31.578  28.810  1.00  0.00     0.009 A 
ATOM     72  C   UNL A   1      44.160  31.931  26.804  1.00  0.00     0.001 A 
ATOM     73  C   UNL A   1      46.339  32.411  27.717  1.00  0.00     0.001 A 
ATOM     74  C   UNL A   1      45.391  32.574  26.707  1.00  0.00     0.000 A 
ENDBRANCH  56  69
ENDBRANCH  30  31
ENDBRANCH  23  25
ENDBRANCH  22  23
ENDBRANCH   1  22
TORSDOF 12
ENDMDL
