MODEL 1
REMARK VINA RESULT:     -10.4      0.000      0.000
REMARK SMILES Cc1ccc(OCC(=O)Oc2ccc(C(=O)OCCOC(=O)c3ccc(-c4c5nc(c(-c6ccccc6)c6ccc([nH]6)c(-c6ccccc6)c6nc(c(-c7ccccc7)c7ccc4[nH]7)C=C6)C=C5)cc3)cc2)cc1C
REMARK SMILES IDX 17 1 15 2 16 3 14 4 11 5 12 6 72 7 13 8 71 9 10 10 8 11 9 12
REMARK SMILES IDX 7 13 6 14 5 15 1 16 2 17 3 18 74 19 4 20 73 21 75 22 18 23
REMARK SMILES IDX 19 24 20 25 21 26 22 27 23 28 24 29 70 30 25 31 69 32 26 33
REMARK SMILES IDX 27 34 28 35 63 36 29 37 68 38 62 39 64 40 30 41 67 42 61 43
REMARK SMILES IDX 60 44 31 46 53 47 38 48 52 49 39 50 42 51 51 52 65 53 40 54
REMARK SMILES IDX 41 55 50 57 66 58 43 59 32 60 33 61 37 62 34 63 36 64 35 65
REMARK SMILES IDX 54 66 55 67 59 68 56 69 58 70 57 71 44 72 45 73 49 74 46 75
REMARK SMILES IDX 48 76 47 77
REMARK H PARENT 64 45 42 56
REMARK Flexibility Score: inf
ROOT
ATOM      1  O   UNL A   1      36.329  20.456  25.263  1.00  0.00    -0.458 OA
ENDROOT
BRANCH   1   2
ATOM      2  C   UNL A   1      35.079  19.966  25.072  1.00  0.00     0.338 C 
ATOM      3  O   UNL A   1      34.794  18.865  24.626  1.00  0.00    -0.246 OA
BRANCH   2   4
ATOM      4  C   UNL A   1      34.049  20.916  25.566  1.00  0.00     0.060 A 
ATOM      5  C   UNL A   1      32.161  22.667  26.624  1.00  0.00     0.131 A 
ATOM      6  C   UNL A   1      33.310  22.381  27.354  1.00  0.00     0.048 A 
ATOM      7  C   UNL A   1      31.958  22.124  25.354  1.00  0.00     0.048 A 
ATOM      8  C   UNL A   1      34.241  21.486  26.834  1.00  0.00     0.019 A 
ATOM      9  C   UNL A   1      32.905  21.241  24.824  1.00  0.00     0.019 A 
BRANCH   5  10
ATOM     10  O   UNL A   1      31.253  23.542  27.226  1.00  0.00    -0.424 OA
BRANCH  10  11
ATOM     11  C   UNL A   1      30.970  24.679  26.479  1.00  0.00     0.349 C 
ATOM     12  O   UNL A   1      29.976  24.873  25.787  1.00  0.00    -0.248 OA
BRANCH  11  13
ATOM     13  C   UNL A   1      32.098  25.690  26.639  1.00  0.00     0.352 C 
BRANCH  13  14
ATOM     14  O   UNL A   1      32.687  26.149  25.432  1.00  0.00    -0.482 OA
BRANCH  14  15
ATOM     15  C   UNL A   1      33.571  25.322  24.791  1.00  0.00     0.120 A 
ATOM     16  C   UNL A   1      36.646  22.822  23.047  1.00  0.00     0.044 C 
ATOM     17  C   UNL A   1      35.597  23.685  23.690  1.00  0.00    -0.048 A 
ATOM     18  C   UNL A   1      34.439  23.999  22.963  1.00  0.00     0.007 A 
ATOM     19  C   UNL A   1      35.734  24.186  24.997  1.00  0.00    -0.045 A 
ATOM     20  C   UNL A   1      33.432  24.802  23.508  1.00  0.00     0.047 A 
ATOM     21  C   UNL A   1      34.719  25.010  25.524  1.00  0.00     0.050 A 
ATOM     22  C   UNL A   1      36.911  23.869  25.880  1.00  0.00     0.045 C 
ENDBRANCH  14  15
ENDBRANCH  13  14
ENDBRANCH  11  13
ENDBRANCH  10  11
ENDBRANCH   5  10
ENDBRANCH   2   4
ENDBRANCH   1   2
BRANCH   1  23
ATOM     23  C   UNL A   1      37.407  19.570  24.899  1.00  0.00     0.275 C 
BRANCH  23  24
ATOM     24  C   UNL A   1      38.759  20.224  25.175  1.00  0.00     0.275 C 
BRANCH  24  25
ATOM     25  O   UNL A   1      39.593  19.318  25.917  1.00  0.00    -0.458 OA
BRANCH  25  26
ATOM     26  C   UNL A   1      40.918  19.585  25.906  1.00  0.00     0.338 C 
ATOM     27  O   UNL A   1      41.823  18.876  25.501  1.00  0.00    -0.246 OA
BRANCH  26  28
ATOM     28  C   UNL A   1      41.146  20.919  26.487  1.00  0.00     0.060 A 
ATOM     29  C   UNL A   1      41.595  21.956  25.672  1.00  0.00     0.016 A 
ATOM     30  C   UNL A   1      41.016  21.111  27.861  1.00  0.00     0.016 A 
ATOM     31  C   UNL A   1      41.969  23.176  26.232  1.00  0.00     0.010 A 
ATOM     32  C   UNL A   1      41.328  22.358  28.415  1.00  0.00     0.010 A 
ATOM     33  C   UNL A   1      41.838  23.394  27.611  1.00  0.00    -0.014 A 
BRANCH  33  34
ATOM     34  C   UNL A   1      42.285  24.678  28.219  1.00  0.00     0.031 A 
ATOM     35  C   UNL A   1      41.290  25.778  28.482  1.00  0.00     0.074 A 
ATOM     36  C   UNL A   1      43.576  24.865  28.558  1.00  0.00     0.049 A 
ATOM     37  N   UNL A   1      41.501  27.012  28.869  1.00  0.00    -0.248 NA
ATOM     38  C   UNL A   1      39.871  25.450  28.274  1.00  0.00     0.031 C 
ATOM     39  C   UNL A   1      44.646  23.877  28.411  1.00  0.00     0.029 A 
ATOM     40  N   UNL A   1      44.204  25.954  29.112  1.00  0.00    -0.354 N 
ATOM     41  C   UNL A   1      40.252  27.619  28.896  1.00  0.00     0.074 A 
ATOM     42  C   UNL A   1      39.288  26.621  28.488  1.00  0.00     0.031 C 
ATOM     43  C   UNL A   1      45.787  24.389  28.901  1.00  0.00     0.029 A 
ATOM     44  C   UNL A   1      45.548  25.764  29.326  1.00  0.00     0.049 A 
ATOM     45  H   UNL A   1      43.736  26.791  29.334  1.00  0.00     0.167 HD
ATOM     46  C   UNL A   1      39.935  28.895  29.227  1.00  0.00     0.031 A 
ATOM     47  C   UNL A   1      46.492  26.609  29.784  1.00  0.00     0.031 A 
ATOM     48  C   UNL A   1      40.881  29.881  29.676  1.00  0.00     0.049 A 
ATOM     49  C   UNL A   1      46.122  28.024  30.122  1.00  0.00     0.074 A 
ATOM     50  C   UNL A   1      40.648  31.198  30.039  1.00  0.00     0.029 A 
ATOM     51  N   UNL A   1      42.237  29.655  29.843  1.00  0.00    -0.354 N 
ATOM     52  N   UNL A   1      44.946  28.600  30.083  1.00  0.00    -0.248 NA
ATOM     53  C   UNL A   1      47.215  28.910  30.548  1.00  0.00     0.031 C 
ATOM     54  C   UNL A   1      41.870  31.776  30.397  1.00  0.00     0.029 A 
ATOM     55  C   UNL A   1      42.856  30.808  30.293  1.00  0.00     0.049 A 
ATOM     56  H   UNL A   1      42.693  28.801  29.667  1.00  0.00     0.167 HD
ATOM     57  C   UNL A   1      45.156  29.913  30.481  1.00  0.00     0.074 A 
ATOM     58  C   UNL A   1      46.567  30.043  30.781  1.00  0.00     0.031 C 
ATOM     59  C   UNL A   1      44.260  30.925  30.582  1.00  0.00     0.031 A 
BRANCH  46  60
ATOM     60  C   UNL A   1      38.499  29.310  29.074  1.00  0.00    -0.014 A 
ATOM     61  C   UNL A   1      37.614  29.305  30.162  1.00  0.00     0.009 A 
ATOM     62  C   UNL A   1      38.039  29.747  27.822  1.00  0.00     0.009 A 
ATOM     63  C   UNL A   1      36.285  29.702  29.991  1.00  0.00     0.001 A 
ATOM     64  C   UNL A   1      36.717  30.165  27.659  1.00  0.00     0.001 A 
ATOM     65  C   UNL A   1      35.839  30.135  28.742  1.00  0.00     0.000 A 
ENDBRANCH  46  60
BRANCH  47  66
ATOM     66  C   UNL A   1      47.899  26.147  29.910  1.00  0.00    -0.014 A 
ATOM     67  C   UNL A   1      48.410  25.750  31.154  1.00  0.00     0.009 A 
ATOM     68  C   UNL A   1      48.735  26.099  28.783  1.00  0.00     0.009 A 
ATOM     69  C   UNL A   1      49.735  25.325  31.270  1.00  0.00     0.001 A 
ATOM     70  C   UNL A   1      50.052  25.648  28.898  1.00  0.00     0.001 A 
ATOM     71  C   UNL A   1      50.552  25.269  30.141  1.00  0.00     0.000 A 
ENDBRANCH  47  66
BRANCH  59  72
ATOM     72  C   UNL A   1      44.780  32.252  31.050  1.00  0.00    -0.014 A 
ATOM     73  C   UNL A   1      45.375  33.152  30.153  1.00  0.00     0.009 A 
ATOM     74  C   UNL A   1      44.647  32.618  32.398  1.00  0.00     0.009 A 
ATOM     75  C   UNL A   1      45.856  34.383  30.604  1.00  0.00     0.001 A 
ATOM     76  C   UNL A   1      45.110  33.858  32.842  1.00  0.00     0.001 A 
ATOM     77  C   UNL A   1      45.720  34.735  31.946  1.00  0.00     0.000 A 
ENDBRANCH  59  72
ENDBRANCH  33  34
ENDBRANCH  26  28
ENDBRANCH  25  26
ENDBRANCH  24  25
ENDBRANCH  23  24
ENDBRANCH   1  23
TORSDOF 16
ENDMDL
MODEL 2
REMARK VINA RESULT:     -10.1      3.443      7.540
REMARK SMILES Cc1ccc(OCC(=O)Oc2ccc(C(=O)OCCOC(=O)c3ccc(-c4c5nc(c(-c6ccccc6)c6ccc([nH]6)c(-c6ccccc6)c6nc(c(-c7ccccc7)c7ccc4[nH]7)C=C6)C=C5)cc3)cc2)cc1C
REMARK SMILES IDX 17 1 15 2 16 3 14 4 11 5 12 6 72 7 13 8 71 9 10 10 8 11 9 12
REMARK SMILES IDX 7 13 6 14 5 15 1 16 2 17 3 18 74 19 4 20 73 21 75 22 18 23
REMARK SMILES IDX 19 24 20 25 21 26 22 27 23 28 24 29 70 30 25 31 69 32 26 33
REMARK SMILES IDX 27 34 28 35 63 36 29 37 68 38 62 39 64 40 30 41 67 42 61 43
REMARK SMILES IDX 60 44 31 46 53 47 38 48 52 49 39 50 42 51 51 52 65 53 40 54
REMARK SMILES IDX 41 55 50 57 66 58 43 59 32 60 33 61 37 62 34 63 36 64 35 65
REMARK SMILES IDX 54 66 55 67 59 68 56 69 58 70 57 71 44 72 45 73 49 74 46 75
REMARK SMILES IDX 48 76 47 77
REMARK H PARENT 64 45 42 56
REMARK Flexibility Score: inf
ROOT
ATOM      1  O   UNL A   1      41.383  20.540  25.617  1.00  0.00    -0.458 OA
ENDROOT
BRANCH   1   2
ATOM      2  C   UNL A   1      40.528  20.808  26.634  1.00  0.00     0.338 C 
ATOM      3  O   UNL A   1      40.767  20.701  27.827  1.00  0.00    -0.246 OA
BRANCH   2   4
ATOM      4  C   UNL A   1      39.243  21.353  26.126  1.00  0.00     0.060 A 
ATOM      5  C   UNL A   1      36.846  22.480  25.266  1.00  0.00     0.131 A 
ATOM      6  C   UNL A   1      37.807  23.292  25.860  1.00  0.00     0.048 A 
ATOM      7  C   UNL A   1      37.078  21.121  25.057  1.00  0.00     0.048 A 
ATOM      8  C   UNL A   1      38.995  22.722  26.311  1.00  0.00     0.019 A 
ATOM      9  C   UNL A   1      38.282  20.553  25.492  1.00  0.00     0.019 A 
BRANCH   5  10
ATOM     10  O   UNL A   1      35.664  23.115  24.875  1.00  0.00    -0.424 OA
BRANCH  10  11
ATOM     11  C   UNL A   1      35.422  23.084  23.506  1.00  0.00     0.349 C 
ATOM     12  O   UNL A   1      36.261  23.087  22.613  1.00  0.00    -0.248 OA
BRANCH  11  13
ATOM     13  C   UNL A   1      33.920  23.045  23.255  1.00  0.00     0.352 C 
BRANCH  13  14
ATOM     14  O   UNL A   1      33.314  24.295  22.960  1.00  0.00    -0.482 OA
BRANCH  14  15
ATOM     15  C   UNL A   1      32.926  25.086  24.008  1.00  0.00     0.120 A 
ATOM     16  C   UNL A   1      32.019  27.840  27.224  1.00  0.00     0.044 C 
ATOM     17  C   UNL A   1      32.351  26.916  26.086  1.00  0.00    -0.048 A 
ATOM     18  C   UNL A   1      31.804  25.623  26.081  1.00  0.00     0.007 A 
ATOM     19  C   UNL A   1      33.185  27.304  25.022  1.00  0.00    -0.045 A 
ATOM     20  C   UNL A   1      32.082  24.719  25.051  1.00  0.00     0.047 A 
ATOM     21  C   UNL A   1      33.470  26.374  24.002  1.00  0.00     0.050 A 
ATOM     22  C   UNL A   1      33.780  28.681  24.904  1.00  0.00     0.045 C 
ENDBRANCH  14  15
ENDBRANCH  13  14
ENDBRANCH  11  13
ENDBRANCH  10  11
ENDBRANCH   5  10
ENDBRANCH   2   4
ENDBRANCH   1   2
BRANCH   1  23
ATOM     23  C   UNL A   1      42.738  20.237  26.005  1.00  0.00     0.275 C 
BRANCH  23  24
ATOM     24  C   UNL A   1      43.710  21.254  25.412  1.00  0.00     0.275 C 
BRANCH  24  25
ATOM     25  O   UNL A   1      42.988  22.427  24.996  1.00  0.00    -0.458 OA
BRANCH  25  26
ATOM     26  C   UNL A   1      43.689  23.583  24.986  1.00  0.00     0.338 C 
ATOM     27  O   UNL A   1      44.667  23.861  24.313  1.00  0.00    -0.246 OA
BRANCH  26  28
ATOM     28  C   UNL A   1      43.090  24.519  25.952  1.00  0.00     0.060 A 
ATOM     29  C   UNL A   1      43.498  25.851  25.961  1.00  0.00     0.016 A 
ATOM     30  C   UNL A   1      42.204  24.048  26.919  1.00  0.00     0.016 A 
ATOM     31  C   UNL A   1      43.064  26.710  26.969  1.00  0.00     0.010 A 
ATOM     32  C   UNL A   1      41.715  24.927  27.892  1.00  0.00     0.010 A 
ATOM     33  C   UNL A   1      42.164  26.260  27.947  1.00  0.00    -0.014 A 
BRANCH  33  34
ATOM     34  C   UNL A   1      41.740  27.160  29.055  1.00  0.00     0.031 A 
ATOM     35  C   UNL A   1      42.538  27.217  30.331  1.00  0.00     0.074 A 
ATOM     36  C   UNL A   1      40.655  27.948  28.923  1.00  0.00     0.049 A 
ATOM     37  N   UNL A   1      42.258  27.825  31.458  1.00  0.00    -0.248 NA
ATOM     38  C   UNL A   1      43.816  26.487  30.346  1.00  0.00     0.031 C 
ATOM     39  C   UNL A   1      39.810  28.041  27.731  1.00  0.00     0.029 A 
ATOM     40  N   UNL A   1      40.083  28.834  29.805  1.00  0.00    -0.354 N 
ATOM     41  C   UNL A   1      43.292  27.504  32.329  1.00  0.00     0.074 A 
ATOM     42  C   UNL A   1      44.207  26.651  31.602  1.00  0.00     0.031 C 
ATOM     43  C   UNL A   1      38.856  28.962  27.940  1.00  0.00     0.029 A 
ATOM     44  C   UNL A   1      38.973  29.469  29.303  1.00  0.00     0.049 A 
ATOM     45  H   UNL A   1      40.435  28.997  30.710  1.00  0.00     0.167 HD
ATOM     46  C   UNL A   1      43.465  27.883  33.619  1.00  0.00     0.031 A 
ATOM     47  C   UNL A   1      38.124  30.341  29.881  1.00  0.00     0.031 A 
ATOM     48  C   UNL A   1      42.584  28.767  34.335  1.00  0.00     0.049 A 
ATOM     49  C   UNL A   1      38.322  30.727  31.318  1.00  0.00     0.074 A 
ATOM     50  C   UNL A   1      42.685  29.210  35.643  1.00  0.00     0.029 A 
ATOM     51  N   UNL A   1      41.453  29.358  33.798  1.00  0.00    -0.354 N 
ATOM     52  N   UNL A   1      39.271  30.367  32.146  1.00  0.00    -0.248 NA
ATOM     53  C   UNL A   1      37.317  31.626  31.905  1.00  0.00     0.031 C 
ATOM     54  C   UNL A   1      41.595  30.047  35.907  1.00  0.00     0.029 A 
ATOM     55  C   UNL A   1      40.840  30.153  34.750  1.00  0.00     0.049 A 
ATOM     56  H   UNL A   1      41.132  29.231  32.876  1.00  0.00     0.167 HD
ATOM     57  C   UNL A   1      38.981  30.996  33.349  1.00  0.00     0.074 A 
ATOM     58  C   UNL A   1      37.782  31.780  33.137  1.00  0.00     0.031 C 
ATOM     59  C   UNL A   1      39.645  30.923  34.528  1.00  0.00     0.031 A 
BRANCH  46  60
ATOM     60  C   UNL A   1      44.639  27.304  34.355  1.00  0.00    -0.014 A 
ATOM     61  C   UNL A   1      44.557  26.069  35.014  1.00  0.00     0.009 A 
ATOM     62  C   UNL A   1      45.859  27.999  34.357  1.00  0.00     0.009 A 
ATOM     63  C   UNL A   1      45.668  25.554  35.686  1.00  0.00     0.001 A 
ATOM     64  C   UNL A   1      46.974  27.471  35.010  1.00  0.00     0.001 A 
ATOM     65  C   UNL A   1      46.876  26.252  35.681  1.00  0.00     0.000 A 
ENDBRANCH  46  60
BRANCH  47  66
ATOM     66  C   UNL A   1      36.975  30.878  29.107  1.00  0.00    -0.014 A 
ATOM     67  C   UNL A   1      36.942  32.227  28.725  1.00  0.00     0.009 A 
ATOM     68  C   UNL A   1      35.908  30.040  28.744  1.00  0.00     0.009 A 
ATOM     69  C   UNL A   1      35.856  32.730  28.005  1.00  0.00     0.001 A 
ATOM     70  C   UNL A   1      34.837  30.541  28.001  1.00  0.00     0.001 A 
ATOM     71  C   UNL A   1      34.809  31.885  27.638  1.00  0.00     0.000 A 
ENDBRANCH  47  66
BRANCH  59  72
ATOM     72  C   UNL A   1      39.096  31.726  35.670  1.00  0.00    -0.014 A 
ATOM     73  C   UNL A   1      38.159  31.173  36.557  1.00  0.00     0.009 A 
ATOM     74  C   UNL A   1      39.542  33.040  35.878  1.00  0.00     0.009 A 
ATOM     75  C   UNL A   1      37.656  31.933  37.615  1.00  0.00     0.001 A 
ATOM     76  C   UNL A   1      39.052  33.791  36.949  1.00  0.00     0.001 A 
ATOM     77  C   UNL A   1      38.105  33.239  37.811  1.00  0.00     0.000 A 
ENDBRANCH  59  72
ENDBRANCH  33  34
ENDBRANCH  26  28
ENDBRANCH  25  26
ENDBRANCH  24  25
ENDBRANCH  23  24
ENDBRANCH   1  23
TORSDOF 16
ENDMDL
MODEL 3
REMARK VINA RESULT:      -9.8      3.875      8.690
REMARK SMILES Cc1ccc(OCC(=O)Oc2ccc(C(=O)OCCOC(=O)c3ccc(-c4c5nc(c(-c6ccccc6)c6ccc([nH]6)c(-c6ccccc6)c6nc(c(-c7ccccc7)c7ccc4[nH]7)C=C6)C=C5)cc3)cc2)cc1C
REMARK SMILES IDX 17 1 15 2 16 3 14 4 11 5 12 6 72 7 13 8 71 9 10 10 8 11 9 12
REMARK SMILES IDX 7 13 6 14 5 15 1 16 2 17 3 18 74 19 4 20 73 21 75 22 18 23
REMARK SMILES IDX 19 24 20 25 21 26 22 27 23 28 24 29 70 30 25 31 69 32 26 33
REMARK SMILES IDX 27 34 28 35 63 36 29 37 68 38 62 39 64 40 30 41 67 42 61 43
REMARK SMILES IDX 60 44 31 46 53 47 38 48 52 49 39 50 42 51 51 52 65 53 40 54
REMARK SMILES IDX 41 55 50 57 66 58 43 59 32 60 33 61 37 62 34 63 36 64 35 65
REMARK SMILES IDX 54 66 55 67 59 68 56 69 58 70 57 71 44 72 45 73 49 74 46 75
REMARK SMILES IDX 48 76 47 77
REMARK H PARENT 64 45 42 56
REMARK Flexibility Score: inf
ROOT
ATOM      1  O   UNL A   1      31.360  29.986  24.973  1.00  0.00    -0.458 OA
ENDROOT
BRANCH   1   2
ATOM      2  C   UNL A   1      30.815  29.062  24.144  1.00  0.00     0.338 C 
ATOM      3  O   UNL A   1      30.518  29.228  22.971  1.00  0.00    -0.246 OA
BRANCH   2   4
ATOM      4  C   UNL A   1      30.691  27.744  24.818  1.00  0.00     0.060 A 
ATOM      5  C   UNL A   1      30.337  25.254  26.012  1.00  0.00     0.131 A 
ATOM      6  C   UNL A   1      29.730  25.515  24.788  1.00  0.00     0.048 A 
ATOM      7  C   UNL A   1      31.152  26.201  26.632  1.00  0.00     0.048 A 
ATOM      8  C   UNL A   1      29.888  26.770  24.205  1.00  0.00     0.019 A 
ATOM      9  C   UNL A   1      31.327  27.454  26.033  1.00  0.00     0.019 A 
BRANCH   5  10
ATOM     10  O   UNL A   1      30.100  23.988  26.556  1.00  0.00    -0.424 OA
BRANCH  10  11
ATOM     11  C   UNL A   1      31.237  23.200  26.691  1.00  0.00     0.349 C 
ATOM     12  O   UNL A   1      31.928  23.075  27.696  1.00  0.00    -0.248 OA
BRANCH  11  13
ATOM     13  C   UNL A   1      31.522  22.485  25.376  1.00  0.00     0.352 C 
BRANCH  13  14
ATOM     14  O   UNL A   1      32.813  22.703  24.825  1.00  0.00    -0.482 OA
BRANCH  14  15
ATOM     15  C   UNL A   1      33.099  23.946  24.327  1.00  0.00     0.120 A 
ATOM     16  C   UNL A   1      33.865  27.740  22.385  1.00  0.00     0.044 C 
ATOM     17  C   UNL A   1      33.567  26.416  23.032  1.00  0.00    -0.048 A 
ATOM     18  C   UNL A   1      34.157  26.119  24.270  1.00  0.00     0.007 A 
ATOM     19  C   UNL A   1      32.715  25.466  22.442  1.00  0.00    -0.045 A 
ATOM     20  C   UNL A   1      33.920  24.902  24.916  1.00  0.00     0.047 A 
ATOM     21  C   UNL A   1      32.503  24.236  23.096  1.00  0.00     0.050 A 
ATOM     22  C   UNL A   1      31.993  25.704  21.143  1.00  0.00     0.045 C 
ENDBRANCH  14  15
ENDBRANCH  13  14
ENDBRANCH  11  13
ENDBRANCH  10  11
ENDBRANCH   5  10
ENDBRANCH   2   4
ENDBRANCH   1   2
BRANCH   1  23
ATOM     23  C   UNL A   1      30.641  31.231  25.077  1.00  0.00     0.275 C 
BRANCH  23  24
ATOM     24  C   UNL A   1      30.997  31.954  26.373  1.00  0.00     0.275 C 
BRANCH  24  25
ATOM     25  O   UNL A   1      32.414  31.866  26.603  1.00  0.00    -0.458 OA
BRANCH  25  26
ATOM     26  C   UNL A   1      32.944  32.806  27.417  1.00  0.00     0.338 C 
ATOM     27  O   UNL A   1      32.492  33.905  27.686  1.00  0.00    -0.246 OA
BRANCH  26  28
ATOM     28  C   UNL A   1      34.216  32.307  27.966  1.00  0.00     0.060 A 
ATOM     29  C   UNL A   1      34.351  30.952  28.265  1.00  0.00     0.016 A 
ATOM     30  C   UNL A   1      35.235  33.202  28.285  1.00  0.00     0.016 A 
ATOM     31  C   UNL A   1      35.484  30.491  28.933  1.00  0.00     0.010 A 
ATOM     32  C   UNL A   1      36.402  32.729  28.896  1.00  0.00     0.010 A 
ATOM     33  C   UNL A   1      36.526  31.373  29.255  1.00  0.00    -0.014 A 
BRANCH  33  34
ATOM     34  C   UNL A   1      37.714  30.893  30.014  1.00  0.00     0.031 A 
ATOM     35  C   UNL A   1      38.742  30.023  29.340  1.00  0.00     0.074 A 
ATOM     36  C   UNL A   1      37.894  31.246  31.302  1.00  0.00     0.049 A 
ATOM     37  N   UNL A   1      39.765  29.391  29.861  1.00  0.00    -0.248 NA
ATOM     38  C   UNL A   1      38.597  29.831  27.888  1.00  0.00     0.031 C 
ATOM     39  C   UNL A   1      37.014  32.121  32.077  1.00  0.00     0.029 A 
ATOM     40  N   UNL A   1      38.894  30.916  32.186  1.00  0.00    -0.354 N 
ATOM     41  C   UNL A   1      40.347  28.685  28.816  1.00  0.00     0.074 A 
ATOM     42  C   UNL A   1      39.568  28.966  27.630  1.00  0.00     0.031 C 
ATOM     43  C   UNL A   1      37.533  32.292  33.303  1.00  0.00     0.029 A 
ATOM     44  C   UNL A   1      38.739  31.482  33.428  1.00  0.00     0.049 A 
ATOM     45  H   UNL A   1      39.649  30.330  31.951  1.00  0.00     0.167 HD
ATOM     46  C   UNL A   1      41.432  27.873  28.840  1.00  0.00     0.031 A 
ATOM     47  C   UNL A   1      39.467  31.343  34.553  1.00  0.00     0.031 A 
ATOM     48  C   UNL A   1      42.239  27.623  30.005  1.00  0.00     0.049 A 
ATOM     49  C   UNL A   1      40.650  30.419  34.563  1.00  0.00     0.074 A 
ATOM     50  C   UNL A   1      43.360  26.818  30.121  1.00  0.00     0.029 A 
ATOM     51  N   UNL A   1      42.023  28.189  31.251  1.00  0.00    -0.354 N 
ATOM     52  N   UNL A   1      41.152  29.711  33.581  1.00  0.00    -0.248 NA
ATOM     53  C   UNL A   1      41.355  30.261  35.843  1.00  0.00     0.031 C 
ATOM     54  C   UNL A   1      43.805  26.874  31.446  1.00  0.00     0.029 A 
ATOM     55  C   UNL A   1      42.983  27.744  32.143  1.00  0.00     0.049 A 
ATOM     56  H   UNL A   1      41.294  28.814  31.468  1.00  0.00     0.167 HD
ATOM     57  C   UNL A   1      42.231  29.026  34.123  1.00  0.00     0.074 A 
ATOM     58  C   UNL A   1      42.327  29.422  35.512  1.00  0.00     0.031 C 
ATOM     59  C   UNL A   1      43.063  28.141  33.524  1.00  0.00     0.031 A 
BRANCH  46  60
ATOM     60  C   UNL A   1      41.786  27.158  27.568  1.00  0.00    -0.014 A 
ATOM     61  C   UNL A   1      41.248  25.901  27.258  1.00  0.00     0.009 A 
ATOM     62  C   UNL A   1      42.649  27.777  26.649  1.00  0.00     0.009 A 
ATOM     63  C   UNL A   1      41.592  25.263  26.063  1.00  0.00     0.001 A 
ATOM     64  C   UNL A   1      42.972  27.148  25.446  1.00  0.00     0.001 A 
ATOM     65  C   UNL A   1      42.450  25.888  25.157  1.00  0.00     0.000 A 
ENDBRANCH  46  60
BRANCH  47  66
ATOM     66  C   UNL A   1      39.067  32.070  35.786  1.00  0.00    -0.014 A 
ATOM     67  C   UNL A   1      38.139  31.508  36.675  1.00  0.00     0.009 A 
ATOM     68  C   UNL A   1      39.617  33.328  36.079  1.00  0.00     0.009 A 
ATOM     69  C   UNL A   1      37.760  32.199  37.829  1.00  0.00     0.001 A 
ATOM     70  C   UNL A   1      39.255  34.004  37.246  1.00  0.00     0.001 A 
ATOM     71  C   UNL A   1      38.323  33.442  38.116  1.00  0.00     0.000 A 
ENDBRANCH  47  66
BRANCH  59  72
ATOM     72  C   UNL A   1      44.158  27.557  34.366  1.00  0.00    -0.014 A 
ATOM     73  C   UNL A   1      45.399  28.201  34.486  1.00  0.00     0.009 A 
ATOM     74  C   UNL A   1      43.937  26.363  35.070  1.00  0.00     0.009 A 
ATOM     75  C   UNL A   1      46.409  27.644  35.272  1.00  0.00     0.001 A 
ATOM     76  C   UNL A   1      44.942  25.819  35.871  1.00  0.00     0.001 A 
ATOM     77  C   UNL A   1      46.179  26.456  35.966  1.00  0.00     0.000 A 
ENDBRANCH  59  72
ENDBRANCH  33  34
ENDBRANCH  26  28
ENDBRANCH  25  26
ENDBRANCH  24  25
ENDBRANCH  23  24
ENDBRANCH   1  23
TORSDOF 16
ENDMDL
