MODEL 1
REMARK VINA RESULT:     -11.3      0.000      0.000
REMARK SMILES O=C(OCCOC(=O)c1[nH]ncc1C[N@H+]1CCC[C@@H](c2nc3ccccc3o2)C1)c1ccc(-c2c3nc(c(-c4ccccc4)c4ccc([nH]4)c(-c4ccccc4)c4nc(c(-c5ccccc5)c5ccc2[nH]5)C=C4)C=C3)cc1
REMARK SMILES IDX 5 1 4 2 3 3 2 4 1 5 30 6 31 7 77 8 32 9 76 10 33 11 34 12
REMARK SMILES IDX 35 13 70 14 36 15 75 16 69 17 71 18 37 19 74 20 68 21 67 22
REMARK SMILES IDX 38 24 60 25 45 26 59 27 46 28 49 29 58 30 72 31 47 32 48 33
REMARK SMILES IDX 57 35 73 36 50 37 39 38 40 39 44 40 41 41 43 42 42 43 61 44
REMARK SMILES IDX 62 45 66 46 63 47 65 48 64 49 51 50 52 51 56 52 53 53 55 54
REMARK SMILES IDX 54 55 6 56 7 57 8 58 9 59 10 60 13 61 11 62 12 64 14 65
REMARK SMILES IDX 15 66 16 67 29 68 17 70 19 71 18 72 20 73 21 74 28 75 22 76
REMARK SMILES IDX 27 77 23 78 26 79 24 80 25 81
REMARK H PARENT 71 23 49 34 10 63 15 69
REMARK Flexibility Score: inf
ROOT
ATOM      1  C   UNL A   1      41.290  19.820  26.401  1.00  0.00     0.275 C 
ENDROOT
BRANCH   1   2
ATOM      2  C   UNL A   1      40.787  21.183  26.889  1.00  0.00     0.275 C 
BRANCH   2   3
ATOM      3  O   UNL A   1      39.690  21.688  26.105  1.00  0.00    -0.458 OA
BRANCH   3   4
ATOM      4  C   UNL A   1      38.916  22.792  26.211  1.00  0.00     0.338 C 
ATOM      5  O   UNL A   1      37.745  22.686  25.845  1.00  0.00    -0.246 OA
BRANCH   4   6
ATOM      6  C   UNL A   1      39.367  24.154  26.676  1.00  0.00     0.060 A 
ATOM      7  C   UNL A   1      40.040  25.123  25.931  1.00  0.00     0.016 A 
ATOM      8  C   UNL A   1      39.051  24.484  28.013  1.00  0.00     0.016 A 
ATOM      9  C   UNL A   1      40.403  26.357  26.496  1.00  0.00     0.010 A 
ATOM     10  C   UNL A   1      39.385  25.725  28.576  1.00  0.00     0.010 A 
ATOM     11  C   UNL A   1      40.080  26.670  27.821  1.00  0.00    -0.014 A 
BRANCH  11  12
ATOM     12  C   UNL A   1      40.505  27.964  28.413  1.00  0.00     0.031 A 
ATOM     13  C   UNL A   1      41.961  28.232  28.635  1.00  0.00     0.074 A 
ATOM     14  C   UNL A   1      39.604  28.927  28.678  1.00  0.00     0.049 A 
ATOM     15  N   UNL A   1      42.529  29.307  29.113  1.00  0.00    -0.248 NA
ATOM     16  C   UNL A   1      42.898  27.162  28.258  1.00  0.00     0.031 C 
ATOM     17  C   UNL A   1      38.177  28.798  28.434  1.00  0.00     0.029 A 
ATOM     18  N   UNL A   1      39.731  30.203  29.161  1.00  0.00    -0.354 N 
ATOM     19  C   UNL A   1      43.891  29.050  29.091  1.00  0.00     0.074 A 
ATOM     20  C   UNL A   1      44.064  27.709  28.574  1.00  0.00     0.031 C 
ATOM     21  C   UNL A   1      37.562  29.968  28.667  1.00  0.00     0.029 A 
ATOM     22  C   UNL A   1      38.545  30.904  29.191  1.00  0.00     0.049 A 
ATOM     23  H   UNL A   1      40.589  30.582  29.460  1.00  0.00     0.167 HD
ATOM     24  C   UNL A   1      44.904  29.865  29.464  1.00  0.00     0.031 A 
ATOM     25  C   UNL A   1      38.280  32.149  29.627  1.00  0.00     0.031 A 
ATOM     26  C   UNL A   1      44.721  31.187  30.000  1.00  0.00     0.049 A 
ATOM     27  C   UNL A   1      39.398  32.903  30.279  1.00  0.00     0.074 A 
ATOM     28  C   UNL A   1      45.679  32.110  30.379  1.00  0.00     0.029 A 
ATOM     29  N   UNL A   1      43.486  31.763  30.252  1.00  0.00    -0.354 N 
ATOM     30  N   UNL A   1      40.681  32.646  30.268  1.00  0.00    -0.248 NA
ATOM     31  C   UNL A   1      39.018  34.088  31.059  1.00  0.00     0.031 C 
ATOM     32  C   UNL A   1      45.021  33.226  30.911  1.00  0.00     0.029 A 
ATOM     33  C   UNL A   1      43.655  33.010  30.829  1.00  0.00     0.049 A 
ATOM     34  H   UNL A   1      42.617  31.348  30.051  1.00  0.00     0.167 HD
ATOM     35  C   UNL A   1      41.270  33.657  31.010  1.00  0.00     0.074 A 
ATOM     36  C   UNL A   1      40.202  34.525  31.466  1.00  0.00     0.031 C 
ATOM     37  C   UNL A   1      42.583  33.855  31.276  1.00  0.00     0.031 A 
BRANCH  24  38
ATOM     38  C   UNL A   1      46.292  29.318  29.338  1.00  0.00    -0.014 A 
ATOM     39  C   UNL A   1      46.914  28.668  30.414  1.00  0.00     0.009 A 
ATOM     40  C   UNL A   1      46.990  29.466  28.130  1.00  0.00     0.009 A 
ATOM     41  C   UNL A   1      48.223  28.200  30.292  1.00  0.00     0.001 A 
ATOM     42  C   UNL A   1      48.293  28.981  28.005  1.00  0.00     0.001 A 
ATOM     43  C   UNL A   1      48.911  28.356  29.088  1.00  0.00     0.000 A 
ENDBRANCH  24  38
BRANCH  25  44
ATOM     44  C   UNL A   1      36.923  32.752  29.555  1.00  0.00    -0.014 A 
ATOM     45  C   UNL A   1      36.047  32.646  30.648  1.00  0.00     0.009 A 
ATOM     46  C   UNL A   1      36.453  33.346  28.375  1.00  0.00     0.009 A 
ATOM     47  C   UNL A   1      34.730  33.104  30.556  1.00  0.00     0.001 A 
ATOM     48  C   UNL A   1      35.141  33.823  28.295  1.00  0.00     0.001 A 
ATOM     49  C   UNL A   1      34.278  33.694  29.379  1.00  0.00     0.000 A 
ENDBRANCH  25  44
BRANCH  37  50
ATOM     50  C   UNL A   1      42.919  35.098  32.039  1.00  0.00    -0.014 A 
ATOM     51  C   UNL A   1      43.422  36.235  31.389  1.00  0.00     0.009 A 
ATOM     52  C   UNL A   1      42.750  35.116  33.431  1.00  0.00     0.009 A 
ATOM     53  C   UNL A   1      43.777  37.362  32.130  1.00  0.00     0.001 A 
ATOM     54  C   UNL A   1      43.087  36.251  34.165  1.00  0.00     0.001 A 
ATOM     55  C   UNL A   1      43.608  37.370  33.515  1.00  0.00     0.000 A 
ENDBRANCH  37  50
ENDBRANCH  11  12
ENDBRANCH   4   6
ENDBRANCH   3   4
ENDBRANCH   2   3
ENDBRANCH   1   2
BRANCH   1  56
ATOM     56  O   UNL A   1      42.453  19.947  25.573  1.00  0.00    -0.457 OA
BRANCH  56  57
ATOM     57  C   UNL A   1      43.239  18.829  25.506  1.00  0.00     0.356 C 
ATOM     58  O   UNL A   1      42.836  17.681  25.440  1.00  0.00    -0.244 OA
BRANCH  57  59
ATOM     59  C   UNL A   1      44.600  19.229  25.311  1.00  0.00     0.152 A 
ATOM     60  N   UNL A   1      45.621  18.560  25.932  1.00  0.00    -0.271 N 
ATOM     61  C   UNL A   1      45.200  20.178  24.492  1.00  0.00     0.059 A 
ATOM     62  N   UNL A   1      46.831  18.864  25.446  1.00  0.00    -0.183 NA
ATOM     63  H   UNL A   1      45.478  17.916  26.664  1.00  0.00     0.190 HD
ATOM     64  C   UNL A   1      46.574  19.819  24.553  1.00  0.00     0.145 A 
BRANCH  61  65
ATOM     65  C   UNL A   1      44.529  21.208  23.638  1.00  0.00     0.303 C 
BRANCH  65  66
ATOM     66  N   UNL A   1      44.630  22.607  24.087  1.00  0.00    -0.330 N 
ATOM     67  C   UNL A   1      43.425  23.061  24.785  1.00  0.00     0.262 C 
ATOM     68  C   UNL A   1      45.850  22.983  24.819  1.00  0.00     0.275 C 
ATOM     69  H   UNL A   1      44.711  23.115  23.205  1.00  0.00     0.348 HD
ATOM     70  C   UNL A   1      43.463  24.577  25.000  1.00  0.00     0.062 C 
ATOM     71  C   UNL A   1      45.966  24.500  25.039  1.00  0.00     0.131 C 
ATOM     72  C   UNL A   1      44.717  25.016  25.753  1.00  0.00     0.025 C 
BRANCH  71  73
ATOM     73  C   UNL A   1      47.207  24.831  25.807  1.00  0.00     0.204 A 
ATOM     74  N   UNL A   1      47.605  24.396  26.988  1.00  0.00    -0.213 NA
ATOM     75  O   UNL A   1      48.083  25.684  25.189  1.00  0.00    -0.440 OA
ATOM     76  C   UNL A   1      48.843  24.974  27.150  1.00  0.00     0.109 A 
ATOM     77  C   UNL A   1      49.140  25.755  26.046  1.00  0.00     0.154 A 
ATOM     78  C   UNL A   1      49.782  24.887  28.184  1.00  0.00     0.032 A 
ATOM     79  C   UNL A   1      50.321  26.465  25.866  1.00  0.00     0.049 A 
ATOM     80  C   UNL A   1      50.991  25.590  28.044  1.00  0.00     0.003 A 
ATOM     81  C   UNL A   1      51.254  26.361  26.904  1.00  0.00     0.004 A 
ENDBRANCH  71  73
ENDBRANCH  65  66
ENDBRANCH  61  65
ENDBRANCH  57  59
ENDBRANCH  56  57
ENDBRANCH   1  56
TORSDOF 14
ENDMDL
MODEL 2
REMARK VINA RESULT:     -11.3      5.080     10.877
REMARK SMILES O=C(OCCOC(=O)c1[nH]ncc1C[N@H+]1CCC[C@@H](c2nc3ccccc3o2)C1)c1ccc(-c2c3nc(c(-c4ccccc4)c4ccc([nH]4)c(-c4ccccc4)c4nc(c(-c5ccccc5)c5ccc2[nH]5)C=C4)C=C3)cc1
REMARK SMILES IDX 5 1 4 2 3 3 2 4 1 5 30 6 31 7 77 8 32 9 76 10 33 11 34 12
REMARK SMILES IDX 35 13 70 14 36 15 75 16 69 17 71 18 37 19 74 20 68 21 67 22
REMARK SMILES IDX 38 24 60 25 45 26 59 27 46 28 49 29 58 30 72 31 47 32 48 33
REMARK SMILES IDX 57 35 73 36 50 37 39 38 40 39 44 40 41 41 43 42 42 43 61 44
REMARK SMILES IDX 62 45 66 46 63 47 65 48 64 49 51 50 52 51 56 52 53 53 55 54
REMARK SMILES IDX 54 55 6 56 7 57 8 58 9 59 10 60 13 61 11 62 12 64 14 65
REMARK SMILES IDX 15 66 16 67 29 68 17 70 19 71 18 72 20 73 21 74 28 75 22 76
REMARK SMILES IDX 27 77 23 78 26 79 24 80 25 81
REMARK H PARENT 71 23 49 34 10 63 15 69
REMARK Flexibility Score: inf
ROOT
ATOM      1  C   UNL A   1      32.242  30.868  26.799  1.00  0.00     0.275 C 
ENDROOT
BRANCH   1   2
ATOM      2  C   UNL A   1      31.403  32.094  27.177  1.00  0.00     0.275 C 
BRANCH   2   3
ATOM      3  O   UNL A   1      32.164  33.316  27.168  1.00  0.00    -0.458 OA
BRANCH   3   4
ATOM      4  C   UNL A   1      32.943  33.921  28.093  1.00  0.00     0.338 C 
ATOM      5  O   UNL A   1      32.507  34.959  28.592  1.00  0.00    -0.246 OA
BRANCH   4   6
ATOM      6  C   UNL A   1      34.318  33.478  28.525  1.00  0.00     0.060 A 
ATOM      7  C   UNL A   1      35.541  33.837  27.956  1.00  0.00     0.016 A 
ATOM      8  C   UNL A   1      34.365  32.619  29.646  1.00  0.00     0.016 A 
ATOM      9  C   UNL A   1      36.755  33.345  28.464  1.00  0.00     0.010 A 
ATOM     10  C   UNL A   1      35.574  32.147  30.176  1.00  0.00     0.010 A 
ATOM     11  C   UNL A   1      36.785  32.497  29.577  1.00  0.00    -0.014 A 
BRANCH  11  12
ATOM     12  C   UNL A   1      38.074  31.957  30.076  1.00  0.00     0.031 A 
ATOM     13  C   UNL A   1      38.566  30.636  29.573  1.00  0.00     0.074 A 
ATOM     14  C   UNL A   1      38.842  32.677  30.914  1.00  0.00     0.049 A 
ATOM     15  N   UNL A   1      39.677  30.012  29.867  1.00  0.00    -0.248 NA
ATOM     16  C   UNL A   1      37.711  29.933  28.604  1.00  0.00     0.031 C 
ATOM     17  C   UNL A   1      38.493  33.999  31.408  1.00  0.00     0.029 A 
ATOM     18  N   UNL A   1      40.073  32.443  31.469  1.00  0.00    -0.354 N 
ATOM     19  C   UNL A   1      39.659  28.847  29.118  1.00  0.00     0.074 A 
ATOM     20  C   UNL A   1      38.418  28.837  28.372  1.00  0.00     0.031 C 
ATOM     21  C   UNL A   1      39.515  34.513  32.108  1.00  0.00     0.029 A 
ATOM     22  C   UNL A   1      40.555  33.502  32.209  1.00  0.00     0.049 A 
ATOM     23  H   UNL A   1      40.565  31.600  31.351  1.00  0.00     0.167 HD
ATOM     24  C   UNL A   1      40.599  27.876  29.057  1.00  0.00     0.031 A 
ATOM     25  C   UNL A   1      41.693  33.622  32.918  1.00  0.00     0.031 A 
ATOM     26  C   UNL A   1      41.818  27.882  29.820  1.00  0.00     0.049 A 
ATOM     27  C   UNL A   1      42.567  32.410  33.030  1.00  0.00     0.074 A 
ATOM     28  C   UNL A   1      42.853  26.965  29.809  1.00  0.00     0.029 A 
ATOM     29  N   UNL A   1      42.149  28.852  30.753  1.00  0.00    -0.354 N 
ATOM     30  N   UNL A   1      42.535  31.305  32.329  1.00  0.00    -0.248 NA
ATOM     31  C   UNL A   1      43.595  32.441  34.078  1.00  0.00     0.031 C 
ATOM     32  C   UNL A   1      43.789  27.355  30.776  1.00  0.00     0.029 A 
ATOM     33  C   UNL A   1      43.351  28.531  31.362  1.00  0.00     0.049 A 
ATOM     34  H   UNL A   1      41.611  29.651  30.954  1.00  0.00     0.167 HD
ATOM     35  C   UNL A   1      43.562  30.519  32.826  1.00  0.00     0.074 A 
ATOM     36  C   UNL A   1      44.190  31.270  33.895  1.00  0.00     0.031 C 
ATOM     37  C   UNL A   1      43.957  29.289  32.421  1.00  0.00     0.031 A 
BRANCH  24  38
ATOM     38  C   UNL A   1      40.311  26.713  28.158  1.00  0.00    -0.014 A 
ATOM     39  C   UNL A   1      39.557  25.619  28.610  1.00  0.00     0.009 A 
ATOM     40  C   UNL A   1      40.810  26.708  26.847  1.00  0.00     0.009 A 
ATOM     41  C   UNL A   1      39.332  24.526  27.771  1.00  0.00     0.001 A 
ATOM     42  C   UNL A   1      40.569  25.620  26.006  1.00  0.00     0.001 A 
ATOM     43  C   UNL A   1      39.837  24.528  26.471  1.00  0.00     0.000 A 
ENDBRANCH  24  38
BRANCH  25  44
ATOM     44  C   UNL A   1      42.059  34.867  33.642  1.00  0.00    -0.014 A 
ATOM     45  C   UNL A   1      41.519  35.127  34.912  1.00  0.00     0.009 A 
ATOM     46  C   UNL A   1      42.862  35.848  33.042  1.00  0.00     0.009 A 
ATOM     47  C   UNL A   1      41.760  36.345  35.555  1.00  0.00     0.001 A 
ATOM     48  C   UNL A   1      43.118  37.055  33.699  1.00  0.00     0.001 A 
ATOM     49  C   UNL A   1      42.561  37.307  34.949  1.00  0.00     0.000 A 
ENDBRANCH  25  44
BRANCH  37  50
ATOM     50  C   UNL A   1      45.166  28.729  33.102  1.00  0.00    -0.014 A 
ATOM     51  C   UNL A   1      45.047  27.870  34.204  1.00  0.00     0.009 A 
ATOM     52  C   UNL A   1      46.442  29.091  32.644  1.00  0.00     0.009 A 
ATOM     53  C   UNL A   1      46.190  27.405  34.853  1.00  0.00     0.001 A 
ATOM     54  C   UNL A   1      47.581  28.608  33.282  1.00  0.00     0.001 A 
ATOM     55  C   UNL A   1      47.455  27.772  34.391  1.00  0.00     0.000 A 
ENDBRANCH  37  50
ENDBRANCH  11  12
ENDBRANCH   4   6
ENDBRANCH   3   4
ENDBRANCH   2   3
ENDBRANCH   1   2
BRANCH   1  56
ATOM     56  O   UNL A   1      32.110  30.540  25.410  1.00  0.00    -0.457 OA
BRANCH  56  57
ATOM     57  C   UNL A   1      31.483  29.351  25.155  1.00  0.00     0.356 C 
ATOM     58  O   UNL A   1      31.491  28.374  25.883  1.00  0.00    -0.244 OA
BRANCH  57  59
ATOM     59  C   UNL A   1      30.642  29.506  24.006  1.00  0.00     0.152 A 
ATOM     60  N   UNL A   1      29.868  30.626  23.854  1.00  0.00    -0.271 N 
ATOM     61  C   UNL A   1      30.469  28.756  22.850  1.00  0.00     0.059 A 
ATOM     62  N   UNL A   1      29.358  30.758  22.623  1.00  0.00    -0.183 NA
ATOM     63  H   UNL A   1      29.704  31.272  24.580  1.00  0.00     0.190 HD
ATOM     64  C   UNL A   1      29.747  29.643  22.007  1.00  0.00     0.145 A 
BRANCH  61  65
ATOM     65  C   UNL A   1      31.050  27.413  22.534  1.00  0.00     0.303 C 
BRANCH  65  66
ATOM     66  N   UNL A   1      31.249  26.494  23.668  1.00  0.00    -0.330 N 
ATOM     67  C   UNL A   1      30.039  25.738  23.997  1.00  0.00     0.262 C 
ATOM     68  C   UNL A   1      32.432  25.619  23.613  1.00  0.00     0.275 C 
ATOM     69  H   UNL A   1      31.457  27.134  24.435  1.00  0.00     0.348 HD
ATOM     70  C   UNL A   1      30.206  24.999  25.328  1.00  0.00     0.062 C 
ATOM     71  C   UNL A   1      32.677  24.871  24.934  1.00  0.00     0.131 C 
ATOM     72  C   UNL A   1      31.426  24.081  25.321  1.00  0.00     0.025 C 
BRANCH  71  73
ATOM     73  C   UNL A   1      33.872  23.978  24.824  1.00  0.00     0.204 A 
ATOM     74  N   UNL A   1      35.135  24.287  24.599  1.00  0.00    -0.213 NA
ATOM     75  O   UNL A   1      33.638  22.642  25.015  1.00  0.00    -0.440 OA
ATOM     76  C   UNL A   1      35.788  23.080  24.680  1.00  0.00     0.109 A 
ATOM     77  C   UNL A   1      34.875  22.073  24.943  1.00  0.00     0.154 A 
ATOM     78  C   UNL A   1      37.141  22.743  24.555  1.00  0.00     0.032 A 
ATOM     79  C   UNL A   1      35.193  20.731  25.111  1.00  0.00     0.049 A 
ATOM     80  C   UNL A   1      37.508  21.397  24.717  1.00  0.00     0.003 A 
ATOM     81  C   UNL A   1      36.551  20.412  24.993  1.00  0.00     0.004 A 
ENDBRANCH  71  73
ENDBRANCH  65  66
ENDBRANCH  61  65
ENDBRANCH  57  59
ENDBRANCH  56  57
ENDBRANCH   1  56
TORSDOF 14
ENDMDL
MODEL 3
REMARK VINA RESULT:     -11.1      4.829     10.800
REMARK SMILES O=C(OCCOC(=O)c1[nH]ncc1C[N@H+]1CCC[C@@H](c2nc3ccccc3o2)C1)c1ccc(-c2c3nc(c(-c4ccccc4)c4ccc([nH]4)c(-c4ccccc4)c4nc(c(-c5ccccc5)c5ccc2[nH]5)C=C4)C=C3)cc1
REMARK SMILES IDX 5 1 4 2 3 3 2 4 1 5 30 6 31 7 77 8 32 9 76 10 33 11 34 12
REMARK SMILES IDX 35 13 70 14 36 15 75 16 69 17 71 18 37 19 74 20 68 21 67 22
REMARK SMILES IDX 38 24 60 25 45 26 59 27 46 28 49 29 58 30 72 31 47 32 48 33
REMARK SMILES IDX 57 35 73 36 50 37 39 38 40 39 44 40 41 41 43 42 42 43 61 44
REMARK SMILES IDX 62 45 66 46 63 47 65 48 64 49 51 50 52 51 56 52 53 53 55 54
REMARK SMILES IDX 54 55 6 56 7 57 8 58 9 59 10 60 13 61 11 62 12 64 14 65
REMARK SMILES IDX 15 66 16 67 29 68 17 70 19 71 18 72 20 73 21 74 28 75 22 76
REMARK SMILES IDX 27 77 23 78 26 79 24 80 25 81
REMARK H PARENT 71 23 49 34 10 63 15 69
REMARK Flexibility Score: inf
ROOT
ATOM      1  C   UNL A   1      33.645  29.226  25.053  1.00  0.00     0.275 C 
ENDROOT
BRANCH   1   2
ATOM      2  C   UNL A   1      33.530  28.946  26.556  1.00  0.00     0.275 C 
BRANCH   2   3
ATOM      3  O   UNL A   1      33.504  30.148  27.349  1.00  0.00    -0.458 OA
BRANCH   3   4
ATOM      4  C   UNL A   1      34.451  30.799  28.063  1.00  0.00     0.338 C 
ATOM      5  O   UNL A   1      34.209  31.968  28.368  1.00  0.00    -0.246 OA
BRANCH   4   6
ATOM      6  C   UNL A   1      35.796  30.250  28.467  1.00  0.00     0.060 A 
ATOM      7  C   UNL A   1      36.128  29.625  29.670  1.00  0.00     0.016 A 
ATOM      8  C   UNL A   1      36.824  30.367  27.506  1.00  0.00     0.016 A 
ATOM      9  C   UNL A   1      37.431  29.160  29.916  1.00  0.00     0.010 A 
ATOM     10  C   UNL A   1      38.119  29.880  27.732  1.00  0.00     0.010 A 
ATOM     11  C   UNL A   1      38.437  29.281  28.951  1.00  0.00    -0.014 A 
BRANCH  11  12
ATOM     12  C   UNL A   1      39.817  28.817  29.243  1.00  0.00     0.031 A 
ATOM     13  C   UNL A   1      40.700  29.636  30.132  1.00  0.00     0.074 A 
ATOM     14  C   UNL A   1      40.255  27.632  28.781  1.00  0.00     0.049 A 
ATOM     15  N   UNL A   1      41.921  29.386  30.526  1.00  0.00    -0.248 NA
ATOM     16  C   UNL A   1      40.133  30.887  30.660  1.00  0.00     0.031 C 
ATOM     17  C   UNL A   1      39.457  26.727  27.971  1.00  0.00     0.029 A 
ATOM     18  N   UNL A   1      41.436  26.956  28.946  1.00  0.00    -0.354 N 
ATOM     19  C   UNL A   1      42.270  30.443  31.351  1.00  0.00     0.074 A 
ATOM     20  C   UNL A   1      41.142  31.349  31.385  1.00  0.00     0.031 C 
ATOM     21  C   UNL A   1      40.116  25.573  27.785  1.00  0.00     0.029 A 
ATOM     22  C   UNL A   1      41.439  25.702  28.373  1.00  0.00     0.049 A 
ATOM     23  H   UNL A   1      42.208  27.331  29.427  1.00  0.00     0.167 HD
ATOM     24  C   UNL A   1      43.429  30.633  32.023  1.00  0.00     0.031 A 
ATOM     25  C   UNL A   1      42.417  24.780  28.303  1.00  0.00     0.031 A 
ATOM     26  C   UNL A   1      44.553  29.739  31.963  1.00  0.00     0.049 A 
ATOM     27  C   UNL A   1      43.765  25.162  28.834  1.00  0.00     0.074 A 
ATOM     28  C   UNL A   1      45.762  29.820  32.630  1.00  0.00     0.029 A 
ATOM     29  N   UNL A   1      44.609  28.606  31.167  1.00  0.00    -0.354 N 
ATOM     30  N   UNL A   1      44.092  26.171  29.601  1.00  0.00    -0.248 NA
ATOM     31  C   UNL A   1      44.891  24.308  28.433  1.00  0.00     0.031 C 
ATOM     32  C   UNL A   1      46.571  28.762  32.195  1.00  0.00     0.029 A 
ATOM     33  C   UNL A   1      45.850  28.005  31.285  1.00  0.00     0.049 A 
ATOM     34  H   UNL A   1      43.875  28.277  30.600  1.00  0.00     0.167 HD
ATOM     35  C   UNL A   1      45.457  26.057  29.806  1.00  0.00     0.074 A 
ATOM     36  C   UNL A   1      45.898  24.886  29.074  1.00  0.00     0.031 C 
ATOM     37  C   UNL A   1      46.269  26.845  30.549  1.00  0.00     0.031 A 
BRANCH  24  38
ATOM     38  C   UNL A   1      43.536  31.881  32.844  1.00  0.00    -0.014 A 
ATOM     39  C   UNL A   1      43.923  33.098  32.262  1.00  0.00     0.009 A 
ATOM     40  C   UNL A   1      43.256  31.835  34.217  1.00  0.00     0.009 A 
ATOM     41  C   UNL A   1      44.056  34.242  33.050  1.00  0.00     0.001 A 
ATOM     42  C   UNL A   1      43.375  32.986  34.999  1.00  0.00     0.001 A 
ATOM     43  C   UNL A   1      43.781  34.186  34.416  1.00  0.00     0.000 A 
ENDBRANCH  24  38
BRANCH  25  44
ATOM     44  C   UNL A   1      42.225  23.455  27.656  1.00  0.00    -0.014 A 
ATOM     45  C   UNL A   1      42.534  23.285  26.296  1.00  0.00     0.009 A 
ATOM     46  C   UNL A   1      41.645  22.384  28.351  1.00  0.00     0.009 A 
ATOM     47  C   UNL A   1      42.250  22.081  25.645  1.00  0.00     0.001 A 
ATOM     48  C   UNL A   1      41.383  21.175  27.700  1.00  0.00     0.001 A 
ATOM     49  C   UNL A   1      41.677  21.026  26.348  1.00  0.00     0.000 A 
ENDBRANCH  25  44
BRANCH  37  50
ATOM     50  C   UNL A   1      47.697  26.408  30.649  1.00  0.00    -0.014 A 
ATOM     51  C   UNL A   1      48.152  25.658  31.743  1.00  0.00     0.009 A 
ATOM     52  C   UNL A   1      48.600  26.779  29.642  1.00  0.00     0.009 A 
ATOM     53  C   UNL A   1      49.499  25.310  31.838  1.00  0.00     0.001 A 
ATOM     54  C   UNL A   1      49.941  26.411  29.731  1.00  0.00     0.001 A 
ATOM     55  C   UNL A   1      50.391  25.684  30.833  1.00  0.00     0.000 A 
ENDBRANCH  37  50
ENDBRANCH  11  12
ENDBRANCH   4   6
ENDBRANCH   3   4
ENDBRANCH   2   3
ENDBRANCH   1   2
BRANCH   1  56
ATOM     56  O   UNL A   1      33.700  28.016  24.289  1.00  0.00    -0.457 OA
BRANCH  56  57
ATOM     57  C   UNL A   1      33.285  28.134  22.990  1.00  0.00     0.356 C 
ATOM     58  O   UNL A   1      33.957  27.884  22.005  1.00  0.00    -0.244 OA
BRANCH  57  59
ATOM     59  C   UNL A   1      31.876  28.389  22.974  1.00  0.00     0.152 A 
ATOM     60  N   UNL A   1      31.327  29.214  22.029  1.00  0.00    -0.271 N 
ATOM     61  C   UNL A   1      30.813  27.882  23.710  1.00  0.00     0.059 A 
ATOM     62  N   UNL A   1      29.991  29.139  21.967  1.00  0.00    -0.183 NA
ATOM     63  H   UNL A   1      31.863  29.805  21.451  1.00  0.00     0.190 HD
ATOM     64  C   UNL A   1      29.683  28.309  22.963  1.00  0.00     0.145 A 
BRANCH  61  65
ATOM     65  C   UNL A   1      30.872  26.973  24.899  1.00  0.00     0.303 C 
BRANCH  65  66
ATOM     66  N   UNL A   1      31.106  25.544  24.628  1.00  0.00    -0.330 N 
ATOM     67  C   UNL A   1      30.611  25.134  23.313  1.00  0.00     0.262 C 
ATOM     68  C   UNL A   1      32.466  25.036  24.874  1.00  0.00     0.275 C 
ATOM     69  H   UNL A   1      30.544  25.089  25.349  1.00  0.00     0.348 HD
ATOM     70  C   UNL A   1      30.634  23.608  23.177  1.00  0.00     0.062 C 
ATOM     71  C   UNL A   1      32.551  23.503  24.786  1.00  0.00     0.131 C 
ATOM     72  C   UNL A   1      32.025  23.033  23.429  1.00  0.00     0.025 C 
BRANCH  71  73
ATOM     73  C   UNL A   1      33.953  23.036  25.018  1.00  0.00     0.204 A 
ATOM     74  N   UNL A   1      34.513  21.878  24.721  1.00  0.00    -0.213 NA
ATOM     75  O   UNL A   1      34.799  23.947  25.592  1.00  0.00    -0.440 OA
ATOM     76  C   UNL A   1      35.826  22.044  25.092  1.00  0.00     0.109 A 
ATOM     77  C   UNL A   1      36.005  23.313  25.618  1.00  0.00     0.154 A 
ATOM     78  C   UNL A   1      36.931  21.187  25.015  1.00  0.00     0.032 A 
ATOM     79  C   UNL A   1      37.214  23.825  26.072  1.00  0.00     0.049 A 
ATOM     80  C   UNL A   1      38.174  21.664  25.464  1.00  0.00     0.003 A 
ATOM     81  C   UNL A   1      38.311  22.960  25.979  1.00  0.00     0.004 A 
ENDBRANCH  71  73
ENDBRANCH  65  66
ENDBRANCH  61  65
ENDBRANCH  57  59
ENDBRANCH  56  57
ENDBRANCH   1  56
TORSDOF 14
ENDMDL
