MODEL 1
REMARK VINA RESULT:      -9.1      0.000      0.000
REMARK SMILES O=C(COc1cc2ccccc2cc1O)OCCOC(=O)c1ccc(-c2c3nc(c(-c4ccccc4)c4ccc([nH]4)c(-c4ccccc4)c4nc(c(-c5ccccc5)c5ccc2[nH]5)C=C4)C=C3)cc1
REMARK SMILES IDX 17 1 16 2 2 3 1 4 3 5 4 6 5 7 6 8 14 9 7 10 13 11 8 12 12 13
REMARK SMILES IDX 9 14 11 15 10 16 15 17 18 19 19 20 20 21 21 22 22 23 23 24
REMARK SMILES IDX 69 25 24 26 68 27 25 28 26 29 27 30 62 31 28 32 67 33 61 34
REMARK SMILES IDX 63 35 29 36 66 37 60 38 59 39 30 41 52 42 37 43 51 44 38 45
REMARK SMILES IDX 41 46 50 47 64 48 39 49 40 50 49 52 65 53 42 54 31 55 32 56
REMARK SMILES IDX 36 57 33 58 35 59 34 60 53 61 54 62 58 63 55 64 57 65 56 66
REMARK SMILES IDX 43 67 44 68 48 69 45 70 47 71 46 72
REMARK H PARENT 15 18 63 40 41 51
REMARK Flexibility Score: inf
ROOT
ATOM      1  C   UNL A   1      45.537  20.285  24.250  1.00  0.00     0.274 C 
ENDROOT
BRANCH   1   2
ATOM      2  O   UNL A   1      46.055  21.372  25.051  1.00  0.00    -0.460 OA
BRANCH   2   3
ATOM      3  C   UNL A   1      45.852  22.661  24.652  1.00  0.00     0.344 C 
ATOM      4  O   UNL A   1      45.461  22.923  23.519  1.00  0.00    -0.248 OA
BRANCH   3   5
ATOM      5  C   UNL A   1      46.452  23.729  25.599  1.00  0.00     0.352 C 
BRANCH   5   6
ATOM      6  O   UNL A   1      46.997  24.967  25.144  1.00  0.00    -0.478 OA
BRANCH   6   7
ATOM      7  C   UNL A   1      46.276  26.091  25.432  1.00  0.00     0.162 A 
ATOM      8  C   UNL A   1      44.914  26.083  25.154  1.00  0.00     0.059 A 
ATOM      9  C   UNL A   1      46.816  27.263  25.935  1.00  0.00     0.158 A 
ATOM     10  C   UNL A   1      44.107  27.176  25.536  1.00  0.00    -0.014 A 
ATOM     11  C   UNL A   1      46.035  28.221  26.556  1.00  0.00     0.059 A 
ATOM     12  C   UNL A   1      42.780  27.325  25.108  1.00  0.00     0.009 A 
ATOM     13  C   UNL A   1      44.660  28.185  26.359  1.00  0.00    -0.014 A 
ATOM     14  C   UNL A   1      42.012  28.412  25.537  1.00  0.00     0.001 A 
ATOM     15  C   UNL A   1      43.852  29.202  26.877  1.00  0.00     0.009 A 
ATOM     16  C   UNL A   1      42.532  29.320  26.457  1.00  0.00     0.001 A 
BRANCH   9  17
ATOM     17  O   UNL A   1      48.109  27.607  25.670  1.00  0.00    -0.504 OA
ATOM     18  H   UNL A   1      48.804  27.013  25.877  1.00  0.00     0.293 HD
ENDBRANCH   9  17
ENDBRANCH   6   7
ENDBRANCH   5   6
ENDBRANCH   3   5
ENDBRANCH   2   3
ENDBRANCH   1   2
BRANCH   1  19
ATOM     19  C   UNL A   1      44.525  19.386  24.991  1.00  0.00     0.275 C 
BRANCH  19  20
ATOM     20  O   UNL A   1      43.160  19.742  24.732  1.00  0.00    -0.458 OA
BRANCH  20  21
ATOM     21  C   UNL A   1      42.369  19.694  25.838  1.00  0.00     0.338 C 
ATOM     22  O   UNL A   1      41.873  18.713  26.346  1.00  0.00    -0.246 OA
BRANCH  21  23
ATOM     23  C   UNL A   1      42.355  21.037  26.449  1.00  0.00     0.060 A 
ATOM     24  C   UNL A   1      42.500  22.149  25.612  1.00  0.00     0.016 A 
ATOM     25  C   UNL A   1      42.210  21.193  27.828  1.00  0.00     0.016 A 
ATOM     26  C   UNL A   1      42.534  23.430  26.163  1.00  0.00     0.010 A 
ATOM     27  C   UNL A   1      42.256  22.475  28.378  1.00  0.00     0.010 A 
ATOM     28  C   UNL A   1      42.445  23.596  27.553  1.00  0.00    -0.014 A 
BRANCH  28  29
ATOM     29  C   UNL A   1      42.664  24.928  28.160  1.00  0.00     0.031 A 
ATOM     30  C   UNL A   1      44.029  25.275  28.685  1.00  0.00     0.074 A 
ATOM     31  C   UNL A   1      41.658  25.816  28.248  1.00  0.00     0.049 A 
ATOM     32  N   UNL A   1      44.431  26.367  29.285  1.00  0.00    -0.248 NA
ATOM     33  C   UNL A   1      45.080  24.258  28.517  1.00  0.00     0.031 C 
ATOM     34  C   UNL A   1      40.299  25.610  27.749  1.00  0.00     0.029 A 
ATOM     35  N   UNL A   1      41.628  27.071  28.802  1.00  0.00    -0.354 N 
ATOM     36  C   UNL A   1      45.777  26.168  29.565  1.00  0.00     0.074 A 
ATOM     37  C   UNL A   1      46.117  24.842  29.097  1.00  0.00     0.031 C 
ATOM     38  C   UNL A   1      39.563  26.699  28.030  1.00  0.00     0.029 A 
ATOM     39  C   UNL A   1      40.388  27.662  28.757  1.00  0.00     0.049 A 
ATOM     40  H   UNL A   1      42.418  27.506  29.195  1.00  0.00     0.167 HD
ATOM     41  C   UNL A   1      46.652  27.017  30.154  1.00  0.00     0.031 A 
ATOM     42  C   UNL A   1      39.965  28.836  29.266  1.00  0.00     0.031 A 
ATOM     43  C   UNL A   1      46.310  28.330  30.634  1.00  0.00     0.049 A 
ATOM     44  C   UNL A   1      40.942  29.721  29.996  1.00  0.00     0.074 A 
ATOM     45  C   UNL A   1      47.139  29.274  31.216  1.00  0.00     0.029 A 
ATOM     46  N   UNL A   1      45.038  28.876  30.604  1.00  0.00    -0.354 N 
ATOM     47  N   UNL A   1      42.227  29.549  30.198  1.00  0.00    -0.248 NA
ATOM     48  C   UNL A   1      40.410  30.968  30.564  1.00  0.00     0.031 C 
ATOM     49  C   UNL A   1      46.354  30.363  31.605  1.00  0.00     0.029 A 
ATOM     50  C   UNL A   1      45.050  30.126  31.198  1.00  0.00     0.049 A 
ATOM     51  H   UNL A   1      44.245  28.441  30.216  1.00  0.00     0.167 HD
ATOM     52  C   UNL A   1      42.657  30.676  30.889  1.00  0.00     0.074 A 
ATOM     53  C   UNL A   1      41.504  31.536  31.049  1.00  0.00     0.031 C 
ATOM     54  C   UNL A   1      43.896  30.973  31.353  1.00  0.00     0.031 A 
BRANCH  41  55
ATOM     55  C   UNL A   1      48.065  26.546  30.344  1.00  0.00    -0.014 A 
ATOM     56  C   UNL A   1      48.457  25.863  31.506  1.00  0.00     0.009 A 
ATOM     57  C   UNL A   1      49.000  26.722  29.311  1.00  0.00     0.009 A 
ATOM     58  C   UNL A   1      49.762  25.383  31.637  1.00  0.00     0.001 A 
ATOM     59  C   UNL A   1      50.295  26.217  29.433  1.00  0.00     0.001 A 
ATOM     60  C   UNL A   1      50.677  25.553  30.598  1.00  0.00     0.000 A 
ENDBRANCH  41  55
BRANCH  42  61
ATOM     61  C   UNL A   1      38.537  29.238  29.148  1.00  0.00    -0.014 A 
ATOM     62  C   UNL A   1      38.056  29.849  27.979  1.00  0.00     0.009 A 
ATOM     63  C   UNL A   1      37.662  29.070  30.232  1.00  0.00     0.009 A 
ATOM     64  C   UNL A   1      36.744  30.323  27.917  1.00  0.00     0.001 A 
ATOM     65  C   UNL A   1      36.340  29.512  30.154  1.00  0.00     0.001 A 
ATOM     66  C   UNL A   1      35.887  30.153  29.002  1.00  0.00     0.000 A 
ENDBRANCH  42  61
BRANCH  54  67
ATOM     67  C   UNL A   1      44.077  32.293  32.053  1.00  0.00    -0.014 A 
ATOM     68  C   UNL A   1      43.945  32.405  33.446  1.00  0.00     0.009 A 
ATOM     69  C   UNL A   1      44.431  33.431  31.311  1.00  0.00     0.009 A 
ATOM     70  C   UNL A   1      44.126  33.638  34.076  1.00  0.00     0.001 A 
ATOM     71  C   UNL A   1      44.645  34.654  31.948  1.00  0.00     0.001 A 
ATOM     72  C   UNL A   1      44.483  34.759  33.328  1.00  0.00     0.000 A 
ENDBRANCH  54  67
ENDBRANCH  28  29
ENDBRANCH  21  23
ENDBRANCH  20  21
ENDBRANCH  19  20
ENDBRANCH   1  19
TORSDOF 14
ENDMDL
MODEL 2
REMARK VINA RESULT:      -9.0      0.518      6.217
REMARK SMILES O=C(COc1cc2ccccc2cc1O)OCCOC(=O)c1ccc(-c2c3nc(c(-c4ccccc4)c4ccc([nH]4)c(-c4ccccc4)c4nc(c(-c5ccccc5)c5ccc2[nH]5)C=C4)C=C3)cc1
REMARK SMILES IDX 17 1 16 2 2 3 1 4 3 5 4 6 5 7 6 8 14 9 7 10 13 11 8 12 12 13
REMARK SMILES IDX 9 14 11 15 10 16 15 17 18 19 19 20 20 21 21 22 22 23 23 24
REMARK SMILES IDX 69 25 24 26 68 27 25 28 26 29 27 30 62 31 28 32 67 33 61 34
REMARK SMILES IDX 63 35 29 36 66 37 60 38 59 39 30 41 52 42 37 43 51 44 38 45
REMARK SMILES IDX 41 46 50 47 64 48 39 49 40 50 49 52 65 53 42 54 31 55 32 56
REMARK SMILES IDX 36 57 33 58 35 59 34 60 53 61 54 62 58 63 55 64 57 65 56 66
REMARK SMILES IDX 43 67 44 68 48 69 45 70 47 71 46 72
REMARK H PARENT 15 18 63 40 41 51
REMARK Flexibility Score: inf
ROOT
ATOM      1  C   UNL A   1      45.347  20.225  24.399  1.00  0.00     0.274 C 
ENDROOT
BRANCH   1   2
ATOM      2  O   UNL A   1      45.907  21.332  25.142  1.00  0.00    -0.460 OA
BRANCH   2   3
ATOM      3  C   UNL A   1      45.721  22.608  24.695  1.00  0.00     0.344 C 
ATOM      4  O   UNL A   1      45.302  22.831  23.563  1.00  0.00    -0.248 OA
BRANCH   3   5
ATOM      5  C   UNL A   1      46.374  23.699  25.576  1.00  0.00     0.352 C 
BRANCH   5   6
ATOM      6  O   UNL A   1      46.911  24.916  25.056  1.00  0.00    -0.478 OA
BRANCH   6   7
ATOM      7  C   UNL A   1      46.219  26.057  25.343  1.00  0.00     0.162 A 
ATOM      8  C   UNL A   1      44.846  26.062  25.125  1.00  0.00     0.059 A 
ATOM      9  C   UNL A   1      46.797  27.235  25.787  1.00  0.00     0.158 A 
ATOM     10  C   UNL A   1      44.071  27.177  25.511  1.00  0.00    -0.014 A 
ATOM     11  C   UNL A   1      46.057  28.222  26.414  1.00  0.00     0.059 A 
ATOM     12  C   UNL A   1      42.729  27.335  25.138  1.00  0.00     0.009 A 
ATOM     13  C   UNL A   1      44.675  28.201  26.280  1.00  0.00    -0.014 A 
ATOM     14  C   UNL A   1      41.996  28.445  25.569  1.00  0.00     0.001 A 
ATOM     15  C   UNL A   1      43.905  29.244  26.803  1.00  0.00     0.009 A 
ATOM     16  C   UNL A   1      42.569  29.370  26.439  1.00  0.00     0.001 A 
BRANCH   9  17
ATOM     17  O   UNL A   1      48.081  27.552  25.456  1.00  0.00    -0.504 OA
ATOM     18  H   UNL A   1      48.257  28.043  24.676  1.00  0.00     0.293 HD
ENDBRANCH   9  17
ENDBRANCH   6   7
ENDBRANCH   5   6
ENDBRANCH   3   5
ENDBRANCH   2   3
ENDBRANCH   1   2
BRANCH   1  19
ATOM     19  C   UNL A   1      44.273  19.431  25.172  1.00  0.00     0.275 C 
BRANCH  19  20
ATOM     20  O   UNL A   1      42.938  19.877  24.900  1.00  0.00    -0.458 OA
BRANCH  20  21
ATOM     21  C   UNL A   1      42.138  19.891  26.001  1.00  0.00     0.338 C 
ATOM     22  O   UNL A   1      41.553  18.955  26.498  1.00  0.00    -0.246 OA
BRANCH  21  23
ATOM     23  C   UNL A   1      42.240  21.225  26.624  1.00  0.00     0.060 A 
ATOM     24  C   UNL A   1      42.398  22.338  25.789  1.00  0.00     0.016 A 
ATOM     25  C   UNL A   1      42.190  21.372  28.011  1.00  0.00     0.016 A 
ATOM     26  C   UNL A   1      42.541  23.607  26.349  1.00  0.00     0.010 A 
ATOM     27  C   UNL A   1      42.344  22.642  28.568  1.00  0.00     0.010 A 
ATOM     28  C   UNL A   1      42.547  23.760  27.743  1.00  0.00    -0.014 A 
BRANCH  28  29
ATOM     29  C   UNL A   1      42.882  25.070  28.347  1.00  0.00     0.031 A 
ATOM     30  C   UNL A   1      41.797  26.098  28.508  1.00  0.00     0.074 A 
ATOM     31  C   UNL A   1      44.138  25.343  28.740  1.00  0.00     0.049 A 
ATOM     32  N   UNL A   1      41.877  27.317  28.977  1.00  0.00    -0.248 NA
ATOM     33  C   UNL A   1      40.444  25.703  28.082  1.00  0.00     0.031 C 
ATOM     34  C   UNL A   1      45.270  24.421  28.665  1.00  0.00     0.029 A 
ATOM     35  N   UNL A   1      44.671  26.489  29.275  1.00  0.00    -0.354 N 
ATOM     36  C   UNL A   1      40.589  27.834  28.902  1.00  0.00     0.074 A 
ATOM     37  C   UNL A   1      39.753  26.808  28.316  1.00  0.00     0.031 C 
ATOM     38  C   UNL A   1      46.369  25.041  29.128  1.00  0.00     0.029 A 
ATOM     39  C   UNL A   1      46.024  26.412  29.499  1.00  0.00     0.049 A 
ATOM     40  H   UNL A   1      44.136  27.289  29.480  1.00  0.00     0.167 HD
ATOM     41  C   UNL A   1      40.143  29.051  29.292  1.00  0.00     0.031 A 
ATOM     42  C   UNL A   1      46.889  27.352  29.932  1.00  0.00     0.031 A 
ATOM     43  C   UNL A   1      40.977  30.077  29.859  1.00  0.00     0.049 A 
ATOM     44  C   UNL A   1      46.377  28.728  30.273  1.00  0.00     0.074 A 
ATOM     45  C   UNL A   1      40.606  31.332  30.313  1.00  0.00     0.029 A 
ATOM     46  N   UNL A   1      42.347  29.976  30.034  1.00  0.00    -0.354 N 
ATOM     47  N   UNL A   1      45.147  29.182  30.258  1.00  0.00    -0.248 NA
ATOM     48  C   UNL A   1      47.376  29.719  30.699  1.00  0.00     0.031 C 
ATOM     49  C   UNL A   1      41.763  32.016  30.695  1.00  0.00     0.029 A 
ATOM     50  C   UNL A   1      42.844  31.162  30.547  1.00  0.00     0.049 A 
ATOM     51  H   UNL A   1      42.886  29.179  29.826  1.00  0.00     0.167 HD
ATOM     52  C   UNL A   1      45.224  30.499  30.697  1.00  0.00     0.074 A 
ATOM     53  C   UNL A   1      46.615  30.762  30.995  1.00  0.00     0.031 C 
ATOM     54  C   UNL A   1      44.231  31.412  30.839  1.00  0.00     0.031 A 
BRANCH  41  55
ATOM     55  C   UNL A   1      38.687  29.361  29.091  1.00  0.00    -0.014 A 
ATOM     56  C   UNL A   1      38.186  29.734  27.834  1.00  0.00     0.009 A 
ATOM     57  C   UNL A   1      37.792  29.204  30.162  1.00  0.00     0.009 A 
ATOM     58  C   UNL A   1      36.819  29.961  27.659  1.00  0.00     0.001 A 
ATOM     59  C   UNL A   1      36.423  29.404  29.976  1.00  0.00     0.001 A 
ATOM     60  C   UNL A   1      35.939  29.788  28.727  1.00  0.00     0.000 A 
ENDBRANCH  41  55
BRANCH  42  61
ATOM     61  C   UNL A   1      48.343  27.050  30.031  1.00  0.00    -0.014 A 
ATOM     62  C   UNL A   1      48.875  26.441  31.178  1.00  0.00     0.009 A 
ATOM     63  C   UNL A   1      49.218  27.430  29.001  1.00  0.00     0.009 A 
ATOM     64  C   UNL A   1      50.253  26.261  31.311  1.00  0.00     0.001 A 
ATOM     65  C   UNL A   1      50.592  27.216  29.120  1.00  0.00     0.001 A 
ATOM     66  C   UNL A   1      51.110  26.646  30.282  1.00  0.00     0.000 A 
ENDBRANCH  42  61
BRANCH  54  67
ATOM     67  C   UNL A   1      44.608  32.771  31.365  1.00  0.00    -0.014 A 
ATOM     68  C   UNL A   1      44.934  33.825  30.497  1.00  0.00     0.009 A 
ATOM     69  C   UNL A   1      44.591  33.011  32.748  1.00  0.00     0.009 A 
ATOM     70  C   UNL A   1      45.272  35.081  31.006  1.00  0.00     0.001 A 
ATOM     71  C   UNL A   1      44.895  34.277  33.251  1.00  0.00     0.001 A 
ATOM     72  C   UNL A   1      45.245  35.307  32.381  1.00  0.00     0.000 A 
ENDBRANCH  54  67
ENDBRANCH  28  29
ENDBRANCH  21  23
ENDBRANCH  20  21
ENDBRANCH  19  20
ENDBRANCH   1  19
TORSDOF 14
ENDMDL
MODEL 3
REMARK VINA RESULT:      -8.7      2.289      4.039
REMARK SMILES O=C(COc1cc2ccccc2cc1O)OCCOC(=O)c1ccc(-c2c3nc(c(-c4ccccc4)c4ccc([nH]4)c(-c4ccccc4)c4nc(c(-c5ccccc5)c5ccc2[nH]5)C=C4)C=C3)cc1
REMARK SMILES IDX 17 1 16 2 2 3 1 4 3 5 4 6 5 7 6 8 14 9 7 10 13 11 8 12 12 13
REMARK SMILES IDX 9 14 11 15 10 16 15 17 18 19 19 20 20 21 21 22 22 23 23 24
REMARK SMILES IDX 69 25 24 26 68 27 25 28 26 29 27 30 62 31 28 32 67 33 61 34
REMARK SMILES IDX 63 35 29 36 66 37 60 38 59 39 30 41 52 42 37 43 51 44 38 45
REMARK SMILES IDX 41 46 50 47 64 48 39 49 40 50 49 52 65 53 42 54 31 55 32 56
REMARK SMILES IDX 36 57 33 58 35 59 34 60 53 61 54 62 58 63 55 64 57 65 56 66
REMARK SMILES IDX 43 67 44 68 48 69 45 70 47 71 46 72
REMARK H PARENT 15 18 63 40 41 51
REMARK Flexibility Score: inf
ROOT
ATOM      1  C   UNL A   1      42.507  19.231  26.044  1.00  0.00     0.274 C 
ENDROOT
BRANCH   1   2
ATOM      2  O   UNL A   1      43.374  19.004  24.909  1.00  0.00    -0.460 OA
BRANCH   2   3
ATOM      3  C   UNL A   1      44.697  18.742  25.112  1.00  0.00     0.344 C 
ATOM      4  O   UNL A   1      45.062  17.766  25.760  1.00  0.00    -0.248 OA
BRANCH   3   5
ATOM      5  C   UNL A   1      45.645  19.913  24.758  1.00  0.00     0.352 C 
BRANCH   5   6
ATOM      6  O   UNL A   1      45.186  21.209  24.372  1.00  0.00    -0.478 OA
BRANCH   6   7
ATOM      7  C   UNL A   1      45.547  22.248  25.181  1.00  0.00     0.162 A 
ATOM      8  C   UNL A   1      44.980  22.318  26.448  1.00  0.00     0.059 A 
ATOM      9  C   UNL A   1      46.403  23.272  24.809  1.00  0.00     0.158 A 
ATOM     10  C   UNL A   1      45.405  23.308  27.360  1.00  0.00    -0.014 A 
ATOM     11  C   UNL A   1      47.031  24.077  25.743  1.00  0.00     0.059 A 
ATOM     12  C   UNL A   1      44.738  23.564  28.566  1.00  0.00     0.009 A 
ATOM     13  C   UNL A   1      46.532  24.101  27.039  1.00  0.00    -0.014 A 
ATOM     14  C   UNL A   1      45.215  24.537  29.450  1.00  0.00     0.001 A 
ATOM     15  C   UNL A   1      47.069  24.986  27.979  1.00  0.00     0.009 A 
ATOM     16  C   UNL A   1      46.404  25.211  29.179  1.00  0.00     0.001 A 
BRANCH   9  17
ATOM     17  O   UNL A   1      46.513  23.652  23.503  1.00  0.00    -0.504 OA
ATOM     18  H   UNL A   1      47.360  23.759  23.117  1.00  0.00     0.293 HD
ENDBRANCH   9  17
ENDBRANCH   6   7
ENDBRANCH   5   6
ENDBRANCH   3   5
ENDBRANCH   2   3
ENDBRANCH   1   2
BRANCH   1  19
ATOM     19  C   UNL A   1      41.709  20.549  25.970  1.00  0.00     0.275 C 
BRANCH  19  20
ATOM     20  O   UNL A   1      40.607  20.594  26.887  1.00  0.00    -0.458 OA
BRANCH  20  21
ATOM     21  C   UNL A   1      39.617  21.443  26.501  1.00  0.00     0.338 C 
ATOM     22  O   UNL A   1      38.537  21.153  26.038  1.00  0.00    -0.246 OA
BRANCH  21  23
ATOM     23  C   UNL A   1      39.997  22.807  26.914  1.00  0.00     0.060 A 
ATOM     24  C   UNL A   1      39.463  23.889  26.205  1.00  0.00     0.016 A 
ATOM     25  C   UNL A   1      40.874  23.014  27.980  1.00  0.00     0.016 A 
ATOM     26  C   UNL A   1      39.837  25.190  26.543  1.00  0.00     0.010 A 
ATOM     27  C   UNL A   1      41.255  24.315  28.309  1.00  0.00     0.010 A 
ATOM     28  C   UNL A   1      40.760  25.407  27.576  1.00  0.00    -0.014 A 
BRANCH  28  29
ATOM     29  C   UNL A   1      41.301  26.764  27.819  1.00  0.00     0.031 A 
ATOM     30  C   UNL A   1      42.652  27.120  27.266  1.00  0.00     0.074 A 
ATOM     31  C   UNL A   1      40.600  27.664  28.530  1.00  0.00     0.049 A 
ATOM     32  N   UNL A   1      43.328  28.234  27.390  1.00  0.00    -0.248 NA
ATOM     33  C   UNL A   1      43.335  26.086  26.471  1.00  0.00     0.031 C 
ATOM     34  C   UNL A   1      39.267  27.449  29.093  1.00  0.00     0.029 A 
ATOM     35  N   UNL A   1      40.923  28.943  28.908  1.00  0.00    -0.354 N 
ATOM     36  C   UNL A   1      44.512  28.035  26.692  1.00  0.00     0.074 A 
ATOM     37  C   UNL A   1      44.477  26.686  26.171  1.00  0.00     0.031 C 
ATOM     38  C   UNL A   1      38.891  28.557  29.754  1.00  0.00     0.029 A 
ATOM     39  C   UNL A   1      39.967  29.543  29.690  1.00  0.00     0.049 A 
ATOM     40  H   UNL A   1      41.760  29.388  28.643  1.00  0.00     0.167 HD
ATOM     41  C   UNL A   1      45.534  28.902  26.497  1.00  0.00     0.031 A 
ATOM     42  C   UNL A   1      39.973  30.744  30.303  1.00  0.00     0.031 A 
ATOM     43  C   UNL A   1      45.577  30.238  27.029  1.00  0.00     0.049 A 
ATOM     44  C   UNL A   1      41.165  31.651  30.142  1.00  0.00     0.074 A 
ATOM     45  C   UNL A   1      46.558  31.199  26.856  1.00  0.00     0.029 A 
ATOM     46  N   UNL A   1      44.608  30.795  27.846  1.00  0.00    -0.354 N 
ATOM     47  N   UNL A   1      42.250  31.476  29.426  1.00  0.00    -0.248 NA
ATOM     48  C   UNL A   1      41.129  32.928  30.870  1.00  0.00     0.031 C 
ATOM     49  C   UNL A   1      46.219  32.312  27.630  1.00  0.00     0.029 A 
ATOM     50  C   UNL A   1      44.990  32.071  28.225  1.00  0.00     0.049 A 
ATOM     51  H   UNL A   1      43.773  30.351  28.117  1.00  0.00     0.167 HD
ATOM     52  C   UNL A   1      43.008  32.629  29.597  1.00  0.00     0.074 A 
ATOM     53  C   UNL A   1      42.249  33.506  30.462  1.00  0.00     0.031 C 
ATOM     54  C   UNL A   1      44.227  32.935  29.087  1.00  0.00     0.031 A 
BRANCH  41  55
ATOM     55  C   UNL A   1      46.714  28.425  25.698  1.00  0.00    -0.014 A 
ATOM     56  C   UNL A   1      47.928  28.091  26.317  1.00  0.00     0.009 A 
ATOM     57  C   UNL A   1      46.581  28.237  24.313  1.00  0.00     0.009 A 
ATOM     58  C   UNL A   1      48.993  27.596  25.561  1.00  0.00     0.001 A 
ATOM     59  C   UNL A   1      47.638  27.715  23.565  1.00  0.00     0.001 A 
ATOM     60  C   UNL A   1      48.844  27.401  24.188  1.00  0.00     0.000 A 
ENDBRANCH  41  55
BRANCH  42  61
ATOM     61  C   UNL A   1      38.834  31.154  31.168  1.00  0.00    -0.014 A 
ATOM     62  C   UNL A   1      38.768  30.750  32.511  1.00  0.00     0.009 A 
ATOM     63  C   UNL A   1      37.771  31.900  30.635  1.00  0.00     0.009 A 
ATOM     64  C   UNL A   1      37.644  31.045  33.286  1.00  0.00     0.001 A 
ATOM     65  C   UNL A   1      36.665  32.226  31.422  1.00  0.00     0.001 A 
ATOM     66  C   UNL A   1      36.595  31.784  32.742  1.00  0.00     0.000 A 
ENDBRANCH  42  61
BRANCH  54  67
ATOM     67  C   UNL A   1      44.803  34.283  29.424  1.00  0.00    -0.014 A 
ATOM     68  C   UNL A   1      44.524  35.413  28.640  1.00  0.00     0.009 A 
ATOM     69  C   UNL A   1      45.599  34.433  30.571  1.00  0.00     0.009 A 
ATOM     70  C   UNL A   1      45.062  36.657  28.976  1.00  0.00     0.001 A 
ATOM     71  C   UNL A   1      46.106  35.684  30.924  1.00  0.00     0.001 A 
ATOM     72  C   UNL A   1      45.846  36.793  30.121  1.00  0.00     0.000 A 
ENDBRANCH  54  67
ENDBRANCH  28  29
ENDBRANCH  21  23
ENDBRANCH  20  21
ENDBRANCH  19  20
ENDBRANCH   1  19
TORSDOF 14
ENDMDL
