MODEL 1
REMARK VINA RESULT:     -11.0      0.000      0.000
REMARK SMILES CC[C@@H]1CCCN(S(=O)(=O)c2cc(C(=O)OCCOC(=O)c3ccc(-c4c5nc(c(-c6ccccc6)c6ccc([nH]6)c(-c6ccccc6)c6nc(c(-c7ccccc7)c7ccc4[nH]7)C=C6)C=C5)cc3)ccc2F)C1
REMARK SMILES IDX 17 1 16 2 14 3 15 4 13 5 11 6 12 7 72 8 71 9 73 10 70 11
REMARK SMILES IDX 8 12 9 13 10 14 7 15 3 16 4 17 74 18 5 19 6 20 2 21 1 22
REMARK SMILES IDX 18 23 19 24 20 25 21 26 22 27 23 28 69 29 24 30 68 31 25 32
REMARK SMILES IDX 26 33 27 34 62 35 28 36 67 37 61 38 63 39 29 40 66 41 60 42
REMARK SMILES IDX 59 43 30 45 52 46 37 47 51 48 38 49 41 50 50 51 64 52 39 53
REMARK SMILES IDX 40 54 49 56 65 57 42 58 31 59 32 60 36 61 33 62 35 63 34 64
REMARK SMILES IDX 53 65 54 66 58 67 55 68 57 69 56 70 43 71 44 72 48 73 45 74
REMARK SMILES IDX 47 75 46 76
REMARK H PARENT 63 44 41 55
REMARK Flexibility Score: inf
ROOT
ATOM      1  C   UNL A   1      42.482  20.031  26.841  1.00  0.00     0.275 C 
ENDROOT
BRANCH   1   2
ATOM      2  O   UNL A   1      41.204  20.654  27.082  1.00  0.00    -0.458 OA
BRANCH   2   3
ATOM      3  C   UNL A   1      40.197  20.313  26.242  1.00  0.00     0.338 C 
ATOM      4  O   UNL A   1      39.994  19.212  25.757  1.00  0.00    -0.246 OA
BRANCH   3   5
ATOM      5  C   UNL A   1      39.261  21.454  26.065  1.00  0.00     0.061 A 
ATOM      6  C   UNL A   1      37.106  22.246  25.269  1.00  0.00     0.119 A 
ATOM      7  C   UNL A   1      38.073  21.236  25.351  1.00  0.00     0.040 A 
ATOM      8  C   UNL A   1      37.356  23.487  25.836  1.00  0.00     0.143 A 
ATOM      9  C   UNL A   1      38.568  23.735  26.481  1.00  0.00     0.041 A 
ATOM     10  F   UNL A   1      36.470  24.487  25.749  1.00  0.00    -0.206 F 
ATOM     11  C   UNL A   1      39.515  22.715  26.615  1.00  0.00     0.019 A 
BRANCH   6  12
ATOM     12  S   UNL A   1      35.506  21.854  24.632  1.00  0.00     0.246 S 
ATOM     13  O   UNL A   1      35.308  20.418  24.700  1.00  0.00    -0.207 OA
ATOM     14  O   UNL A   1      35.379  22.539  23.366  1.00  0.00    -0.207 OA
BRANCH  12  15
ATOM     15  N   UNL A   1      34.397  22.596  25.728  1.00  0.00    -0.197 NA
ATOM     16  C   UNL A   1      32.157  23.734  25.923  1.00  0.00     0.004 C 
ATOM     17  C   UNL A   1      31.893  22.924  27.200  1.00  0.00     0.006 C 
ATOM     18  C   UNL A   1      33.132  22.972  25.012  1.00  0.00     0.106 C 
ATOM     19  C   UNL A   1      33.190  22.519  27.890  1.00  0.00     0.017 C 
ATOM     20  C   UNL A   1      34.109  21.768  26.935  1.00  0.00     0.102 C 
BRANCH  16  21
ATOM     21  C   UNL A   1      32.645  25.172  26.202  1.00  0.00     0.001 C 
ATOM     22  C   UNL A   1      31.501  26.178  26.250  1.00  0.00     0.004 C 
ENDBRANCH  16  21
ENDBRANCH  12  15
ENDBRANCH   6  12
ENDBRANCH   3   5
ENDBRANCH   2   3
ENDBRANCH   1   2
BRANCH   1  23
ATOM     23  C   UNL A   1      43.166  20.622  25.607  1.00  0.00     0.275 C 
BRANCH  23  24
ATOM     24  O   UNL A   1      42.791  22.000  25.422  1.00  0.00    -0.458 OA
BRANCH  24  25
ATOM     25  C   UNL A   1      43.722  22.904  25.797  1.00  0.00     0.338 C 
ATOM     26  O   UNL A   1      44.890  22.960  25.452  1.00  0.00    -0.246 OA
BRANCH  25  27
ATOM     27  C   UNL A   1      43.100  23.923  26.651  1.00  0.00     0.060 A 
ATOM     28  C   UNL A   1      43.312  25.260  26.327  1.00  0.00     0.016 A 
ATOM     29  C   UNL A   1      42.455  23.581  27.836  1.00  0.00     0.016 A 
ATOM     30  C   UNL A   1      42.963  26.264  27.223  1.00  0.00     0.010 A 
ATOM     31  C   UNL A   1      42.019  24.599  28.694  1.00  0.00     0.010 A 
ATOM     32  C   UNL A   1      42.296  25.951  28.412  1.00  0.00    -0.014 A 
BRANCH  32  33
ATOM     33  C   UNL A   1      41.915  27.025  29.373  1.00  0.00     0.031 A 
ATOM     34  C   UNL A   1      42.735  27.244  30.618  1.00  0.00     0.074 A 
ATOM     35  C   UNL A   1      40.835  27.800  29.146  1.00  0.00     0.049 A 
ATOM     36  N   UNL A   1      42.448  27.945  31.687  1.00  0.00    -0.248 NA
ATOM     37  C   UNL A   1      44.044  26.574  30.675  1.00  0.00     0.031 C 
ATOM     38  C   UNL A   1      39.995  27.764  27.947  1.00  0.00     0.029 A 
ATOM     39  N   UNL A   1      40.254  28.774  29.924  1.00  0.00    -0.354 N 
ATOM     40  C   UNL A   1      43.506  27.744  32.566  1.00  0.00     0.074 A 
ATOM     41  C   UNL A   1      44.443  26.861  31.906  1.00  0.00     0.031 C 
ATOM     42  C   UNL A   1      39.028  28.688  28.057  1.00  0.00     0.029 A 
ATOM     43  C   UNL A   1      39.115  29.308  29.373  1.00  0.00     0.049 A 
ATOM     44  H   UNL A   1      40.621  29.061  30.791  1.00  0.00     0.167 HD
ATOM     45  C   UNL A   1      43.671  28.244  33.814  1.00  0.00     0.031 A 
ATOM     46  C   UNL A   1      38.204  30.158  29.885  1.00  0.00     0.031 A 
ATOM     47  C   UNL A   1      42.759  29.164  34.442  1.00  0.00     0.049 A 
ATOM     48  C   UNL A   1      38.371  30.640  31.299  1.00  0.00     0.074 A 
ATOM     49  C   UNL A   1      42.851  29.750  35.692  1.00  0.00     0.029 A 
ATOM     50  N   UNL A   1      41.596  29.643  33.859  1.00  0.00    -0.354 N 
ATOM     51  N   UNL A   1      39.346  30.405  32.141  1.00  0.00    -0.248 NA
ATOM     52  C   UNL A   1      37.300  31.491  31.838  1.00  0.00     0.031 C 
ATOM     53  C   UNL A   1      41.715  30.540  35.890  1.00  0.00     0.029 A 
ATOM     54  C   UNL A   1      40.948  30.495  34.737  1.00  0.00     0.049 A 
ATOM     55  H   UNL A   1      41.278  29.412  32.956  1.00  0.00     0.167 HD
ATOM     56  C   UNL A   1      39.023  31.100  33.298  1.00  0.00     0.074 A 
ATOM     57  C   UNL A   1      37.765  31.774  33.048  1.00  0.00     0.031 C 
ATOM     58  C   UNL A   1      39.709  31.174  34.464  1.00  0.00     0.031 A 
BRANCH  45  59
ATOM     59  C   UNL A   1      44.852  27.769  34.615  1.00  0.00    -0.014 A 
ATOM     60  C   UNL A   1      44.798  26.610  35.403  1.00  0.00     0.009 A 
ATOM     61  C   UNL A   1      46.067  28.470  34.522  1.00  0.00     0.009 A 
ATOM     62  C   UNL A   1      45.928  26.182  36.105  1.00  0.00     0.001 A 
ATOM     63  C   UNL A   1      47.201  28.023  35.201  1.00  0.00     0.001 A 
ATOM     64  C   UNL A   1      47.129  26.883  35.999  1.00  0.00     0.000 A 
ENDBRANCH  45  59
BRANCH  46  65
ATOM     65  C   UNL A   1      37.016  30.554  29.083  1.00  0.00    -0.014 A 
ATOM     66  C   UNL A   1      36.028  29.613  28.755  1.00  0.00     0.009 A 
ATOM     67  C   UNL A   1      36.866  31.876  28.631  1.00  0.00     0.009 A 
ATOM     68  C   UNL A   1      34.928  29.982  27.977  1.00  0.00     0.001 A 
ATOM     69  C   UNL A   1      35.748  32.250  27.883  1.00  0.00     0.001 A 
ATOM     70  C   UNL A   1      34.786  31.301  27.548  1.00  0.00     0.000 A 
ENDBRANCH  46  65
BRANCH  58  71
ATOM     71  C   UNL A   1      39.152  32.063  35.538  1.00  0.00    -0.014 A 
ATOM     72  C   UNL A   1      38.287  31.565  36.524  1.00  0.00     0.009 A 
ATOM     73  C   UNL A   1      39.558  33.405  35.598  1.00  0.00     0.009 A 
ATOM     74  C   UNL A   1      37.826  32.404  37.541  1.00  0.00     0.001 A 
ATOM     75  C   UNL A   1      39.117  34.232  36.631  1.00  0.00     0.001 A 
ATOM     76  C   UNL A   1      38.246  33.733  37.597  1.00  0.00     0.000 A 
ENDBRANCH  58  71
ENDBRANCH  32  33
ENDBRANCH  25  27
ENDBRANCH  24  25
ENDBRANCH  23  24
ENDBRANCH   1  23
TORSDOF 14
ENDMDL
MODEL 2
REMARK VINA RESULT:     -10.8      4.692      9.188
REMARK SMILES CC[C@@H]1CCCN(S(=O)(=O)c2cc(C(=O)OCCOC(=O)c3ccc(-c4c5nc(c(-c6ccccc6)c6ccc([nH]6)c(-c6ccccc6)c6nc(c(-c7ccccc7)c7ccc4[nH]7)C=C6)C=C5)cc3)ccc2F)C1
REMARK SMILES IDX 17 1 16 2 14 3 15 4 13 5 11 6 12 7 72 8 71 9 73 10 70 11
REMARK SMILES IDX 8 12 9 13 10 14 7 15 3 16 4 17 74 18 5 19 6 20 2 21 1 22
REMARK SMILES IDX 18 23 19 24 20 25 21 26 22 27 23 28 69 29 24 30 68 31 25 32
REMARK SMILES IDX 26 33 27 34 62 35 28 36 67 37 61 38 63 39 29 40 66 41 60 42
REMARK SMILES IDX 59 43 30 45 52 46 37 47 51 48 38 49 41 50 50 51 64 52 39 53
REMARK SMILES IDX 40 54 49 56 65 57 42 58 31 59 32 60 36 61 33 62 35 63 34 64
REMARK SMILES IDX 53 65 54 66 58 67 55 68 57 69 56 70 43 71 44 72 48 73 45 74
REMARK SMILES IDX 47 75 46 76
REMARK H PARENT 63 44 41 55
REMARK Flexibility Score: inf
ROOT
ATOM      1  C   UNL A   1      33.158  29.585  27.314  1.00  0.00     0.275 C 
ENDROOT
BRANCH   1   2
ATOM      2  O   UNL A   1      31.847  29.241  26.822  1.00  0.00    -0.458 OA
BRANCH   2   3
ATOM      3  C   UNL A   1      31.608  29.494  25.512  1.00  0.00     0.338 C 
ATOM      4  O   UNL A   1      30.999  30.445  25.053  1.00  0.00    -0.246 OA
BRANCH   3   5
ATOM      5  C   UNL A   1      32.304  28.497  24.657  1.00  0.00     0.061 A 
ATOM      6  C   UNL A   1      32.616  26.166  24.046  1.00  0.00     0.119 A 
ATOM      7  C   UNL A   1      32.083  27.135  24.906  1.00  0.00     0.040 A 
ATOM      8  C   UNL A   1      33.425  26.554  22.988  1.00  0.00     0.143 A 
ATOM      9  C   UNL A   1      33.713  27.903  22.781  1.00  0.00     0.041 A 
ATOM     10  F   UNL A   1      33.980  25.655  22.166  1.00  0.00    -0.206 F 
ATOM     11  C   UNL A   1      33.139  28.880  23.600  1.00  0.00     0.019 A 
BRANCH   6  12
ATOM     12  S   UNL A   1      32.078  24.491  24.201  1.00  0.00     0.246 S 
ATOM     13  O   UNL A   1      31.628  24.017  22.906  1.00  0.00    -0.207 OA
ATOM     14  O   UNL A   1      31.187  24.439  25.336  1.00  0.00    -0.207 OA
BRANCH  12  15
ATOM     15  N   UNL A   1      33.499  23.606  24.626  1.00  0.00    -0.197 NA
ATOM     16  C   UNL A   1      35.318  23.353  26.353  1.00  0.00     0.004 C 
ATOM     17  C   UNL A   1      35.172  21.829  26.235  1.00  0.00     0.006 C 
ATOM     18  C   UNL A   1      33.993  24.036  25.978  1.00  0.00     0.106 C 
ATOM     19  C   UNL A   1      34.632  21.416  24.871  1.00  0.00     0.017 C 
ATOM     20  C   UNL A   1      33.321  22.127  24.562  1.00  0.00     0.102 C 
BRANCH  16  21
ATOM     21  C   UNL A   1      36.500  23.917  25.536  1.00  0.00     0.001 C 
ATOM     22  C   UNL A   1      37.826  23.257  25.894  1.00  0.00     0.004 C 
ENDBRANCH  16  21
ENDBRANCH  12  15
ENDBRANCH   6  12
ENDBRANCH   3   5
ENDBRANCH   2   3
ENDBRANCH   1   2
BRANCH   1  23
ATOM     23  C   UNL A   1      33.280  31.089  27.568  1.00  0.00     0.275 C 
BRANCH  23  24
ATOM     24  O   UNL A   1      34.662  31.487  27.644  1.00  0.00    -0.458 OA
BRANCH  24  25
ATOM     25  C   UNL A   1      35.207  31.437  28.879  1.00  0.00     0.338 C 
ATOM     26  O   UNL A   1      34.757  31.900  29.913  1.00  0.00    -0.246 OA
BRANCH  25  27
ATOM     27  C   UNL A   1      36.436  30.634  28.841  1.00  0.00     0.060 A 
ATOM     28  C   UNL A   1      37.034  30.303  30.053  1.00  0.00     0.016 A 
ATOM     29  C   UNL A   1      37.077  30.346  27.639  1.00  0.00     0.016 A 
ATOM     30  C   UNL A   1      38.315  29.763  30.080  1.00  0.00     0.010 A 
ATOM     31  C   UNL A   1      38.327  29.715  27.666  1.00  0.00     0.010 A 
ATOM     32  C   UNL A   1      38.975  29.445  28.888  1.00  0.00    -0.014 A 
BRANCH  32  33
ATOM     33  C   UNL A   1      40.346  28.863  28.913  1.00  0.00     0.031 A 
ATOM     34  C   UNL A   1      41.530  29.741  29.221  1.00  0.00     0.074 A 
ATOM     35  C   UNL A   1      40.542  27.554  28.652  1.00  0.00     0.049 A 
ATOM     36  N   UNL A   1      42.808  29.498  29.058  1.00  0.00    -0.248 NA
ATOM     37  C   UNL A   1      41.240  31.076  29.769  1.00  0.00     0.031 C 
ATOM     38  C   UNL A   1      39.490  26.563  28.420  1.00  0.00     0.029 A 
ATOM     39  N   UNL A   1      41.705  26.831  28.533  1.00  0.00    -0.354 N 
ATOM     40  C   UNL A   1      43.464  30.670  29.419  1.00  0.00     0.074 A 
ATOM     41  C   UNL A   1      42.448  31.621  29.813  1.00  0.00     0.031 C 
ATOM     42  C   UNL A   1      40.051  25.361  28.215  1.00  0.00     0.029 A 
ATOM     43  C   UNL A   1      41.500  25.514  28.197  1.00  0.00     0.049 A 
ATOM     44  H   UNL A   1      42.598  27.219  28.676  1.00  0.00     0.167 HD
ATOM     45  C   UNL A   1      44.794  30.927  29.410  1.00  0.00     0.031 A 
ATOM     46  C   UNL A   1      42.372  24.547  27.853  1.00  0.00     0.031 A 
ATOM     47  C   UNL A   1      45.801  29.957  29.067  1.00  0.00     0.049 A 
ATOM     48  C   UNL A   1      43.836  24.878  27.778  1.00  0.00     0.074 A 
ATOM     49  C   UNL A   1      47.177  30.111  29.054  1.00  0.00     0.029 A 
ATOM     50  N   UNL A   1      45.541  28.648  28.692  1.00  0.00    -0.354 N 
ATOM     51  N   UNL A   1      44.444  26.002  28.070  1.00  0.00    -0.248 NA
ATOM     52  C   UNL A   1      44.733  23.812  27.308  1.00  0.00     0.031 C 
ATOM     53  C   UNL A   1      47.747  28.913  28.616  1.00  0.00     0.029 A 
ATOM     54  C   UNL A   1      46.729  27.994  28.418  1.00  0.00     0.049 A 
ATOM     55  H   UNL A   1      44.645  28.245  28.630  1.00  0.00     0.167 HD
ATOM     56  C   UNL A   1      45.794  25.770  27.848  1.00  0.00     0.074 A 
ATOM     57  C   UNL A   1      45.919  24.397  27.405  1.00  0.00     0.031 C 
ATOM     58  C   UNL A   1      46.838  26.621  27.999  1.00  0.00     0.031 A 
BRANCH  45  59
ATOM     59  C   UNL A   1      45.244  32.326  29.726  1.00  0.00    -0.014 A 
ATOM     60  C   UNL A   1      45.333  33.319  28.740  1.00  0.00     0.009 A 
ATOM     61  C   UNL A   1      45.526  32.668  31.060  1.00  0.00     0.009 A 
ATOM     62  C   UNL A   1      45.722  34.618  29.080  1.00  0.00     0.001 A 
ATOM     63  C   UNL A   1      45.886  33.973  31.400  1.00  0.00     0.001 A 
ATOM     64  C   UNL A   1      45.992  34.946  30.409  1.00  0.00     0.000 A 
ENDBRANCH  45  59
BRANCH  46  65
ATOM     65  C   UNL A   1      41.881  23.192  27.486  1.00  0.00    -0.014 A 
ATOM     66  C   UNL A   1      41.680  22.214  28.471  1.00  0.00     0.009 A 
ATOM     67  C   UNL A   1      41.619  22.865  26.144  1.00  0.00     0.009 A 
ATOM     68  C   UNL A   1      41.246  20.932  28.119  1.00  0.00     0.001 A 
ATOM     69  C   UNL A   1      41.152  21.595  25.800  1.00  0.00     0.001 A 
ATOM     70  C   UNL A   1      40.977  20.627  26.786  1.00  0.00     0.000 A 
ENDBRANCH  46  65
BRANCH  58  71
ATOM     71  C   UNL A   1      48.214  26.078  27.747  1.00  0.00    -0.014 A 
ATOM     72  C   UNL A   1      48.829  26.195  26.492  1.00  0.00     0.009 A 
ATOM     73  C   UNL A   1      48.930  25.501  28.809  1.00  0.00     0.009 A 
ATOM     74  C   UNL A   1      50.130  25.725  26.301  1.00  0.00     0.001 A 
ATOM     75  C   UNL A   1      50.239  25.058  28.620  1.00  0.00     0.001 A 
ATOM     76  C   UNL A   1      50.836  25.165  27.365  1.00  0.00     0.000 A 
ENDBRANCH  58  71
ENDBRANCH  32  33
ENDBRANCH  25  27
ENDBRANCH  24  25
ENDBRANCH  23  24
ENDBRANCH   1  23
TORSDOF 14
ENDMDL
MODEL 3
REMARK VINA RESULT:     -10.7      2.750      7.977
REMARK SMILES CC[C@@H]1CCCN(S(=O)(=O)c2cc(C(=O)OCCOC(=O)c3ccc(-c4c5nc(c(-c6ccccc6)c6ccc([nH]6)c(-c6ccccc6)c6nc(c(-c7ccccc7)c7ccc4[nH]7)C=C6)C=C5)cc3)ccc2F)C1
REMARK SMILES IDX 17 1 16 2 14 3 15 4 13 5 11 6 12 7 72 8 71 9 73 10 70 11
REMARK SMILES IDX 8 12 9 13 10 14 7 15 3 16 4 17 74 18 5 19 6 20 2 21 1 22
REMARK SMILES IDX 18 23 19 24 20 25 21 26 22 27 23 28 69 29 24 30 68 31 25 32
REMARK SMILES IDX 26 33 27 34 62 35 28 36 67 37 61 38 63 39 29 40 66 41 60 42
REMARK SMILES IDX 59 43 30 45 52 46 37 47 51 48 38 49 41 50 50 51 64 52 39 53
REMARK SMILES IDX 40 54 49 56 65 57 42 58 31 59 32 60 36 61 33 62 35 63 34 64
REMARK SMILES IDX 53 65 54 66 58 67 55 68 57 69 56 70 43 71 44 72 48 73 45 74
REMARK SMILES IDX 47 75 46 76
REMARK H PARENT 63 44 41 55
REMARK Flexibility Score: inf
ROOT
ATOM      1  C   UNL A   1      31.478  29.266  24.073  1.00  0.00     0.275 C 
ENDROOT
BRANCH   1   2
ATOM      2  O   UNL A   1      31.055  27.894  24.199  1.00  0.00    -0.458 OA
BRANCH   2   3
ATOM      3  C   UNL A   1      32.026  26.982  24.450  1.00  0.00     0.338 C 
ATOM      4  O   UNL A   1      33.220  27.111  24.234  1.00  0.00    -0.246 OA
BRANCH   3   5
ATOM      5  C   UNL A   1      31.461  25.804  25.157  1.00  0.00     0.061 A 
ATOM      6  C   UNL A   1      31.772  23.523  25.935  1.00  0.00     0.119 A 
ATOM      7  C   UNL A   1      32.207  24.616  25.175  1.00  0.00     0.040 A 
ATOM      8  C   UNL A   1      30.565  23.593  26.615  1.00  0.00     0.143 A 
ATOM      9  C   UNL A   1      29.780  24.743  26.538  1.00  0.00     0.041 A 
ATOM     10  F   UNL A   1      30.101  22.556  27.324  1.00  0.00    -0.206 F 
ATOM     11  C   UNL A   1      30.234  25.859  25.828  1.00  0.00     0.019 A 
BRANCH   6  12
ATOM     12  S   UNL A   1      32.867  22.160  26.185  1.00  0.00     0.246 S 
ATOM     13  O   UNL A   1      32.371  21.013  25.449  1.00  0.00    -0.207 OA
ATOM     14  O   UNL A   1      33.095  22.060  27.608  1.00  0.00    -0.207 OA
BRANCH  12  15
ATOM     15  N   UNL A   1      34.358  22.650  25.463  1.00  0.00    -0.197 NA
ATOM     16  C   UNL A   1      36.868  22.459  25.606  1.00  0.00     0.004 C 
ATOM     17  C   UNL A   1      36.910  22.306  24.079  1.00  0.00     0.006 C 
ATOM     18  C   UNL A   1      35.512  21.971  26.143  1.00  0.00     0.106 C 
ATOM     19  C   UNL A   1      35.710  22.967  23.411  1.00  0.00     0.017 C 
ATOM     20  C   UNL A   1      34.402  22.440  23.987  1.00  0.00     0.102 C 
BRANCH  16  21
ATOM     21  C   UNL A   1      37.187  23.891  26.085  1.00  0.00     0.001 C 
ATOM     22  C   UNL A   1      38.682  24.124  26.272  1.00  0.00     0.004 C 
ENDBRANCH  16  21
ENDBRANCH  12  15
ENDBRANCH   6  12
ENDBRANCH   3   5
ENDBRANCH   2   3
ENDBRANCH   1   2
BRANCH   1  23
ATOM     23  C   UNL A   1      31.561  29.951  25.438  1.00  0.00     0.275 C 
BRANCH  23  24
ATOM     24  O   UNL A   1      32.927  30.047  25.883  1.00  0.00    -0.458 OA
BRANCH  24  25
ATOM     25  C   UNL A   1      33.159  30.984  26.828  1.00  0.00     0.338 C 
ATOM     26  O   UNL A   1      32.386  31.828  27.248  1.00  0.00    -0.246 OA
BRANCH  25  27
ATOM     27  C   UNL A   1      34.505  30.799  27.384  1.00  0.00     0.060 A 
ATOM     28  C   UNL A   1      34.911  29.503  27.684  1.00  0.00     0.016 A 
ATOM     29  C   UNL A   1      35.294  31.885  27.752  1.00  0.00     0.016 A 
ATOM     30  C   UNL A   1      36.062  29.282  28.432  1.00  0.00     0.010 A 
ATOM     31  C   UNL A   1      36.502  31.656  28.423  1.00  0.00     0.010 A 
ATOM     32  C   UNL A   1      36.884  30.353  28.799  1.00  0.00    -0.014 A 
BRANCH  32  33
ATOM     33  C   UNL A   1      38.121  30.121  29.597  1.00  0.00     0.031 A 
ATOM     34  C   UNL A   1      39.251  29.313  29.014  1.00  0.00     0.074 A 
ATOM     35  C   UNL A   1      38.238  30.618  30.845  1.00  0.00     0.049 A 
ATOM     36  N   UNL A   1      40.295  28.794  29.613  1.00  0.00    -0.248 NA
ATOM     37  C   UNL A   1      39.192  29.039  27.569  1.00  0.00     0.031 C 
ATOM     38  C   UNL A   1      37.266  31.487  31.512  1.00  0.00     0.029 A 
ATOM     39  N   UNL A   1      39.231  30.458  31.782  1.00  0.00    -0.354 N 
ATOM     40  C   UNL A   1      40.975  28.078  28.633  1.00  0.00     0.074 A 
ATOM     41  C   UNL A   1      40.232  28.234  27.402  1.00  0.00     0.031 C 
ATOM     42  C   UNL A   1      37.722  31.805  32.734  1.00  0.00     0.029 A 
ATOM     43  C   UNL A   1      38.963  31.081  32.977  1.00  0.00     0.049 A 
ATOM     44  H   UNL A   1      40.055  29.947  31.612  1.00  0.00     0.167 HD
ATOM     45  C   UNL A   1      42.111  27.352  28.758  1.00  0.00     0.031 A 
ATOM     46  C   UNL A   1      39.607  31.032  34.159  1.00  0.00     0.031 A 
ATOM     47  C   UNL A   1      42.873  27.247  29.975  1.00  0.00     0.049 A 
ATOM     48  C   UNL A   1      40.823  30.159  34.292  1.00  0.00     0.074 A 
ATOM     49  C   UNL A   1      44.053  26.558  30.196  1.00  0.00     0.029 A 
ATOM     50  N   UNL A   1      42.537  27.862  31.171  1.00  0.00    -0.354 N 
ATOM     51  N   UNL A   1      41.430  29.445  33.376  1.00  0.00    -0.248 NA
ATOM     52  C   UNL A   1      41.432  30.070  35.627  1.00  0.00     0.031 C 
ATOM     53  C   UNL A   1      44.401  26.709  31.541  1.00  0.00     0.029 A 
ATOM     54  C   UNL A   1      43.472  27.544  32.141  1.00  0.00     0.049 A 
ATOM     55  H   UNL A   1      41.752  28.439  31.310  1.00  0.00     0.167 HD
ATOM     56  C   UNL A   1      42.507  28.847  34.015  1.00  0.00     0.074 A 
ATOM     57  C   UNL A   1      42.477  29.287  35.395  1.00  0.00     0.031 C 
ATOM     58  C   UNL A   1      43.440  28.008  33.502  1.00  0.00     0.031 A 
BRANCH  45  59
ATOM     59  C   UNL A   1      42.578  26.562  27.567  1.00  0.00    -0.014 A 
ATOM     60  C   UNL A   1      42.162  25.242  27.340  1.00  0.00     0.009 A 
ATOM     61  C   UNL A   1      43.406  27.184  26.616  1.00  0.00     0.009 A 
ATOM     62  C   UNL A   1      42.590  24.552  26.202  1.00  0.00     0.001 A 
ATOM     63  C   UNL A   1      43.808  26.502  25.466  1.00  0.00     0.001 A 
ATOM     64  C   UNL A   1      43.407  25.184  25.264  1.00  0.00     0.000 A 
ENDBRANCH  45  59
BRANCH  46  65
ATOM     65  C   UNL A   1      39.077  31.778  35.332  1.00  0.00    -0.014 A 
ATOM     66  C   UNL A   1      39.417  33.125  35.534  1.00  0.00     0.009 A 
ATOM     67  C   UNL A   1      38.235  31.146  36.262  1.00  0.00     0.009 A 
ATOM     68  C   UNL A   1      38.940  33.814  36.653  1.00  0.00     0.001 A 
ATOM     69  C   UNL A   1      37.733  31.847  37.359  1.00  0.00     0.001 A 
ATOM     70  C   UNL A   1      38.095  33.178  37.560  1.00  0.00     0.000 A 
ENDBRANCH  46  65
BRANCH  58  71
ATOM     71  C   UNL A   1      44.543  27.559  34.417  1.00  0.00    -0.014 A 
ATOM     72  C   UNL A   1      44.444  26.369  35.153  1.00  0.00     0.009 A 
ATOM     73  C   UNL A   1      45.727  28.311  34.485  1.00  0.00     0.009 A 
ATOM     74  C   UNL A   1      45.507  25.951  35.956  1.00  0.00     0.001 A 
ATOM     75  C   UNL A   1      46.796  27.875  35.267  1.00  0.00     0.001 A 
ATOM     76  C   UNL A   1      46.684  26.699  36.007  1.00  0.00     0.000 A 
ENDBRANCH  58  71
ENDBRANCH  32  33
ENDBRANCH  25  27
ENDBRANCH  24  25
ENDBRANCH  23  24
ENDBRANCH   1  23
TORSDOF 14
ENDMDL
