MODEL 1
REMARK VINA RESULT:     -12.0      0.000      0.000
REMARK SMILES C[C@@H](C(=O)OCCOC(=O)c1ccc(-c2c3nc(c(-c4ccccc4)c4ccc([nH]4)c(-c4ccccc4)c4nc(c(-c5ccccc5)c5ccc2[nH]5)C=C4)C=C3)cc1)c1ccc(-c2cccc(OC(=O)Nc3ccccc3)c2)c(F)c1
REMARK SMILES IDX 5 1 3 2 4 3 2 4 1 5 59 6 60 7 81 8 61 9 79 10 62 11 80 12
REMARK SMILES IDX 63 13 64 14 78 15 65 16 67 17 66 18 68 19 69 20 70 21 71 22
REMARK SMILES IDX 72 24 73 25 77 26 74 27 76 28 75 29 6 30 7 31 8 32 9 33
REMARK SMILES IDX 10 34 11 35 12 36 58 37 13 38 57 39 14 40 15 41 16 42 51 43
REMARK SMILES IDX 17 44 56 45 50 46 52 47 18 48 55 49 49 50 48 51 19 53 41 54
REMARK SMILES IDX 26 55 40 56 27 57 30 58 39 59 53 60 28 61 29 62 38 64 54 65
REMARK SMILES IDX 31 66 20 67 21 68 25 69 22 70 24 71 23 72 42 73 43 74 47 75
REMARK SMILES IDX 44 76 46 77 45 78 32 79 33 80 37 81 34 82 36 83 35 84
REMARK H PARENT 71 23 52 52 30 63
REMARK Flexibility Score: inf
ROOT
ATOM      1  O   UNL A   1      33.497  33.901  28.900  1.00  0.00    -0.462 OA
ENDROOT
BRANCH   1   2
ATOM      2  C   UNL A   1      34.530  33.492  28.112  1.00  0.00     0.313 C 
ATOM      3  O   UNL A   1      35.055  34.189  27.250  1.00  0.00    -0.252 OA
BRANCH   2   4
ATOM      4  C   UNL A   1      34.938  32.039  28.385  1.00  0.00     0.126 C 
ATOM      5  C   UNL A   1      36.423  31.759  28.127  1.00  0.00     0.025 C 
BRANCH   4   6
ATOM      6  C   UNL A   1      34.019  31.061  27.657  1.00  0.00    -0.031 A 
ATOM      7  C   UNL A   1      32.739  31.469  27.250  1.00  0.00     0.005 A 
ATOM      8  C   UNL A   1      34.427  29.768  27.314  1.00  0.00     0.044 A 
ATOM      9  C   UNL A   1      31.900  30.615  26.515  1.00  0.00     0.012 A 
ATOM     10  C   UNL A   1      33.589  28.927  26.579  1.00  0.00     0.131 A 
ATOM     11  C   UNL A   1      32.311  29.323  26.146  1.00  0.00     0.018 A 
ATOM     12  F   UNL A   1      34.087  27.731  26.226  1.00  0.00    -0.206 F 
BRANCH  11  13
ATOM     13  C   UNL A   1      31.468  28.447  25.296  1.00  0.00    -0.012 A 
ATOM     14  C   UNL A   1      30.802  28.936  24.156  1.00  0.00     0.009 A 
ATOM     15  C   UNL A   1      31.337  27.076  25.580  1.00  0.00     0.056 A 
ATOM     16  C   UNL A   1      30.061  28.087  23.326  1.00  0.00     0.004 A 
ATOM     17  C   UNL A   1      30.624  26.224  24.735  1.00  0.00     0.133 A 
ATOM     18  C   UNL A   1      29.982  26.727  23.607  1.00  0.00     0.047 A 
BRANCH  17  19
ATOM     19  O   UNL A   1      30.451  24.836  24.963  1.00  0.00    -0.410 OA
BRANCH  19  20
ATOM     20  C   UNL A   1      30.606  24.191  26.186  1.00  0.00     0.417 C 
ATOM     21  O   UNL A   1      29.786  24.168  27.100  1.00  0.00    -0.224 OA
ATOM     22  N   UNL A   1      31.752  23.450  26.308  1.00  0.00    -0.291 N 
ATOM     23  H   UNL A   1      31.738  22.795  27.044  1.00  0.00     0.173 HD
BRANCH  22  24
ATOM     24  C   UNL A   1      32.941  23.463  25.567  1.00  0.00     0.044 A 
ATOM     25  C   UNL A   1      33.946  24.335  26.004  1.00  0.00     0.026 A 
ATOM     26  C   UNL A   1      33.141  22.730  24.397  1.00  0.00     0.026 A 
ATOM     27  C   UNL A   1      35.146  24.449  25.300  1.00  0.00     0.002 A 
ATOM     28  C   UNL A   1      34.336  22.858  23.682  1.00  0.00     0.002 A 
ATOM     29  C   UNL A   1      35.340  23.713  24.135  1.00  0.00     0.000 A 
ENDBRANCH  22  24
ENDBRANCH  19  20
ENDBRANCH  17  19
ENDBRANCH  11  13
ENDBRANCH   4   6
ENDBRANCH   2   4
ENDBRANCH   1   2
BRANCH   1  30
ATOM     30  C   UNL A   1      32.909  35.182  28.595  1.00  0.00     0.274 C 
BRANCH  30  31
ATOM     31  C   UNL A   1      32.916  36.073  29.834  1.00  0.00     0.275 C 
BRANCH  31  32
ATOM     32  O   UNL A   1      32.415  35.328  30.956  1.00  0.00    -0.458 OA
BRANCH  32  33
ATOM     33  C   UNL A   1      32.662  35.854  32.177  1.00  0.00     0.338 C 
ATOM     34  O   UNL A   1      32.071  36.767  32.726  1.00  0.00    -0.246 OA
BRANCH  33  35
ATOM     35  C   UNL A   1      33.793  35.141  32.798  1.00  0.00     0.060 A 
ATOM     36  C   UNL A   1      35.039  35.756  32.888  1.00  0.00     0.016 A 
ATOM     37  C   UNL A   1      33.642  33.805  33.174  1.00  0.00     0.016 A 
ATOM     38  C   UNL A   1      36.153  35.002  33.254  1.00  0.00     0.010 A 
ATOM     39  C   UNL A   1      34.752  33.079  33.626  1.00  0.00     0.010 A 
ATOM     40  C   UNL A   1      36.036  33.651  33.622  1.00  0.00    -0.014 A 
BRANCH  40  41
ATOM     41  C   UNL A   1      37.250  32.832  33.927  1.00  0.00     0.031 A 
ATOM     42  C   UNL A   1      37.936  32.947  35.269  1.00  0.00     0.074 A 
ATOM     43  C   UNL A   1      37.736  31.952  33.028  1.00  0.00     0.049 A 
ATOM     44  N   UNL A   1      39.118  32.513  35.637  1.00  0.00    -0.248 NA
ATOM     45  C   UNL A   1      37.217  33.677  36.325  1.00  0.00     0.031 C 
ATOM     46  C   UNL A   1      37.166  31.669  31.710  1.00  0.00     0.029 A 
ATOM     47  N   UNL A   1      38.809  31.096  33.111  1.00  0.00    -0.354 N 
ATOM     48  C   UNL A   1      39.322  33.006  36.922  1.00  0.00     0.074 A 
ATOM     49  C   UNL A   1      38.134  33.750  37.279  1.00  0.00     0.031 C 
ATOM     50  C   UNL A   1      37.827  30.642  31.155  1.00  0.00     0.029 A 
ATOM     51  C   UNL A   1      38.934  30.264  32.025  1.00  0.00     0.049 A 
ATOM     52  H   UNL A   1      39.428  31.079  33.876  1.00  0.00     0.167 HD
ATOM     53  C   UNL A   1      40.409  32.863  37.720  1.00  0.00     0.031 A 
ATOM     54  C   UNL A   1      39.846  29.314  31.744  1.00  0.00     0.031 A 
ATOM     55  C   UNL A   1      41.539  32.026  37.404  1.00  0.00     0.049 A 
ATOM     56  C   UNL A   1      40.995  29.095  32.683  1.00  0.00     0.074 A 
ATOM     57  C   UNL A   1      42.700  31.825  38.131  1.00  0.00     0.029 A 
ATOM     58  N   UNL A   1      41.617  31.201  36.293  1.00  0.00    -0.354 N 
ATOM     59  N   UNL A   1      41.244  29.677  33.830  1.00  0.00    -0.248 NA
ATOM     60  C   UNL A   1      42.007  28.111  32.271  1.00  0.00     0.031 C 
ATOM     61  C   UNL A   1      43.486  30.886  37.455  1.00  0.00     0.029 A 
ATOM     62  C   UNL A   1      42.795  30.475  36.329  1.00  0.00     0.049 A 
ATOM     63  H   UNL A   1      40.936  31.141  35.585  1.00  0.00     0.167 HD
ATOM     64  C   UNL A   1      42.454  29.154  34.263  1.00  0.00     0.074 A 
ATOM     65  C   UNL A   1      42.860  28.165  33.285  1.00  0.00     0.031 C 
ATOM     66  C   UNL A   1      43.180  29.489  35.355  1.00  0.00     0.031 A 
BRANCH  53  67
ATOM     67  C   UNL A   1      40.456  33.654  39.002  1.00  0.00    -0.014 A 
ATOM     68  C   UNL A   1      40.942  34.967  39.046  1.00  0.00     0.009 A 
ATOM     69  C   UNL A   1      39.941  33.091  40.180  1.00  0.00     0.009 A 
ATOM     70  C   UNL A   1      40.929  35.695  40.237  1.00  0.00     0.001 A 
ATOM     71  C   UNL A   1      39.905  33.826  41.368  1.00  0.00     0.001 A 
ATOM     72  C   UNL A   1      40.404  35.127  41.396  1.00  0.00     0.000 A 
ENDBRANCH  53  67
BRANCH  54  73
ATOM     73  C   UNL A   1      39.729  28.526  30.491  1.00  0.00    -0.014 A 
ATOM     74  C   UNL A   1      40.366  28.958  29.318  1.00  0.00     0.009 A 
ATOM     75  C   UNL A   1      38.997  27.328  30.466  1.00  0.00     0.009 A 
ATOM     76  C   UNL A   1      40.266  28.209  28.144  1.00  0.00     0.001 A 
ATOM     77  C   UNL A   1      38.925  26.566  29.299  1.00  0.00     0.001 A 
ATOM     78  C   UNL A   1      39.555  27.010  28.138  1.00  0.00     0.000 A 
ENDBRANCH  54  73
BRANCH  66  79
ATOM     79  C   UNL A   1      44.483  28.772  35.549  1.00  0.00    -0.014 A 
ATOM     80  C   UNL A   1      44.539  27.576  36.280  1.00  0.00     0.009 A 
ATOM     81  C   UNL A   1      45.658  29.284  34.979  1.00  0.00     0.009 A 
ATOM     82  C   UNL A   1      45.756  26.918  36.462  1.00  0.00     0.001 A 
ATOM     83  C   UNL A   1      46.871  28.614  35.150  1.00  0.00     0.001 A 
ATOM     84  C   UNL A   1      46.921  27.436  35.896  1.00  0.00     0.000 A 
ENDBRANCH  66  79
ENDBRANCH  40  41
ENDBRANCH  33  35
ENDBRANCH  32  33
ENDBRANCH  31  32
ENDBRANCH  30  31
ENDBRANCH   1  30
TORSDOF 16
ENDMDL
MODEL 2
REMARK VINA RESULT:     -11.9      6.091     11.100
REMARK SMILES C[C@@H](C(=O)OCCOC(=O)c1ccc(-c2c3nc(c(-c4ccccc4)c4ccc([nH]4)c(-c4ccccc4)c4nc(c(-c5ccccc5)c5ccc2[nH]5)C=C4)C=C3)cc1)c1ccc(-c2cccc(OC(=O)Nc3ccccc3)c2)c(F)c1
REMARK SMILES IDX 5 1 3 2 4 3 2 4 1 5 59 6 60 7 81 8 61 9 79 10 62 11 80 12
REMARK SMILES IDX 63 13 64 14 78 15 65 16 67 17 66 18 68 19 69 20 70 21 71 22
REMARK SMILES IDX 72 24 73 25 77 26 74 27 76 28 75 29 6 30 7 31 8 32 9 33
REMARK SMILES IDX 10 34 11 35 12 36 58 37 13 38 57 39 14 40 15 41 16 42 51 43
REMARK SMILES IDX 17 44 56 45 50 46 52 47 18 48 55 49 49 50 48 51 19 53 41 54
REMARK SMILES IDX 26 55 40 56 27 57 30 58 39 59 53 60 28 61 29 62 38 64 54 65
REMARK SMILES IDX 31 66 20 67 21 68 25 69 22 70 24 71 23 72 42 73 43 74 47 75
REMARK SMILES IDX 44 76 46 77 45 78 32 79 33 80 37 81 34 82 36 83 35 84
REMARK H PARENT 71 23 52 52 30 63
REMARK Flexibility Score: inf
ROOT
ATOM      1  O   UNL A   1      42.121  20.162  25.659  1.00  0.00    -0.462 OA
ENDROOT
BRANCH   1   2
ATOM      2  C   UNL A   1      41.615  20.546  26.864  1.00  0.00     0.313 C 
ATOM      3  O   UNL A   1      41.340  19.771  27.773  1.00  0.00    -0.252 OA
BRANCH   2   4
ATOM      4  C   UNL A   1      41.380  22.060  26.946  1.00  0.00     0.126 C 
ATOM      5  C   UNL A   1      41.816  22.677  28.280  1.00  0.00     0.025 C 
BRANCH   4   6
ATOM      6  C   UNL A   1      39.943  22.417  26.573  1.00  0.00    -0.031 A 
ATOM      7  C   UNL A   1      39.443  23.699  26.850  1.00  0.00     0.005 A 
ATOM      8  C   UNL A   1      39.105  21.526  25.895  1.00  0.00     0.044 A 
ATOM      9  C   UNL A   1      38.150  24.079  26.452  1.00  0.00     0.012 A 
ATOM     10  C   UNL A   1      37.823  21.914  25.498  1.00  0.00     0.131 A 
ATOM     11  C   UNL A   1      37.310  23.199  25.749  1.00  0.00     0.018 A 
ATOM     12  F   UNL A   1      37.113  21.025  24.785  1.00  0.00    -0.206 F 
BRANCH  11  13
ATOM     13  C   UNL A   1      35.979  23.620  25.248  1.00  0.00    -0.012 A 
ATOM     14  C   UNL A   1      35.692  23.690  23.872  1.00  0.00     0.009 A 
ATOM     15  C   UNL A   1      34.937  23.929  26.141  1.00  0.00     0.056 A 
ATOM     16  C   UNL A   1      34.413  24.028  23.412  1.00  0.00     0.004 A 
ATOM     17  C   UNL A   1      33.655  24.234  25.682  1.00  0.00     0.133 A 
ATOM     18  C   UNL A   1      33.389  24.287  24.317  1.00  0.00     0.047 A 
BRANCH  17  19
ATOM     19  O   UNL A   1      32.562  24.555  26.525  1.00  0.00    -0.410 OA
BRANCH  19  20
ATOM     20  C   UNL A   1      31.217  24.436  26.189  1.00  0.00     0.417 C 
ATOM     21  O   UNL A   1      30.590  23.385  26.079  1.00  0.00    -0.224 OA
ATOM     22  N   UNL A   1      30.544  25.623  26.066  1.00  0.00    -0.291 N 
ATOM     23  H   UNL A   1      29.562  25.540  26.093  1.00  0.00     0.173 HD
BRANCH  22  24
ATOM     24  C   UNL A   1      31.010  26.934  25.907  1.00  0.00     0.044 A 
ATOM     25  C   UNL A   1      31.398  27.611  27.071  1.00  0.00     0.026 A 
ATOM     26  C   UNL A   1      31.032  27.613  24.688  1.00  0.00     0.026 A 
ATOM     27  C   UNL A   1      31.830  28.937  27.013  1.00  0.00     0.002 A 
ATOM     28  C   UNL A   1      31.448  28.948  24.634  1.00  0.00     0.002 A 
ATOM     29  C   UNL A   1      31.852  29.607  25.793  1.00  0.00     0.000 A 
ENDBRANCH  22  24
ENDBRANCH  19  20
ENDBRANCH  17  19
ENDBRANCH  11  13
ENDBRANCH   4   6
ENDBRANCH   2   4
ENDBRANCH   1   2
BRANCH   1  30
ATOM     30  C   UNL A   1      42.952  18.983  25.645  1.00  0.00     0.274 C 
BRANCH  30  31
ATOM     31  C   UNL A   1      44.173  19.211  24.758  1.00  0.00     0.275 C 
BRANCH  31  32
ATOM     32  O   UNL A   1      44.251  20.603  24.409  1.00  0.00    -0.458 OA
BRANCH  32  33
ATOM     33  C   UNL A   1      45.356  21.259  24.832  1.00  0.00     0.338 C 
ATOM     34  O   UNL A   1      46.517  20.909  24.720  1.00  0.00    -0.246 OA
BRANCH  33  35
ATOM     35  C   UNL A   1      44.957  22.526  25.473  1.00  0.00     0.060 A 
ATOM     36  C   UNL A   1      44.406  23.550  24.707  1.00  0.00     0.016 A 
ATOM     37  C   UNL A   1      45.256  22.741  26.819  1.00  0.00     0.016 A 
ATOM     38  C   UNL A   1      44.253  24.819  25.264  1.00  0.00     0.010 A 
ATOM     39  C   UNL A   1      45.016  23.996  27.394  1.00  0.00     0.010 A 
ATOM     40  C   UNL A   1      44.560  25.070  26.611  1.00  0.00    -0.014 A 
BRANCH  40  41
ATOM     41  C   UNL A   1      44.475  26.454  27.172  1.00  0.00     0.031 A 
ATOM     42  C   UNL A   1      45.701  27.338  27.226  1.00  0.00     0.074 A 
ATOM     43  C   UNL A   1      43.301  26.955  27.608  1.00  0.00     0.049 A 
ATOM     44  N   UNL A   1      45.889  28.458  27.882  1.00  0.00    -0.248 NA
ATOM     45  C   UNL A   1      46.883  26.884  26.476  1.00  0.00     0.031 C 
ATOM     46  C   UNL A   1      42.010  26.266  27.575  1.00  0.00     0.029 A 
ATOM     47  N   UNL A   1      42.998  28.191  28.129  1.00  0.00    -0.354 N 
ATOM     48  C   UNL A   1      47.230  28.781  27.707  1.00  0.00     0.074 A 
ATOM     49  C   UNL A   1      47.803  27.755  26.865  1.00  0.00     0.031 C 
ATOM     50  C   UNL A   1      41.046  27.118  27.956  1.00  0.00     0.029 A 
ATOM     51  C   UNL A   1      41.658  28.377  28.363  1.00  0.00     0.049 A 
ATOM     52  H   UNL A   1      43.678  28.878  28.317  1.00  0.00     0.167 HD
ATOM     53  C   UNL A   1      47.922  29.830  28.219  1.00  0.00     0.031 A 
ATOM     54  C   UNL A   1      40.990  29.431  28.868  1.00  0.00     0.031 A 
ATOM     55  C   UNL A   1      47.319  30.909  28.961  1.00  0.00     0.049 A 
ATOM     56  C   UNL A   1      41.756  30.630  29.343  1.00  0.00     0.074 A 
ATOM     57  C   UNL A   1      47.928  32.009  29.541  1.00  0.00     0.029 A 
ATOM     58  N   UNL A   1      45.956  31.053  29.169  1.00  0.00    -0.354 N 
ATOM     59  N   UNL A   1      43.046  30.855  29.296  1.00  0.00    -0.248 NA
ATOM     60  C   UNL A   1      40.976  31.707  29.970  1.00  0.00     0.031 C 
ATOM     61  C   UNL A   1      46.935  32.815  30.109  1.00  0.00     0.029 A 
ATOM     62  C   UNL A   1      45.706  32.234  29.847  1.00  0.00     0.049 A 
ATOM     63  H   UNL A   1      45.269  30.412  28.877  1.00  0.00     0.167 HD
ATOM     64  C   UNL A   1      43.236  32.082  29.914  1.00  0.00     0.074 A 
ATOM     65  C   UNL A   1      41.925  32.582  30.275  1.00  0.00     0.031 C 
ATOM     66  C   UNL A   1      44.397  32.721  30.190  1.00  0.00     0.031 A 
BRANCH  53  67
ATOM     67  C   UNL A   1      49.416  29.854  28.031  1.00  0.00    -0.014 A 
ATOM     68  C   UNL A   1      50.282  29.156  28.882  1.00  0.00     0.009 A 
ATOM     69  C   UNL A   1      49.963  30.541  26.935  1.00  0.00     0.009 A 
ATOM     70  C   UNL A   1      51.660  29.155  28.656  1.00  0.00     0.001 A 
ATOM     71  C   UNL A   1      51.339  30.522  26.694  1.00  0.00     0.001 A 
ATOM     72  C   UNL A   1      52.187  29.832  27.558  1.00  0.00     0.000 A 
ENDBRANCH  53  67
BRANCH  54  73
ATOM     73  C   UNL A   1      39.510  29.379  28.988  1.00  0.00    -0.014 A 
ATOM     74  C   UNL A   1      38.698  29.703  27.891  1.00  0.00     0.009 A 
ATOM     75  C   UNL A   1      38.905  28.989  30.192  1.00  0.00     0.009 A 
ATOM     76  C   UNL A   1      37.307  29.641  28.001  1.00  0.00     0.001 A 
ATOM     77  C   UNL A   1      37.515  28.898  30.290  1.00  0.00     0.001 A 
ATOM     78  C   UNL A   1      36.718  29.230  29.196  1.00  0.00     0.000 A 
ENDBRANCH  54  73
BRANCH  66  79
ATOM     79  C   UNL A   1      44.295  34.033  30.909  1.00  0.00    -0.014 A 
ATOM     80  C   UNL A   1      44.342  34.087  32.310  1.00  0.00     0.009 A 
ATOM     81  C   UNL A   1      44.172  35.226  30.181  1.00  0.00     0.009 A 
ATOM     82  C   UNL A   1      44.240  35.311  32.972  1.00  0.00     0.001 A 
ATOM     83  C   UNL A   1      44.087  36.450  30.846  1.00  0.00     0.001 A 
ATOM     84  C   UNL A   1      44.114  36.491  32.240  1.00  0.00     0.000 A 
ENDBRANCH  66  79
ENDBRANCH  40  41
ENDBRANCH  33  35
ENDBRANCH  32  33
ENDBRANCH  31  32
ENDBRANCH  30  31
ENDBRANCH   1  30
TORSDOF 16
ENDMDL
MODEL 3
REMARK VINA RESULT:     -11.9      7.104     12.318
REMARK SMILES C[C@@H](C(=O)OCCOC(=O)c1ccc(-c2c3nc(c(-c4ccccc4)c4ccc([nH]4)c(-c4ccccc4)c4nc(c(-c5ccccc5)c5ccc2[nH]5)C=C4)C=C3)cc1)c1ccc(-c2cccc(OC(=O)Nc3ccccc3)c2)c(F)c1
REMARK SMILES IDX 5 1 3 2 4 3 2 4 1 5 59 6 60 7 81 8 61 9 79 10 62 11 80 12
REMARK SMILES IDX 63 13 64 14 78 15 65 16 67 17 66 18 68 19 69 20 70 21 71 22
REMARK SMILES IDX 72 24 73 25 77 26 74 27 76 28 75 29 6 30 7 31 8 32 9 33
REMARK SMILES IDX 10 34 11 35 12 36 58 37 13 38 57 39 14 40 15 41 16 42 51 43
REMARK SMILES IDX 17 44 56 45 50 46 52 47 18 48 55 49 49 50 48 51 19 53 41 54
REMARK SMILES IDX 26 55 40 56 27 57 30 58 39 59 53 60 28 61 29 62 38 64 54 65
REMARK SMILES IDX 31 66 20 67 21 68 25 69 22 70 24 71 23 72 42 73 43 74 47 75
REMARK SMILES IDX 44 76 46 77 45 78 32 79 33 80 37 81 34 82 36 83 35 84
REMARK H PARENT 71 23 52 52 30 63
REMARK Flexibility Score: inf
ROOT
ATOM      1  O   UNL A   1      41.303  20.580  25.853  1.00  0.00    -0.462 OA
ENDROOT
BRANCH   1   2
ATOM      2  C   UNL A   1      40.697  21.198  26.905  1.00  0.00     0.313 C 
ATOM      3  O   UNL A   1      40.612  20.715  28.029  1.00  0.00    -0.252 OA
BRANCH   2   4
ATOM      4  C   UNL A   1      40.086  22.550  26.519  1.00  0.00     0.126 C 
ATOM      5  C   UNL A   1      40.226  23.621  27.607  1.00  0.00     0.025 C 
BRANCH   4   6
ATOM      6  C   UNL A   1      38.647  22.388  26.033  1.00  0.00    -0.031 A 
ATOM      7  C   UNL A   1      37.779  23.490  26.029  1.00  0.00     0.005 A 
ATOM      8  C   UNL A   1      38.165  21.179  25.522  1.00  0.00     0.044 A 
ATOM      9  C   UNL A   1      36.473  23.388  25.519  1.00  0.00     0.012 A 
ATOM     10  C   UNL A   1      36.867  21.088  25.012  1.00  0.00     0.131 A 
ATOM     11  C   UNL A   1      35.988  22.184  24.982  1.00  0.00     0.018 A 
ATOM     12  F   UNL A   1      36.509  19.912  24.471  1.00  0.00    -0.206 F 
BRANCH  11  13
ATOM     13  C   UNL A   1      34.644  22.090  24.362  1.00  0.00    -0.012 A 
ATOM     14  C   UNL A   1      33.849  20.934  24.483  1.00  0.00     0.009 A 
ATOM     15  C   UNL A   1      34.095  23.178  23.659  1.00  0.00     0.056 A 
ATOM     16  C   UNL A   1      32.557  20.879  23.948  1.00  0.00     0.004 A 
ATOM     17  C   UNL A   1      32.795  23.135  23.154  1.00  0.00     0.133 A 
ATOM     18  C   UNL A   1      32.023  21.985  23.294  1.00  0.00     0.047 A 
BRANCH  17  19
ATOM     19  O   UNL A   1      32.183  24.192  22.436  1.00  0.00    -0.410 OA
BRANCH  19  20
ATOM     20  C   UNL A   1      32.853  25.226  21.788  1.00  0.00     0.417 C 
ATOM     21  O   UNL A   1      33.334  25.180  20.659  1.00  0.00    -0.224 OA
ATOM     22  N   UNL A   1      32.878  26.415  22.470  1.00  0.00    -0.291 N 
ATOM     23  H   UNL A   1      33.108  27.197  21.917  1.00  0.00     0.173 HD
BRANCH  22  24
ATOM     24  C   UNL A   1      32.635  26.710  23.817  1.00  0.00     0.044 A 
ATOM     25  C   UNL A   1      33.738  26.680  24.679  1.00  0.00     0.026 A 
ATOM     26  C   UNL A   1      31.366  26.948  24.348  1.00  0.00     0.026 A 
ATOM     27  C   UNL A   1      33.582  26.914  26.046  1.00  0.00     0.002 A 
ATOM     28  C   UNL A   1      31.207  27.164  25.720  1.00  0.00     0.002 A 
ATOM     29  C   UNL A   1      32.314  27.153  26.568  1.00  0.00     0.000 A 
ENDBRANCH  22  24
ENDBRANCH  19  20
ENDBRANCH  17  19
ENDBRANCH  11  13
ENDBRANCH   4   6
ENDBRANCH   2   4
ENDBRANCH   1   2
BRANCH   1  30
ATOM     30  C   UNL A   1      41.676  19.198  26.033  1.00  0.00     0.274 C 
BRANCH  30  31
ATOM     31  C   UNL A   1      43.169  19.018  25.773  1.00  0.00     0.275 C 
BRANCH  31  32
ATOM     32  O   UNL A   1      43.476  19.469  24.444  1.00  0.00    -0.458 OA
BRANCH  32  33
ATOM     33  C   UNL A   1      44.789  19.626  24.159  1.00  0.00     0.338 C 
ATOM     34  O   UNL A   1      45.559  18.792  23.716  1.00  0.00    -0.246 OA
BRANCH  33  35
ATOM     35  C   UNL A   1      45.193  21.012  24.460  1.00  0.00     0.060 A 
ATOM     36  C   UNL A   1      45.892  21.295  25.631  1.00  0.00     0.016 A 
ATOM     37  C   UNL A   1      44.758  22.051  23.636  1.00  0.00     0.016 A 
ATOM     38  C   UNL A   1      46.063  22.620  26.027  1.00  0.00     0.010 A 
ATOM     39  C   UNL A   1      45.012  23.380  23.998  1.00  0.00     0.010 A 
ATOM     40  C   UNL A   1      45.622  23.687  25.227  1.00  0.00    -0.014 A 
BRANCH  40  41
ATOM     41  C   UNL A   1      45.732  25.100  25.705  1.00  0.00     0.031 A 
ATOM     42  C   UNL A   1      47.018  25.875  25.519  1.00  0.00     0.074 A 
ATOM     43  C   UNL A   1      44.683  25.723  26.279  1.00  0.00     0.049 A 
ATOM     44  N   UNL A   1      47.391  27.007  26.068  1.00  0.00    -0.248 NA
ATOM     45  C   UNL A   1      48.030  25.283  24.631  1.00  0.00     0.031 C 
ATOM     46  C   UNL A   1      43.352  25.147  26.483  1.00  0.00     0.029 A 
ATOM     47  N   UNL A   1      44.562  27.004  26.760  1.00  0.00    -0.354 N 
ATOM     48  C   UNL A   1      48.711  27.203  25.674  1.00  0.00     0.074 A 
ATOM     49  C   UNL A   1      49.065  26.089  24.822  1.00  0.00     0.031 C 
ATOM     50  C   UNL A   1      42.528  26.098  26.949  1.00  0.00     0.029 A 
ATOM     51  C   UNL A   1      43.292  27.318  27.180  1.00  0.00     0.049 A 
ATOM     52  H   UNL A   1      45.314  27.639  26.801  1.00  0.00     0.167 HD
ATOM     53  C   UNL A   1      49.553  28.212  26.009  1.00  0.00     0.031 A 
ATOM     54  C   UNL A   1      42.794  28.450  27.710  1.00  0.00     0.031 A 
ATOM     55  C   UNL A   1      49.158  29.376  26.763  1.00  0.00     0.049 A 
ATOM     56  C   UNL A   1      43.716  29.601  27.988  1.00  0.00     0.074 A 
ATOM     57  C   UNL A   1      49.933  30.447  27.174  1.00  0.00     0.029 A 
ATOM     58  N   UNL A   1      47.859  29.648  27.163  1.00  0.00    -0.354 N 
ATOM     59  N   UNL A   1      44.996  29.710  27.735  1.00  0.00    -0.248 NA
ATOM     60  C   UNL A   1      43.128  30.772  28.656  1.00  0.00     0.031 C 
ATOM     61  C   UNL A   1      49.106  31.364  27.832  1.00  0.00     0.029 A 
ATOM     62  C   UNL A   1      47.810  30.879  27.795  1.00  0.00     0.049 A 
ATOM     63  H   UNL A   1      47.087  29.055  27.018  1.00  0.00     0.167 HD
ATOM     64  C   UNL A   1      45.375  30.946  28.239  1.00  0.00     0.074 A 
ATOM     65  C   UNL A   1      44.179  31.575  28.760  1.00  0.00     0.031 C 
ATOM     66  C   UNL A   1      46.611  31.495  28.297  1.00  0.00     0.031 A 
BRANCH  53  67
ATOM     67  C   UNL A   1      50.998  28.097  25.599  1.00  0.00    -0.014 A 
ATOM     68  C   UNL A   1      51.945  27.442  26.396  1.00  0.00     0.009 A 
ATOM     69  C   UNL A   1      51.404  28.600  24.352  1.00  0.00     0.009 A 
ATOM     70  C   UNL A   1      53.268  27.307  25.969  1.00  0.00     0.001 A 
ATOM     71  C   UNL A   1      52.721  28.444  23.913  1.00  0.00     0.001 A 
ATOM     72  C   UNL A   1      53.653  27.801  24.725  1.00  0.00     0.000 A 
ENDBRANCH  53  67
BRANCH  54  73
ATOM     73  C   UNL A   1      41.351  28.534  28.053  1.00  0.00    -0.014 A 
ATOM     74  C   UNL A   1      40.430  29.043  27.126  1.00  0.00     0.009 A 
ATOM     75  C   UNL A   1      40.887  28.087  29.300  1.00  0.00     0.009 A 
ATOM     76  C   UNL A   1      39.072  29.109  27.444  1.00  0.00     0.001 A 
ATOM     77  C   UNL A   1      39.525  28.125  29.603  1.00  0.00     0.001 A 
ATOM     78  C   UNL A   1      38.620  28.641  28.677  1.00  0.00     0.000 A 
ENDBRANCH  54  73
BRANCH  66  79
ATOM     79  C   UNL A   1      46.724  32.846  28.939  1.00  0.00    -0.014 A 
ATOM     80  C   UNL A   1      46.951  32.966  30.318  1.00  0.00     0.009 A 
ATOM     81  C   UNL A   1      46.624  34.005  28.156  1.00  0.00     0.009 A 
ATOM     82  C   UNL A   1      47.048  34.227  30.908  1.00  0.00     0.001 A 
ATOM     83  C   UNL A   1      46.738  35.265  28.748  1.00  0.00     0.001 A 
ATOM     84  C   UNL A   1      46.943  35.375  30.123  1.00  0.00     0.000 A 
ENDBRANCH  66  79
ENDBRANCH  40  41
ENDBRANCH  33  35
ENDBRANCH  32  33
ENDBRANCH  31  32
ENDBRANCH  30  31
ENDBRANCH   1  30
TORSDOF 16
ENDMDL
