MODEL 1
REMARK VINA RESULT:     -10.4      0.000      0.000
REMARK SMILES COc1cc(NC(=O)c2ccc([N+](=O)[O-])cc2)c(C(=O)OCCOC(=O)c2ccc(-c3c4nc(c(-c5ccccc5)c5ccc([nH]5)c(-c5ccccc5)c5nc(c(-c6ccccc6)c6ccc3[nH]6)C=C5)C=C4)cc2)cc1OC
REMARK SMILES IDX 22 1 21 2 19 3 20 4 18 5 3 6 4 7 76 8 5 9 75 10 2 11 1 12
REMARK SMILES IDX 77 13 78 14 6 15 7 16 8 18 9 19 10 20 17 21 11 22 16 23
REMARK SMILES IDX 12 24 13 25 14 26 15 27 23 28 24 29 25 30 26 31 27 32 28 33
REMARK SMILES IDX 74 34 29 35 73 36 30 37 31 38 32 39 67 40 33 41 72 42 66 43
REMARK SMILES IDX 68 44 34 45 71 46 65 47 64 48 35 50 57 51 42 52 56 53 43 54
REMARK SMILES IDX 46 55 55 56 69 57 44 58 45 59 54 61 70 62 47 63 36 64 37 65
REMARK SMILES IDX 41 66 38 67 40 68 39 69 58 70 59 71 63 72 60 73 62 74 61 75
REMARK SMILES IDX 48 76 49 77 53 78 50 79 52 80 51 81
REMARK H PARENT 6 17 68 49 46 60
REMARK Flexibility Score: inf
ROOT
ATOM      1  C   UNL A   1      31.938  27.887  27.563  1.00  0.00     0.275 C 
ENDROOT
BRANCH   1   2
ATOM      2  O   UNL A   1      32.544  26.806  26.822  1.00  0.00    -0.458 OA
BRANCH   2   3
ATOM      3  C   UNL A   1      31.690  25.901  26.291  1.00  0.00     0.340 C 
ATOM      4  O   UNL A   1      30.844  25.246  26.875  1.00  0.00    -0.246 OA
BRANCH   3   5
ATOM      5  C   UNL A   1      31.950  25.739  24.851  1.00  0.00     0.087 A 
ATOM      6  C   UNL A   1      32.917  25.567  22.252  1.00  0.00     0.162 A 
ATOM      7  C   UNL A   1      32.513  24.409  22.931  1.00  0.00     0.077 A 
ATOM      8  C   UNL A   1      32.756  26.827  22.831  1.00  0.00     0.161 A 
ATOM      9  C   UNL A   1      32.053  24.471  24.250  1.00  0.00     0.060 A 
ATOM     10  C   UNL A   1      32.288  26.903  24.143  1.00  0.00     0.068 A 
BRANCH   6  11
ATOM     11  O   UNL A   1      33.460  25.414  21.003  1.00  0.00    -0.493 OA
ATOM     12  C   UNL A   1      32.427  25.436  20.011  1.00  0.00     0.278 C 
ENDBRANCH   6  11
BRANCH   8  13
ATOM     13  O   UNL A   1      33.068  28.042  22.289  1.00  0.00    -0.493 OA
ATOM     14  C   UNL A   1      32.305  29.157  22.730  1.00  0.00     0.278 C 
ENDBRANCH   8  13
BRANCH   9  15
ATOM     15  N   UNL A   1      31.617  23.310  24.929  1.00  0.00    -0.321 N 
ATOM     16  C   UNL A   1      32.250  22.109  25.163  1.00  0.00     0.255 C 
ATOM     17  H   UNL A   1      30.704  23.370  25.296  1.00  0.00     0.170 HD
ATOM     18  O   UNL A   1      31.590  21.081  25.302  1.00  0.00    -0.269 OA
BRANCH  16  19
ATOM     19  C   UNL A   1      33.722  22.033  25.351  1.00  0.00     0.040 A 
ATOM     20  C   UNL A   1      34.409  20.941  24.801  1.00  0.00     0.021 A 
ATOM     21  C   UNL A   1      34.418  22.989  26.106  1.00  0.00     0.021 A 
ATOM     22  C   UNL A   1      35.798  20.842  24.937  1.00  0.00     0.086 A 
ATOM     23  C   UNL A   1      35.806  22.901  26.239  1.00  0.00     0.086 A 
ATOM     24  C   UNL A   1      36.493  21.834  25.640  1.00  0.00     0.269 A 
BRANCH  24  25
ATOM     25  N   UNL A   1      37.956  21.770  25.734  1.00  0.00     0.062 N 
ATOM     26  O   UNL A   1      38.518  20.751  25.311  1.00  0.00    -0.258 OA
ATOM     27  O   UNL A   1      38.542  22.753  26.213  1.00  0.00    -0.258 OA
ENDBRANCH  24  25
ENDBRANCH  16  19
ENDBRANCH   9  15
ENDBRANCH   3   5
ENDBRANCH   2   3
ENDBRANCH   1   2
BRANCH   1  28
ATOM     28  C   UNL A   1      32.484  29.238  27.106  1.00  0.00     0.275 C 
BRANCH  28  29
ATOM     29  O   UNL A   1      33.909  29.241  27.282  1.00  0.00    -0.458 OA
BRANCH  29  30
ATOM     30  C   UNL A   1      34.457  30.391  27.732  1.00  0.00     0.338 C 
ATOM     31  O   UNL A   1      33.917  31.485  27.773  1.00  0.00    -0.246 OA
BRANCH  30  32
ATOM     32  C   UNL A   1      35.835  30.136  28.222  1.00  0.00     0.060 A 
ATOM     33  C   UNL A   1      36.951  30.416  27.431  1.00  0.00     0.016 A 
ATOM     34  C   UNL A   1      36.014  29.512  29.458  1.00  0.00     0.016 A 
ATOM     35  C   UNL A   1      38.215  29.972  27.814  1.00  0.00     0.010 A 
ATOM     36  C   UNL A   1      37.299  29.151  29.883  1.00  0.00     0.010 A 
ATOM     37  C   UNL A   1      38.412  29.328  29.044  1.00  0.00    -0.014 A 
BRANCH  37  38
ATOM     38  C   UNL A   1      39.747  28.766  29.408  1.00  0.00     0.031 A 
ATOM     39  C   UNL A   1      40.628  29.486  30.400  1.00  0.00     0.074 A 
ATOM     40  C   UNL A   1      40.181  27.594  28.902  1.00  0.00     0.049 A 
ATOM     41  N   UNL A   1      41.902  29.308  30.654  1.00  0.00    -0.248 NA
ATOM     42  C   UNL A   1      40.007  30.560  31.192  1.00  0.00     0.031 C 
ATOM     43  C   UNL A   1      39.439  26.727  27.985  1.00  0.00     0.029 A 
ATOM     44  N   UNL A   1      41.355  26.913  29.119  1.00  0.00    -0.354 N 
ATOM     45  C   UNL A   1      42.252  30.311  31.552  1.00  0.00     0.074 A 
ATOM     46  C   UNL A   1      41.053  31.070  31.828  1.00  0.00     0.031 C 
ATOM     47  C   UNL A   1      40.133  25.595  27.790  1.00  0.00     0.029 A 
ATOM     48  C   UNL A   1      41.414  25.698  28.481  1.00  0.00     0.049 A 
ATOM     49  H   UNL A   1      42.084  27.262  29.679  1.00  0.00     0.167 HD
ATOM     50  C   UNL A   1      43.468  30.582  32.084  1.00  0.00     0.031 A 
ATOM     51  C   UNL A   1      42.397  24.782  28.421  1.00  0.00     0.031 A 
ATOM     52  C   UNL A   1      44.642  29.775  31.892  1.00  0.00     0.049 A 
ATOM     53  C   UNL A   1      43.724  25.074  29.056  1.00  0.00     0.074 A 
ATOM     54  C   UNL A   1      45.926  29.987  32.365  1.00  0.00     0.029 A 
ATOM     55  N   UNL A   1      44.660  28.570  31.212  1.00  0.00    -0.354 N 
ATOM     56  N   UNL A   1      44.091  26.118  29.756  1.00  0.00    -0.248 NA
ATOM     57  C   UNL A   1      44.788  24.079  28.849  1.00  0.00     0.031 C 
ATOM     58  C   UNL A   1      46.724  28.908  31.967  1.00  0.00     0.029 A 
ATOM     59  C   UNL A   1      45.928  28.017  31.267  1.00  0.00     0.049 A 
ATOM     60  H   UNL A   1      43.887  28.166  30.756  1.00  0.00     0.167 HD
ATOM     61  C   UNL A   1      45.434  25.924  30.044  1.00  0.00     0.074 A 
ATOM     62  C   UNL A   1      45.807  24.642  29.485  1.00  0.00     0.031 C 
ATOM     63  C   UNL A   1      46.288  26.750  30.694  1.00  0.00     0.031 A 
BRANCH  50  64
ATOM     64  C   UNL A   1      43.604  31.841  32.889  1.00  0.00    -0.014 A 
ATOM     65  C   UNL A   1      43.894  33.072  32.287  1.00  0.00     0.009 A 
ATOM     66  C   UNL A   1      43.388  31.791  34.276  1.00  0.00     0.009 A 
ATOM     67  C   UNL A   1      43.986  34.230  33.065  1.00  0.00     0.001 A 
ATOM     68  C   UNL A   1      43.462  32.950  35.047  1.00  0.00     0.001 A 
ATOM     69  C   UNL A   1      43.766  34.169  34.441  1.00  0.00     0.000 A 
ENDBRANCH  50  64
BRANCH  51  70
ATOM     70  C   UNL A   1      42.181  23.517  27.677  1.00  0.00    -0.014 A 
ATOM     71  C   UNL A   1      41.655  22.395  28.334  1.00  0.00     0.009 A 
ATOM     72  C   UNL A   1      42.480  23.432  26.309  1.00  0.00     0.009 A 
ATOM     73  C   UNL A   1      41.436  21.208  27.633  1.00  0.00     0.001 A 
ATOM     74  C   UNL A   1      42.239  22.250  25.607  1.00  0.00     0.001 A 
ATOM     75  C   UNL A   1      41.721  21.138  26.270  1.00  0.00     0.000 A 
ENDBRANCH  51  70
BRANCH  63  76
ATOM     76  C   UNL A   1      47.710  26.296  30.813  1.00  0.00    -0.014 A 
ATOM     77  C   UNL A   1      48.609  26.491  29.754  1.00  0.00     0.009 A 
ATOM     78  C   UNL A   1      48.161  25.690  31.995  1.00  0.00     0.009 A 
ATOM     79  C   UNL A   1      49.933  26.066  29.868  1.00  0.00     0.001 A 
ATOM     80  C   UNL A   1      49.489  25.277  32.109  1.00  0.00     0.001 A 
ATOM     81  C   UNL A   1      50.372  25.460  31.045  1.00  0.00     0.000 A 
ENDBRANCH  63  76
ENDBRANCH  37  38
ENDBRANCH  30  32
ENDBRANCH  29  30
ENDBRANCH  28  29
ENDBRANCH   1  28
TORSDOF 16
ENDMDL
MODEL 2
REMARK VINA RESULT:     -10.3      2.097      2.866
REMARK SMILES COc1cc(NC(=O)c2ccc([N+](=O)[O-])cc2)c(C(=O)OCCOC(=O)c2ccc(-c3c4nc(c(-c5ccccc5)c5ccc([nH]5)c(-c5ccccc5)c5nc(c(-c6ccccc6)c6ccc3[nH]6)C=C5)C=C4)cc2)cc1OC
REMARK SMILES IDX 22 1 21 2 19 3 20 4 18 5 3 6 4 7 76 8 5 9 75 10 2 11 1 12
REMARK SMILES IDX 77 13 78 14 6 15 7 16 8 18 9 19 10 20 17 21 11 22 16 23
REMARK SMILES IDX 12 24 13 25 14 26 15 27 23 28 24 29 25 30 26 31 27 32 28 33
REMARK SMILES IDX 74 34 29 35 73 36 30 37 31 38 32 39 67 40 33 41 72 42 66 43
REMARK SMILES IDX 68 44 34 45 71 46 65 47 64 48 35 50 57 51 42 52 56 53 43 54
REMARK SMILES IDX 46 55 55 56 69 57 44 58 45 59 54 61 70 62 47 63 36 64 37 65
REMARK SMILES IDX 41 66 38 67 40 68 39 69 58 70 59 71 63 72 60 73 62 74 61 75
REMARK SMILES IDX 48 76 49 77 53 78 50 79 52 80 51 81
REMARK H PARENT 6 17 68 49 46 60
REMARK Flexibility Score: inf
ROOT
ATOM      1  C   UNL A   1      33.553  29.539  26.203  1.00  0.00     0.275 C 
ENDROOT
BRANCH   1   2
ATOM      2  O   UNL A   1      33.576  28.142  26.570  1.00  0.00    -0.458 OA
BRANCH   2   3
ATOM      3  C   UNL A   1      32.380  27.510  26.568  1.00  0.00     0.340 C 
ATOM      4  O   UNL A   1      31.648  27.303  27.521  1.00  0.00    -0.246 OA
BRANCH   3   5
ATOM      5  C   UNL A   1      32.065  27.018  25.217  1.00  0.00     0.087 A 
ATOM      6  C   UNL A   1      31.475  26.581  22.537  1.00  0.00     0.162 A 
ATOM      7  C   UNL A   1      32.710  26.173  23.062  1.00  0.00     0.077 A 
ATOM      8  C   UNL A   1      30.494  27.128  23.365  1.00  0.00     0.161 A 
ATOM      9  C   UNL A   1      33.038  26.411  24.400  1.00  0.00     0.060 A 
ATOM     10  C   UNL A   1      30.805  27.360  24.704  1.00  0.00     0.068 A 
BRANCH   6  11
ATOM     11  O   UNL A   1      31.270  26.413  21.192  1.00  0.00    -0.493 OA
ATOM     12  C   UNL A   1      32.351  25.671  20.618  1.00  0.00     0.278 C 
ENDBRANCH   6  11
BRANCH   8  13
ATOM     13  O   UNL A   1      29.240  27.542  23.013  1.00  0.00    -0.493 OA
ATOM     14  C   UNL A   1      29.109  28.882  22.557  1.00  0.00     0.278 C 
ENDBRANCH   8  13
BRANCH   9  15
ATOM     15  N   UNL A   1      34.268  25.974  24.942  1.00  0.00    -0.321 N 
ATOM     16  C   UNL A   1      34.616  24.789  25.554  1.00  0.00     0.255 C 
ATOM     17  H   UNL A   1      35.002  26.628  24.869  1.00  0.00     0.170 HD
ATOM     18  O   UNL A   1      35.524  24.767  26.383  1.00  0.00    -0.269 OA
BRANCH  16  19
ATOM     19  C   UNL A   1      33.982  23.502  25.167  1.00  0.00     0.040 A 
ATOM     20  C   UNL A   1      34.687  22.642  24.312  1.00  0.00     0.021 A 
ATOM     21  C   UNL A   1      32.687  23.165  25.586  1.00  0.00     0.021 A 
ATOM     22  C   UNL A   1      34.134  21.413  23.939  1.00  0.00     0.086 A 
ATOM     23  C   UNL A   1      32.132  21.934  25.225  1.00  0.00     0.086 A 
ATOM     24  C   UNL A   1      32.866  21.056  24.414  1.00  0.00     0.269 A 
BRANCH  24  25
ATOM     25  N   UNL A   1      32.306  19.741  24.078  1.00  0.00     0.062 N 
ATOM     26  O   UNL A   1      32.051  18.967  25.010  1.00  0.00    -0.258 OA
ATOM     27  O   UNL A   1      32.102  19.496  22.880  1.00  0.00    -0.258 OA
ENDBRANCH  24  25
ENDBRANCH  16  19
ENDBRANCH   9  15
ENDBRANCH   3   5
ENDBRANCH   2   3
ENDBRANCH   1   2
BRANCH   1  28
ATOM     28  C   UNL A   1      33.289  30.421  27.420  1.00  0.00     0.275 C 
BRANCH  28  29
ATOM     29  O   UNL A   1      34.387  31.335  27.572  1.00  0.00    -0.458 OA
BRANCH  29  30
ATOM     30  C   UNL A   1      34.999  31.344  28.777  1.00  0.00     0.338 C 
ATOM     31  O   UNL A   1      34.611  31.913  29.785  1.00  0.00    -0.246 OA
BRANCH  30  32
ATOM     32  C   UNL A   1      36.228  30.513  28.725  1.00  0.00     0.060 A 
ATOM     33  C   UNL A   1      36.729  29.885  29.867  1.00  0.00     0.016 A 
ATOM     34  C   UNL A   1      36.950  30.439  27.532  1.00  0.00     0.016 A 
ATOM     35  C   UNL A   1      37.991  29.293  29.848  1.00  0.00     0.010 A 
ATOM     36  C   UNL A   1      38.176  29.762  27.494  1.00  0.00     0.010 A 
ATOM     37  C   UNL A   1      38.739  29.224  28.664  1.00  0.00    -0.014 A 
BRANCH  37  38
ATOM     38  C   UNL A   1      40.130  28.679  28.669  1.00  0.00     0.031 A 
ATOM     39  C   UNL A   1      41.282  29.545  29.118  1.00  0.00     0.074 A 
ATOM     40  C   UNL A   1      40.389  27.403  28.316  1.00  0.00     0.049 A 
ATOM     41  N   UNL A   1      42.569  29.356  28.958  1.00  0.00    -0.248 NA
ATOM     42  C   UNL A   1      40.946  30.797  29.817  1.00  0.00     0.031 C 
ATOM     43  C   UNL A   1      39.397  26.403  27.921  1.00  0.00     0.029 A 
ATOM     44  N   UNL A   1      41.581  26.720  28.267  1.00  0.00    -0.354 N 
ATOM     45  C   UNL A   1      43.184  30.506  29.439  1.00  0.00     0.074 A 
ATOM     46  C   UNL A   1      42.136  31.372  29.931  1.00  0.00     0.031 C 
ATOM     47  C   UNL A   1      40.006  25.219  27.756  1.00  0.00     0.029 A 
ATOM     48  C   UNL A   1      41.444  25.396  27.931  1.00  0.00     0.049 A 
ATOM     49  H   UNL A   1      42.450  27.141  28.455  1.00  0.00     0.167 HD
ATOM     50  C   UNL A   1      44.502  30.817  29.453  1.00  0.00     0.031 A 
ATOM     51  C   UNL A   1      42.367  24.436  27.744  1.00  0.00     0.031 A 
ATOM     52  C   UNL A   1      45.557  29.924  29.057  1.00  0.00     0.049 A 
ATOM     53  C   UNL A   1      43.824  24.782  27.811  1.00  0.00     0.074 A 
ATOM     54  C   UNL A   1      46.920  30.161  29.007  1.00  0.00     0.029 A 
ATOM     55  N   UNL A   1      45.367  28.601  28.695  1.00  0.00    -0.354 N 
ATOM     56  N   UNL A   1      44.386  25.930  28.097  1.00  0.00    -0.248 NA
ATOM     57  C   UNL A   1      44.774  23.709  27.480  1.00  0.00     0.031 C 
ATOM     58  C   UNL A   1      47.556  28.979  28.611  1.00  0.00     0.029 A 
ATOM     59  C   UNL A   1      46.588  28.004  28.437  1.00  0.00     0.049 A 
ATOM     60  H   UNL A   1      44.493  28.153  28.629  1.00  0.00     0.167 HD
ATOM     61  C   UNL A   1      45.750  25.728  27.947  1.00  0.00     0.074 A 
ATOM     62  C   UNL A   1      45.937  24.337  27.592  1.00  0.00     0.031 C 
ATOM     63  C   UNL A   1      46.757  26.625  28.070  1.00  0.00     0.031 A 
BRANCH  50  64
ATOM     64  C   UNL A   1      44.878  32.210  29.866  1.00  0.00    -0.014 A 
ATOM     65  C   UNL A   1      44.909  33.267  28.948  1.00  0.00     0.009 A 
ATOM     66  C   UNL A   1      45.161  32.468  31.218  1.00  0.00     0.009 A 
ATOM     67  C   UNL A   1      45.237  34.557  29.373  1.00  0.00     0.001 A 
ATOM     68  C   UNL A   1      45.470  33.760  31.642  1.00  0.00     0.001 A 
ATOM     69  C   UNL A   1      45.512  34.803  30.719  1.00  0.00     0.000 A 
ENDBRANCH  50  64
BRANCH  51  70
ATOM     70  C   UNL A   1      41.936  23.055  27.416  1.00  0.00    -0.014 A 
ATOM     71  C   UNL A   1      41.612  22.155  28.443  1.00  0.00     0.009 A 
ATOM     72  C   UNL A   1      41.829  22.637  26.081  1.00  0.00     0.009 A 
ATOM     73  C   UNL A   1      41.192  20.860  28.136  1.00  0.00     0.001 A 
ATOM     74  C   UNL A   1      41.388  21.348  25.779  1.00  0.00     0.001 A 
ATOM     75  C   UNL A   1      41.073  20.459  26.806  1.00  0.00     0.000 A 
ENDBRANCH  51  70
BRANCH  63  76
ATOM     76  C   UNL A   1      48.144  26.129  27.796  1.00  0.00    -0.014 A 
ATOM     77  C   UNL A   1      48.903  25.544  28.821  1.00  0.00     0.009 A 
ATOM     78  C   UNL A   1      48.686  26.224  26.507  1.00  0.00     0.009 A 
ATOM     79  C   UNL A   1      50.194  25.083  28.563  1.00  0.00     0.001 A 
ATOM     80  C   UNL A   1      49.974  25.751  26.250  1.00  0.00     0.001 A 
ATOM     81  C   UNL A   1      50.729  25.187  27.278  1.00  0.00     0.000 A 
ENDBRANCH  63  76
ENDBRANCH  37  38
ENDBRANCH  30  32
ENDBRANCH  29  30
ENDBRANCH  28  29
ENDBRANCH   1  28
TORSDOF 16
ENDMDL
MODEL 3
REMARK VINA RESULT:     -10.3      1.407      1.676
REMARK SMILES COc1cc(NC(=O)c2ccc([N+](=O)[O-])cc2)c(C(=O)OCCOC(=O)c2ccc(-c3c4nc(c(-c5ccccc5)c5ccc([nH]5)c(-c5ccccc5)c5nc(c(-c6ccccc6)c6ccc3[nH]6)C=C5)C=C4)cc2)cc1OC
REMARK SMILES IDX 22 1 21 2 19 3 20 4 18 5 3 6 4 7 76 8 5 9 75 10 2 11 1 12
REMARK SMILES IDX 77 13 78 14 6 15 7 16 8 18 9 19 10 20 17 21 11 22 16 23
REMARK SMILES IDX 12 24 13 25 14 26 15 27 23 28 24 29 25 30 26 31 27 32 28 33
REMARK SMILES IDX 74 34 29 35 73 36 30 37 31 38 32 39 67 40 33 41 72 42 66 43
REMARK SMILES IDX 68 44 34 45 71 46 65 47 64 48 35 50 57 51 42 52 56 53 43 54
REMARK SMILES IDX 46 55 55 56 69 57 44 58 45 59 54 61 70 62 47 63 36 64 37 65
REMARK SMILES IDX 41 66 38 67 40 68 39 69 58 70 59 71 63 72 60 73 62 74 61 75
REMARK SMILES IDX 48 76 49 77 53 78 50 79 52 80 51 81
REMARK H PARENT 6 17 68 49 46 60
REMARK Flexibility Score: inf
ROOT
ATOM      1  C   UNL A   1      32.060  27.815  27.484  1.00  0.00     0.275 C 
ENDROOT
BRANCH   1   2
ATOM      2  O   UNL A   1      32.634  26.795  26.639  1.00  0.00    -0.458 OA
BRANCH   2   3
ATOM      3  C   UNL A   1      31.778  25.850  26.186  1.00  0.00     0.340 C 
ATOM      4  O   UNL A   1      30.981  25.197  26.838  1.00  0.00    -0.246 OA
BRANCH   3   5
ATOM      5  C   UNL A   1      31.966  25.642  24.741  1.00  0.00     0.087 A 
ATOM      6  C   UNL A   1      32.808  25.358  22.108  1.00  0.00     0.162 A 
ATOM      7  C   UNL A   1      32.373  24.239  22.833  1.00  0.00     0.077 A 
ATOM      8  C   UNL A   1      32.740  26.637  22.662  1.00  0.00     0.161 A 
ATOM      9  C   UNL A   1      31.975  24.357  24.169  1.00  0.00     0.060 A 
ATOM     10  C   UNL A   1      32.334  26.769  23.990  1.00  0.00     0.068 A 
BRANCH   6  11
ATOM     11  O   UNL A   1      33.287  25.147  20.842  1.00  0.00    -0.493 OA
ATOM     12  C   UNL A   1      32.272  25.442  19.876  1.00  0.00     0.278 C 
ENDBRANCH   6  11
BRANCH   8  13
ATOM     13  O   UNL A   1      33.093  27.821  22.077  1.00  0.00    -0.493 OA
ATOM     14  C   UNL A   1      32.615  29.010  22.693  1.00  0.00     0.278 C 
ENDBRANCH   8  13
BRANCH   9  15
ATOM     15  N   UNL A   1      31.507  23.237  24.894  1.00  0.00    -0.321 N 
ATOM     16  C   UNL A   1      32.100  22.021  25.162  1.00  0.00     0.255 C 
ATOM     17  H   UNL A   1      30.604  23.344  25.272  1.00  0.00     0.170 HD
ATOM     18  O   UNL A   1      31.405  21.024  25.346  1.00  0.00    -0.269 OA
BRANCH  16  19
ATOM     19  C   UNL A   1      33.571  21.898  25.330  1.00  0.00     0.040 A 
ATOM     20  C   UNL A   1      34.257  20.964  24.539  1.00  0.00     0.021 A 
ATOM     21  C   UNL A   1      34.267  22.645  26.291  1.00  0.00     0.021 A 
ATOM     22  C   UNL A   1      35.644  20.830  24.651  1.00  0.00     0.086 A 
ATOM     23  C   UNL A   1      35.655  22.522  26.403  1.00  0.00     0.086 A 
ATOM     24  C   UNL A   1      36.340  21.625  25.571  1.00  0.00     0.269 A 
BRANCH  24  25
ATOM     25  N   UNL A   1      37.803  21.534  25.651  1.00  0.00     0.062 N 
ATOM     26  O   UNL A   1      38.331  20.455  25.355  1.00  0.00    -0.258 OA
ATOM     27  O   UNL A   1      38.421  22.554  25.989  1.00  0.00    -0.258 OA
ENDBRANCH  24  25
ENDBRANCH  16  19
ENDBRANCH   9  15
ENDBRANCH   3   5
ENDBRANCH   2   3
ENDBRANCH   1   2
BRANCH   1  28
ATOM     28  C   UNL A   1      32.706  29.173  27.221  1.00  0.00     0.275 C 
BRANCH  28  29
ATOM     29  O   UNL A   1      34.108  29.081  27.522  1.00  0.00    -0.458 OA
BRANCH  29  30
ATOM     30  C   UNL A   1      34.683  30.183  28.052  1.00  0.00     0.338 C 
ATOM     31  O   UNL A   1      34.116  31.219  28.364  1.00  0.00    -0.246 OA
BRANCH  30  32
ATOM     32  C   UNL A   1      36.135  29.950  28.249  1.00  0.00     0.060 A 
ATOM     33  C   UNL A   1      37.061  30.244  27.247  1.00  0.00     0.016 A 
ATOM     34  C   UNL A   1      36.572  29.331  29.423  1.00  0.00     0.016 A 
ATOM     35  C   UNL A   1      38.384  29.820  27.363  1.00  0.00     0.010 A 
ATOM     36  C   UNL A   1      37.923  28.990  29.575  1.00  0.00     0.010 A 
ATOM     37  C   UNL A   1      38.838  29.182  28.526  1.00  0.00    -0.014 A 
BRANCH  37  38
ATOM     38  C   UNL A   1      40.228  28.641  28.609  1.00  0.00     0.031 A 
ATOM     39  C   UNL A   1      41.347  29.503  29.139  1.00  0.00     0.074 A 
ATOM     40  C   UNL A   1      40.511  27.370  28.257  1.00  0.00     0.049 A 
ATOM     41  N   UNL A   1      42.642  29.318  29.055  1.00  0.00    -0.248 NA
ATOM     42  C   UNL A   1      40.966  30.745  29.831  1.00  0.00     0.031 C 
ATOM     43  C   UNL A   1      39.548  26.373  27.789  1.00  0.00     0.029 A 
ATOM     44  N   UNL A   1      41.706  26.690  28.272  1.00  0.00    -0.354 N 
ATOM     45  C   UNL A   1      43.224  30.464  29.587  1.00  0.00     0.074 A 
ATOM     46  C   UNL A   1      42.145  31.322  30.025  1.00  0.00     0.031 C 
ATOM     47  C   UNL A   1      40.170  25.192  27.648  1.00  0.00     0.029 A 
ATOM     48  C   UNL A   1      41.594  25.370  27.912  1.00  0.00     0.049 A 
ATOM     49  H   UNL A   1      42.561  27.110  28.518  1.00  0.00     0.167 HD
ATOM     50  C   UNL A   1      44.537  30.778  29.686  1.00  0.00     0.031 A 
ATOM     51  C   UNL A   1      42.529  24.414  27.771  1.00  0.00     0.031 A 
ATOM     52  C   UNL A   1      45.617  29.891  29.345  1.00  0.00     0.049 A 
ATOM     53  C   UNL A   1      43.979  24.763  27.930  1.00  0.00     0.074 A 
ATOM     54  C   UNL A   1      46.980  30.132  29.381  1.00  0.00     0.029 A 
ATOM     55  N   UNL A   1      45.453  28.573  28.955  1.00  0.00    -0.354 N 
ATOM     56  N   UNL A   1      44.519  25.908  28.265  1.00  0.00    -0.248 NA
ATOM     57  C   UNL A   1      44.950  23.695  27.646  1.00  0.00     0.031 C 
ATOM     58  C   UNL A   1      47.643  28.957  29.010  1.00  0.00     0.029 A 
ATOM     59  C   UNL A   1      46.690  27.982  28.765  1.00  0.00     0.049 A 
ATOM     60  H   UNL A   1      44.587  28.124  28.830  1.00  0.00     0.167 HD
ATOM     61  C   UNL A   1      45.890  25.711  28.196  1.00  0.00     0.074 A 
ATOM     62  C   UNL A   1      46.102  24.324  27.836  1.00  0.00     0.031 C 
ATOM     63  C   UNL A   1      46.885  26.608  28.391  1.00  0.00     0.031 A 
BRANCH  50  64
ATOM     64  C   UNL A   1      44.883  32.166  30.139  1.00  0.00    -0.014 A 
ATOM     65  C   UNL A   1      44.964  33.235  29.237  1.00  0.00     0.009 A 
ATOM     66  C   UNL A   1      45.086  32.407  31.508  1.00  0.00     0.009 A 
ATOM     67  C   UNL A   1      45.262  34.521  29.698  1.00  0.00     0.001 A 
ATOM     68  C   UNL A   1      45.365  33.694  31.967  1.00  0.00     0.001 A 
ATOM     69  C   UNL A   1      45.457  34.749  31.061  1.00  0.00     0.000 A 
ENDBRANCH  50  64
BRANCH  51  70
ATOM     70  C   UNL A   1      42.123  23.036  27.399  1.00  0.00    -0.014 A 
ATOM     71  C   UNL A   1      41.520  22.199  28.350  1.00  0.00     0.009 A 
ATOM     72  C   UNL A   1      42.319  22.560  26.094  1.00  0.00     0.009 A 
ATOM     73  C   UNL A   1      41.123  20.908  27.999  1.00  0.00     0.001 A 
ATOM     74  C   UNL A   1      41.901  21.276  25.743  1.00  0.00     0.001 A 
ATOM     75  C   UNL A   1      41.307  20.449  26.696  1.00  0.00     0.000 A 
ENDBRANCH  51  70
BRANCH  63  76
ATOM     76  C   UNL A   1      48.287  26.118  28.198  1.00  0.00    -0.014 A 
ATOM     77  C   UNL A   1      48.877  26.141  26.925  1.00  0.00     0.009 A 
ATOM     78  C   UNL A   1      49.030  25.654  29.292  1.00  0.00     0.009 A 
ATOM     79  C   UNL A   1      50.183  25.683  26.748  1.00  0.00     0.001 A 
ATOM     80  C   UNL A   1      50.340  25.207  29.113  1.00  0.00     0.001 A 
ATOM     81  C   UNL A   1      50.913  25.217  27.841  1.00  0.00     0.000 A 
ENDBRANCH  63  76
ENDBRANCH  37  38
ENDBRANCH  30  32
ENDBRANCH  29  30
ENDBRANCH  28  29
ENDBRANCH   1  28
TORSDOF 16
ENDMDL
