MODEL 1
REMARK VINA RESULT:     -13.0      0.000      0.000
REMARK SMILES O=C(OCCOC(=O)[C@H]1CC2=c3ccccc3=N[C@H]2[C@H](c2ccccc2F)[NH2+]1)c1ccc(-c2c3nc(c(-c4ccccc4)c4ccc([nH]4)c(-c4ccccc4)c4nc(c(-c5ccccc5)c5ccc2[nH]5)C=C4)C=C3)cc1
REMARK SMILES IDX 4 1 3 2 2 3 1 4 29 5 30 6 76 7 31 8 75 9 32 10 33 11 34 12
REMARK SMILES IDX 69 13 35 14 74 15 68 16 70 17 36 18 73 19 67 20 66 21 37 23
REMARK SMILES IDX 59 24 44 25 58 26 45 27 48 28 57 29 71 30 46 31 47 32 56 34
REMARK SMILES IDX 72 35 49 36 38 37 39 38 43 39 40 40 42 41 41 42 60 43 61 44
REMARK SMILES IDX 65 45 62 46 64 47 63 48 50 49 51 50 55 51 52 52 54 53 53 54
REMARK SMILES IDX 5 55 6 56 7 57 8 58 9 59 10 60 28 61 11 62 20 63 12 66 19 67
REMARK SMILES IDX 13 68 17 69 18 70 14 71 16 72 15 73 21 74 22 75 26 76 23 77
REMARK SMILES IDX 25 78 27 79 24 80
REMARK H PARENT 70 22 48 33 28 64 28 65
REMARK Flexibility Score: inf
ROOT
ATOM      1  C   UNL A   1      30.417  24.142  26.858  1.00  0.00     0.275 C 
ENDROOT
BRANCH   1   2
ATOM      2  O   UNL A   1      30.549  24.864  25.638  1.00  0.00    -0.458 OA
BRANCH   2   3
ATOM      3  C   UNL A   1      30.532  26.213  25.552  1.00  0.00     0.338 C 
ATOM      4  O   UNL A   1      29.647  26.776  24.914  1.00  0.00    -0.246 OA
BRANCH   3   5
ATOM      5  C   UNL A   1      31.727  26.990  25.994  1.00  0.00     0.060 A 
ATOM      6  C   UNL A   1      31.417  27.897  26.947  1.00  0.00     0.016 A 
ATOM      7  C   UNL A   1      33.017  27.084  25.457  1.00  0.00     0.016 A 
ATOM      8  C   UNL A   1      32.351  28.903  27.217  1.00  0.00     0.010 A 
ATOM      9  C   UNL A   1      33.914  28.224  25.661  1.00  0.00     0.010 A 
ATOM     10  C   UNL A   1      33.798  29.395  26.658  1.00  0.00    -0.014 A 
BRANCH  10  11
ATOM     11  C   UNL A   1      35.336  30.704  27.524  1.00  0.00     0.031 A 
ATOM     12  C   UNL A   1      36.892  29.993  28.331  1.00  0.00     0.074 A 
ATOM     13  C   UNL A   1      35.456  32.030  28.172  1.00  0.00     0.049 A 
ATOM     14  N   UNL A   1      38.006  30.649  28.655  1.00  0.00    -0.248 NA
ATOM     15  C   UNL A   1      37.175  28.497  28.366  1.00  0.00     0.031 C 
ATOM     16  C   UNL A   1      34.602  33.233  28.039  1.00  0.00     0.029 A 
ATOM     17  N   UNL A   1      36.055  32.350  29.419  1.00  0.00    -0.354 N 
ATOM     18  C   UNL A   1      39.048  29.701  28.677  1.00  0.00     0.074 A 
ATOM     19  C   UNL A   1      38.491  28.421  28.362  1.00  0.00     0.031 C 
ATOM     20  C   UNL A   1      34.359  33.790  29.228  1.00  0.00     0.029 A 
ATOM     21  C   UNL A   1      35.341  33.285  30.164  1.00  0.00     0.049 A 
ATOM     22  H   UNL A   1      36.899  31.947  29.729  1.00  0.00     0.167 HD
ATOM     23  C   UNL A   1      40.356  29.788  29.025  1.00  0.00     0.031 A 
ATOM     24  C   UNL A   1      35.459  33.845  31.394  1.00  0.00     0.031 A 
ATOM     25  C   UNL A   1      40.848  30.770  29.940  1.00  0.00     0.049 A 
ATOM     26  C   UNL A   1      36.788  33.803  32.076  1.00  0.00     0.074 A 
ATOM     27  C   UNL A   1      42.108  30.871  30.503  1.00  0.00     0.029 A 
ATOM     28  N   UNL A   1      40.032  31.672  30.595  1.00  0.00    -0.354 N 
ATOM     29  N   UNL A   1      37.846  33.113  31.743  1.00  0.00    -0.248 NA
ATOM     30  C   UNL A   1      37.003  34.740  33.192  1.00  0.00     0.031 C 
ATOM     31  C   UNL A   1      42.004  31.705  31.618  1.00  0.00     0.029 A 
ATOM     32  C   UNL A   1      40.724  32.235  31.647  1.00  0.00     0.049 A 
ATOM     33  H   UNL A   1      39.102  31.881  30.349  1.00  0.00     0.167 HD
ATOM     34  C   UNL A   1      38.868  33.571  32.561  1.00  0.00     0.074 A 
ATOM     35  C   UNL A   1      38.304  34.591  33.418  1.00  0.00     0.031 C 
ATOM     36  C   UNL A   1      40.166  33.194  32.560  1.00  0.00     0.031 A 
BRANCH  23  37
ATOM     37  C   UNL A   1      41.291  28.668  28.608  1.00  0.00    -0.014 A 
ATOM     38  C   UNL A   1      41.878  28.642  27.332  1.00  0.00     0.009 A 
ATOM     39  C   UNL A   1      41.538  27.592  29.479  1.00  0.00     0.009 A 
ATOM     40  C   UNL A   1      42.673  27.561  26.930  1.00  0.00     0.001 A 
ATOM     41  C   UNL A   1      42.345  26.520  29.079  1.00  0.00     0.001 A 
ATOM     42  C   UNL A   1      42.905  26.501  27.803  1.00  0.00     0.000 A 
ENDBRANCH  23  37
BRANCH  24  43
ATOM     43  C   UNL A   1      34.356  34.739  31.882  1.00  0.00    -0.014 A 
ATOM     44  C   UNL A   1      33.318  34.223  32.681  1.00  0.00     0.009 A 
ATOM     45  C   UNL A   1      34.232  36.049  31.391  1.00  0.00     0.009 A 
ATOM     46  C   UNL A   1      32.163  34.977  32.926  1.00  0.00     0.001 A 
ATOM     47  C   UNL A   1      33.077  36.799  31.637  1.00  0.00     0.001 A 
ATOM     48  C   UNL A   1      32.035  36.257  32.388  1.00  0.00     0.000 A 
ENDBRANCH  24  43
BRANCH  36  49
ATOM     49  C   UNL A   1      41.101  33.789  33.567  1.00  0.00    -0.014 A 
ATOM     50  C   UNL A   1      41.176  33.232  34.854  1.00  0.00     0.009 A 
ATOM     51  C   UNL A   1      41.742  35.008  33.307  1.00  0.00     0.009 A 
ATOM     52  C   UNL A   1      41.833  33.911  35.878  1.00  0.00     0.001 A 
ATOM     53  C   UNL A   1      42.428  35.667  34.327  1.00  0.00     0.001 A 
ATOM     54  C   UNL A   1      42.456  35.130  35.613  1.00  0.00     0.000 A 
ENDBRANCH  36  49
ENDBRANCH  10  11
ENDBRANCH   3   5
ENDBRANCH   2   3
ENDBRANCH   1   2
BRANCH   1  55
ATOM     55  C   UNL A   1      31.210  22.825  26.939  1.00  0.00     0.274 C 
BRANCH  55  56
ATOM     56  O   UNL A   1      32.327  22.711  27.866  1.00  0.00    -0.458 OA
BRANCH  56  57
ATOM     57  C   UNL A   1      33.627  22.347  27.526  1.00  0.00     0.365 C 
ATOM     58  O   UNL A   1      34.391  21.778  28.289  1.00  0.00    -0.245 OA
BRANCH  57  59
ATOM     59  C   UNL A   1      34.010  22.924  26.059  1.00  0.00     0.298 C 
ATOM     60  C   UNL A   1      35.047  24.277  25.618  1.00  0.00     0.111 C 
ATOM     61  N   UNL A   1      34.099  21.668  25.260  1.00  0.00    -0.326 N 
ATOM     62  C   UNL A   1      36.674  23.986  25.021  1.00  0.00    -0.024 C 
ATOM     63  C   UNL A   1      34.715  21.851  23.991  1.00  0.00     0.246 C 
ATOM     64  H   UNL A   1      33.155  21.309  25.114  1.00  0.00     0.347 HD
ATOM     65  H   UNL A   1      34.680  21.015  25.787  1.00  0.00     0.347 HD
ATOM     66  C   UNL A   1      38.185  23.900  25.800  1.00  0.00     0.002 A 
ATOM     67  C   UNL A   1      36.225  22.211  24.310  1.00  0.00     0.196 C 
ATOM     68  C   UNL A   1      38.906  24.626  26.875  1.00  0.00     0.010 A 
ATOM     69  C   UNL A   1      38.825  21.982  25.839  1.00  0.00     0.066 A 
ATOM     70  N   UNL A   1      37.729  20.987  25.025  1.00  0.00    -0.270 NA
ATOM     71  C   UNL A   1      39.823  24.008  27.650  1.00  0.00     0.001 A 
ATOM     72  C   UNL A   1      39.924  21.646  26.739  1.00  0.00     0.028 A 
ATOM     73  C   UNL A   1      40.307  22.624  27.576  1.00  0.00     0.002 A 
BRANCH  63  74
ATOM     74  C   UNL A   1      33.857  22.891  23.162  1.00  0.00     0.048 A 
ATOM     75  C   UNL A   1      34.358  24.119  22.689  1.00  0.00     0.013 A 
ATOM     76  C   UNL A   1      32.456  22.714  23.040  1.00  0.00     0.132 A 
ATOM     77  C   UNL A   1      33.485  25.179  22.367  1.00  0.00     0.001 A 
ATOM     78  C   UNL A   1      31.589  23.779  22.785  1.00  0.00     0.040 A 
ATOM     79  F   UNL A   1      31.884  21.533  23.324  1.00  0.00    -0.206 F 
ATOM     80  C   UNL A   1      32.104  25.031  22.487  1.00  0.00     0.003 A 
ENDBRANCH  63  74
ENDBRANCH  57  59
ENDBRANCH  56  57
ENDBRANCH  55  56
ENDBRANCH   1  55
TORSDOF 12
ENDMDL
MODEL 2
REMARK VINA RESULT:     -11.8      3.770      7.132
REMARK SMILES O=C(OCCOC(=O)[C@H]1CC2=c3ccccc3=N[C@H]2[C@H](c2ccccc2F)[NH2+]1)c1ccc(-c2c3nc(c(-c4ccccc4)c4ccc([nH]4)c(-c4ccccc4)c4nc(c(-c5ccccc5)c5ccc2[nH]5)C=C4)C=C3)cc1
REMARK SMILES IDX 4 1 3 2 2 3 1 4 29 5 30 6 76 7 31 8 75 9 32 10 33 11 34 12
REMARK SMILES IDX 69 13 35 14 74 15 68 16 70 17 36 18 73 19 67 20 66 21 37 23
REMARK SMILES IDX 59 24 44 25 58 26 45 27 48 28 57 29 71 30 46 31 47 32 56 34
REMARK SMILES IDX 72 35 49 36 38 37 39 38 43 39 40 40 42 41 41 42 60 43 61 44
REMARK SMILES IDX 65 45 62 46 64 47 63 48 50 49 51 50 55 51 52 52 54 53 53 54
REMARK SMILES IDX 5 55 6 56 7 57 8 58 9 59 10 60 28 61 11 62 20 63 12 66 19 67
REMARK SMILES IDX 13 68 17 69 18 70 14 71 16 72 15 73 21 74 22 75 26 76 23 77
REMARK SMILES IDX 25 78 27 79 24 80
REMARK H PARENT 70 22 48 33 28 64 28 65
REMARK Flexibility Score: inf
ROOT
ATOM      1  C   UNL A   1      31.256  31.620  26.824  1.00  0.00     0.275 C 
ENDROOT
BRANCH   1   2
ATOM      2  O   UNL A   1      32.010  32.820  26.691  1.00  0.00    -0.458 OA
BRANCH   2   3
ATOM      3  C   UNL A   1      32.689  33.402  27.704  1.00  0.00     0.338 C 
ATOM      4  O   UNL A   1      32.397  34.540  28.064  1.00  0.00    -0.246 OA
BRANCH   3   5
ATOM      5  C   UNL A   1      33.953  32.779  28.192  1.00  0.00     0.060 A 
ATOM      6  C   UNL A   1      34.467  33.442  29.252  1.00  0.00     0.016 A 
ATOM      7  C   UNL A   1      34.776  31.796  27.627  1.00  0.00     0.016 A 
ATOM      8  C   UNL A   1      35.795  33.175  29.605  1.00  0.00     0.010 A 
ATOM      9  C   UNL A   1      36.201  31.639  27.932  1.00  0.00     0.010 A 
ATOM     10  C   UNL A   1      37.037  32.277  29.060  1.00  0.00    -0.014 A 
BRANCH  10  11
ATOM     11  C   UNL A   1      38.899  31.614  30.019  1.00  0.00     0.031 A 
ATOM     12  C   UNL A   1      39.631  29.904  29.672  1.00  0.00     0.074 A 
ATOM     13  C   UNL A   1      39.660  31.821  31.273  1.00  0.00     0.049 A 
ATOM     14  N   UNL A   1      40.857  29.474  29.967  1.00  0.00    -0.248 NA
ATOM     15  C   UNL A   1      38.999  28.940  28.676  1.00  0.00     0.031 C 
ATOM     16  C   UNL A   1      39.677  32.981  32.193  1.00  0.00     0.029 A 
ATOM     17  N   UNL A   1      40.142  30.842  32.181  1.00  0.00    -0.354 N 
ATOM     18  C   UNL A   1      41.153  28.430  29.068  1.00  0.00     0.074 A 
ATOM     19  C   UNL A   1      40.018  28.241  28.217  1.00  0.00     0.031 C 
ATOM     20  C   UNL A   1      39.624  32.591  33.469  1.00  0.00     0.029 A 
ATOM     21  C   UNL A   1      39.991  31.191  33.521  1.00  0.00     0.049 A 
ATOM     22  H   UNL A   1      40.547  29.992  31.890  1.00  0.00     0.167 HD
ATOM     23  C   UNL A   1      42.208  27.584  28.965  1.00  0.00     0.031 A 
ATOM     24  C   UNL A   1      40.225  30.594  34.716  1.00  0.00     0.031 A 
ATOM     25  C   UNL A   1      43.032  27.238  30.082  1.00  0.00     0.049 A 
ATOM     26  C   UNL A   1      41.174  29.440  34.767  1.00  0.00     0.074 A 
ATOM     27  C   UNL A   1      44.024  26.276  30.157  1.00  0.00     0.029 A 
ATOM     28  N   UNL A   1      42.792  27.683  31.368  1.00  0.00    -0.354 N 
ATOM     29  N   UNL A   1      41.682  28.768  33.769  1.00  0.00    -0.248 NA
ATOM     30  C   UNL A   1      41.718  29.072  36.084  1.00  0.00     0.031 C 
ATOM     31  C   UNL A   1      44.253  26.014  31.510  1.00  0.00     0.029 A 
ATOM     32  C   UNL A   1      43.518  26.920  32.259  1.00  0.00     0.049 A 
ATOM     33  H   UNL A   1      42.197  28.429  31.610  1.00  0.00     0.167 HD
ATOM     34  C   UNL A   1      42.648  27.942  34.324  1.00  0.00     0.074 A 
ATOM     35  C   UNL A   1      42.650  28.187  35.750  1.00  0.00     0.031 C 
ATOM     36  C   UNL A   1      43.482  27.091  33.685  1.00  0.00     0.031 A 
BRANCH  23  37
ATOM     37  C   UNL A   1      42.384  26.801  27.678  1.00  0.00    -0.014 A 
ATOM     38  C   UNL A   1      42.913  27.401  26.523  1.00  0.00     0.009 A 
ATOM     39  C   UNL A   1      41.955  25.464  27.599  1.00  0.00     0.009 A 
ATOM     40  C   UNL A   1      42.994  26.691  25.319  1.00  0.00     0.001 A 
ATOM     41  C   UNL A   1      42.050  24.752  26.397  1.00  0.00     0.001 A 
ATOM     42  C   UNL A   1      42.561  25.369  25.256  1.00  0.00     0.000 A 
ENDBRANCH  23  37
BRANCH  24  43
ATOM     43  C   UNL A   1      39.774  31.293  35.966  1.00  0.00    -0.014 A 
ATOM     44  C   UNL A   1      38.448  31.160  36.421  1.00  0.00     0.009 A 
ATOM     45  C   UNL A   1      40.601  32.242  36.589  1.00  0.00     0.009 A 
ATOM     46  C   UNL A   1      37.951  31.998  37.427  1.00  0.00     0.001 A 
ATOM     47  C   UNL A   1      40.100  33.078  37.592  1.00  0.00     0.001 A 
ATOM     48  C   UNL A   1      38.771  32.969  37.998  1.00  0.00     0.000 A 
ENDBRANCH  24  43
BRANCH  36  49
ATOM     49  C   UNL A   1      44.428  26.253  34.488  1.00  0.00    -0.014 A 
ATOM     50  C   UNL A   1      43.983  25.038  35.035  1.00  0.00     0.009 A 
ATOM     51  C   UNL A   1      45.677  26.761  34.869  1.00  0.00     0.009 A 
ATOM     52  C   UNL A   1      44.749  24.373  35.989  1.00  0.00     0.001 A 
ATOM     53  C   UNL A   1      46.457  26.074  35.798  1.00  0.00     0.001 A 
ATOM     54  C   UNL A   1      45.985  24.894  36.372  1.00  0.00     0.000 A 
ENDBRANCH  36  49
ENDBRANCH  10  11
ENDBRANCH   3   5
ENDBRANCH   2   3
ENDBRANCH   1   2
BRANCH   1  55
ATOM     55  C   UNL A   1      31.807  30.401  26.063  1.00  0.00     0.274 C 
BRANCH  55  56
ATOM     56  O   UNL A   1      32.534  29.367  26.785  1.00  0.00    -0.458 OA
BRANCH  56  57
ATOM     57  C   UNL A   1      32.020  28.129  27.164  1.00  0.00     0.365 C 
ATOM     58  O   UNL A   1      31.638  27.872  28.294  1.00  0.00    -0.245 OA
BRANCH  57  59
ATOM     59  C   UNL A   1      32.155  27.066  25.946  1.00  0.00     0.298 C 
ATOM     60  C   UNL A   1      30.900  26.218  25.047  1.00  0.00     0.111 C 
ATOM     61  N   UNL A   1      33.318  27.623  25.195  1.00  0.00    -0.326 N 
ATOM     62  C   UNL A   1      30.451  26.757  23.435  1.00  0.00    -0.024 C 
ATOM     63  C   UNL A   1      33.476  27.052  23.901  1.00  0.00     0.246 C 
ATOM     64  H   UNL A   1      34.165  27.446  25.733  1.00  0.00     0.347 HD
ATOM     65  H   UNL A   1      33.144  28.620  25.066  1.00  0.00     0.347 HD
ATOM     66  C   UNL A   1      29.250  27.824  22.873  1.00  0.00     0.002 A 
ATOM     67  C   UNL A   1      32.216  27.540  23.074  1.00  0.00     0.196 C 
ATOM     68  C   UNL A   1      27.829  28.129  23.173  1.00  0.00     0.010 A 
ATOM     69  C   UNL A   1      30.108  29.538  22.228  1.00  0.00     0.066 A 
ATOM     70  N   UNL A   1      31.790  29.427  22.347  1.00  0.00    -0.270 NA
ATOM     71  C   UNL A   1      27.317  29.364  22.977  1.00  0.00     0.001 A 
ATOM     72  C   UNL A   1      29.246  30.697  22.018  1.00  0.00     0.028 A 
ATOM     73  C   UNL A   1      27.974  30.554  22.425  1.00  0.00     0.002 A 
BRANCH  63  74
ATOM     74  C   UNL A   1      33.707  25.494  24.064  1.00  0.00     0.048 A 
ATOM     75  C   UNL A   1      34.332  24.908  25.181  1.00  0.00     0.013 A 
ATOM     76  C   UNL A   1      33.472  24.627  22.967  1.00  0.00     0.132 A 
ATOM     77  C   UNL A   1      34.910  23.624  25.093  1.00  0.00     0.001 A 
ATOM     78  C   UNL A   1      34.097  23.383  22.854  1.00  0.00     0.040 A 
ATOM     79  F   UNL A   1      32.758  25.036  21.907  1.00  0.00    -0.206 F 
ATOM     80  C   UNL A   1      34.856  22.894  23.906  1.00  0.00     0.003 A 
ENDBRANCH  63  74
ENDBRANCH  57  59
ENDBRANCH  56  57
ENDBRANCH  55  56
ENDBRANCH   1  55
TORSDOF 12
ENDMDL
MODEL 3
REMARK VINA RESULT:     -11.6      3.626      8.918
REMARK SMILES O=C(OCCOC(=O)[C@H]1CC2=c3ccccc3=N[C@H]2[C@H](c2ccccc2F)[NH2+]1)c1ccc(-c2c3nc(c(-c4ccccc4)c4ccc([nH]4)c(-c4ccccc4)c4nc(c(-c5ccccc5)c5ccc2[nH]5)C=C4)C=C3)cc1
REMARK SMILES IDX 4 1 3 2 2 3 1 4 29 5 30 6 76 7 31 8 75 9 32 10 33 11 34 12
REMARK SMILES IDX 69 13 35 14 74 15 68 16 70 17 36 18 73 19 67 20 66 21 37 23
REMARK SMILES IDX 59 24 44 25 58 26 45 27 48 28 57 29 71 30 46 31 47 32 56 34
REMARK SMILES IDX 72 35 49 36 38 37 39 38 43 39 40 40 42 41 41 42 60 43 61 44
REMARK SMILES IDX 65 45 62 46 64 47 63 48 50 49 51 50 55 51 52 52 54 53 53 54
REMARK SMILES IDX 5 55 6 56 7 57 8 58 9 59 10 60 28 61 11 62 20 63 12 66 19 67
REMARK SMILES IDX 13 68 17 69 18 70 14 71 16 72 15 73 21 74 22 75 26 76 23 77
REMARK SMILES IDX 25 78 27 79 24 80
REMARK H PARENT 70 22 48 33 28 64 28 65
REMARK Flexibility Score: inf
ROOT
ATOM      1  C   UNL A   1      37.862  19.563  24.764  1.00  0.00     0.275 C 
ENDROOT
BRANCH   1   2
ATOM      2  O   UNL A   1      38.744  19.354  25.862  1.00  0.00    -0.458 OA
BRANCH   2   3
ATOM      3  C   UNL A   1      40.050  19.702  25.859  1.00  0.00     0.338 C 
ATOM      4  O   UNL A   1      40.915  18.838  25.742  1.00  0.00    -0.246 OA
BRANCH   3   5
ATOM      5  C   UNL A   1      40.442  21.082  26.270  1.00  0.00     0.060 A 
ATOM      6  C   UNL A   1      41.748  21.157  26.607  1.00  0.00     0.016 A 
ATOM      7  C   UNL A   1      39.668  22.212  26.561  1.00  0.00     0.016 A 
ATOM      8  C   UNL A   1      42.174  22.289  27.312  1.00  0.00     0.010 A 
ATOM      9  C   UNL A   1      40.112  23.316  27.417  1.00  0.00     0.010 A 
ATOM     10  C   UNL A   1      41.522  23.634  27.954  1.00  0.00    -0.014 A 
BRANCH  10  11
ATOM     11  C   UNL A   1      42.419  25.531  28.606  1.00  0.00     0.031 A 
ATOM     12  C   UNL A   1      41.378  27.101  28.784  1.00  0.00     0.074 A 
ATOM     13  C   UNL A   1      43.714  26.247  28.548  1.00  0.00     0.049 A 
ATOM     14  N   UNL A   1      41.719  28.230  29.404  1.00  0.00    -0.248 NA
ATOM     15  C   UNL A   1      39.875  27.108  28.542  1.00  0.00     0.031 C 
ATOM     16  C   UNL A   1      45.090  25.712  28.433  1.00  0.00     0.029 A 
ATOM     17  N   UNL A   1      43.972  27.561  28.078  1.00  0.00    -0.354 N 
ATOM     18  C   UNL A   1      40.521  28.867  29.785  1.00  0.00     0.074 A 
ATOM     19  C   UNL A   1      39.428  28.058  29.339  1.00  0.00     0.031 C 
ATOM     20  C   UNL A   1      45.809  26.407  27.547  1.00  0.00     0.029 A 
ATOM     21  C   UNL A   1      45.141  27.673  27.328  1.00  0.00     0.049 A 
ATOM     22  H   UNL A   1      43.379  28.325  28.264  1.00  0.00     0.167 HD
ATOM     23  C   UNL A   1      40.267  30.069  30.359  1.00  0.00     0.031 A 
ATOM     24  C   UNL A   1      45.764  28.659  26.637  1.00  0.00     0.031 A 
ATOM     25  C   UNL A   1      41.155  31.184  30.242  1.00  0.00     0.049 A 
ATOM     26  C   UNL A   1      45.414  30.080  26.942  1.00  0.00     0.074 A 
ATOM     27  C   UNL A   1      40.948  32.495  30.630  1.00  0.00     0.029 A 
ATOM     28  N   UNL A   1      42.312  31.155  29.488  1.00  0.00    -0.354 N 
ATOM     29  N   UNL A   1      44.422  30.530  27.663  1.00  0.00    -0.248 NA
ATOM     30  C   UNL A   1      46.357  31.119  26.493  1.00  0.00     0.031 C 
ATOM     31  C   UNL A   1      41.884  33.284  29.958  1.00  0.00     0.029 A 
ATOM     32  C   UNL A   1      42.757  32.445  29.283  1.00  0.00     0.049 A 
ATOM     33  H   UNL A   1      42.751  30.342  29.150  1.00  0.00     0.167 HD
ATOM     34  C   UNL A   1      44.650  31.891  27.808  1.00  0.00     0.074 A 
ATOM     35  C   UNL A   1      45.868  32.199  27.091  1.00  0.00     0.031 C 
ATOM     36  C   UNL A   1      43.921  32.785  28.513  1.00  0.00     0.031 A 
BRANCH  23  37
ATOM     37  C   UNL A   1      38.892  30.310  30.953  1.00  0.00    -0.014 A 
ATOM     38  C   UNL A   1      38.589  29.934  32.272  1.00  0.00     0.009 A 
ATOM     39  C   UNL A   1      37.868  30.861  30.163  1.00  0.00     0.009 A 
ATOM     40  C   UNL A   1      37.293  30.086  32.781  1.00  0.00     0.001 A 
ATOM     41  C   UNL A   1      36.577  31.025  30.680  1.00  0.00     0.001 A 
ATOM     42  C   UNL A   1      36.288  30.630  31.985  1.00  0.00     0.000 A 
ENDBRANCH  23  37
BRANCH  24  43
ATOM     43  C   UNL A   1      46.979  28.309  25.827  1.00  0.00    -0.014 A 
ATOM     44  C   UNL A   1      46.850  27.893  24.488  1.00  0.00     0.009 A 
ATOM     45  C   UNL A   1      48.236  28.197  26.442  1.00  0.00     0.009 A 
ATOM     46  C   UNL A   1      47.936  27.325  23.809  1.00  0.00     0.001 A 
ATOM     47  C   UNL A   1      49.318  27.628  25.761  1.00  0.00     0.001 A 
ATOM     48  C   UNL A   1      49.163  27.175  24.452  1.00  0.00     0.000 A 
ENDBRANCH  24  43
BRANCH  36  49
ATOM     49  C   UNL A   1      44.323  34.228  28.500  1.00  0.00    -0.014 A 
ATOM     50  C   UNL A   1      43.950  35.039  27.416  1.00  0.00     0.009 A 
ATOM     51  C   UNL A   1      45.231  34.720  29.448  1.00  0.00     0.009 A 
ATOM     52  C   UNL A   1      44.521  36.300  27.252  1.00  0.00     0.001 A 
ATOM     53  C   UNL A   1      45.773  35.996  29.298  1.00  0.00     0.001 A 
ATOM     54  C   UNL A   1      45.434  36.775  28.192  1.00  0.00     0.000 A 
ENDBRANCH  36  49
ENDBRANCH  10  11
ENDBRANCH   3   5
ENDBRANCH   2   3
ENDBRANCH   1   2
BRANCH   1  55
ATOM     55  C   UNL A   1      36.745  20.596  24.996  1.00  0.00     0.274 C 
BRANCH  55  56
ATOM     56  O   UNL A   1      36.581  21.702  24.064  1.00  0.00    -0.458 OA
BRANCH  56  57
ATOM     57  C   UNL A   1      36.443  23.043  24.414  1.00  0.00     0.365 C 
ATOM     58  O   UNL A   1      37.387  23.782  24.645  1.00  0.00    -0.245 OA
BRANCH  57  59
ATOM     59  C   UNL A   1      34.877  23.414  24.621  1.00  0.00     0.298 C 
ATOM     60  C   UNL A   1      33.482  22.999  23.630  1.00  0.00     0.111 C 
ATOM     61  N   UNL A   1      34.747  23.335  26.105  1.00  0.00    -0.326 N 
ATOM     62  C   UNL A   1      32.394  21.713  24.132  1.00  0.00    -0.024 C 
ATOM     63  C   UNL A   1      33.396  23.325  26.551  1.00  0.00     0.246 C 
ATOM     64  H   UNL A   1      35.218  24.141  26.515  1.00  0.00     0.347 HD
ATOM     65  H   UNL A   1      35.168  22.453  26.398  1.00  0.00     0.347 HD
ATOM     66  C   UNL A   1      32.344  20.047  23.782  1.00  0.00     0.002 A 
ATOM     67  C   UNL A   1      32.799  21.949  26.039  1.00  0.00     0.196 C 
ATOM     68  C   UNL A   1      32.544  19.170  22.602  1.00  0.00     0.010 A 
ATOM     69  C   UNL A   1      32.897  18.990  25.416  1.00  0.00     0.066 A 
ATOM     70  N   UNL A   1      33.187  20.034  26.712  1.00  0.00    -0.270 NA
ATOM     71  C   UNL A   1      32.991  17.903  22.734  1.00  0.00     0.001 A 
ATOM     72  C   UNL A   1      33.237  17.582  25.236  1.00  0.00     0.028 A 
ATOM     73  C   UNL A   1      33.299  17.160  23.963  1.00  0.00     0.002 A 
BRANCH  63  74
ATOM     74  C   UNL A   1      32.700  24.665  26.076  1.00  0.00     0.048 A 
ATOM     75  C   UNL A   1      33.389  25.876  25.873  1.00  0.00     0.013 A 
ATOM     76  C   UNL A   1      31.286  24.750  26.036  1.00  0.00     0.132 A 
ATOM     77  C   UNL A   1      32.704  27.109  25.894  1.00  0.00     0.001 A 
ATOM     78  C   UNL A   1      30.610  25.970  26.123  1.00  0.00     0.040 A 
ATOM     79  F   UNL A   1      30.528  23.644  26.074  1.00  0.00    -0.206 F 
ATOM     80  C   UNL A   1      31.325  27.158  26.094  1.00  0.00     0.003 A 
ENDBRANCH  63  74
ENDBRANCH  57  59
ENDBRANCH  56  57
ENDBRANCH  55  56
ENDBRANCH   1  55
TORSDOF 12
ENDMDL
