MODEL 1
REMARK VINA RESULT:     -11.1      0.000      0.000
REMARK SMILES O=C(OCCOC(=O)c1ccc(F)c(NS(=O)(=O)c2cc(Cl)sc2Cl)c1)c1ccc(-c2c3nc(c(-c4ccccc4)c4ccc([nH]4)c(-c4ccccc4)c4nc(c(-c5ccccc5)c5ccc2[nH]5)C=C4)C=C3)cc1
REMARK SMILES IDX 5 1 4 2 3 3 2 4 1 5 27 6 28 7 74 8 29 9 73 10 30 11 31 12
REMARK SMILES IDX 32 13 67 14 33 15 72 16 66 17 68 18 34 19 71 20 65 21 64 22
REMARK SMILES IDX 35 24 57 25 42 26 56 27 43 28 46 29 55 30 69 31 44 32 45 33
REMARK SMILES IDX 54 35 70 36 47 37 36 38 37 39 41 40 38 41 40 42 39 43 58 44
REMARK SMILES IDX 59 45 63 46 60 47 62 48 61 49 48 50 49 51 53 52 50 53 52 54
REMARK SMILES IDX 51 55 6 56 7 57 8 58 9 59 10 60 26 61 11 62 14 63 12 64
REMARK SMILES IDX 13 65 15 66 16 68 17 69 18 70 19 71 20 72 24 73 21 74 23 75
REMARK SMILES IDX 25 76 22 77
REMARK H PARENT 68 23 46 34 15 67
REMARK Flexibility Score: inf
ROOT
ATOM      1  C   UNL A   1      31.542  31.562  26.571  1.00  0.00     0.275 C 
ENDROOT
BRANCH   1   2
ATOM      2  C   UNL A   1      32.567  32.467  27.267  1.00  0.00     0.275 C 
BRANCH   2   3
ATOM      3  O   UNL A   1      32.171  33.809  27.620  1.00  0.00    -0.458 OA
BRANCH   3   4
ATOM      4  C   UNL A   1      32.909  34.616  28.411  1.00  0.00     0.338 C 
ATOM      5  O   UNL A   1      32.545  35.755  28.681  1.00  0.00    -0.246 OA
BRANCH   4   6
ATOM      6  C   UNL A   1      34.127  34.044  29.069  1.00  0.00     0.060 A 
ATOM      7  C   UNL A   1      34.124  33.249  30.216  1.00  0.00     0.016 A 
ATOM      8  C   UNL A   1      35.355  34.288  28.437  1.00  0.00     0.016 A 
ATOM      9  C   UNL A   1      35.301  32.646  30.667  1.00  0.00     0.010 A 
ATOM     10  C   UNL A   1      36.529  33.676  28.866  1.00  0.00     0.010 A 
ATOM     11  C   UNL A   1      36.506  32.843  29.986  1.00  0.00    -0.014 A 
BRANCH  11  12
ATOM     12  C   UNL A   1      37.751  32.216  30.473  1.00  0.00     0.031 A 
ATOM     13  C   UNL A   1      38.489  32.841  31.617  1.00  0.00     0.074 A 
ATOM     14  C   UNL A   1      38.212  31.099  29.880  1.00  0.00     0.049 A 
ATOM     15  N   UNL A   1      39.550  32.408  32.244  1.00  0.00    -0.248 NA
ATOM     16  C   UNL A   1      37.962  34.116  32.129  1.00  0.00     0.031 C 
ATOM     17  C   UNL A   1      37.575  30.415  28.754  1.00  0.00     0.029 A 
ATOM     18  N   UNL A   1      39.331  30.350  30.132  1.00  0.00    -0.354 N 
ATOM     19  C   UNL A   1      39.795  33.337  33.245  1.00  0.00     0.074 A 
ATOM     20  C   UNL A   1      38.826  34.400  33.091  1.00  0.00     0.031 C 
ATOM     21  C   UNL A   1      38.331  29.367  28.389  1.00  0.00     0.029 A 
ATOM     22  C   UNL A   1      39.494  29.296  29.266  1.00  0.00     0.049 A 
ATOM     23  H   UNL A   1      39.959  30.548  30.864  1.00  0.00     0.167 HD
ATOM     24  C   UNL A   1      40.716  33.284  34.234  1.00  0.00     0.031 A 
ATOM     25  C   UNL A   1      40.468  28.371  29.200  1.00  0.00     0.031 A 
ATOM     26  C   UNL A   1      41.687  32.234  34.362  1.00  0.00     0.049 A 
ATOM     27  C   UNL A   1      41.527  28.369  30.266  1.00  0.00     0.074 A 
ATOM     28  C   UNL A   1      42.644  32.052  35.344  1.00  0.00     0.029 A 
ATOM     29  N   UNL A   1      41.827  31.187  33.463  1.00  0.00    -0.354 N 
ATOM     30  N   UNL A   1      41.680  29.194  31.274  1.00  0.00    -0.248 NA
ATOM     31  C   UNL A   1      42.515  27.284  30.215  1.00  0.00     0.031 C 
ATOM     32  C   UNL A   1      43.388  30.913  35.016  1.00  0.00     0.029 A 
ATOM     33  C   UNL A   1      42.867  30.364  33.854  1.00  0.00     0.049 A 
ATOM     34  H   UNL A   1      41.269  31.051  32.663  1.00  0.00     0.167 HD
ATOM     35  C   UNL A   1      42.748  28.700  32.008  1.00  0.00     0.074 A 
ATOM     36  C   UNL A   1      43.208  27.506  31.324  1.00  0.00     0.031 C 
ATOM     37  C   UNL A   1      43.291  29.179  33.154  1.00  0.00     0.031 A 
BRANCH  24  38
ATOM     38  C   UNL A   1      40.685  34.393  35.246  1.00  0.00    -0.014 A 
ATOM     39  C   UNL A   1      41.469  35.546  35.069  1.00  0.00     0.009 A 
ATOM     40  C   UNL A   1      39.889  34.282  36.395  1.00  0.00     0.009 A 
ATOM     41  C   UNL A   1      41.493  36.544  36.045  1.00  0.00     0.001 A 
ATOM     42  C   UNL A   1      39.897  35.295  37.358  1.00  0.00     0.001 A 
ATOM     43  C   UNL A   1      40.707  36.417  37.188  1.00  0.00     0.000 A 
ENDBRANCH  24  38
BRANCH  25  44
ATOM     44  C   UNL A   1      40.451  27.346  28.124  1.00  0.00    -0.014 A 
ATOM     45  C   UNL A   1      39.758  26.138  28.291  1.00  0.00     0.009 A 
ATOM     46  C   UNL A   1      41.124  27.579  26.914  1.00  0.00     0.009 A 
ATOM     47  C   UNL A   1      39.762  25.173  27.280  1.00  0.00     0.001 A 
ATOM     48  C   UNL A   1      41.108  26.622  25.896  1.00  0.00     0.001 A 
ATOM     49  C   UNL A   1      40.435  25.417  26.083  1.00  0.00     0.000 A 
ENDBRANCH  25  44
BRANCH  37  50
ATOM     50  C   UNL A   1      44.406  28.379  33.761  1.00  0.00    -0.014 A 
ATOM     51  C   UNL A   1      45.747  28.650  33.454  1.00  0.00     0.009 A 
ATOM     52  C   UNL A   1      44.104  27.372  34.691  1.00  0.00     0.009 A 
ATOM     53  C   UNL A   1      46.767  27.904  34.047  1.00  0.00     0.001 A 
ATOM     54  C   UNL A   1      45.127  26.646  35.301  1.00  0.00     0.001 A 
ATOM     55  C   UNL A   1      46.456  26.908  34.974  1.00  0.00     0.000 A 
ENDBRANCH  37  50
ENDBRANCH  11  12
ENDBRANCH   4   6
ENDBRANCH   3   4
ENDBRANCH   2   3
ENDBRANCH   1   2
BRANCH   1  56
ATOM     56  O   UNL A   1      32.132  30.406  25.954  1.00  0.00    -0.458 OA
BRANCH  56  57
ATOM     57  C   UNL A   1      31.815  29.218  26.536  1.00  0.00     0.338 C 
ATOM     58  O   UNL A   1      31.646  28.993  27.720  1.00  0.00    -0.246 OA
BRANCH  57  59
ATOM     59  C   UNL A   1      31.586  28.210  25.484  1.00  0.00     0.062 A 
ATOM     60  C   UNL A   1      31.686  28.560  24.134  1.00  0.00     0.019 A 
ATOM     61  C   UNL A   1      31.241  26.905  25.874  1.00  0.00     0.045 A 
ATOM     62  C   UNL A   1      31.425  27.597  23.161  1.00  0.00     0.042 A 
ATOM     63  C   UNL A   1      30.945  25.950  24.900  1.00  0.00     0.085 A 
ATOM     64  C   UNL A   1      31.032  26.318  23.550  1.00  0.00     0.147 A 
ATOM     65  F   UNL A   1      30.707  25.423  22.604  1.00  0.00    -0.205 F 
BRANCH  63  66
ATOM     66  N   UNL A   1      30.355  24.670  25.199  1.00  0.00    -0.277 N 
ATOM     67  H   UNL A   1      29.436  24.471  24.910  1.00  0.00     0.180 HD
BRANCH  66  68
ATOM     68  S   UNL A   1      31.245  23.513  26.050  1.00  0.00     0.264 S 
ATOM     69  O   UNL A   1      31.488  24.081  27.357  1.00  0.00    -0.201 OA
ATOM     70  O   UNL A   1      30.622  22.225  25.865  1.00  0.00    -0.201 OA
BRANCH  68  71
ATOM     71  C   UNL A   1      32.825  23.409  25.372  1.00  0.00     0.118 A 
ATOM     72  C   UNL A   1      34.009  23.656  26.142  1.00  0.00     0.056 A 
ATOM     73  C   UNL A   1      33.138  23.024  24.092  1.00  0.00     0.115 A 
ATOM     74  C   UNL A   1      35.134  23.557  25.365  1.00  0.00     0.096 A 
ATOM     75  S   UNL A   1      34.811  23.088  23.773  1.00  0.00    -0.110 S 
ATOM     76  Cl  UNL A   1      32.108  22.491  22.824  1.00  0.00    -0.071 Cl
ATOM     77  Cl  UNL A   1      36.750  23.846  25.866  1.00  0.00    -0.072 Cl
ENDBRANCH  68  71
ENDBRANCH  66  68
ENDBRANCH  63  66
ENDBRANCH  57  59
ENDBRANCH  56  57
ENDBRANCH   1  56
TORSDOF 14
ENDMDL
MODEL 2
REMARK VINA RESULT:     -11.1      4.524      9.324
REMARK SMILES O=C(OCCOC(=O)c1ccc(F)c(NS(=O)(=O)c2cc(Cl)sc2Cl)c1)c1ccc(-c2c3nc(c(-c4ccccc4)c4ccc([nH]4)c(-c4ccccc4)c4nc(c(-c5ccccc5)c5ccc2[nH]5)C=C4)C=C3)cc1
REMARK SMILES IDX 5 1 4 2 3 3 2 4 1 5 27 6 28 7 74 8 29 9 73 10 30 11 31 12
REMARK SMILES IDX 32 13 67 14 33 15 72 16 66 17 68 18 34 19 71 20 65 21 64 22
REMARK SMILES IDX 35 24 57 25 42 26 56 27 43 28 46 29 55 30 69 31 44 32 45 33
REMARK SMILES IDX 54 35 70 36 47 37 36 38 37 39 41 40 38 41 40 42 39 43 58 44
REMARK SMILES IDX 59 45 63 46 60 47 62 48 61 49 48 50 49 51 53 52 50 53 52 54
REMARK SMILES IDX 51 55 6 56 7 57 8 58 9 59 10 60 26 61 11 62 14 63 12 64
REMARK SMILES IDX 13 65 15 66 16 68 17 69 18 70 19 71 20 72 24 73 21 74 23 75
REMARK SMILES IDX 25 76 22 77
REMARK H PARENT 68 23 46 34 15 67
REMARK Flexibility Score: inf
ROOT
ATOM      1  C   UNL A   1      37.939  21.097  25.334  1.00  0.00     0.275 C 
ENDROOT
BRANCH   1   2
ATOM      2  C   UNL A   1      38.680  19.822  24.909  1.00  0.00     0.275 C 
BRANCH   2   3
ATOM      3  O   UNL A   1      39.570  19.197  25.857  1.00  0.00    -0.458 OA
BRANCH   3   4
ATOM      4  C   UNL A   1      40.860  19.561  26.014  1.00  0.00     0.338 C 
ATOM      5  O   UNL A   1      41.778  18.856  25.610  1.00  0.00    -0.246 OA
BRANCH   4   6
ATOM      6  C   UNL A   1      41.152  20.917  26.577  1.00  0.00     0.060 A 
ATOM      7  C   UNL A   1      41.133  21.248  27.933  1.00  0.00     0.016 A 
ATOM      8  C   UNL A   1      41.531  21.909  25.661  1.00  0.00     0.016 A 
ATOM      9  C   UNL A   1      41.561  22.505  28.365  1.00  0.00     0.010 A 
ATOM     10  C   UNL A   1      41.980  23.158  26.082  1.00  0.00     0.010 A 
ATOM     11  C   UNL A   1      42.001  23.461  27.445  1.00  0.00    -0.014 A 
BRANCH  11  12
ATOM     12  C   UNL A   1      42.440  24.794  27.904  1.00  0.00     0.031 A 
ATOM     13  C   UNL A   1      43.905  25.097  27.986  1.00  0.00     0.074 A 
ATOM     14  C   UNL A   1      41.523  25.716  28.250  1.00  0.00     0.049 A 
ATOM     15  N   UNL A   1      44.494  26.224  28.286  1.00  0.00    -0.248 NA
ATOM     16  C   UNL A   1      44.829  23.991  27.687  1.00  0.00     0.031 C 
ATOM     17  C   UNL A   1      40.073  25.520  28.215  1.00  0.00     0.029 A 
ATOM     18  N   UNL A   1      41.672  26.996  28.714  1.00  0.00    -0.354 N 
ATOM     19  C   UNL A   1      45.854  25.971  28.175  1.00  0.00     0.074 A 
ATOM     20  C   UNL A   1      46.007  24.568  27.865  1.00  0.00     0.031 C 
ATOM     21  C   UNL A   1      39.466  26.628  28.671  1.00  0.00     0.029 A 
ATOM     22  C   UNL A   1      40.483  27.615  29.014  1.00  0.00     0.049 A 
ATOM     23  H   UNL A   1      42.549  27.432  28.821  1.00  0.00     0.167 HD
ATOM     24  C   UNL A   1      46.882  26.846  28.276  1.00  0.00     0.031 A 
ATOM     25  C   UNL A   1      40.246  28.848  29.498  1.00  0.00     0.031 A 
ATOM     26  C   UNL A   1      46.718  28.233  28.607  1.00  0.00     0.049 A 
ATOM     27  C   UNL A   1      41.407  29.785  29.674  1.00  0.00     0.074 A 
ATOM     28  C   UNL A   1      47.678  29.223  28.699  1.00  0.00     0.029 A 
ATOM     29  N   UNL A   1      45.500  28.823  28.911  1.00  0.00    -0.354 N 
ATOM     30  N   UNL A   1      42.682  29.562  29.457  1.00  0.00    -0.248 NA
ATOM     31  C   UNL A   1      41.095  31.151  30.110  1.00  0.00     0.031 C 
ATOM     32  C   UNL A   1      47.044  30.406  29.097  1.00  0.00     0.029 A 
ATOM     33  C   UNL A   1      45.684  30.161  29.211  1.00  0.00     0.049 A 
ATOM     34  H   UNL A   1      44.632  28.358  28.915  1.00  0.00     0.167 HD
ATOM     35  C   UNL A   1      43.319  30.774  29.681  1.00  0.00     0.074 A 
ATOM     36  C   UNL A   1      42.289  31.725  30.055  1.00  0.00     0.031 C 
ATOM     37  C   UNL A   1      44.636  31.080  29.570  1.00  0.00     0.031 A 
BRANCH  24  38
ATOM     38  C   UNL A   1      48.257  26.305  28.007  1.00  0.00    -0.014 A 
ATOM     39  C   UNL A   1      48.801  26.347  26.712  1.00  0.00     0.009 A 
ATOM     40  C   UNL A   1      49.008  25.732  29.042  1.00  0.00     0.009 A 
ATOM     41  C   UNL A   1      50.051  25.780  26.450  1.00  0.00     0.001 A 
ATOM     42  C   UNL A   1      50.269  25.188  28.781  1.00  0.00     0.001 A 
ATOM     43  C   UNL A   1      50.782  25.202  27.484  1.00  0.00     0.000 A 
ENDBRANCH  24  38
BRANCH  25  44
ATOM     44  C   UNL A   1      38.854  29.277  29.794  1.00  0.00    -0.014 A 
ATOM     45  C   UNL A   1      38.060  29.878  28.806  1.00  0.00     0.009 A 
ATOM     46  C   UNL A   1      38.308  29.074  31.072  1.00  0.00     0.009 A 
ATOM     47  C   UNL A   1      36.758  30.293  29.099  1.00  0.00     0.001 A 
ATOM     48  C   UNL A   1      36.998  29.470  31.356  1.00  0.00     0.001 A 
ATOM     49  C   UNL A   1      36.228  30.087  30.372  1.00  0.00     0.000 A 
ENDBRANCH  25  44
BRANCH  37  50
ATOM     50  C   UNL A   1      45.021  32.510  29.808  1.00  0.00    -0.014 A 
ATOM     51  C   UNL A   1      45.410  32.958  31.078  1.00  0.00     0.009 A 
ATOM     52  C   UNL A   1      45.038  33.407  28.729  1.00  0.00     0.009 A 
ATOM     53  C   UNL A   1      45.783  34.289  31.270  1.00  0.00     0.001 A 
ATOM     54  C   UNL A   1      45.435  34.731  28.918  1.00  0.00     0.001 A 
ATOM     55  C   UNL A   1      45.801  35.172  30.189  1.00  0.00     0.000 A 
ENDBRANCH  37  50
ENDBRANCH  11  12
ENDBRANCH   4   6
ENDBRANCH   3   4
ENDBRANCH   2   3
ENDBRANCH   1   2
BRANCH   1  56
ATOM     56  O   UNL A   1      36.577  21.140  24.878  1.00  0.00    -0.458 OA
BRANCH  56  57
ATOM     57  C   UNL A   1      36.280  22.179  24.052  1.00  0.00     0.338 C 
ATOM     58  O   UNL A   1      37.034  22.773  23.304  1.00  0.00    -0.246 OA
BRANCH  57  59
ATOM     59  C   UNL A   1      34.829  22.437  24.102  1.00  0.00     0.062 A 
ATOM     60  C   UNL A   1      34.018  21.749  25.010  1.00  0.00     0.019 A 
ATOM     61  C   UNL A   1      34.284  23.368  23.201  1.00  0.00     0.045 A 
ATOM     62  C   UNL A   1      32.644  21.984  25.008  1.00  0.00     0.042 A 
ATOM     63  C   UNL A   1      32.905  23.577  23.176  1.00  0.00     0.085 A 
ATOM     64  C   UNL A   1      32.101  22.867  24.079  1.00  0.00     0.147 A 
ATOM     65  F   UNL A   1      30.768  23.025  24.035  1.00  0.00    -0.205 F 
BRANCH  63  66
ATOM     66  N   UNL A   1      32.236  24.321  22.139  1.00  0.00    -0.277 N 
ATOM     67  H   UNL A   1      31.672  23.853  21.482  1.00  0.00     0.180 HD
BRANCH  66  68
ATOM     68  S   UNL A   1      32.421  25.998  22.054  1.00  0.00     0.264 S 
ATOM     69  O   UNL A   1      33.787  26.225  21.638  1.00  0.00    -0.201 OA
ATOM     70  O   UNL A   1      31.290  26.553  21.350  1.00  0.00    -0.201 OA
BRANCH  68  71
ATOM     71  C   UNL A   1      32.390  26.648  23.649  1.00  0.00     0.118 A 
ATOM     72  C   UNL A   1      33.509  27.340  24.219  1.00  0.00     0.056 A 
ATOM     73  C   UNL A   1      31.317  26.650  24.506  1.00  0.00     0.115 A 
ATOM     74  C   UNL A   1      33.251  27.717  25.512  1.00  0.00     0.096 A 
ATOM     75  S   UNL A   1      31.681  27.346  26.018  1.00  0.00    -0.110 S 
ATOM     76  Cl  UNL A   1      29.714  26.081  24.259  1.00  0.00    -0.071 Cl
ATOM     77  Cl  UNL A   1      34.338  28.503  26.583  1.00  0.00    -0.072 Cl
ENDBRANCH  68  71
ENDBRANCH  66  68
ENDBRANCH  63  66
ENDBRANCH  57  59
ENDBRANCH  56  57
ENDBRANCH   1  56
TORSDOF 14
ENDMDL
MODEL 3
REMARK VINA RESULT:     -11.0      4.194      8.650
REMARK SMILES O=C(OCCOC(=O)c1ccc(F)c(NS(=O)(=O)c2cc(Cl)sc2Cl)c1)c1ccc(-c2c3nc(c(-c4ccccc4)c4ccc([nH]4)c(-c4ccccc4)c4nc(c(-c5ccccc5)c5ccc2[nH]5)C=C4)C=C3)cc1
REMARK SMILES IDX 5 1 4 2 3 3 2 4 1 5 27 6 28 7 74 8 29 9 73 10 30 11 31 12
REMARK SMILES IDX 32 13 67 14 33 15 72 16 66 17 68 18 34 19 71 20 65 21 64 22
REMARK SMILES IDX 35 24 57 25 42 26 56 27 43 28 46 29 55 30 69 31 44 32 45 33
REMARK SMILES IDX 54 35 70 36 47 37 36 38 37 39 41 40 38 41 40 42 39 43 58 44
REMARK SMILES IDX 59 45 63 46 60 47 62 48 61 49 48 50 49 51 53 52 50 53 52 54
REMARK SMILES IDX 51 55 6 56 7 57 8 58 9 59 10 60 26 61 11 62 14 63 12 64
REMARK SMILES IDX 13 65 15 66 16 68 17 69 18 70 19 71 20 72 24 73 21 74 23 75
REMARK SMILES IDX 25 76 22 77
REMARK H PARENT 68 23 46 34 15 67
REMARK Flexibility Score: inf
ROOT
ATOM      1  C   UNL A   1      37.959  21.074  25.238  1.00  0.00     0.275 C 
ENDROOT
BRANCH   1   2
ATOM      2  C   UNL A   1      38.744  19.789  24.948  1.00  0.00     0.275 C 
BRANCH   2   3
ATOM      3  O   UNL A   1      39.599  19.257  25.982  1.00  0.00    -0.458 OA
BRANCH   3   4
ATOM      4  C   UNL A   1      40.894  19.609  26.127  1.00  0.00     0.338 C 
ATOM      5  O   UNL A   1      41.801  18.890  25.723  1.00  0.00    -0.246 OA
BRANCH   4   6
ATOM      6  C   UNL A   1      41.204  20.967  26.675  1.00  0.00     0.060 A 
ATOM      7  C   UNL A   1      41.097  21.338  28.016  1.00  0.00     0.016 A 
ATOM      8  C   UNL A   1      41.697  21.914  25.764  1.00  0.00     0.016 A 
ATOM      9  C   UNL A   1      41.549  22.588  28.446  1.00  0.00     0.010 A 
ATOM     10  C   UNL A   1      42.169  23.153  26.186  1.00  0.00     0.010 A 
ATOM     11  C   UNL A   1      42.102  23.495  27.538  1.00  0.00    -0.014 A 
BRANCH  11  12
ATOM     12  C   UNL A   1      42.566  24.821  27.994  1.00  0.00     0.031 A 
ATOM     13  C   UNL A   1      41.572  25.932  28.152  1.00  0.00     0.074 A 
ATOM     14  C   UNL A   1      43.871  25.018  28.254  1.00  0.00     0.049 A 
ATOM     15  N   UNL A   1      41.760  27.140  28.613  1.00  0.00    -0.248 NA
ATOM     16  C   UNL A   1      40.188  25.646  27.744  1.00  0.00     0.031 C 
ATOM     17  C   UNL A   1      44.921  24.007  28.124  1.00  0.00     0.029 A 
ATOM     18  N   UNL A   1      44.542  26.139  28.666  1.00  0.00    -0.354 N 
ATOM     19  C   UNL A   1      40.511  27.744  28.585  1.00  0.00     0.074 A 
ATOM     20  C   UNL A   1      39.592  26.804  27.984  1.00  0.00     0.031 C 
ATOM     21  C   UNL A   1      46.108  24.562  28.417  1.00  0.00     0.029 A 
ATOM     22  C   UNL A   1      45.900  25.961  28.771  1.00  0.00     0.049 A 
ATOM     23  H   UNL A   1      44.093  26.992  28.869  1.00  0.00     0.167 HD
ATOM     24  C   UNL A   1      40.154  28.959  29.063  1.00  0.00     0.031 A 
ATOM     25  C   UNL A   1      46.863  26.830  29.128  1.00  0.00     0.031 A 
ATOM     26  C   UNL A   1      41.082  29.892  29.638  1.00  0.00     0.049 A 
ATOM     27  C   UNL A   1      46.456  28.201  29.588  1.00  0.00     0.074 A 
ATOM     28  C   UNL A   1      40.832  31.134  30.191  1.00  0.00     0.029 A 
ATOM     29  N   UNL A   1      42.450  29.680  29.721  1.00  0.00    -0.354 N 
ATOM     30  N   UNL A   1      45.254  28.721  29.659  1.00  0.00    -0.248 NA
ATOM     31  C   UNL A   1      47.528  29.085  30.062  1.00  0.00     0.031 C 
ATOM     32  C   UNL A   1      42.058  31.690  30.575  1.00  0.00     0.029 A 
ATOM     33  C   UNL A   1      43.064  30.777  30.299  1.00  0.00     0.049 A 
ATOM     34  H   UNL A   1      42.916  28.870  29.412  1.00  0.00     0.167 HD
ATOM     35  C   UNL A   1      45.417  29.973  30.234  1.00  0.00     0.074 A 
ATOM     36  C   UNL A   1      46.837  30.135  30.486  1.00  0.00     0.031 C 
ATOM     37  C   UNL A   1      44.477  30.900  30.543  1.00  0.00     0.031 A 
BRANCH  24  38
ATOM     38  C   UNL A   1      38.697  29.313  28.986  1.00  0.00    -0.014 A 
ATOM     39  C   UNL A   1      38.166  29.913  27.831  1.00  0.00     0.009 A 
ATOM     40  C   UNL A   1      37.850  29.071  30.076  1.00  0.00     0.009 A 
ATOM     41  C   UNL A   1      36.827  30.306  27.788  1.00  0.00     0.001 A 
ATOM     42  C   UNL A   1      36.504  29.444  30.020  1.00  0.00     0.001 A 
ATOM     43  C   UNL A   1      35.999  30.072  28.882  1.00  0.00     0.000 A 
ENDBRANCH  24  38
BRANCH  25  44
ATOM     44  C   UNL A   1      48.288  26.409  29.115  1.00  0.00    -0.014 A 
ATOM     45  C   UNL A   1      48.876  25.824  30.246  1.00  0.00     0.009 A 
ATOM     46  C   UNL A   1      49.067  26.583  27.960  1.00  0.00     0.009 A 
ATOM     47  C   UNL A   1      50.222  25.446  30.230  1.00  0.00     0.001 A 
ATOM     48  C   UNL A   1      50.406  26.185  27.939  1.00  0.00     0.001 A 
ATOM     49  C   UNL A   1      50.984  25.625  29.077  1.00  0.00     0.000 A 
ENDBRANCH  25  44
BRANCH  37  50
ATOM     50  C   UNL A   1      44.955  32.144  31.232  1.00  0.00    -0.014 A 
ATOM     51  C   UNL A   1      45.410  33.252  30.502  1.00  0.00     0.009 A 
ATOM     52  C   UNL A   1      44.900  32.220  32.632  1.00  0.00     0.009 A 
ATOM     53  C   UNL A   1      45.830  34.405  31.166  1.00  0.00     0.001 A 
ATOM     54  C   UNL A   1      45.297  33.383  33.292  1.00  0.00     0.001 A 
ATOM     55  C   UNL A   1      45.767  34.471  32.559  1.00  0.00     0.000 A 
ENDBRANCH  37  50
ENDBRANCH  11  12
ENDBRANCH   4   6
ENDBRANCH   3   4
ENDBRANCH   2   3
ENDBRANCH   1   2
BRANCH   1  56
ATOM     56  O   UNL A   1      36.987  21.387  24.227  1.00  0.00    -0.458 OA
BRANCH  56  57
ATOM     57  C   UNL A   1      36.439  22.628  24.319  1.00  0.00     0.338 C 
ATOM     58  O   UNL A   1      37.009  23.675  24.563  1.00  0.00    -0.246 OA
BRANCH  57  59
ATOM     59  C   UNL A   1      35.010  22.554  23.961  1.00  0.00     0.062 A 
ATOM     60  C   UNL A   1      34.212  21.512  24.444  1.00  0.00     0.019 A 
ATOM     61  C   UNL A   1      34.483  23.538  23.108  1.00  0.00     0.045 A 
ATOM     62  C   UNL A   1      32.875  21.445  24.058  1.00  0.00     0.042 A 
ATOM     63  C   UNL A   1      33.154  23.451  22.693  1.00  0.00     0.085 A 
ATOM     64  C   UNL A   1      32.369  22.391  23.169  1.00  0.00     0.147 A 
ATOM     65  F   UNL A   1      31.102  22.270  22.743  1.00  0.00    -0.205 F 
BRANCH  63  66
ATOM     66  N   UNL A   1      32.597  24.264  21.642  1.00  0.00    -0.277 N 
ATOM     67  H   UNL A   1      32.248  23.843  20.824  1.00  0.00     0.180 HD
BRANCH  66  68
ATOM     68  S   UNL A   1      32.546  25.944  21.817  1.00  0.00     0.264 S 
ATOM     69  O   UNL A   1      33.879  26.415  21.516  1.00  0.00    -0.201 OA
ATOM     70  O   UNL A   1      31.373  26.443  21.140  1.00  0.00    -0.201 OA
BRANCH  68  71
ATOM     71  C   UNL A   1      32.366  26.329  23.486  1.00  0.00     0.118 A 
ATOM     72  C   UNL A   1      33.310  27.146  24.192  1.00  0.00     0.056 A 
ATOM     73  C   UNL A   1      31.310  25.983  24.292  1.00  0.00     0.115 A 
ATOM     74  C   UNL A   1      32.969  27.266  25.514  1.00  0.00     0.096 A 
ATOM     75  S   UNL A   1      31.508  26.507  25.901  1.00  0.00    -0.110 S 
ATOM     76  Cl  UNL A   1      29.865  25.138  23.905  1.00  0.00    -0.071 Cl
ATOM     77  Cl  UNL A   1      33.858  28.092  26.728  1.00  0.00    -0.072 Cl
ENDBRANCH  68  71
ENDBRANCH  66  68
ENDBRANCH  63  66
ENDBRANCH  57  59
ENDBRANCH  56  57
ENDBRANCH   1  56
TORSDOF 14
ENDMDL
