MODEL 1
REMARK VINA RESULT:     -12.0      0.000      0.000
REMARK SMILES CCC[NH+]1CCN(c2cc(C(=O)OCCOC(=O)c3ccc(-c4c5nc(c(-c6ccccc6)c6ccc([nH]6)c(-c6ccccc6)c6nc(c(-c7ccccc7)c7ccc4[nH]7)C=C6)C=C5)cc3)c3cc(NC(=O)c4ccc(F)cc4)ccc3n2)CC1
REMARK SMILES IDX 14 1 13 2 11 3 12 4 10 5 8 6 9 7 83 8 82 9 67 10 81 11 68 12
REMARK SMILES IDX 80 13 69 14 7 15 4 16 5 17 85 18 6 20 84 21 3 22 2 23 1 24
REMARK SMILES IDX 70 25 71 26 72 28 73 29 74 30 79 31 75 32 78 33 76 34 77 35
REMARK SMILES IDX 15 36 16 37 17 38 18 39 19 40 20 41 66 42 21 43 65 44 22 45
REMARK SMILES IDX 23 46 24 47 59 48 25 49 64 50 58 51 60 52 26 53 63 54 57 55
REMARK SMILES IDX 56 56 27 58 49 59 34 60 48 61 35 62 38 63 47 64 61 65 36 66
REMARK SMILES IDX 37 67 46 69 62 70 39 71 28 72 29 73 33 74 30 75 32 76 31 77
REMARK SMILES IDX 50 78 51 79 55 80 52 81 54 82 53 83 40 84 41 85 45 86 42 87
REMARK SMILES IDX 44 88 43 89
REMARK H PARENT 4 19 70 27 60 57 38 68
REMARK Flexibility Score: inf
ROOT
ATOM      1  C   UNL A   1      32.460  29.893  26.188  1.00  0.00     0.275 C 
ENDROOT
BRANCH   1   2
ATOM      2  O   UNL A   1      33.133  28.615  26.235  1.00  0.00    -0.458 OA
BRANCH   2   3
ATOM      3  C   UNL A   1      32.397  27.591  26.722  1.00  0.00     0.339 C 
ATOM      4  O   UNL A   1      31.631  27.649  27.672  1.00  0.00    -0.246 OA
BRANCH   3   5
ATOM      5  C   UNL A   1      32.459  26.406  25.836  1.00  0.00     0.073 A 
ATOM      6  C   UNL A   1      33.889  24.738  24.886  1.00  0.00     0.130 A 
ATOM      7  C   UNL A   1      33.695  25.758  25.785  1.00  0.00     0.063 A 
ATOM      8  N   UNL A   1      32.972  24.475  23.942  1.00  0.00    -0.231 NA
ATOM      9  C   UNL A   1      31.785  25.093  23.978  1.00  0.00     0.074 A 
ATOM     10  C   UNL A   1      31.423  26.021  24.967  1.00  0.00     0.017 A 
ATOM     11  C   UNL A   1      30.883  24.802  22.974  1.00  0.00     0.031 A 
ATOM     12  C   UNL A   1      30.090  26.506  24.997  1.00  0.00     0.037 A 
ATOM     13  C   UNL A   1      29.599  25.350  22.965  1.00  0.00     0.028 A 
ATOM     14  C   UNL A   1      29.171  26.177  24.006  1.00  0.00     0.042 A 
BRANCH   6  15
ATOM     15  N   UNL A   1      35.037  23.997  24.875  1.00  0.00    -0.345 N 
ATOM     16  N   UNL A   1      37.669  22.737  24.858  1.00  0.00    -0.332 N 
ATOM     17  C   UNL A   1      36.795  22.763  23.651  1.00  0.00     0.284 C 
ATOM     18  C   UNL A   1      37.344  23.919  25.682  1.00  0.00     0.284 C 
ATOM     19  H   UNL A   1      38.658  22.813  24.621  1.00  0.00     0.348 HD
ATOM     20  C   UNL A   1      35.271  22.906  23.932  1.00  0.00     0.179 C 
ATOM     21  C   UNL A   1      35.861  24.048  26.071  1.00  0.00     0.179 C 
BRANCH  16  22
ATOM     22  C   UNL A   1      37.571  21.436  25.536  1.00  0.00     0.262 C 
BRANCH  22  23
ATOM     23  C   UNL A   1      37.731  20.170  24.677  1.00  0.00     0.058 C 
ATOM     24  C   UNL A   1      36.631  19.134  24.877  1.00  0.00     0.010 C 
ENDBRANCH  22  23
ENDBRANCH  16  22
ENDBRANCH   6  15
BRANCH  14  25
ATOM     25  N   UNL A   1      27.823  26.570  23.964  1.00  0.00    -0.322 N 
ATOM     26  C   UNL A   1      27.170  27.755  23.736  1.00  0.00     0.255 C 
ATOM     27  H   UNL A   1      27.205  25.824  24.137  1.00  0.00     0.170 HD
ATOM     28  O   UNL A   1      25.956  27.820  23.936  1.00  0.00    -0.269 OA
BRANCH  26  29
ATOM     29  C   UNL A   1      27.841  28.972  23.264  1.00  0.00     0.040 A 
ATOM     30  C   UNL A   1      27.282  30.213  23.598  1.00  0.00     0.017 A 
ATOM     31  C   UNL A   1      28.951  28.890  22.415  1.00  0.00     0.017 A 
ATOM     32  C   UNL A   1      27.861  31.382  23.111  1.00  0.00     0.040 A 
ATOM     33  C   UNL A   1      29.529  30.065  21.936  1.00  0.00     0.040 A 
ATOM     34  C   UNL A   1      28.976  31.296  22.283  1.00  0.00     0.123 A 
ATOM     35  F   UNL A   1      29.559  32.423  21.850  1.00  0.00    -0.207 F 
ENDBRANCH  26  29
ENDBRANCH  14  25
ENDBRANCH   3   5
ENDBRANCH   2   3
ENDBRANCH   1   2
BRANCH   1  36
ATOM     36  C   UNL A   1      33.106  30.836  27.210  1.00  0.00     0.275 C 
BRANCH  36  37
ATOM     37  O   UNL A   1      34.237  30.173  27.804  1.00  0.00    -0.458 OA
BRANCH  37  38
ATOM     38  C   UNL A   1      35.049  30.983  28.514  1.00  0.00     0.338 C 
ATOM     39  O   UNL A   1      34.745  31.919  29.239  1.00  0.00    -0.246 OA
BRANCH  38  40
ATOM     40  C   UNL A   1      36.352  30.319  28.560  1.00  0.00     0.060 A 
ATOM     41  C   UNL A   1      36.735  29.780  29.787  1.00  0.00     0.016 A 
ATOM     42  C   UNL A   1      37.171  30.206  27.448  1.00  0.00     0.016 A 
ATOM     43  C   UNL A   1      37.986  29.218  29.960  1.00  0.00     0.010 A 
ATOM     44  C   UNL A   1      38.400  29.565  27.596  1.00  0.00     0.010 A 
ATOM     45  C   UNL A   1      38.831  29.100  28.858  1.00  0.00    -0.014 A 
BRANCH  45  46
ATOM     46  C   UNL A   1      40.195  28.550  29.014  1.00  0.00     0.031 A 
ATOM     47  C   UNL A   1      41.304  29.488  29.377  1.00  0.00     0.074 A 
ATOM     48  C   UNL A   1      40.439  27.247  28.785  1.00  0.00     0.049 A 
ATOM     49  N   UNL A   1      42.596  29.324  29.277  1.00  0.00    -0.248 NA
ATOM     50  C   UNL A   1      40.898  30.808  29.889  1.00  0.00     0.031 C 
ATOM     51  C   UNL A   1      39.429  26.225  28.501  1.00  0.00     0.029 A 
ATOM     52  N   UNL A   1      41.628  26.566  28.727  1.00  0.00    -0.354 N 
ATOM     53  C   UNL A   1      43.153  30.546  29.630  1.00  0.00     0.074 A 
ATOM     54  C   UNL A   1      42.061  31.440  29.946  1.00  0.00     0.031 C 
ATOM     55  C   UNL A   1      40.041  25.052  28.284  1.00  0.00     0.029 A 
ATOM     56  C   UNL A   1      41.482  25.263  28.320  1.00  0.00     0.049 A 
ATOM     57  H   UNL A   1      42.497  26.971  28.951  1.00  0.00     0.167 HD
ATOM     58  C   UNL A   1      44.461  30.889  29.663  1.00  0.00     0.031 A 
ATOM     59  C   UNL A   1      42.405  24.358  27.945  1.00  0.00     0.031 A 
ATOM     60  C   UNL A   1      45.525  29.968  29.358  1.00  0.00     0.049 A 
ATOM     61  C   UNL A   1      43.850  24.763  27.951  1.00  0.00     0.074 A 
ATOM     62  C   UNL A   1      46.890  30.183  29.389  1.00  0.00     0.029 A 
ATOM     63  N   UNL A   1      45.333  28.650  28.964  1.00  0.00    -0.354 N 
ATOM     64  N   UNL A   1      44.378  25.925  28.258  1.00  0.00    -0.248 NA
ATOM     65  C   UNL A   1      44.825  23.739  27.558  1.00  0.00     0.031 C 
ATOM     66  C   UNL A   1      47.522  29.013  28.953  1.00  0.00     0.029 A 
ATOM     67  C   UNL A   1      46.554  28.046  28.724  1.00  0.00     0.049 A 
ATOM     68  H   UNL A   1      44.457  28.210  28.870  1.00  0.00     0.167 HD
ATOM     69  C   UNL A   1      45.750  25.768  28.119  1.00  0.00     0.074 A 
ATOM     70  C   UNL A   1      45.969  24.393  27.711  1.00  0.00     0.031 C 
ATOM     71  C   UNL A   1      46.739  26.674  28.316  1.00  0.00     0.031 A 
BRANCH  58  72
ATOM     72  C   UNL A   1      44.792  32.326  29.960  1.00  0.00    -0.014 A 
ATOM     73  C   UNL A   1      44.862  33.303  28.952  1.00  0.00     0.009 A 
ATOM     74  C   UNL A   1      45.064  32.707  31.284  1.00  0.00     0.009 A 
ATOM     75  C   UNL A   1      45.257  34.608  29.255  1.00  0.00     0.001 A 
ATOM     76  C   UNL A   1      45.421  34.020  31.591  1.00  0.00     0.001 A 
ATOM     77  C   UNL A   1      45.533  34.966  30.574  1.00  0.00     0.000 A 
ENDBRANCH  58  72
BRANCH  59  78
ATOM     78  C   UNL A   1      41.967  23.015  27.483  1.00  0.00    -0.014 A 
ATOM     79  C   UNL A   1      41.794  21.965  28.395  1.00  0.00     0.009 A 
ATOM     80  C   UNL A   1      41.657  22.794  26.129  1.00  0.00     0.009 A 
ATOM     81  C   UNL A   1      41.325  20.722  27.962  1.00  0.00     0.001 A 
ATOM     82  C   UNL A   1      41.158  21.562  25.704  1.00  0.00     0.001 A 
ATOM     83  C   UNL A   1      40.996  20.524  26.621  1.00  0.00     0.000 A 
ENDBRANCH  59  78
BRANCH  71  84
ATOM     84  C   UNL A   1      48.150  26.192  28.140  1.00  0.00    -0.014 A 
ATOM     85  C   UNL A   1      48.875  25.635  29.205  1.00  0.00     0.009 A 
ATOM     86  C   UNL A   1      48.741  26.248  26.867  1.00  0.00     0.009 A 
ATOM     87  C   UNL A   1      50.177  25.172  29.003  1.00  0.00     0.001 A 
ATOM     88  C   UNL A   1      50.029  25.753  26.662  1.00  0.00     0.001 A 
ATOM     89  C   UNL A   1      50.748  25.225  27.731  1.00  0.00     0.000 A 
ENDBRANCH  71  84
ENDBRANCH  45  46
ENDBRANCH  38  40
ENDBRANCH  37  38
ENDBRANCH  36  37
ENDBRANCH   1  36
TORSDOF 16
ENDMDL
MODEL 2
REMARK VINA RESULT:     -11.4      4.528      9.355
REMARK SMILES CCC[NH+]1CCN(c2cc(C(=O)OCCOC(=O)c3ccc(-c4c5nc(c(-c6ccccc6)c6ccc([nH]6)c(-c6ccccc6)c6nc(c(-c7ccccc7)c7ccc4[nH]7)C=C6)C=C5)cc3)c3cc(NC(=O)c4ccc(F)cc4)ccc3n2)CC1
REMARK SMILES IDX 14 1 13 2 11 3 12 4 10 5 8 6 9 7 83 8 82 9 67 10 81 11 68 12
REMARK SMILES IDX 80 13 69 14 7 15 4 16 5 17 85 18 6 20 84 21 3 22 2 23 1 24
REMARK SMILES IDX 70 25 71 26 72 28 73 29 74 30 79 31 75 32 78 33 76 34 77 35
REMARK SMILES IDX 15 36 16 37 17 38 18 39 19 40 20 41 66 42 21 43 65 44 22 45
REMARK SMILES IDX 23 46 24 47 59 48 25 49 64 50 58 51 60 52 26 53 63 54 57 55
REMARK SMILES IDX 56 56 27 58 49 59 34 60 48 61 35 62 38 63 47 64 61 65 36 66
REMARK SMILES IDX 37 67 46 69 62 70 39 71 28 72 29 73 33 74 30 75 32 76 31 77
REMARK SMILES IDX 50 78 51 79 55 80 52 81 54 82 53 83 40 84 41 85 45 86 42 87
REMARK SMILES IDX 44 88 43 89
REMARK H PARENT 4 19 70 27 60 57 38 68
REMARK Flexibility Score: inf
ROOT
ATOM      1  C   UNL A   1      37.023  21.546  25.074  1.00  0.00     0.275 C 
ENDROOT
BRANCH   1   2
ATOM      2  O   UNL A   1      36.406  22.846  25.202  1.00  0.00    -0.458 OA
BRANCH   2   3
ATOM      3  C   UNL A   1      35.967  23.395  24.048  1.00  0.00     0.339 C 
ATOM      4  O   UNL A   1      36.498  23.280  22.954  1.00  0.00    -0.246 OA
BRANCH   3   5
ATOM      5  C   UNL A   1      34.626  24.000  24.207  1.00  0.00     0.073 A 
ATOM      6  C   UNL A   1      33.367  25.728  25.285  1.00  0.00     0.130 A 
ATOM      7  C   UNL A   1      34.581  25.173  24.964  1.00  0.00     0.063 A 
ATOM      8  N   UNL A   1      32.226  25.067  25.034  1.00  0.00    -0.231 NA
ATOM      9  C   UNL A   1      32.255  23.939  24.314  1.00  0.00     0.074 A 
ATOM     10  C   UNL A   1      33.433  23.387  23.785  1.00  0.00     0.017 A 
ATOM     11  C   UNL A   1      31.058  23.287  24.099  1.00  0.00     0.031 A 
ATOM     12  C   UNL A   1      33.336  22.272  22.913  1.00  0.00     0.037 A 
ATOM     13  C   UNL A   1      30.984  22.139  23.307  1.00  0.00     0.028 A 
ATOM     14  C   UNL A   1      32.120  21.643  22.666  1.00  0.00     0.042 A 
BRANCH   6  15
ATOM     15  N   UNL A   1      33.271  26.933  25.922  1.00  0.00    -0.345 N 
ATOM     16  N   UNL A   1      33.320  29.376  27.518  1.00  0.00    -0.332 N 
ATOM     17  C   UNL A   1      32.170  28.429  27.553  1.00  0.00     0.284 C 
ATOM     18  C   UNL A   1      34.535  28.605  27.182  1.00  0.00     0.284 C 
ATOM     19  H   UNL A   1      33.494  29.808  28.426  1.00  0.00     0.348 HD
ATOM     20  C   UNL A   1      31.995  27.542  26.286  1.00  0.00     0.179 C 
ATOM     21  C   UNL A   1      34.444  27.791  25.880  1.00  0.00     0.179 C 
BRANCH  16  22
ATOM     22  C   UNL A   1      33.020  30.516  26.640  1.00  0.00     0.262 C 
BRANCH  22  23
ATOM     23  C   UNL A   1      31.654  31.204  26.805  1.00  0.00     0.058 C 
ATOM     24  C   UNL A   1      30.853  31.322  25.514  1.00  0.00     0.010 C 
ENDBRANCH  22  23
ENDBRANCH  16  22
ENDBRANCH   6  15
BRANCH  14  25
ATOM     25  N   UNL A   1      31.911  20.562  21.793  1.00  0.00    -0.322 N 
ATOM     26  C   UNL A   1      32.199  19.221  21.831  1.00  0.00     0.255 C 
ATOM     27  H   UNL A   1      31.450  20.827  20.965  1.00  0.00     0.170 HD
ATOM     28  O   UNL A   1      32.035  18.542  20.817  1.00  0.00    -0.269 OA
BRANCH  26  29
ATOM     29  C   UNL A   1      32.704  18.535  23.026  1.00  0.00     0.040 A 
ATOM     30  C   UNL A   1      33.516  17.406  22.853  1.00  0.00     0.017 A 
ATOM     31  C   UNL A   1      32.299  18.937  24.304  1.00  0.00     0.017 A 
ATOM     32  C   UNL A   1      33.957  16.697  23.968  1.00  0.00     0.040 A 
ATOM     33  C   UNL A   1      32.748  18.226  25.416  1.00  0.00     0.040 A 
ATOM     34  C   UNL A   1      33.567  17.113  25.237  1.00  0.00     0.123 A 
ATOM     35  F   UNL A   1      34.027  16.457  26.312  1.00  0.00    -0.207 F 
ENDBRANCH  26  29
ENDBRANCH  14  25
ENDBRANCH   3   5
ENDBRANCH   2   3
ENDBRANCH   1   2
BRANCH   1  36
ATOM     36  C   UNL A   1      38.480  21.636  25.544  1.00  0.00     0.275 C 
BRANCH  36  37
ATOM     37  O   UNL A   1      38.687  22.911  26.178  1.00  0.00    -0.458 OA
BRANCH  37  38
ATOM     38  C   UNL A   1      39.973  23.184  26.475  1.00  0.00     0.338 C 
ATOM     39  O   UNL A   1      40.985  22.680  26.009  1.00  0.00    -0.246 OA
BRANCH  38  40
ATOM     40  C   UNL A   1      39.967  24.458  27.195  1.00  0.00     0.060 A 
ATOM     41  C   UNL A   1      40.746  25.482  26.659  1.00  0.00     0.016 A 
ATOM     42  C   UNL A   1      39.218  24.662  28.342  1.00  0.00     0.016 A 
ATOM     43  C   UNL A   1      40.883  26.691  27.313  1.00  0.00     0.010 A 
ATOM     44  C   UNL A   1      39.287  25.909  28.962  1.00  0.00     0.010 A 
ATOM     45  C   UNL A   1      40.147  26.918  28.474  1.00  0.00    -0.014 A 
BRANCH  45  46
ATOM     46  C   UNL A   1      40.305  28.180  29.229  1.00  0.00     0.031 A 
ATOM     47  C   UNL A   1      41.422  28.281  30.221  1.00  0.00     0.074 A 
ATOM     48  C   UNL A   1      39.434  29.192  29.064  1.00  0.00     0.049 A 
ATOM     49  N   UNL A   1      41.590  29.130  31.198  1.00  0.00    -0.248 NA
ATOM     50  C   UNL A   1      42.478  27.259  30.117  1.00  0.00     0.031 C 
ATOM     51  C   UNL A   1      38.354  29.238  28.076  1.00  0.00     0.029 A 
ATOM     52  N   UNL A   1      39.305  30.370  29.753  1.00  0.00    -0.354 N 
ATOM     53  C   UNL A   1      42.720  28.694  31.878  1.00  0.00     0.074 A 
ATOM     54  C   UNL A   1      43.196  27.508  31.201  1.00  0.00     0.031 C 
ATOM     55  C   UNL A   1      37.665  30.377  28.231  1.00  0.00     0.029 A 
ATOM     56  C   UNL A   1      38.195  31.090  29.386  1.00  0.00     0.049 A 
ATOM     57  H   UNL A   1      39.942  30.668  30.442  1.00  0.00     0.167 HD
ATOM     58  C   UNL A   1      43.289  29.232  32.982  1.00  0.00     0.031 A 
ATOM     59  C   UNL A   1      37.622  32.163  29.961  1.00  0.00     0.031 A 
ATOM     60  C   UNL A   1      42.799  30.424  33.620  1.00  0.00     0.049 A 
ATOM     61  C   UNL A   1      38.243  32.726  31.206  1.00  0.00     0.074 A 
ATOM     62  C   UNL A   1      43.306  31.088  34.721  1.00  0.00     0.029 A 
ATOM     63  N   UNL A   1      41.677  31.132  33.206  1.00  0.00    -0.354 N 
ATOM     64  N   UNL A   1      39.295  32.301  31.867  1.00  0.00    -0.248 NA
ATOM     65  C   UNL A   1      37.601  33.911  31.788  1.00  0.00     0.031 C 
ATOM     66  C   UNL A   1      42.456  32.160  35.011  1.00  0.00     0.029 A 
ATOM     67  C   UNL A   1      41.461  32.210  34.045  1.00  0.00     0.049 A 
ATOM     68  H   UNL A   1      41.118  30.900  32.430  1.00  0.00     0.167 HD
ATOM     69  C   UNL A   1      39.458  33.180  32.929  1.00  0.00     0.074 A 
ATOM     70  C   UNL A   1      38.400  34.167  32.815  1.00  0.00     0.031 C 
ATOM     71  C   UNL A   1      40.397  33.175  33.907  1.00  0.00     0.031 A 
BRANCH  58  72
ATOM     72  C   UNL A   1      44.442  28.486  33.597  1.00  0.00    -0.014 A 
ATOM     73  C   UNL A   1      45.776  28.745  33.242  1.00  0.00     0.009 A 
ATOM     74  C   UNL A   1      44.181  27.478  34.540  1.00  0.00     0.009 A 
ATOM     75  C   UNL A   1      46.814  27.972  33.770  1.00  0.00     0.001 A 
ATOM     76  C   UNL A   1      45.221  26.733  35.096  1.00  0.00     0.001 A 
ATOM     77  C   UNL A   1      46.536  26.970  34.698  1.00  0.00     0.000 A 
ENDBRANCH  58  72
BRANCH  59  78
ATOM     78  C   UNL A   1      36.369  32.719  29.387  1.00  0.00    -0.014 A 
ATOM     79  C   UNL A   1      35.117  32.248  29.808  1.00  0.00     0.009 A 
ATOM     80  C   UNL A   1      36.418  33.770  28.455  1.00  0.00     0.009 A 
ATOM     81  C   UNL A   1      33.943  32.817  29.307  1.00  0.00     0.001 A 
ATOM     82  C   UNL A   1      35.245  34.358  27.981  1.00  0.00     0.001 A 
ATOM     83  C   UNL A   1      34.006  33.877  28.404  1.00  0.00     0.000 A 
ENDBRANCH  59  78
BRANCH  71  84
ATOM     84  C   UNL A   1      40.353  34.300  34.900  1.00  0.00    -0.014 A 
ATOM     85  C   UNL A   1      39.649  34.187  36.108  1.00  0.00     0.009 A 
ATOM     86  C   UNL A   1      41.078  35.474  34.639  1.00  0.00     0.009 A 
ATOM     87  C   UNL A   1      39.648  35.242  37.022  1.00  0.00     0.001 A 
ATOM     88  C   UNL A   1      41.102  36.513  35.569  1.00  0.00     0.001 A 
ATOM     89  C   UNL A   1      40.380  36.399  36.755  1.00  0.00     0.000 A 
ENDBRANCH  71  84
ENDBRANCH  45  46
ENDBRANCH  38  40
ENDBRANCH  37  38
ENDBRANCH  36  37
ENDBRANCH   1  36
TORSDOF 16
ENDMDL
MODEL 3
REMARK VINA RESULT:     -11.3      3.101      6.715
REMARK SMILES CCC[NH+]1CCN(c2cc(C(=O)OCCOC(=O)c3ccc(-c4c5nc(c(-c6ccccc6)c6ccc([nH]6)c(-c6ccccc6)c6nc(c(-c7ccccc7)c7ccc4[nH]7)C=C6)C=C5)cc3)c3cc(NC(=O)c4ccc(F)cc4)ccc3n2)CC1
REMARK SMILES IDX 14 1 13 2 11 3 12 4 10 5 8 6 9 7 83 8 82 9 67 10 81 11 68 12
REMARK SMILES IDX 80 13 69 14 7 15 4 16 5 17 85 18 6 20 84 21 3 22 2 23 1 24
REMARK SMILES IDX 70 25 71 26 72 28 73 29 74 30 79 31 75 32 78 33 76 34 77 35
REMARK SMILES IDX 15 36 16 37 17 38 18 39 19 40 20 41 66 42 21 43 65 44 22 45
REMARK SMILES IDX 23 46 24 47 59 48 25 49 64 50 58 51 60 52 26 53 63 54 57 55
REMARK SMILES IDX 56 56 27 58 49 59 34 60 48 61 35 62 38 63 47 64 61 65 36 66
REMARK SMILES IDX 37 67 46 69 62 70 39 71 28 72 29 73 33 74 30 75 32 76 31 77
REMARK SMILES IDX 50 78 51 79 55 80 52 81 54 82 53 83 40 84 41 85 45 86 42 87
REMARK SMILES IDX 44 88 43 89
REMARK H PARENT 4 19 70 27 60 57 38 68
REMARK Flexibility Score: inf
ROOT
ATOM      1  C   UNL A   1      36.738  23.287  23.495  1.00  0.00     0.275 C 
ENDROOT
BRANCH   1   2
ATOM      2  O   UNL A   1      35.507  23.109  22.759  1.00  0.00    -0.458 OA
BRANCH   2   3
ATOM      3  C   UNL A   1      34.420  23.708  23.295  1.00  0.00     0.339 C 
ATOM      4  O   UNL A   1      33.983  24.806  22.985  1.00  0.00    -0.246 OA
BRANCH   3   5
ATOM      5  C   UNL A   1      33.670  22.788  24.179  1.00  0.00     0.073 A 
ATOM      6  C   UNL A   1      33.107  20.501  24.606  1.00  0.00     0.130 A 
ATOM      7  C   UNL A   1      33.866  21.426  23.934  1.00  0.00     0.063 A 
ATOM      8  N   UNL A   1      32.065  20.887  25.358  1.00  0.00    -0.231 NA
ATOM      9  C   UNL A   1      31.863  22.189  25.596  1.00  0.00     0.074 A 
ATOM     10  C   UNL A   1      32.694  23.206  25.101  1.00  0.00     0.017 A 
ATOM     11  C   UNL A   1      30.767  22.536  26.360  1.00  0.00     0.031 A 
ATOM     12  C   UNL A   1      32.478  24.539  25.534  1.00  0.00     0.037 A 
ATOM     13  C   UNL A   1      30.513  23.863  26.712  1.00  0.00     0.028 A 
ATOM     14  C   UNL A   1      31.396  24.879  26.339  1.00  0.00     0.042 A 
BRANCH   6  15
ATOM     15  N   UNL A   1      33.338  19.159  24.489  1.00  0.00    -0.345 N 
ATOM     16  N   UNL A   1      34.081  16.383  23.983  1.00  0.00    -0.332 N 
ATOM     17  C   UNL A   1      32.781  16.950  23.528  1.00  0.00     0.284 C 
ATOM     18  C   UNL A   1      35.064  17.484  24.044  1.00  0.00     0.284 C 
ATOM     19  H   UNL A   1      34.456  15.698  23.326  1.00  0.00     0.348 HD
ATOM     20  C   UNL A   1      32.267  18.177  24.336  1.00  0.00     0.179 C 
ATOM     21  C   UNL A   1      34.642  18.679  24.917  1.00  0.00     0.179 C 
BRANCH  16  22
ATOM     22  C   UNL A   1      33.901  15.615  25.224  1.00  0.00     0.262 C 
BRANCH  22  23
ATOM     23  C   UNL A   1      32.684  14.678  25.313  1.00  0.00     0.058 C 
ATOM     24  C   UNL A   1      31.766  14.954  26.497  1.00  0.00     0.010 C 
ENDBRANCH  22  23
ENDBRANCH  16  22
ENDBRANCH   6  15
BRANCH  14  25
ATOM     25  N   UNL A   1      31.115  26.156  26.852  1.00  0.00    -0.322 N 
ATOM     26  C   UNL A   1      31.446  27.437  26.489  1.00  0.00     0.255 C 
ATOM     27  H   UNL A   1      30.549  26.125  27.657  1.00  0.00     0.170 HD
ATOM     28  O   UNL A   1      31.180  28.366  27.252  1.00  0.00    -0.269 OA
BRANCH  26  29
ATOM     29  C   UNL A   1      32.112  27.773  25.225  1.00  0.00     0.040 A 
ATOM     30  C   UNL A   1      33.490  28.029  25.246  1.00  0.00     0.017 A 
ATOM     31  C   UNL A   1      31.371  27.935  24.049  1.00  0.00     0.017 A 
ATOM     32  C   UNL A   1      34.137  28.412  24.073  1.00  0.00     0.040 A 
ATOM     33  C   UNL A   1      32.026  28.314  22.878  1.00  0.00     0.040 A 
ATOM     34  C   UNL A   1      33.398  28.553  22.903  1.00  0.00     0.123 A 
ATOM     35  F   UNL A   1      34.028  28.880  21.766  1.00  0.00    -0.207 F 
ENDBRANCH  26  29
ENDBRANCH  14  25
ENDBRANCH   3   5
ENDBRANCH   2   3
ENDBRANCH   1   2
BRANCH   1  36
ATOM     36  C   UNL A   1      37.088  21.975  24.207  1.00  0.00     0.275 C 
BRANCH  36  37
ATOM     37  O   UNL A   1      37.401  22.263  25.583  1.00  0.00    -0.458 OA
BRANCH  37  38
ATOM     38  C   UNL A   1      38.578  21.757  26.004  1.00  0.00     0.338 C 
ATOM     39  O   UNL A   1      39.093  20.687  25.714  1.00  0.00    -0.246 OA
BRANCH  38  40
ATOM     40  C   UNL A   1      39.318  22.875  26.589  1.00  0.00     0.060 A 
ATOM     41  C   UNL A   1      38.900  24.156  26.231  1.00  0.00     0.016 A 
ATOM     42  C   UNL A   1      40.372  22.692  27.469  1.00  0.00     0.016 A 
ATOM     43  C   UNL A   1      39.593  25.276  26.653  1.00  0.00     0.010 A 
ATOM     44  C   UNL A   1      41.023  23.822  27.964  1.00  0.00     0.010 A 
ATOM     45  C   UNL A   1      40.662  25.117  27.532  1.00  0.00    -0.014 A 
BRANCH  45  46
ATOM     46  C   UNL A   1      41.457  26.286  27.965  1.00  0.00     0.031 A 
ATOM     47  C   UNL A   1      40.803  27.308  28.843  1.00  0.00     0.074 A 
ATOM     48  C   UNL A   1      42.722  26.451  27.538  1.00  0.00     0.049 A 
ATOM     49  N   UNL A   1      41.168  28.534  29.103  1.00  0.00    -0.248 NA
ATOM     50  C   UNL A   1      39.543  26.899  29.488  1.00  0.00     0.031 C 
ATOM     51  C   UNL A   1      43.489  25.488  26.744  1.00  0.00     0.029 A 
ATOM     52  N   UNL A   1      43.577  27.512  27.691  1.00  0.00    -0.354 N 
ATOM     53  C   UNL A   1      40.140  29.071  29.868  1.00  0.00     0.074 A 
ATOM     54  C   UNL A   1      39.141  28.038  30.030  1.00  0.00     0.031 C 
ATOM     55  C   UNL A   1      44.694  26.007  26.468  1.00  0.00     0.029 A 
ATOM     56  C   UNL A   1      44.744  27.370  26.982  1.00  0.00     0.049 A 
ATOM     57  H   UNL A   1      43.374  28.296  28.251  1.00  0.00     0.167 HD
ATOM     58  C   UNL A   1      40.040  30.324  30.368  1.00  0.00     0.031 A 
ATOM     59  C   UNL A   1      45.715  28.262  26.711  1.00  0.00     0.031 A 
ATOM     60  C   UNL A   1      41.062  31.323  30.203  1.00  0.00     0.049 A 
ATOM     61  C   UNL A   1      45.572  29.659  27.242  1.00  0.00     0.074 A 
ATOM     62  C   UNL A   1      41.095  32.616  30.690  1.00  0.00     0.029 A 
ATOM     63  N   UNL A   1      42.238  31.132  29.488  1.00  0.00    -0.354 N 
ATOM     64  N   UNL A   1      44.591  30.178  27.942  1.00  0.00    -0.248 NA
ATOM     65  C   UNL A   1      46.664  30.594  26.945  1.00  0.00     0.031 C 
ATOM     66  C   UNL A   1      42.261  33.228  30.217  1.00  0.00     0.029 A 
ATOM     67  C   UNL A   1      42.992  32.292  29.499  1.00  0.00     0.049 A 
ATOM     68  H   UNL A   1      42.496  30.295  29.040  1.00  0.00     0.167 HD
ATOM     69  C   UNL A   1      44.955  31.493  28.192  1.00  0.00     0.074 A 
ATOM     70  C   UNL A   1      46.255  31.686  27.575  1.00  0.00     0.031 C 
ATOM     71  C   UNL A   1      44.282  32.453  28.873  1.00  0.00     0.031 A 
BRANCH  58  72
ATOM     72  C   UNL A   1      38.755  30.690  31.062  1.00  0.00    -0.014 A 
ATOM     73  C   UNL A   1      38.576  30.522  32.444  1.00  0.00     0.009 A 
ATOM     74  C   UNL A   1      37.686  31.194  30.302  1.00  0.00     0.009 A 
ATOM     75  C   UNL A   1      37.340  30.792  33.038  1.00  0.00     0.001 A 
ATOM     76  C   UNL A   1      36.464  31.499  30.902  1.00  0.00     0.001 A 
ATOM     77  C   UNL A   1      36.287  31.282  32.268  1.00  0.00     0.000 A 
ENDBRANCH  58  72
BRANCH  59  78
ATOM     78  C   UNL A   1      46.860  27.860  25.854  1.00  0.00    -0.014 A 
ATOM     79  C   UNL A   1      48.019  27.309  26.418  1.00  0.00     0.009 A 
ATOM     80  C   UNL A   1      46.774  27.968  24.455  1.00  0.00     0.009 A 
ATOM     81  C   UNL A   1      49.067  26.877  25.601  1.00  0.00     0.001 A 
ATOM     82  C   UNL A   1      47.808  27.507  23.639  1.00  0.00     0.001 A 
ATOM     83  C   UNL A   1      48.958  26.966  24.213  1.00  0.00     0.000 A 
ENDBRANCH  59  78
BRANCH  71  84
ATOM     84  C   UNL A   1      44.962  33.783  29.028  1.00  0.00    -0.014 A 
ATOM     85  C   UNL A   1      45.842  34.039  30.090  1.00  0.00     0.009 A 
ATOM     86  C   UNL A   1      44.756  34.776  28.057  1.00  0.00     0.009 A 
ATOM     87  C   UNL A   1      46.478  35.278  30.193  1.00  0.00     0.001 A 
ATOM     88  C   UNL A   1      45.420  35.999  28.144  1.00  0.00     0.001 A 
ATOM     89  C   UNL A   1      46.273  36.252  29.216  1.00  0.00     0.000 A 
ENDBRANCH  71  84
ENDBRANCH  45  46
ENDBRANCH  38  40
ENDBRANCH  37  38
ENDBRANCH  36  37
ENDBRANCH   1  36
TORSDOF 16
ENDMDL
