MODEL 1
REMARK VINA RESULT:     -11.3      0.000      0.000
REMARK SMILES CCCCOc1ccc(NC(=O)[C@]2(C)CC[C@](C)(C(=O)OCCOC(=O)c3ccc(-c4c5nc(c(-c6ccccc6)c6ccc([nH]6)c(-c6ccccc6)c6nc(c(-c7ccccc7)c7ccc4[nH]7)C=C6)C=C5)cc3)C2(C)C)cc1
REMARK SMILES IDX 19 1 20 2 17 3 13 4 15 5 75 6 14 7 16 8 76 9 77 10 18 11
REMARK SMILES IDX 11 12 10 13 12 15 9 16 6 17 7 18 79 19 8 20 78 21 5 22 4 23
REMARK SMILES IDX 3 24 2 25 1 26 21 27 22 28 23 29 24 30 25 31 26 32 27 33
REMARK SMILES IDX 28 34 74 35 29 36 73 37 30 38 31 39 32 40 67 41 33 42 72 43
REMARK SMILES IDX 66 44 68 45 34 46 71 47 65 48 64 49 35 51 57 52 42 53 56 54
REMARK SMILES IDX 43 55 46 56 55 57 69 58 44 59 45 60 54 62 70 63 47 64 36 65
REMARK SMILES IDX 37 66 41 67 38 68 40 69 39 70 58 71 59 72 63 73 60 74 62 75
REMARK SMILES IDX 61 76 48 77 49 78 53 79 50 80 52 81 51 82
REMARK H PARENT 10 14 68 50 46 61
REMARK Flexibility Score: inf
ROOT
ATOM      1  C   UNL A   1      32.254  28.829  24.400  1.00  0.00     0.312 C 
ATOM      2  O   UNL A   1      33.414  29.026  24.053  1.00  0.00    -0.252 OA
ENDROOT
BRANCH   1   3
ATOM      3  C   UNL A   1      31.360  27.770  23.737  1.00  0.00     0.071 C 
ATOM      4  C   UNL A   1      31.554  25.275  23.133  1.00  0.00     0.053 C 
ATOM      5  C   UNL A   1      31.235  26.153  21.912  1.00  0.00     0.018 C 
ATOM      6  C   UNL A   1      31.297  26.297  24.381  1.00  0.00    -0.005 C 
ATOM      7  C   UNL A   1      30.635  24.043  23.218  1.00  0.00     0.022 C 
ATOM      8  C   UNL A   1      31.816  27.513  22.282  1.00  0.00     0.020 C 
ATOM      9  C   UNL A   1      29.911  26.110  25.064  1.00  0.00     0.013 C 
ATOM     10  C   UNL A   1      32.290  25.976  25.531  1.00  0.00     0.013 C 
ATOM     11  C   UNL A   1      29.995  28.501  23.617  1.00  0.00     0.024 C 
BRANCH   4  12
ATOM     12  C   UNL A   1      33.069  24.883  22.948  1.00  0.00     0.230 C 
ATOM     13  N   UNL A   1      33.665  23.734  23.364  1.00  0.00    -0.326 N 
ATOM     14  H   UNL A   1      34.624  23.699  23.141  1.00  0.00     0.169 HD
ATOM     15  O   UNL A   1      33.843  25.643  22.348  1.00  0.00    -0.274 OA
BRANCH  13  16
ATOM     16  C   UNL A   1      33.224  22.595  24.035  1.00  0.00     0.041 A 
ATOM     17  C   UNL A   1      32.620  20.126  25.195  1.00  0.00     0.119 A 
ATOM     18  C   UNL A   1      32.780  21.251  26.000  1.00  0.00     0.048 A 
ATOM     19  C   UNL A   1      32.628  20.269  23.812  1.00  0.00     0.048 A 
ATOM     20  C   UNL A   1      33.071  22.493  25.416  1.00  0.00     0.030 A 
ATOM     21  C   UNL A   1      32.912  21.500  23.232  1.00  0.00     0.030 A 
BRANCH  17  22
ATOM     22  O   UNL A   1      32.369  18.926  25.796  1.00  0.00    -0.494 OA
BRANCH  22  23
ATOM     23  C   UNL A   1      32.372  17.809  24.890  1.00  0.00     0.229 C 
BRANCH  23  24
ATOM     24  C   UNL A   1      33.337  16.726  25.383  1.00  0.00     0.041 C 
BRANCH  24  25
ATOM     25  C   UNL A   1      34.499  16.410  24.436  1.00  0.00     0.000 C 
ATOM     26  C   UNL A   1      34.213  16.765  22.982  1.00  0.00     0.004 C 
ENDBRANCH  24  25
ENDBRANCH  23  24
ENDBRANCH  22  23
ENDBRANCH  17  22
ENDBRANCH  13  16
ENDBRANCH   4  12
ENDBRANCH   1   3
BRANCH   1  27
ATOM     27  O   UNL A   1      31.583  29.619  25.277  1.00  0.00    -0.462 OA
BRANCH  27  28
ATOM     28  C   UNL A   1      31.911  29.458  26.673  1.00  0.00     0.274 C 
BRANCH  28  29
ATOM     29  C   UNL A   1      32.797  30.606  27.163  1.00  0.00     0.275 C 
BRANCH  29  30
ATOM     30  O   UNL A   1      34.071  30.081  27.562  1.00  0.00    -0.458 OA
BRANCH  30  31
ATOM     31  C   UNL A   1      34.792  30.838  28.422  1.00  0.00     0.338 C 
ATOM     32  O   UNL A   1      34.417  31.852  28.985  1.00  0.00    -0.246 OA
BRANCH  31  33
ATOM     33  C   UNL A   1      36.159  30.274  28.556  1.00  0.00     0.060 A 
ATOM     34  C   UNL A   1      36.617  29.763  29.770  1.00  0.00     0.016 A 
ATOM     35  C   UNL A   1      37.023  30.296  27.461  1.00  0.00     0.016 A 
ATOM     36  C   UNL A   1      37.935  29.338  29.920  1.00  0.00     0.010 A 
ATOM     37  C   UNL A   1      38.315  29.768  27.582  1.00  0.00     0.010 A 
ATOM     38  C   UNL A   1      38.792  29.293  28.817  1.00  0.00    -0.014 A 
BRANCH  38  39
ATOM     39  C   UNL A   1      40.168  28.732  28.938  1.00  0.00     0.031 A 
ATOM     40  C   UNL A   1      41.321  29.624  29.313  1.00  0.00     0.074 A 
ATOM     41  C   UNL A   1      40.400  27.430  28.669  1.00  0.00     0.049 A 
ATOM     42  N   UNL A   1      42.608  29.395  29.217  1.00  0.00    -0.248 NA
ATOM     43  C   UNL A   1      40.987  30.953  29.850  1.00  0.00     0.031 C 
ATOM     44  C   UNL A   1      39.382  26.429  28.340  1.00  0.00     0.029 A 
ATOM     45  N   UNL A   1      41.580  26.724  28.622  1.00  0.00    -0.354 N 
ATOM     46  C   UNL A   1      43.233  30.573  29.609  1.00  0.00     0.074 A 
ATOM     47  C   UNL A   1      42.186  31.510  29.960  1.00  0.00     0.031 C 
ATOM     48  C   UNL A   1      39.974  25.239  28.156  1.00  0.00     0.029 A 
ATOM     49  C   UNL A   1      41.417  25.411  28.250  1.00  0.00     0.049 A 
ATOM     50  H   UNL A   1      42.455  27.121  28.834  1.00  0.00     0.167 HD
ATOM     51  C   UNL A   1      44.557  30.849  29.655  1.00  0.00     0.031 A 
ATOM     52  C   UNL A   1      42.322  24.459  27.952  1.00  0.00     0.031 A 
ATOM     53  C   UNL A   1      45.597  29.898  29.360  1.00  0.00     0.049 A 
ATOM     54  C   UNL A   1      43.782  24.804  27.972  1.00  0.00     0.074 A 
ATOM     55  C   UNL A   1      46.969  30.075  29.424  1.00  0.00     0.029 A 
ATOM     56  N   UNL A   1      45.381  28.591  28.958  1.00  0.00    -0.354 N 
ATOM     57  N   UNL A   1      44.358  25.934  28.298  1.00  0.00    -0.248 NA
ATOM     58  C   UNL A   1      44.714  23.748  27.552  1.00  0.00     0.031 C 
ATOM     59  C   UNL A   1      47.584  28.887  29.018  1.00  0.00     0.029 A 
ATOM     60  C   UNL A   1      46.594  27.957  28.745  1.00  0.00     0.049 A 
ATOM     61  H   UNL A   1      44.497  28.174  28.840  1.00  0.00     0.167 HD
ATOM     62  C   UNL A   1      45.720  25.724  28.131  1.00  0.00     0.074 A 
ATOM     63  C   UNL A   1      45.885  24.353  27.697  1.00  0.00     0.031 C 
ATOM     64  C   UNL A   1      46.742  26.595  28.311  1.00  0.00     0.031 A 
BRANCH  51  65
ATOM     65  C   UNL A   1      44.973  32.252  29.993  1.00  0.00    -0.014 A 
ATOM     66  C   UNL A   1      45.241  32.646  31.312  1.00  0.00     0.009 A 
ATOM     67  C   UNL A   1      45.178  33.175  28.953  1.00  0.00     0.009 A 
ATOM     68  C   UNL A   1      45.689  33.942  31.582  1.00  0.00     0.001 A 
ATOM     69  C   UNL A   1      45.647  34.460  29.224  1.00  0.00     0.001 A 
ATOM     70  C   UNL A   1      45.899  34.844  30.539  1.00  0.00     0.000 A 
ENDBRANCH  51  65
BRANCH  52  71
ATOM     71  C   UNL A   1      41.869  23.107  27.530  1.00  0.00    -0.014 A 
ATOM     72  C   UNL A   1      41.393  22.889  26.230  1.00  0.00     0.009 A 
ATOM     73  C   UNL A   1      41.907  22.029  28.430  1.00  0.00     0.009 A 
ATOM     74  C   UNL A   1      40.951  21.621  25.843  1.00  0.00     0.001 A 
ATOM     75  C   UNL A   1      41.495  20.757  28.031  1.00  0.00     0.001 A 
ATOM     76  C   UNL A   1      41.009  20.556  26.741  1.00  0.00     0.000 A 
ENDBRANCH  52  71
BRANCH  64  77
ATOM     77  C   UNL A   1      48.126  26.074  28.065  1.00  0.00    -0.014 A 
ATOM     78  C   UNL A   1      48.912  25.583  29.118  1.00  0.00     0.009 A 
ATOM     79  C   UNL A   1      48.643  26.058  26.760  1.00  0.00     0.009 A 
ATOM     80  C   UNL A   1      50.204  25.115  28.874  1.00  0.00     0.001 A 
ATOM     81  C   UNL A   1      49.926  25.567  26.516  1.00  0.00     0.001 A 
ATOM     82  C   UNL A   1      50.708  25.105  27.573  1.00  0.00     0.000 A 
ENDBRANCH  64  77
ENDBRANCH  38  39
ENDBRANCH  31  33
ENDBRANCH  30  31
ENDBRANCH  29  30
ENDBRANCH  28  29
ENDBRANCH  27  28
ENDBRANCH   1  27
TORSDOF 17
ENDMDL
MODEL 2
REMARK VINA RESULT:     -11.1      3.715      7.207
REMARK SMILES CCCCOc1ccc(NC(=O)[C@]2(C)CC[C@](C)(C(=O)OCCOC(=O)c3ccc(-c4c5nc(c(-c6ccccc6)c6ccc([nH]6)c(-c6ccccc6)c6nc(c(-c7ccccc7)c7ccc4[nH]7)C=C6)C=C5)cc3)C2(C)C)cc1
REMARK SMILES IDX 19 1 20 2 17 3 13 4 15 5 75 6 14 7 16 8 76 9 77 10 18 11
REMARK SMILES IDX 11 12 10 13 12 15 9 16 6 17 7 18 79 19 8 20 78 21 5 22 4 23
REMARK SMILES IDX 3 24 2 25 1 26 21 27 22 28 23 29 24 30 25 31 26 32 27 33
REMARK SMILES IDX 28 34 74 35 29 36 73 37 30 38 31 39 32 40 67 41 33 42 72 43
REMARK SMILES IDX 66 44 68 45 34 46 71 47 65 48 64 49 35 51 57 52 42 53 56 54
REMARK SMILES IDX 43 55 46 56 55 57 69 58 44 59 45 60 54 62 70 63 47 64 36 65
REMARK SMILES IDX 37 66 41 67 38 68 40 69 39 70 58 71 59 72 63 73 60 74 62 75
REMARK SMILES IDX 61 76 48 77 49 78 53 79 50 80 52 81 51 82
REMARK H PARENT 10 14 68 50 46 61
REMARK Flexibility Score: inf
ROOT
ATOM      1  C   UNL A   1      31.376  26.661  23.500  1.00  0.00     0.312 C 
ATOM      2  O   UNL A   1      31.489  26.800  22.287  1.00  0.00    -0.252 OA
ENDROOT
BRANCH   1   3
ATOM      3  C   UNL A   1      31.487  25.293  24.190  1.00  0.00     0.071 C 
ATOM      4  C   UNL A   1      33.276  23.456  24.419  1.00  0.00     0.053 C 
ATOM      5  C   UNL A   1      31.964  22.926  23.819  1.00  0.00     0.018 C 
ATOM      6  C   UNL A   1      32.843  24.929  24.975  1.00  0.00    -0.005 C 
ATOM      7  C   UNL A   1      33.798  22.558  25.555  1.00  0.00     0.022 C 
ATOM      8  C   UNL A   1      31.349  24.153  23.153  1.00  0.00     0.020 C 
ATOM      9  C   UNL A   1      32.556  24.957  26.505  1.00  0.00     0.013 C 
ATOM     10  C   UNL A   1      34.037  25.912  24.834  1.00  0.00     0.013 C 
ATOM     11  C   UNL A   1      30.189  25.233  25.041  1.00  0.00     0.024 C 
BRANCH   4  12
ATOM     12  C   UNL A   1      34.268  23.517  23.196  1.00  0.00     0.230 C 
ATOM     13  N   UNL A   1      35.609  23.293  23.229  1.00  0.00    -0.326 N 
ATOM     14  H   UNL A   1      36.033  23.383  22.345  1.00  0.00     0.169 HD
ATOM     15  O   UNL A   1      33.844  23.761  22.057  1.00  0.00    -0.274 OA
BRANCH  13  16
ATOM     16  C   UNL A   1      36.517  22.965  24.234  1.00  0.00     0.041 A 
ATOM     17  C   UNL A   1      38.559  22.164  25.965  1.00  0.00     0.119 A 
ATOM     18  C   UNL A   1      38.058  23.462  26.034  1.00  0.00     0.048 A 
ATOM     19  C   UNL A   1      37.945  21.239  25.128  1.00  0.00     0.048 A 
ATOM     20  C   UNL A   1      37.025  23.859  25.173  1.00  0.00     0.030 A 
ATOM     21  C   UNL A   1      36.918  21.631  24.278  1.00  0.00     0.030 A 
BRANCH  17  22
ATOM     22  O   UNL A   1      39.587  21.818  26.795  1.00  0.00    -0.494 OA
BRANCH  22  23
ATOM     23  C   UNL A   1      40.848  21.657  26.123  1.00  0.00     0.229 C 
BRANCH  23  24
ATOM     24  C   UNL A   1      41.989  21.584  27.142  1.00  0.00     0.041 C 
BRANCH  24  25
ATOM     25  C   UNL A   1      41.773  22.400  28.420  1.00  0.00     0.000 C 
ATOM     26  C   UNL A   1      43.043  23.065  28.940  1.00  0.00     0.004 C 
ENDBRANCH  24  25
ENDBRANCH  23  24
ENDBRANCH  22  23
ENDBRANCH  17  22
ENDBRANCH  13  16
ENDBRANCH   4  12
ENDBRANCH   1   3
BRANCH   1  27
ATOM     27  O   UNL A   1      30.983  27.651  24.341  1.00  0.00    -0.462 OA
BRANCH  27  28
ATOM     28  C   UNL A   1      31.383  28.992  23.993  1.00  0.00     0.274 C 
BRANCH  28  29
ATOM     29  C   UNL A   1      32.568  29.449  24.846  1.00  0.00     0.275 C 
BRANCH  29  30
ATOM     30  O   UNL A   1      32.111  29.728  26.177  1.00  0.00    -0.458 OA
BRANCH  30  31
ATOM     31  C   UNL A   1      32.490  30.916  26.708  1.00  0.00     0.338 C 
ATOM     32  O   UNL A   1      31.910  31.982  26.589  1.00  0.00    -0.246 OA
BRANCH  31  33
ATOM     33  C   UNL A   1      33.771  30.747  27.438  1.00  0.00     0.060 A 
ATOM     34  C   UNL A   1      34.286  29.481  27.715  1.00  0.00     0.016 A 
ATOM     35  C   UNL A   1      34.454  31.872  27.900  1.00  0.00     0.016 A 
ATOM     36  C   UNL A   1      35.429  29.325  28.496  1.00  0.00     0.010 A 
ATOM     37  C   UNL A   1      35.662  31.719  28.593  1.00  0.00     0.010 A 
ATOM     38  C   UNL A   1      36.159  30.443  28.911  1.00  0.00    -0.014 A 
BRANCH  38  39
ATOM     39  C   UNL A   1      37.446  30.288  29.648  1.00  0.00     0.031 A 
ATOM     40  C   UNL A   1      38.607  29.576  29.009  1.00  0.00     0.074 A 
ATOM     41  C   UNL A   1      37.566  30.746  30.912  1.00  0.00     0.049 A 
ATOM     42  N   UNL A   1      39.700  29.114  29.564  1.00  0.00    -0.248 NA
ATOM     43  C   UNL A   1      38.523  29.335  27.559  1.00  0.00     0.031 C 
ATOM     44  C   UNL A   1      36.550  31.498  31.651  1.00  0.00     0.029 A 
ATOM     45  N   UNL A   1      38.605  30.635  31.807  1.00  0.00    -0.354 N 
ATOM     46  C   UNL A   1      40.395  28.465  28.550  1.00  0.00     0.074 A 
ATOM     47  C   UNL A   1      39.611  28.606  27.342  1.00  0.00     0.031 C 
ATOM     48  C   UNL A   1      37.023  31.807  32.868  1.00  0.00     0.029 A 
ATOM     49  C   UNL A   1      38.331  31.187  33.036  1.00  0.00     0.049 A 
ATOM     50  H   UNL A   1      39.462  30.202  31.588  1.00  0.00     0.167 HD
ATOM     51  C   UNL A   1      41.572  27.800  28.627  1.00  0.00     0.031 A 
ATOM     52  C   UNL A   1      39.017  31.150  34.194  1.00  0.00     0.031 A 
ATOM     53  C   UNL A   1      42.379  27.709  29.816  1.00  0.00     0.049 A 
ATOM     54  C   UNL A   1      40.298  30.372  34.262  1.00  0.00     0.074 A 
ATOM     55  C   UNL A   1      43.609  27.095  29.977  1.00  0.00     0.029 A 
ATOM     56  N   UNL A   1      42.042  28.258  31.043  1.00  0.00    -0.354 N 
ATOM     57  N   UNL A   1      40.921  29.723  33.309  1.00  0.00    -0.248 NA
ATOM     58  C   UNL A   1      40.954  30.296  35.575  1.00  0.00     0.031 C 
ATOM     59  C   UNL A   1      43.997  27.234  31.314  1.00  0.00     0.029 A 
ATOM     60  C   UNL A   1      43.029  27.974  31.972  1.00  0.00     0.049 A 
ATOM     61  H   UNL A   1      41.224  28.773  31.227  1.00  0.00     0.167 HD
ATOM     62  C   UNL A   1      42.045  29.169  33.904  1.00  0.00     0.074 A 
ATOM     63  C   UNL A   1      42.032  29.576  35.293  1.00  0.00     0.031 C 
ATOM     64  C   UNL A   1      42.999  28.383  33.350  1.00  0.00     0.031 A 
BRANCH  51  65
ATOM     65  C   UNL A   1      42.050  27.070  27.405  1.00  0.00    -0.014 A 
ATOM     66  C   UNL A   1      41.551  25.807  27.055  1.00  0.00     0.009 A 
ATOM     67  C   UNL A   1      42.963  27.703  26.544  1.00  0.00     0.009 A 
ATOM     68  C   UNL A   1      41.970  25.186  25.875  1.00  0.00     0.001 A 
ATOM     69  C   UNL A   1      43.362  27.091  25.356  1.00  0.00     0.001 A 
ATOM     70  C   UNL A   1      42.868  25.831  25.024  1.00  0.00     0.000 A 
ENDBRANCH  51  65
BRANCH  52  71
ATOM     71  C   UNL A   1      38.465  31.806  35.408  1.00  0.00    -0.014 A 
ATOM     72  C   UNL A   1      38.467  33.203  35.526  1.00  0.00     0.009 A 
ATOM     73  C   UNL A   1      37.936  31.037  36.456  1.00  0.00     0.009 A 
ATOM     74  C   UNL A   1      37.963  33.816  36.677  1.00  0.00     0.001 A 
ATOM     75  C   UNL A   1      37.404  31.652  37.591  1.00  0.00     0.001 A 
ATOM     76  C   UNL A   1      37.426  33.040  37.704  1.00  0.00     0.000 A 
ENDBRANCH  52  71
BRANCH  64  77
ATOM     77  C   UNL A   1      44.117  27.941  34.247  1.00  0.00    -0.014 A 
ATOM     78  C   UNL A   1      44.012  26.765  35.005  1.00  0.00     0.009 A 
ATOM     79  C   UNL A   1      45.294  28.701  34.319  1.00  0.00     0.009 A 
ATOM     80  C   UNL A   1      45.056  26.376  35.847  1.00  0.00     0.001 A 
ATOM     81  C   UNL A   1      46.345  28.295  35.143  1.00  0.00     0.001 A 
ATOM     82  C   UNL A   1      46.221  27.139  35.912  1.00  0.00     0.000 A 
ENDBRANCH  64  77
ENDBRANCH  38  39
ENDBRANCH  31  33
ENDBRANCH  30  31
ENDBRANCH  29  30
ENDBRANCH  28  29
ENDBRANCH  27  28
ENDBRANCH   1  27
TORSDOF 17
ENDMDL
MODEL 3
REMARK VINA RESULT:     -11.1      2.326      7.981
REMARK SMILES CCCCOc1ccc(NC(=O)[C@]2(C)CC[C@](C)(C(=O)OCCOC(=O)c3ccc(-c4c5nc(c(-c6ccccc6)c6ccc([nH]6)c(-c6ccccc6)c6nc(c(-c7ccccc7)c7ccc4[nH]7)C=C6)C=C5)cc3)C2(C)C)cc1
REMARK SMILES IDX 19 1 20 2 17 3 13 4 15 5 75 6 14 7 16 8 76 9 77 10 18 11
REMARK SMILES IDX 11 12 10 13 12 15 9 16 6 17 7 18 79 19 8 20 78 21 5 22 4 23
REMARK SMILES IDX 3 24 2 25 1 26 21 27 22 28 23 29 24 30 25 31 26 32 27 33
REMARK SMILES IDX 28 34 74 35 29 36 73 37 30 38 31 39 32 40 67 41 33 42 72 43
REMARK SMILES IDX 66 44 68 45 34 46 71 47 65 48 64 49 35 51 57 52 42 53 56 54
REMARK SMILES IDX 43 55 46 56 55 57 69 58 44 59 45 60 54 62 70 63 47 64 36 65
REMARK SMILES IDX 37 66 41 67 38 68 40 69 39 70 58 71 59 72 63 73 60 74 62 75
REMARK SMILES IDX 61 76 48 77 49 78 53 79 50 80 52 81 51 82
REMARK H PARENT 10 14 68 50 46 61
REMARK Flexibility Score: inf
ROOT
ATOM      1  C   UNL A   1      32.839  22.005  24.774  1.00  0.00     0.312 C 
ATOM      2  O   UNL A   1      32.217  21.551  25.728  1.00  0.00    -0.252 OA
ENDROOT
BRANCH   1   3
ATOM      3  C   UNL A   1      32.390  23.262  24.016  1.00  0.00     0.071 C 
ATOM      4  C   UNL A   1      31.826  25.702  24.613  1.00  0.00     0.053 C 
ATOM      5  C   UNL A   1      30.666  24.989  23.900  1.00  0.00     0.018 C 
ATOM      6  C   UNL A   1      33.072  24.672  24.381  1.00  0.00    -0.005 C 
ATOM      7  C   UNL A   1      32.119  27.085  24.004  1.00  0.00     0.022 C 
ATOM      8  C   UNL A   1      30.881  23.518  24.241  1.00  0.00     0.020 C 
ATOM      9  C   UNL A   1      34.014  25.088  23.214  1.00  0.00     0.013 C 
ATOM     10  C   UNL A   1      34.018  24.712  25.613  1.00  0.00     0.013 C 
ATOM     11  C   UNL A   1      32.516  22.829  22.530  1.00  0.00     0.024 C 
BRANCH   4  12
ATOM     12  C   UNL A   1      31.363  25.794  26.117  1.00  0.00     0.230 C 
ATOM     13  N   UNL A   1      31.695  26.765  27.009  1.00  0.00    -0.326 N 
ATOM     14  H   UNL A   1      31.291  26.624  27.895  1.00  0.00     0.169 HD
ATOM     15  O   UNL A   1      30.596  24.942  26.589  1.00  0.00    -0.274 OA
BRANCH  13  16
ATOM     16  C   UNL A   1      32.480  27.915  26.949  1.00  0.00     0.041 A 
ATOM     17  C   UNL A   1      33.900  30.311  27.173  1.00  0.00     0.119 A 
ATOM     18  C   UNL A   1      34.572  29.131  26.861  1.00  0.00     0.048 A 
ATOM     19  C   UNL A   1      32.511  30.310  27.237  1.00  0.00     0.048 A 
ATOM     20  C   UNL A   1      33.856  27.932  26.736  1.00  0.00     0.030 A 
ATOM     21  C   UNL A   1      31.801  29.122  27.110  1.00  0.00     0.030 A 
BRANCH  17  22
ATOM     22  O   UNL A   1      34.630  31.456  27.319  1.00  0.00    -0.494 OA
BRANCH  22  23
ATOM     23  C   UNL A   1      34.646  31.968  28.663  1.00  0.00     0.229 C 
BRANCH  23  24
ATOM     24  C   UNL A   1      35.459  33.265  28.728  1.00  0.00     0.041 C 
BRANCH  24  25
ATOM     25  C   UNL A   1      36.979  33.086  28.658  1.00  0.00     0.000 C 
ATOM     26  C   UNL A   1      37.754  34.170  29.396  1.00  0.00     0.004 C 
ENDBRANCH  24  25
ENDBRANCH  23  24
ENDBRANCH  22  23
ENDBRANCH  17  22
ENDBRANCH  13  16
ENDBRANCH   4  12
ENDBRANCH   1   3
BRANCH   1  27
ATOM     27  O   UNL A   1      33.884  21.371  24.183  1.00  0.00    -0.462 OA
BRANCH  27  28
ATOM     28  C   UNL A   1      34.684  20.516  25.026  1.00  0.00     0.274 C 
BRANCH  28  29
ATOM     29  C   UNL A   1      35.663  21.338  25.867  1.00  0.00     0.275 C 
BRANCH  29  30
ATOM     30  O   UNL A   1      36.784  21.712  25.053  1.00  0.00    -0.458 OA
BRANCH  30  31
ATOM     31  C   UNL A   1      37.997  21.260  25.454  1.00  0.00     0.338 C 
ATOM     32  O   UNL A   1      38.374  20.101  25.457  1.00  0.00    -0.246 OA
BRANCH  31  33
ATOM     33  C   UNL A   1      38.813  22.398  25.947  1.00  0.00     0.060 A 
ATOM     34  C   UNL A   1      38.374  23.715  25.816  1.00  0.00     0.016 A 
ATOM     35  C   UNL A   1      40.064  22.154  26.513  1.00  0.00     0.016 A 
ATOM     36  C   UNL A   1      39.190  24.785  26.177  1.00  0.00     0.010 A 
ATOM     37  C   UNL A   1      40.840  23.224  26.977  1.00  0.00     0.010 A 
ATOM     38  C   UNL A   1      40.418  24.555  26.804  1.00  0.00    -0.014 A 
BRANCH  38  39
ATOM     39  C   UNL A   1      41.249  25.689  27.301  1.00  0.00     0.031 A 
ATOM     40  C   UNL A   1      40.701  26.638  28.333  1.00  0.00     0.074 A 
ATOM     41  C   UNL A   1      42.484  25.900  26.799  1.00  0.00     0.049 A 
ATOM     42  N   UNL A   1      41.151  27.813  28.696  1.00  0.00    -0.248 NA
ATOM     43  C   UNL A   1      39.477  26.220  29.037  1.00  0.00     0.031 C 
ATOM     44  C   UNL A   1      43.173  25.043  25.831  1.00  0.00     0.029 A 
ATOM     45  N   UNL A   1      43.380  26.917  27.031  1.00  0.00    -0.354 N 
ATOM     46  C   UNL A   1      40.228  28.306  29.611  1.00  0.00     0.074 A 
ATOM     47  C   UNL A   1      39.202  27.296  29.762  1.00  0.00     0.031 C 
ATOM     48  C   UNL A   1      44.389  25.550  25.577  1.00  0.00     0.029 A 
ATOM     49  C   UNL A   1      44.527  26.819  26.279  1.00  0.00     0.049 A 
ATOM     50  H   UNL A   1      43.216  27.645  27.673  1.00  0.00     0.167 HD
ATOM     51  C   UNL A   1      40.232  29.498  30.253  1.00  0.00     0.031 A 
ATOM     52  C   UNL A   1      45.552  27.677  26.115  1.00  0.00     0.031 A 
ATOM     53  C   UNL A   1      41.283  30.476  30.145  1.00  0.00     0.049 A 
ATOM     54  C   UNL A   1      45.511  29.008  26.806  1.00  0.00     0.074 A 
ATOM     55  C   UNL A   1      41.396  31.694  30.794  1.00  0.00     0.029 A 
ATOM     56  N   UNL A   1      42.407  30.343  29.347  1.00  0.00    -0.354 N 
ATOM     57  N   UNL A   1      44.610  29.481  27.632  1.00  0.00    -0.248 NA
ATOM     58  C   UNL A   1      46.614  29.935  26.517  1.00  0.00     0.031 C 
ATOM     59  C   UNL A   1      42.567  32.319  30.355  1.00  0.00     0.029 A 
ATOM     60  C   UNL A   1      43.206  31.469  29.467  1.00  0.00     0.049 A 
ATOM     61  H   UNL A   1      42.609  29.566  28.779  1.00  0.00     0.167 HD
ATOM     62  C   UNL A   1      45.042  30.757  27.967  1.00  0.00     0.074 A 
ATOM     63  C   UNL A   1      46.295  30.975  27.275  1.00  0.00     0.031 C 
ATOM     64  C   UNL A   1      44.446  31.671  28.770  1.00  0.00     0.031 A 
BRANCH  51  65
ATOM     65  C   UNL A   1      39.043  29.846  31.101  1.00  0.00    -0.014 A 
ATOM     66  C   UNL A   1      37.830  30.267  30.536  1.00  0.00     0.009 A 
ATOM     67  C   UNL A   1      39.119  29.667  32.493  1.00  0.00     0.009 A 
ATOM     68  C   UNL A   1      36.724  30.519  31.352  1.00  0.00     0.001 A 
ATOM     69  C   UNL A   1      38.006  29.898  33.302  1.00  0.00     0.001 A 
ATOM     70  C   UNL A   1      36.810  30.326  32.731  1.00  0.00     0.000 A 
ENDBRANCH  51  65
BRANCH  52  71
ATOM     71  C   UNL A   1      46.667  27.336  25.193  1.00  0.00    -0.014 A 
ATOM     72  C   UNL A   1      47.654  26.418  25.578  1.00  0.00     0.009 A 
ATOM     73  C   UNL A   1      46.752  27.933  23.925  1.00  0.00     0.009 A 
ATOM     74  C   UNL A   1      48.711  26.114  24.716  1.00  0.00     0.001 A 
ATOM     75  C   UNL A   1      47.791  27.604  23.053  1.00  0.00     0.001 A 
ATOM     76  C   UNL A   1      48.774  26.701  23.452  1.00  0.00     0.000 A 
ENDBRANCH  52  71
BRANCH  64  77
ATOM     77  C   UNL A   1      45.163  32.975  28.960  1.00  0.00    -0.014 A 
ATOM     78  C   UNL A   1      46.230  33.088  29.863  1.00  0.00     0.009 A 
ATOM     79  C   UNL A   1      44.777  34.097  28.212  1.00  0.00     0.009 A 
ATOM     80  C   UNL A   1      46.877  34.312  30.038  1.00  0.00     0.001 A 
ATOM     81  C   UNL A   1      45.442  35.314  28.372  1.00  0.00     0.001 A 
ATOM     82  C   UNL A   1      46.484  35.422  29.291  1.00  0.00     0.000 A 
ENDBRANCH  64  77
ENDBRANCH  38  39
ENDBRANCH  31  33
ENDBRANCH  30  31
ENDBRANCH  29  30
ENDBRANCH  28  29
ENDBRANCH  27  28
ENDBRANCH   1  27
TORSDOF 17
ENDMDL
