MODEL 1
REMARK VINA RESULT:     -13.2      0.000      0.000
REMARK SMILES Cc1c(C(=O)OCCOC(=O)c2ccc(-c3c4nc(c(-c5ccccc5)c5ccc([nH]5)c(-c5ccccc5)c5nc(c(-c6ccccc6)c6ccc3[nH]6)C=C5)C=C4)cc2)oc2c1/C(=N/NC(=O)C(c1ccccc1)c1ccccc1)CCC2
REMARK SMILES IDX 7 1 6 2 4 3 5 4 3 5 1 6 2 7 62 8 60 9 61 10 63 11 83 12
REMARK SMILES IDX 64 13 81 14 82 15 65 16 66 17 67 19 68 20 69 21 70 22 74 23
REMARK SMILES IDX 71 24 73 25 72 26 75 27 76 28 80 29 77 30 79 31 78 32 8 33
REMARK SMILES IDX 9 34 10 35 11 36 12 37 13 38 59 39 14 40 58 41 15 42 16 43
REMARK SMILES IDX 17 44 52 45 18 46 57 47 51 48 53 49 19 50 56 51 50 52 49 53
REMARK SMILES IDX 20 55 42 56 27 57 41 58 28 59 31 60 40 61 54 62 29 63 30 64
REMARK SMILES IDX 39 66 55 67 32 68 21 69 22 70 26 71 23 72 25 73 24 74 43 75
REMARK SMILES IDX 44 76 48 77 45 78 47 79 46 80 33 81 34 82 38 83 35 84 37 85
REMARK SMILES IDX 36 86
REMARK H PARENT 65 18 53 54 31 65
REMARK Flexibility Score: inf
ROOT
ATOM      1  C   UNL A   1      31.839  30.270  26.547  1.00  0.00     0.275 C 
ENDROOT
BRANCH   1   2
ATOM      2  O   UNL A   1      32.135  29.867  25.210  1.00  0.00    -0.456 OA
BRANCH   2   3
ATOM      3  C   UNL A   1      31.177  29.260  24.447  1.00  0.00     0.374 C 
ATOM      4  O   UNL A   1      30.220  29.828  23.922  1.00  0.00    -0.242 OA
BRANCH   3   5
ATOM      5  C   UNL A   1      31.551  27.879  24.297  1.00  0.00     0.215 A 
ATOM      6  C   UNL A   1      31.561  26.695  26.620  1.00  0.00     0.049 C 
ATOM      7  C   UNL A   1      31.730  26.785  25.147  1.00  0.00     0.012 A 
ATOM      8  C   UNL A   1      32.199  25.736  24.298  1.00  0.00     0.043 A 
ATOM      9  O   UNL A   1      31.768  27.504  23.002  1.00  0.00    -0.453 OA
ATOM     10  C   UNL A   1      32.142  26.232  23.014  1.00  0.00     0.114 A 
ATOM     11  C   UNL A   1      32.781  24.414  24.530  1.00  0.00     0.072 C 
ATOM     12  C   UNL A   1      32.556  25.656  21.724  1.00  0.00     0.076 C 
ATOM     13  N   UNL A   1      32.544  23.915  25.712  1.00  0.00    -0.177 NA
ATOM     14  C   UNL A   1      33.620  24.047  23.301  1.00  0.00     0.059 C 
ATOM     15  C   UNL A   1      32.896  24.201  21.960  1.00  0.00     0.014 C 
BRANCH  13  16
ATOM     16  N   UNL A   1      32.878  22.791  26.437  1.00  0.00    -0.246 N 
ATOM     17  C   UNL A   1      33.579  21.608  26.239  1.00  0.00     0.252 C 
ATOM     18  H   UNL A   1      32.517  22.840  27.352  1.00  0.00     0.193 HD
ATOM     19  O   UNL A   1      33.644  20.789  27.165  1.00  0.00    -0.272 OA
BRANCH  17  20
ATOM     20  C   UNL A   1      34.269  21.335  24.907  1.00  0.00     0.140 C 
BRANCH  20  21
ATOM     21  C   UNL A   1      35.806  21.723  25.130  1.00  0.00    -0.031 A 
ATOM     22  C   UNL A   1      36.188  23.045  25.521  1.00  0.00     0.005 A 
ATOM     23  C   UNL A   1      36.874  20.826  24.986  1.00  0.00     0.005 A 
ATOM     24  C   UNL A   1      37.477  23.409  25.920  1.00  0.00     0.000 A 
ATOM     25  C   UNL A   1      38.197  21.209  25.331  1.00  0.00     0.000 A 
ATOM     26  C   UNL A   1      38.491  22.480  25.833  1.00  0.00     0.000 A 
ENDBRANCH  20  21
BRANCH  20  27
ATOM     27  C   UNL A   1      33.689  19.932  24.396  1.00  0.00    -0.031 A 
ATOM     28  C   UNL A   1      32.510  19.775  23.650  1.00  0.00     0.005 A 
ATOM     29  C   UNL A   1      34.422  18.725  24.617  1.00  0.00     0.005 A 
ATOM     30  C   UNL A   1      32.230  18.547  22.996  1.00  0.00     0.000 A 
ATOM     31  C   UNL A   1      34.187  17.536  23.921  1.00  0.00     0.000 A 
ATOM     32  C   UNL A   1      33.097  17.455  23.080  1.00  0.00     0.000 A 
ENDBRANCH  20  27
ENDBRANCH  17  20
ENDBRANCH  13  16
ENDBRANCH   3   5
ENDBRANCH   2   3
ENDBRANCH   1   2
BRANCH   1  33
ATOM     33  C   UNL A   1      31.891  31.785  26.686  1.00  0.00     0.275 C 
BRANCH  33  34
ATOM     34  O   UNL A   1      32.989  32.137  27.516  1.00  0.00    -0.458 OA
BRANCH  34  35
ATOM     35  C   UNL A   1      32.990  33.401  27.990  1.00  0.00     0.338 C 
ATOM     36  O   UNL A   1      32.206  34.295  27.728  1.00  0.00    -0.246 OA
BRANCH  35  37
ATOM     37  C   UNL A   1      34.190  33.582  28.806  1.00  0.00     0.060 A 
ATOM     38  C   UNL A   1      35.258  34.274  28.226  1.00  0.00     0.016 A 
ATOM     39  C   UNL A   1      34.340  32.761  29.930  1.00  0.00     0.016 A 
ATOM     40  C   UNL A   1      36.530  33.913  28.597  1.00  0.00     0.010 A 
ATOM     41  C   UNL A   1      35.601  32.375  30.272  1.00  0.00     0.010 A 
ATOM     42  C   UNL A   1      36.661  32.878  29.523  1.00  0.00    -0.014 A 
BRANCH  42  43
ATOM     43  C   UNL A   1      37.955  32.289  29.741  1.00  0.00     0.031 A 
ATOM     44  C   UNL A   1      38.014  30.879  29.299  1.00  0.00     0.074 A 
ATOM     45  C   UNL A   1      38.976  33.075  30.140  1.00  0.00     0.049 A 
ATOM     46  N   UNL A   1      38.285  29.846  30.021  1.00  0.00    -0.248 NA
ATOM     47  C   UNL A   1      37.532  30.552  27.943  1.00  0.00     0.031 C 
ATOM     48  C   UNL A   1      38.989  34.532  30.329  1.00  0.00     0.029 A 
ATOM     49  N   UNL A   1      40.277  32.750  30.316  1.00  0.00    -0.354 N 
ATOM     50  C   UNL A   1      38.193  28.755  29.164  1.00  0.00     0.074 A 
ATOM     51  C   UNL A   1      37.540  29.221  27.971  1.00  0.00     0.031 C 
ATOM     52  C   UNL A   1      40.269  34.970  30.301  1.00  0.00     0.029 A 
ATOM     53  C   UNL A   1      41.153  33.821  30.207  1.00  0.00     0.049 A 
ATOM     54  H   UNL A   1      40.577  31.832  30.506  1.00  0.00     0.167 HD
ATOM     55  C   UNL A   1      38.902  27.619  29.398  1.00  0.00     0.031 A 
ATOM     56  C   UNL A   1      42.484  33.743  29.941  1.00  0.00     0.031 A 
ATOM     57  C   UNL A   1      39.398  27.585  30.748  1.00  0.00     0.049 A 
ATOM     58  C   UNL A   1      42.895  32.335  30.203  1.00  0.00     0.074 A 
ATOM     59  C   UNL A   1      38.795  27.559  31.989  1.00  0.00     0.029 A 
ATOM     60  N   UNL A   1      40.688  28.024  30.948  1.00  0.00    -0.354 N 
ATOM     61  N   UNL A   1      42.890  31.810  31.397  1.00  0.00    -0.248 NA
ATOM     62  C   UNL A   1      42.783  31.379  29.106  1.00  0.00     0.031 C 
ATOM     63  C   UNL A   1      39.587  28.426  32.794  1.00  0.00     0.029 A 
ATOM     64  C   UNL A   1      40.679  28.857  32.036  1.00  0.00     0.049 A 
ATOM     65  H   UNL A   1      41.474  27.783  30.406  1.00  0.00     0.167 HD
ATOM     66  C   UNL A   1      42.332  30.548  31.229  1.00  0.00     0.074 A 
ATOM     67  C   UNL A   1      42.364  30.305  29.785  1.00  0.00     0.031 C 
ATOM     68  C   UNL A   1      41.600  29.958  32.222  1.00  0.00     0.031 A 
BRANCH  55  69
ATOM     69  C   UNL A   1      39.505  26.781  28.304  1.00  0.00    -0.014 A 
ATOM     70  C   UNL A   1      39.582  25.392  28.502  1.00  0.00     0.009 A 
ATOM     71  C   UNL A   1      40.256  27.314  27.239  1.00  0.00     0.009 A 
ATOM     72  C   UNL A   1      40.443  24.598  27.739  1.00  0.00     0.001 A 
ATOM     73  C   UNL A   1      41.087  26.518  26.450  1.00  0.00     0.001 A 
ATOM     74  C   UNL A   1      41.205  25.165  26.722  1.00  0.00     0.000 A 
ENDBRANCH  55  69
BRANCH  56  75
ATOM     75  C   UNL A   1      43.303  34.696  29.150  1.00  0.00    -0.014 A 
ATOM     76  C   UNL A   1      44.296  35.488  29.749  1.00  0.00     0.009 A 
ATOM     77  C   UNL A   1      43.269  34.664  27.741  1.00  0.00     0.009 A 
ATOM     78  C   UNL A   1      45.225  36.199  28.968  1.00  0.00     0.001 A 
ATOM     79  C   UNL A   1      44.190  35.374  26.962  1.00  0.00     0.001 A 
ATOM     80  C   UNL A   1      45.178  36.133  27.577  1.00  0.00     0.000 A 
ENDBRANCH  56  75
BRANCH  68  81
ATOM     81  C   UNL A   1      41.537  30.641  33.568  1.00  0.00    -0.014 A 
ATOM     82  C   UNL A   1      40.606  31.652  33.877  1.00  0.00     0.009 A 
ATOM     83  C   UNL A   1      42.293  30.097  34.614  1.00  0.00     0.009 A 
ATOM     84  C   UNL A   1      40.454  32.110  35.191  1.00  0.00     0.001 A 
ATOM     85  C   UNL A   1      42.125  30.539  35.927  1.00  0.00     0.001 A 
ATOM     86  C   UNL A   1      41.209  31.547  36.216  1.00  0.00     0.000 A 
ENDBRANCH  68  81
ENDBRANCH  42  43
ENDBRANCH  35  37
ENDBRANCH  34  35
ENDBRANCH  33  34
ENDBRANCH   1  33
TORSDOF 15
ENDMDL
MODEL 2
REMARK VINA RESULT:     -12.9      3.249      9.057
REMARK SMILES Cc1c(C(=O)OCCOC(=O)c2ccc(-c3c4nc(c(-c5ccccc5)c5ccc([nH]5)c(-c5ccccc5)c5nc(c(-c6ccccc6)c6ccc3[nH]6)C=C5)C=C4)cc2)oc2c1/C(=N/NC(=O)C(c1ccccc1)c1ccccc1)CCC2
REMARK SMILES IDX 7 1 6 2 4 3 5 4 3 5 1 6 2 7 62 8 60 9 61 10 63 11 83 12
REMARK SMILES IDX 64 13 81 14 82 15 65 16 66 17 67 19 68 20 69 21 70 22 74 23
REMARK SMILES IDX 71 24 73 25 72 26 75 27 76 28 80 29 77 30 79 31 78 32 8 33
REMARK SMILES IDX 9 34 10 35 11 36 12 37 13 38 59 39 14 40 58 41 15 42 16 43
REMARK SMILES IDX 17 44 52 45 18 46 57 47 51 48 53 49 19 50 56 51 50 52 49 53
REMARK SMILES IDX 20 55 42 56 27 57 41 58 28 59 31 60 40 61 54 62 29 63 30 64
REMARK SMILES IDX 39 66 55 67 32 68 21 69 22 70 26 71 23 72 25 73 24 74 43 75
REMARK SMILES IDX 44 76 48 77 45 78 47 79 46 80 33 81 34 82 38 83 35 84 37 85
REMARK SMILES IDX 36 86
REMARK H PARENT 65 18 53 54 31 65
REMARK Flexibility Score: inf
ROOT
ATOM      1  C   UNL A   1      37.239  20.244  24.971  1.00  0.00     0.275 C 
ENDROOT
BRANCH   1   2
ATOM      2  O   UNL A   1      36.003  20.655  25.555  1.00  0.00    -0.456 OA
BRANCH   2   3
ATOM      3  C   UNL A   1      34.818  20.325  24.959  1.00  0.00     0.374 C 
ATOM      4  O   UNL A   1      34.470  19.185  24.652  1.00  0.00    -0.242 OA
BRANCH   3   5
ATOM      5  C   UNL A   1      34.034  21.526  24.855  1.00  0.00     0.215 A 
ATOM      6  C   UNL A   1      35.123  23.162  23.141  1.00  0.00     0.049 C 
ATOM      7  C   UNL A   1      34.110  22.721  24.135  1.00  0.00     0.012 A 
ATOM      8  C   UNL A   1      33.016  23.506  24.612  1.00  0.00     0.043 A 
ATOM      9  O   UNL A   1      32.907  21.517  25.626  1.00  0.00    -0.453 OA
ATOM     10  C   UNL A   1      32.308  22.689  25.467  1.00  0.00     0.114 A 
ATOM     11  C   UNL A   1      32.620  24.906  24.467  1.00  0.00     0.072 C 
ATOM     12  C   UNL A   1      31.132  22.947  26.314  1.00  0.00     0.076 C 
ATOM     13  N   UNL A   1      33.157  25.520  23.449  1.00  0.00    -0.177 NA
ATOM     14  C   UNL A   1      31.744  25.274  25.670  1.00  0.00     0.059 C 
ATOM     15  C   UNL A   1      30.587  24.308  25.940  1.00  0.00     0.014 C 
BRANCH  13  16
ATOM     16  N   UNL A   1      33.170  26.787  22.905  1.00  0.00    -0.246 N 
ATOM     17  C   UNL A   1      32.551  28.011  23.130  1.00  0.00     0.252 C 
ATOM     18  H   UNL A   1      33.792  26.839  22.145  1.00  0.00     0.193 HD
ATOM     19  O   UNL A   1      32.813  28.959  22.379  1.00  0.00    -0.272 OA
BRANCH  17  20
ATOM     20  C   UNL A   1      31.579  28.181  24.292  1.00  0.00     0.140 C 
BRANCH  20  21
ATOM     21  C   UNL A   1      32.344  29.093  25.362  1.00  0.00    -0.031 A 
ATOM     22  C   UNL A   1      31.762  30.303  25.858  1.00  0.00     0.005 A 
ATOM     23  C   UNL A   1      33.600  28.786  25.905  1.00  0.00     0.005 A 
ATOM     24  C   UNL A   1      32.273  31.045  26.925  1.00  0.00     0.000 A 
ATOM     25  C   UNL A   1      34.154  29.574  26.948  1.00  0.00     0.000 A 
ATOM     26  C   UNL A   1      33.477  30.673  27.483  1.00  0.00     0.000 A 
ENDBRANCH  20  21
BRANCH  20  27
ATOM     27  C   UNL A   1      30.150  28.461  23.626  1.00  0.00    -0.031 A 
ATOM     28  C   UNL A   1      29.078  27.555  23.615  1.00  0.00     0.005 A 
ATOM     29  C   UNL A   1      29.858  29.740  23.055  1.00  0.00     0.005 A 
ATOM     30  C   UNL A   1      27.772  27.988  23.269  1.00  0.00     0.000 A 
ATOM     31  C   UNL A   1      28.563  30.188  22.780  1.00  0.00     0.000 A 
ATOM     32  C   UNL A   1      27.506  29.314  22.916  1.00  0.00     0.000 A 
ENDBRANCH  20  27
ENDBRANCH  17  20
ENDBRANCH  13  16
ENDBRANCH   3   5
ENDBRANCH   2   3
ENDBRANCH   1   2
BRANCH   1  33
ATOM     33  C   UNL A   1      38.363  21.203  25.336  1.00  0.00     0.275 C 
BRANCH  33  34
ATOM     34  O   UNL A   1      39.125  20.644  26.397  1.00  0.00    -0.458 OA
BRANCH  34  35
ATOM     35  C   UNL A   1      40.319  20.117  26.052  1.00  0.00     0.338 C 
ATOM     36  O   UNL A   1      40.530  19.075  25.459  1.00  0.00    -0.246 OA
BRANCH  35  37
ATOM     37  C   UNL A   1      41.371  20.958  26.624  1.00  0.00     0.060 A 
ATOM     38  C   UNL A   1      41.534  20.918  28.013  1.00  0.00     0.016 A 
ATOM     39  C   UNL A   1      41.877  21.993  25.830  1.00  0.00     0.016 A 
ATOM     40  C   UNL A   1      41.954  22.066  28.639  1.00  0.00     0.010 A 
ATOM     41  C   UNL A   1      42.257  23.144  26.452  1.00  0.00     0.010 A 
ATOM     42  C   UNL A   1      42.182  23.188  27.841  1.00  0.00    -0.014 A 
BRANCH  42  43
ATOM     43  C   UNL A   1      42.361  24.471  28.466  1.00  0.00     0.031 A 
ATOM     44  C   UNL A   1      41.231  25.389  28.206  1.00  0.00     0.074 A 
ATOM     45  C   UNL A   1      43.390  24.648  29.320  1.00  0.00     0.049 A 
ATOM     46  N   UNL A   1      41.277  26.537  27.622  1.00  0.00    -0.248 NA
ATOM     47  C   UNL A   1      39.861  24.895  28.448  1.00  0.00     0.031 C 
ATOM     48  C   UNL A   1      44.369  23.658  29.790  1.00  0.00     0.029 A 
ATOM     49  N   UNL A   1      43.689  25.730  30.075  1.00  0.00    -0.354 N 
ATOM     50  C   UNL A   1      39.965  26.996  27.595  1.00  0.00     0.074 A 
ATOM     51  C   UNL A   1      39.128  25.876  27.927  1.00  0.00     0.031 C 
ATOM     52  C   UNL A   1      44.938  24.107  30.933  1.00  0.00     0.029 A 
ATOM     53  C   UNL A   1      44.446  25.447  31.203  1.00  0.00     0.049 A 
ATOM     54  H   UNL A   1      43.394  26.640  29.844  1.00  0.00     0.167 HD
ATOM     55  C   UNL A   1      39.690  28.327  27.561  1.00  0.00     0.031 A 
ATOM     56  C   UNL A   1      44.550  26.224  32.314  1.00  0.00     0.031 A 
ATOM     57  C   UNL A   1      40.853  29.090  27.194  1.00  0.00     0.049 A 
ATOM     58  C   UNL A   1      44.063  27.581  31.939  1.00  0.00     0.074 A 
ATOM     59  C   UNL A   1      41.643  29.145  26.064  1.00  0.00     0.029 A 
ATOM     60  N   UNL A   1      41.601  29.617  28.222  1.00  0.00    -0.354 N 
ATOM     61  N   UNL A   1      44.691  28.346  31.090  1.00  0.00    -0.248 NA
ATOM     62  C   UNL A   1      42.635  27.853  32.077  1.00  0.00     0.031 C 
ATOM     63  C   UNL A   1      42.973  29.255  26.558  1.00  0.00     0.029 A 
ATOM     64  C   UNL A   1      42.920  29.359  27.951  1.00  0.00     0.049 A 
ATOM     65  H   UNL A   1      41.253  30.093  29.010  1.00  0.00     0.167 HD
ATOM     66  C   UNL A   1      43.694  28.871  30.276  1.00  0.00     0.074 A 
ATOM     67  C   UNL A   1      42.441  28.599  30.984  1.00  0.00     0.031 C 
ATOM     68  C   UNL A   1      43.936  29.177  28.965  1.00  0.00     0.031 A 
BRANCH  55  69
ATOM     69  C   UNL A   1      38.522  28.947  28.280  1.00  0.00    -0.014 A 
ATOM     70  C   UNL A   1      37.900  30.061  27.690  1.00  0.00     0.009 A 
ATOM     71  C   UNL A   1      38.203  28.678  29.624  1.00  0.00     0.009 A 
ATOM     72  C   UNL A   1      37.083  30.914  28.438  1.00  0.00     0.001 A 
ATOM     73  C   UNL A   1      37.357  29.506  30.363  1.00  0.00     0.001 A 
ATOM     74  C   UNL A   1      36.823  30.643  29.777  1.00  0.00     0.000 A 
ENDBRANCH  55  69
BRANCH  56  75
ATOM     75  C   UNL A   1      44.695  25.772  33.721  1.00  0.00    -0.014 A 
ATOM     76  C   UNL A   1      44.164  24.549  34.161  1.00  0.00     0.009 A 
ATOM     77  C   UNL A   1      45.570  26.445  34.598  1.00  0.00     0.009 A 
ATOM     78  C   UNL A   1      44.511  24.016  35.415  1.00  0.00     0.001 A 
ATOM     79  C   UNL A   1      45.914  25.918  35.848  1.00  0.00     0.001 A 
ATOM     80  C   UNL A   1      45.393  24.696  36.252  1.00  0.00     0.000 A 
ENDBRANCH  56  75
BRANCH  68  81
ATOM     81  C   UNL A   1      45.355  29.078  28.457  1.00  0.00    -0.014 A 
ATOM     82  C   UNL A   1      45.921  27.880  27.978  1.00  0.00     0.009 A 
ATOM     83  C   UNL A   1      46.062  30.270  28.255  1.00  0.00     0.009 A 
ATOM     84  C   UNL A   1      47.164  27.881  27.333  1.00  0.00     0.001 A 
ATOM     85  C   UNL A   1      47.291  30.273  27.593  1.00  0.00     0.001 A 
ATOM     86  C   UNL A   1      47.844  29.079  27.135  1.00  0.00     0.000 A 
ENDBRANCH  68  81
ENDBRANCH  42  43
ENDBRANCH  35  37
ENDBRANCH  34  35
ENDBRANCH  33  34
ENDBRANCH   1  33
TORSDOF 15
ENDMDL
MODEL 3
REMARK VINA RESULT:     -12.7      3.013      6.999
REMARK SMILES Cc1c(C(=O)OCCOC(=O)c2ccc(-c3c4nc(c(-c5ccccc5)c5ccc([nH]5)c(-c5ccccc5)c5nc(c(-c6ccccc6)c6ccc3[nH]6)C=C5)C=C4)cc2)oc2c1/C(=N/NC(=O)C(c1ccccc1)c1ccccc1)CCC2
REMARK SMILES IDX 7 1 6 2 4 3 5 4 3 5 1 6 2 7 62 8 60 9 61 10 63 11 83 12
REMARK SMILES IDX 64 13 81 14 82 15 65 16 66 17 67 19 68 20 69 21 70 22 74 23
REMARK SMILES IDX 71 24 73 25 72 26 75 27 76 28 80 29 77 30 79 31 78 32 8 33
REMARK SMILES IDX 9 34 10 35 11 36 12 37 13 38 59 39 14 40 58 41 15 42 16 43
REMARK SMILES IDX 17 44 52 45 18 46 57 47 51 48 53 49 19 50 56 51 50 52 49 53
REMARK SMILES IDX 20 55 42 56 27 57 41 58 28 59 31 60 40 61 54 62 29 63 30 64
REMARK SMILES IDX 39 66 55 67 32 68 21 69 22 70 26 71 23 72 25 73 24 74 43 75
REMARK SMILES IDX 44 76 48 77 45 78 47 79 46 80 33 81 34 82 38 83 35 84 37 85
REMARK SMILES IDX 36 86
REMARK H PARENT 65 18 53 54 31 65
REMARK Flexibility Score: inf
ROOT
ATOM      1  C   UNL A   1      33.253  30.356  27.016  1.00  0.00     0.275 C 
ENDROOT
BRANCH   1   2
ATOM      2  O   UNL A   1      33.398  28.964  27.300  1.00  0.00    -0.456 OA
BRANCH   2   3
ATOM      3  C   UNL A   1      32.307  28.140  27.268  1.00  0.00     0.374 C 
ATOM      4  O   UNL A   1      31.397  28.133  28.095  1.00  0.00    -0.242 OA
BRANCH   3   5
ATOM      5  C   UNL A   1      32.378  27.373  26.053  1.00  0.00     0.215 A 
ATOM      6  C   UNL A   1      31.663  24.907  26.509  1.00  0.00     0.049 C 
ATOM      7  C   UNL A   1      32.132  26.048  25.682  1.00  0.00     0.012 A 
ATOM      8  C   UNL A   1      32.506  25.980  24.304  1.00  0.00     0.043 A 
ATOM      9  O   UNL A   1      32.752  28.102  24.961  1.00  0.00    -0.453 OA
ATOM     10  C   UNL A   1      32.815  27.270  23.931  1.00  0.00     0.114 A 
ATOM     11  C   UNL A   1      32.713  24.889  23.352  1.00  0.00     0.072 C 
ATOM     12  C   UNL A   1      33.330  27.824  22.668  1.00  0.00     0.076 C 
ATOM     13  N   UNL A   1      32.142  23.763  23.683  1.00  0.00    -0.177 NA
ATOM     14  C   UNL A   1      33.669  25.390  22.264  1.00  0.00     0.059 C 
ATOM     15  C   UNL A   1      33.275  26.726  21.629  1.00  0.00     0.014 C 
BRANCH  13  16
ATOM     16  N   UNL A   1      32.062  22.473  23.202  1.00  0.00    -0.246 N 
ATOM     17  C   UNL A   1      32.537  21.214  23.548  1.00  0.00     0.252 C 
ATOM     18  H   UNL A   1      31.516  22.434  22.385  1.00  0.00     0.193 HD
ATOM     19  O   UNL A   1      32.261  20.252  22.820  1.00  0.00    -0.272 OA
BRANCH  17  20
ATOM     20  C   UNL A   1      33.369  21.024  24.811  1.00  0.00     0.140 C 
BRANCH  20  21
ATOM     21  C   UNL A   1      33.567  19.443  24.962  1.00  0.00    -0.031 A 
ATOM     22  C   UNL A   1      32.528  18.611  25.489  1.00  0.00     0.005 A 
ATOM     23  C   UNL A   1      34.730  18.755  24.586  1.00  0.00     0.005 A 
ATOM     24  C   UNL A   1      32.551  17.215  25.472  1.00  0.00     0.000 A 
ATOM     25  C   UNL A   1      34.781  17.337  24.625  1.00  0.00     0.000 A 
ATOM     26  C   UNL A   1      33.685  16.569  25.028  1.00  0.00     0.000 A 
ENDBRANCH  20  21
BRANCH  20  27
ATOM     27  C   UNL A   1      34.514  22.142  24.750  1.00  0.00    -0.031 A 
ATOM     28  C   UNL A   1      34.806  23.049  25.781  1.00  0.00     0.005 A 
ATOM     29  C   UNL A   1      35.387  22.220  23.620  1.00  0.00     0.005 A 
ATOM     30  C   UNL A   1      36.011  23.798  25.761  1.00  0.00     0.000 A 
ATOM     31  C   UNL A   1      36.606  22.903  23.628  1.00  0.00     0.000 A 
ATOM     32  C   UNL A   1      36.935  23.677  24.721  1.00  0.00     0.000 A 
ENDBRANCH  20  27
ENDBRANCH  17  20
ENDBRANCH  13  16
ENDBRANCH   3   5
ENDBRANCH   2   3
ENDBRANCH   1   2
BRANCH   1  33
ATOM     33  C   UNL A   1      34.077  31.199  27.979  1.00  0.00     0.275 C 
BRANCH  33  34
ATOM     34  O   UNL A   1      35.015  30.364  28.642  1.00  0.00    -0.458 OA
BRANCH  34  35
ATOM     35  C   UNL A   1      36.041  30.995  29.251  1.00  0.00     0.338 C 
ATOM     36  O   UNL A   1      35.981  31.882  30.083  1.00  0.00    -0.246 OA
BRANCH  35  37
ATOM     37  C   UNL A   1      37.288  30.520  28.654  1.00  0.00     0.060 A 
ATOM     38  C   UNL A   1      37.239  29.311  27.952  1.00  0.00     0.016 A 
ATOM     39  C   UNL A   1      38.484  31.078  29.120  1.00  0.00     0.016 A 
ATOM     40  C   UNL A   1      38.359  28.516  27.970  1.00  0.00     0.010 A 
ATOM     41  C   UNL A   1      39.584  30.276  29.171  1.00  0.00     0.010 A 
ATOM     42  C   UNL A   1      39.462  28.974  28.692  1.00  0.00    -0.014 A 
BRANCH  42  43
ATOM     43  C   UNL A   1      40.549  28.072  28.962  1.00  0.00     0.031 A 
ATOM     44  C   UNL A   1      40.925  28.053  30.392  1.00  0.00     0.074 A 
ATOM     45  C   UNL A   1      40.980  27.251  27.983  1.00  0.00     0.049 A 
ATOM     46  N   UNL A   1      42.071  28.350  30.901  1.00  0.00    -0.248 NA
ATOM     47  C   UNL A   1      39.855  27.869  31.393  1.00  0.00     0.031 C 
ATOM     48  C   UNL A   1      40.435  27.076  26.629  1.00  0.00     0.029 A 
ATOM     49  N   UNL A   1      41.917  26.276  28.045  1.00  0.00    -0.354 N 
ATOM     50  C   UNL A   1      41.920  28.205  32.276  1.00  0.00     0.074 A 
ATOM     51  C   UNL A   1      40.509  28.108  32.528  1.00  0.00     0.031 C 
ATOM     52  C   UNL A   1      40.853  25.888  26.134  1.00  0.00     0.029 A 
ATOM     53  C   UNL A   1      41.772  25.285  27.084  1.00  0.00     0.049 A 
ATOM     54  H   UNL A   1      42.638  26.271  28.713  1.00  0.00     0.167 HD
ATOM     55  C   UNL A   1      42.983  27.909  33.070  1.00  0.00     0.031 A 
ATOM     56  C   UNL A   1      42.287  24.028  27.147  1.00  0.00     0.031 A 
ATOM     57  C   UNL A   1      44.226  28.141  32.383  1.00  0.00     0.049 A 
ATOM     58  C   UNL A   1      43.348  24.047  28.192  1.00  0.00     0.074 A 
ATOM     59  C   UNL A   1      44.833  29.262  31.855  1.00  0.00     0.029 A 
ATOM     60  N   UNL A   1      44.812  27.055  31.774  1.00  0.00    -0.354 N 
ATOM     61  N   UNL A   1      44.458  24.720  28.058  1.00  0.00    -0.248 NA
ATOM     62  C   UNL A   1      42.949  23.781  29.570  1.00  0.00     0.031 C 
ATOM     63  C   UNL A   1      45.404  28.821  30.628  1.00  0.00     0.029 A 
ATOM     64  C   UNL A   1      45.202  27.442  30.518  1.00  0.00     0.049 A 
ATOM     65  H   UNL A   1      44.930  26.160  32.169  1.00  0.00     0.167 HD
ATOM     66  C   UNL A   1      44.651  25.338  29.288  1.00  0.00     0.074 A 
ATOM     67  C   UNL A   1      43.737  24.656  30.206  1.00  0.00     0.031 C 
ATOM     68  C   UNL A   1      45.280  26.549  29.382  1.00  0.00     0.031 A 
BRANCH  55  69
ATOM     69  C   UNL A   1      42.891  27.010  34.272  1.00  0.00    -0.014 A 
ATOM     70  C   UNL A   1      43.383  25.699  34.156  1.00  0.00     0.009 A 
ATOM     71  C   UNL A   1      42.089  27.291  35.395  1.00  0.00     0.009 A 
ATOM     72  C   UNL A   1      43.007  24.701  35.060  1.00  0.00     0.001 A 
ATOM     73  C   UNL A   1      41.744  26.306  36.322  1.00  0.00     0.001 A 
ATOM     74  C   UNL A   1      42.177  25.003  36.135  1.00  0.00     0.000 A 
ENDBRANCH  55  69
BRANCH  56  75
ATOM     75  C   UNL A   1      41.677  22.777  26.630  1.00  0.00    -0.014 A 
ATOM     76  C   UNL A   1      42.431  21.604  26.460  1.00  0.00     0.009 A 
ATOM     77  C   UNL A   1      40.276  22.662  26.518  1.00  0.00     0.009 A 
ATOM     78  C   UNL A   1      41.805  20.370  26.208  1.00  0.00     0.001 A 
ATOM     79  C   UNL A   1      39.652  21.435  26.264  1.00  0.00     0.001 A 
ATOM     80  C   UNL A   1      40.418  20.285  26.121  1.00  0.00     0.000 A 
ENDBRANCH  56  75
BRANCH  68  81
ATOM     81  C   UNL A   1      45.899  27.134  28.134  1.00  0.00    -0.014 A 
ATOM     82  C   UNL A   1      45.168  27.871  27.183  1.00  0.00     0.009 A 
ATOM     83  C   UNL A   1      47.296  27.124  28.031  1.00  0.00     0.009 A 
ATOM     84  C   UNL A   1      45.820  28.561  26.153  1.00  0.00     0.001 A 
ATOM     85  C   UNL A   1      47.947  27.829  27.017  1.00  0.00     0.001 A 
ATOM     86  C   UNL A   1      47.209  28.545  26.077  1.00  0.00     0.000 A 
ENDBRANCH  68  81
ENDBRANCH  42  43
ENDBRANCH  35  37
ENDBRANCH  34  35
ENDBRANCH  33  34
ENDBRANCH   1  33
TORSDOF 15
ENDMDL
