MODEL 1
REMARK VINA RESULT:     -11.3      0.000      0.000
REMARK SMILES Cc1ccc2c(c1)C=C(C(=O)OCCOC(=O)c1ccc(-c3c4nc(c(-c5ccccc5)c5ccc([nH]5)c(-c5ccccc5)c5nc(c(-c6ccccc6)c6ccc3[nH]6)C=C5)C=C4)cc1)[C@@H](C(F)(F)F)O2
REMARK SMILES IDX 14 1 13 2 12 3 10 4 11 5 9 6 1 7 2 8 3 9 7 10 4 11 6 12 5 13
REMARK SMILES IDX 8 14 71 15 66 16 67 17 68 18 69 19 70 20 15 21 16 22 17 23
REMARK SMILES IDX 18 24 19 25 65 26 20 27 64 28 21 29 22 30 23 31 58 32 24 33
REMARK SMILES IDX 63 34 57 35 59 36 25 37 62 38 56 39 55 40 26 42 48 43 33 44
REMARK SMILES IDX 47 45 34 46 37 47 46 48 60 49 35 50 36 51 45 53 61 54 38 55
REMARK SMILES IDX 27 56 28 57 32 58 29 59 31 60 30 61 49 62 50 63 54 64 51 65
REMARK SMILES IDX 53 66 52 67 39 68 40 69 44 70 41 71 43 72 42 73
REMARK H PARENT 59 41 37 52
REMARK Flexibility Score: inf
ROOT
ATOM      1  C   UNL A   1      35.999  20.517  25.041  1.00  0.00     0.275 C 
ENDROOT
BRANCH   1   2
ATOM      2  C   UNL A   1      34.568  21.009  25.259  1.00  0.00     0.275 C 
BRANCH   2   3
ATOM      3  O   UNL A   1      34.491  22.451  25.207  1.00  0.00    -0.459 OA
BRANCH   3   4
ATOM      4  C   UNL A   1      33.524  22.958  24.407  1.00  0.00     0.338 C 
ATOM      5  O   UNL A   1      33.139  22.493  23.346  1.00  0.00    -0.246 OA
BRANCH   4   6
ATOM      6  C   UNL A   1      32.926  24.161  25.019  1.00  0.00     0.087 C 
ATOM      7  C   UNL A   1      34.469  29.670  27.299  1.00  0.00     0.044 C 
ATOM      8  C   UNL A   1      33.557  28.522  26.982  1.00  0.00    -0.050 A 
ATOM      9  C   UNL A   1      32.204  28.547  27.337  1.00  0.00     0.007 A 
ATOM     10  C   UNL A   1      34.047  27.419  26.278  1.00  0.00     0.015 A 
ATOM     11  C   UNL A   1      31.360  27.481  27.002  1.00  0.00     0.047 A 
ATOM     12  C   UNL A   1      33.206  26.344  25.966  1.00  0.00     0.017 A 
ATOM     13  C   UNL A   1      31.860  26.377  26.315  1.00  0.00     0.128 A 
ATOM     14  C   UNL A   1      33.745  25.182  25.294  1.00  0.00     0.027 C 
ATOM     15  O   UNL A   1      30.974  25.382  26.006  1.00  0.00    -0.475 OA
ATOM     16  C   UNL A   1      31.479  24.143  25.424  1.00  0.00     0.316 C 
BRANCH  16  17
ATOM     17  C   UNL A   1      31.203  22.992  26.406  1.00  0.00     0.430 C 
ATOM     18  F   UNL A   1      32.197  22.867  27.317  1.00  0.00    -0.167 F 
ATOM     19  F   UNL A   1      30.062  23.201  27.108  1.00  0.00    -0.167 F 
ATOM     20  F   UNL A   1      31.075  21.802  25.776  1.00  0.00    -0.167 F 
ENDBRANCH  16  17
ENDBRANCH   4   6
ENDBRANCH   3   4
ENDBRANCH   2   3
ENDBRANCH   1   2
BRANCH   1  21
ATOM     21  O   UNL A   1      36.928  21.593  25.263  1.00  0.00    -0.458 OA
BRANCH  21  22
ATOM     22  C   UNL A   1      38.187  21.227  25.590  1.00  0.00     0.338 C 
ATOM     23  O   UNL A   1      38.732  20.156  25.388  1.00  0.00    -0.246 OA
BRANCH  22  24
ATOM     24  C   UNL A   1      38.884  22.377  26.186  1.00  0.00     0.060 A 
ATOM     25  C   UNL A   1      40.134  22.243  26.779  1.00  0.00     0.016 A 
ATOM     26  C   UNL A   1      38.325  23.639  26.024  1.00  0.00     0.016 A 
ATOM     27  C   UNL A   1      40.805  23.390  27.221  1.00  0.00     0.010 A 
ATOM     28  C   UNL A   1      39.052  24.784  26.332  1.00  0.00     0.010 A 
ATOM     29  C   UNL A   1      40.291  24.680  26.970  1.00  0.00    -0.014 A 
BRANCH  29  30
ATOM     30  C   UNL A   1      41.032  25.914  27.369  1.00  0.00     0.031 A 
ATOM     31  C   UNL A   1      42.384  26.240  26.771  1.00  0.00     0.074 A 
ATOM     32  C   UNL A   1      40.515  26.732  28.310  1.00  0.00     0.049 A 
ATOM     33  N   UNL A   1      43.163  27.267  27.010  1.00  0.00    -0.248 NA
ATOM     34  C   UNL A   1      42.957  25.277  25.815  1.00  0.00     0.031 C 
ATOM     35  C   UNL A   1      39.267  26.499  29.042  1.00  0.00     0.029 A 
ATOM     36  N   UNL A   1      40.961  27.937  28.800  1.00  0.00    -0.354 N 
ATOM     37  C   UNL A   1      44.318  27.052  26.265  1.00  0.00     0.074 A 
ATOM     38  C   UNL A   1      44.171  25.769  25.619  1.00  0.00     0.031 C 
ATOM     39  C   UNL A   1      39.006  27.562  29.818  1.00  0.00     0.029 A 
ATOM     40  C   UNL A   1      40.089  28.530  29.681  1.00  0.00     0.049 A 
ATOM     41  H   UNL A   1      41.824  28.335  28.543  1.00  0.00     0.167 HD
ATOM     42  C   UNL A   1      45.389  27.863  26.096  1.00  0.00     0.031 A 
ATOM     43  C   UNL A   1      40.138  29.728  30.298  1.00  0.00     0.031 A 
ATOM     44  C   UNL A   1      45.509  29.172  26.679  1.00  0.00     0.049 A 
ATOM     45  C   UNL A   1      41.304  30.642  30.045  1.00  0.00     0.074 A 
ATOM     46  C   UNL A   1      46.514  30.105  26.490  1.00  0.00     0.029 A 
ATOM     47  N   UNL A   1      44.590  29.739  27.544  1.00  0.00    -0.354 N 
ATOM     48  N   UNL A   1      42.347  30.450  29.276  1.00  0.00    -0.248 NA
ATOM     49  C   UNL A   1      41.296  31.941  30.736  1.00  0.00     0.031 C 
ATOM     50  C   UNL A   1      46.224  31.222  27.273  1.00  0.00     0.029 A 
ATOM     51  C   UNL A   1      45.011  31.006  27.907  1.00  0.00     0.049 A 
ATOM     52  H   UNL A   1      43.762  29.306  27.855  1.00  0.00     0.167 HD
ATOM     53  C   UNL A   1      43.108  31.607  29.374  1.00  0.00     0.074 A 
ATOM     54  C   UNL A   1      42.400  32.505  30.262  1.00  0.00     0.031 C 
ATOM     55  C   UNL A   1      44.293  31.895  28.782  1.00  0.00     0.031 A 
BRANCH  42  56
ATOM     56  C   UNL A   1      46.507  27.391  25.206  1.00  0.00    -0.014 A 
ATOM     57  C   UNL A   1      47.442  26.460  25.686  1.00  0.00     0.009 A 
ATOM     58  C   UNL A   1      46.693  27.940  23.927  1.00  0.00     0.009 A 
ATOM     59  C   UNL A   1      48.544  26.095  24.908  1.00  0.00     0.001 A 
ATOM     60  C   UNL A   1      47.778  27.549  23.139  1.00  0.00     0.001 A 
ATOM     61  C   UNL A   1      48.708  26.636  23.634  1.00  0.00     0.000 A 
ENDBRANCH  42  56
BRANCH  43  62
ATOM     62  C   UNL A   1      39.005  30.154  31.163  1.00  0.00    -0.014 A 
ATOM     63  C   UNL A   1      38.962  29.804  32.521  1.00  0.00     0.009 A 
ATOM     64  C   UNL A   1      37.932  30.875  30.616  1.00  0.00     0.009 A 
ATOM     65  C   UNL A   1      37.861  30.151  33.308  1.00  0.00     0.001 A 
ATOM     66  C   UNL A   1      36.846  31.246  31.412  1.00  0.00     0.001 A 
ATOM     67  C   UNL A   1      36.807  30.876  32.755  1.00  0.00     0.000 A 
ENDBRANCH  43  62
BRANCH  55  68
ATOM     68  C   UNL A   1      44.910  33.237  29.048  1.00  0.00    -0.014 A 
ATOM     69  C   UNL A   1      44.601  34.322  28.212  1.00  0.00     0.009 A 
ATOM     70  C   UNL A   1      45.891  33.395  30.039  1.00  0.00     0.009 A 
ATOM     71  C   UNL A   1      45.277  35.535  28.350  1.00  0.00     0.001 A 
ATOM     72  C   UNL A   1      46.546  34.618  30.191  1.00  0.00     0.001 A 
ATOM     73  C   UNL A   1      46.248  35.682  29.340  1.00  0.00     0.000 A 
ENDBRANCH  55  68
ENDBRANCH  29  30
ENDBRANCH  22  24
ENDBRANCH  21  22
ENDBRANCH   1  21
TORSDOF 12
ENDMDL
MODEL 2
REMARK VINA RESULT:     -11.3      5.444     10.243
REMARK SMILES Cc1ccc2c(c1)C=C(C(=O)OCCOC(=O)c1ccc(-c3c4nc(c(-c5ccccc5)c5ccc([nH]5)c(-c5ccccc5)c5nc(c(-c6ccccc6)c6ccc3[nH]6)C=C5)C=C4)cc1)[C@@H](C(F)(F)F)O2
REMARK SMILES IDX 14 1 13 2 12 3 10 4 11 5 9 6 1 7 2 8 3 9 7 10 4 11 6 12 5 13
REMARK SMILES IDX 8 14 71 15 66 16 67 17 68 18 69 19 70 20 15 21 16 22 17 23
REMARK SMILES IDX 18 24 19 25 65 26 20 27 64 28 21 29 22 30 23 31 58 32 24 33
REMARK SMILES IDX 63 34 57 35 59 36 25 37 62 38 56 39 55 40 26 42 48 43 33 44
REMARK SMILES IDX 47 45 34 46 37 47 46 48 60 49 35 50 36 51 45 53 61 54 38 55
REMARK SMILES IDX 27 56 28 57 32 58 29 59 31 60 30 61 49 62 50 63 54 64 51 65
REMARK SMILES IDX 53 66 52 67 39 68 40 69 44 70 41 71 43 72 42 73
REMARK H PARENT 59 41 37 52
REMARK Flexibility Score: inf
ROOT
ATOM      1  C   UNL A   1      33.804  33.632  28.284  1.00  0.00     0.275 C 
ENDROOT
BRANCH   1   2
ATOM      2  C   UNL A   1      34.507  34.778  29.010  1.00  0.00     0.275 C 
BRANCH   2   3
ATOM      3  O   UNL A   1      34.292  34.711  30.437  1.00  0.00    -0.459 OA
BRANCH   3   4
ATOM      4  C   UNL A   1      34.856  33.652  31.066  1.00  0.00     0.338 C 
ATOM      5  O   UNL A   1      34.402  32.521  31.135  1.00  0.00    -0.246 OA
BRANCH   4   6
ATOM      6  C   UNL A   1      36.165  34.027  31.635  1.00  0.00     0.087 C 
ATOM      7  C   UNL A   1      42.180  33.956  30.318  1.00  0.00     0.044 C 
ATOM      8  C   UNL A   1      40.965  34.153  31.175  1.00  0.00    -0.050 A 
ATOM      9  C   UNL A   1      41.070  34.589  32.500  1.00  0.00     0.007 A 
ATOM     10  C   UNL A   1      39.693  33.945  30.635  1.00  0.00     0.015 A 
ATOM     11  C   UNL A   1      39.923  34.802  33.274  1.00  0.00     0.047 A 
ATOM     12  C   UNL A   1      38.547  34.136  31.419  1.00  0.00     0.017 A 
ATOM     13  C   UNL A   1      38.658  34.575  32.734  1.00  0.00     0.128 A 
ATOM     14  C   UNL A   1      37.242  33.853  30.864  1.00  0.00     0.027 C 
ATOM     15  O   UNL A   1      37.583  34.820  33.541  1.00  0.00    -0.475 OA
ATOM     16  C   UNL A   1      36.250  34.454  33.074  1.00  0.00     0.316 C 
BRANCH  16  17
ATOM     17  C   UNL A   1      35.688  33.363  34.000  1.00  0.00     0.430 C 
ATOM     18  F   UNL A   1      36.070  33.555  35.285  1.00  0.00    -0.167 F 
ATOM     19  F   UNL A   1      34.333  33.360  33.997  1.00  0.00    -0.167 F 
ATOM     20  F   UNL A   1      36.094  32.125  33.635  1.00  0.00    -0.167 F 
ENDBRANCH  16  17
ENDBRANCH   4   6
ENDBRANCH   3   4
ENDBRANCH   2   3
ENDBRANCH   1   2
BRANCH   1  21
ATOM     21  O   UNL A   1      34.774  32.797  27.626  1.00  0.00    -0.458 OA
BRANCH  21  22
ATOM     22  C   UNL A   1      34.612  31.465  27.788  1.00  0.00     0.338 C 
ATOM     23  O   UNL A   1      33.695  30.768  27.391  1.00  0.00    -0.246 OA
BRANCH  22  24
ATOM     24  C   UNL A   1      35.791  30.917  28.476  1.00  0.00     0.060 A 
ATOM     25  C   UNL A   1      35.733  29.716  29.173  1.00  0.00     0.016 A 
ATOM     26  C   UNL A   1      37.011  31.558  28.301  1.00  0.00     0.016 A 
ATOM     27  C   UNL A   1      36.912  29.180  29.706  1.00  0.00     0.010 A 
ATOM     28  C   UNL A   1      38.197  30.955  28.704  1.00  0.00     0.010 A 
ATOM     29  C   UNL A   1      38.167  29.771  29.446  1.00  0.00    -0.014 A 
BRANCH  29  30
ATOM     30  C   UNL A   1      39.439  29.169  29.945  1.00  0.00     0.031 A 
ATOM     31  C   UNL A   1      40.093  29.665  31.216  1.00  0.00     0.074 A 
ATOM     32  C   UNL A   1      40.045  28.195  29.231  1.00  0.00     0.049 A 
ATOM     33  N   UNL A   1      41.200  29.255  31.787  1.00  0.00    -0.248 NA
ATOM     34  C   UNL A   1      39.451  30.789  31.919  1.00  0.00     0.031 C 
ATOM     35  C   UNL A   1      39.583  27.679  27.940  1.00  0.00     0.029 A 
ATOM     36  N   UNL A   1      41.169  27.450  29.498  1.00  0.00    -0.354 N 
ATOM     37  C   UNL A   1      41.395  30.089  32.883  1.00  0.00     0.074 A 
ATOM     38  C   UNL A   1      40.336  31.069  32.863  1.00  0.00     0.031 C 
ATOM     39  C   UNL A   1      40.361  26.650  27.573  1.00  0.00     0.029 A 
ATOM     40  C   UNL A   1      41.408  26.463  28.571  1.00  0.00     0.049 A 
ATOM     41  H   UNL A   1      41.747  27.609  30.279  1.00  0.00     0.167 HD
ATOM     42  C   UNL A   1      42.345  30.025  33.846  1.00  0.00     0.031 A 
ATOM     43  C   UNL A   1      42.348  25.498  28.535  1.00  0.00     0.031 A 
ATOM     44  C   UNL A   1      43.360  29.009  33.911  1.00  0.00     0.049 A 
ATOM     45  C   UNL A   1      43.354  25.402  29.648  1.00  0.00     0.074 A 
ATOM     46  C   UNL A   1      44.308  28.807  34.900  1.00  0.00     0.029 A 
ATOM     47  N   UNL A   1      43.547  28.016  32.964  1.00  0.00    -0.354 N 
ATOM     48  N   UNL A   1      43.472  26.154  30.715  1.00  0.00    -0.248 NA
ATOM     49  C   UNL A   1      44.347  24.321  29.560  1.00  0.00     0.031 C 
ATOM     50  C   UNL A   1      45.096  27.715  34.531  1.00  0.00     0.029 A 
ATOM     51  C   UNL A   1      44.603  27.206  33.340  1.00  0.00     0.049 A 
ATOM     52  H   UNL A   1      43.010  27.905  32.146  1.00  0.00     0.167 HD
ATOM     53  C   UNL A   1      44.538  25.627  31.433  1.00  0.00     0.074 A 
ATOM     54  C   UNL A   1      45.020  24.482  30.692  1.00  0.00     0.031 C 
ATOM     55  C   UNL A   1      45.069  26.062  32.601  1.00  0.00     0.031 A 
BRANCH  42  56
ATOM     56  C   UNL A   1      42.314  31.050  34.947  1.00  0.00    -0.014 A 
ATOM     57  C   UNL A   1      41.463  30.872  36.050  1.00  0.00     0.009 A 
ATOM     58  C   UNL A   1      43.052  32.241  34.847  1.00  0.00     0.009 A 
ATOM     59  C   UNL A   1      41.346  31.866  37.024  1.00  0.00     0.001 A 
ATOM     60  C   UNL A   1      42.957  33.219  35.839  1.00  0.00     0.001 A 
ATOM     61  C   UNL A   1      42.096  33.036  36.921  1.00  0.00     0.000 A 
ENDBRANCH  42  56
BRANCH  43  62
ATOM     62  C   UNL A   1      42.334  24.502  27.430  1.00  0.00    -0.014 A 
ATOM     63  C   UNL A   1      41.624  23.297  27.554  1.00  0.00     0.009 A 
ATOM     64  C   UNL A   1      43.075  24.734  26.261  1.00  0.00     0.009 A 
ATOM     65  C   UNL A   1      41.672  22.338  26.538  1.00  0.00     0.001 A 
ATOM     66  C   UNL A   1      43.097  23.787  25.234  1.00  0.00     0.001 A 
ATOM     67  C   UNL A   1      42.404  22.586  25.378  1.00  0.00     0.000 A 
ENDBRANCH  43  62
BRANCH  55  68
ATOM     68  C   UNL A   1      46.226  25.300  33.179  1.00  0.00    -0.014 A 
ATOM     69  C   UNL A   1      45.993  24.311  34.148  1.00  0.00     0.009 A 
ATOM     70  C   UNL A   1      47.548  25.650  32.864  1.00  0.00     0.009 A 
ATOM     71  C   UNL A   1      47.061  23.699  34.805  1.00  0.00     0.001 A 
ATOM     72  C   UNL A   1      48.614  25.017  33.505  1.00  0.00     0.001 A 
ATOM     73  C   UNL A   1      48.371  24.052  34.482  1.00  0.00     0.000 A 
ENDBRANCH  55  68
ENDBRANCH  29  30
ENDBRANCH  22  24
ENDBRANCH  21  22
ENDBRANCH   1  21
TORSDOF 12
ENDMDL
MODEL 3
REMARK VINA RESULT:     -11.2      4.375      7.142
REMARK SMILES Cc1ccc2c(c1)C=C(C(=O)OCCOC(=O)c1ccc(-c3c4nc(c(-c5ccccc5)c5ccc([nH]5)c(-c5ccccc5)c5nc(c(-c6ccccc6)c6ccc3[nH]6)C=C5)C=C4)cc1)[C@@H](C(F)(F)F)O2
REMARK SMILES IDX 14 1 13 2 12 3 10 4 11 5 9 6 1 7 2 8 3 9 7 10 4 11 6 12 5 13
REMARK SMILES IDX 8 14 71 15 66 16 67 17 68 18 69 19 70 20 15 21 16 22 17 23
REMARK SMILES IDX 18 24 19 25 65 26 20 27 64 28 21 29 22 30 23 31 58 32 24 33
REMARK SMILES IDX 63 34 57 35 59 36 25 37 62 38 56 39 55 40 26 42 48 43 33 44
REMARK SMILES IDX 47 45 34 46 37 47 46 48 60 49 35 50 36 51 45 53 61 54 38 55
REMARK SMILES IDX 27 56 28 57 32 58 29 59 31 60 30 61 49 62 50 63 54 64 51 65
REMARK SMILES IDX 53 66 52 67 39 68 40 69 44 70 41 71 43 72 42 73
REMARK H PARENT 59 41 37 52
REMARK Flexibility Score: inf
ROOT
ATOM      1  C   UNL A   1      40.543  20.102  26.176  1.00  0.00     0.275 C 
ENDROOT
BRANCH   1   2
ATOM      2  C   UNL A   1      42.071  20.066  26.135  1.00  0.00     0.275 C 
BRANCH   2   3
ATOM      3  O   UNL A   1      42.629  21.398  26.084  1.00  0.00    -0.459 OA
BRANCH   3   4
ATOM      4  C   UNL A   1      43.896  21.484  25.615  1.00  0.00     0.338 C 
ATOM      5  O   UNL A   1      44.337  20.956  24.607  1.00  0.00    -0.246 OA
BRANCH   4   6
ATOM      6  C   UNL A   1      44.704  22.374  26.472  1.00  0.00     0.087 C 
ATOM      7  C   UNL A   1      44.501  25.347  31.862  1.00  0.00     0.044 C 
ATOM      8  C   UNL A   1      45.065  24.963  30.526  1.00  0.00    -0.050 A 
ATOM      9  C   UNL A   1      46.271  25.500  30.063  1.00  0.00     0.007 A 
ATOM     10  C   UNL A   1      44.405  24.016  29.738  1.00  0.00     0.015 A 
ATOM     11  C   UNL A   1      46.802  25.104  28.829  1.00  0.00     0.047 A 
ATOM     12  C   UNL A   1      44.926  23.640  28.493  1.00  0.00     0.017 A 
ATOM     13  C   UNL A   1      46.128  24.171  28.041  1.00  0.00     0.128 A 
ATOM     14  C   UNL A   1      44.196  22.707  27.663  1.00  0.00     0.027 C 
ATOM     15  O   UNL A   1      46.713  23.819  26.857  1.00  0.00    -0.475 OA
ATOM     16  C   UNL A   1      45.976  22.966  25.932  1.00  0.00     0.316 C 
BRANCH  16  17
ATOM     17  C   UNL A   1      45.703  23.760  24.644  1.00  0.00     0.430 C 
ATOM     18  F   UNL A   1      44.385  24.038  24.502  1.00  0.00    -0.167 F 
ATOM     19  F   UNL A   1      46.351  24.950  24.648  1.00  0.00    -0.167 F 
ATOM     20  F   UNL A   1      46.100  23.090  23.537  1.00  0.00    -0.167 F 
ENDBRANCH  16  17
ENDBRANCH   4   6
ENDBRANCH   3   4
ENDBRANCH   2   3
ENDBRANCH   1   2
BRANCH   1  21
ATOM     21  O   UNL A   1      40.098  21.154  27.051  1.00  0.00    -0.458 OA
BRANCH  21  22
ATOM     22  C   UNL A   1      39.356  22.126  26.475  1.00  0.00     0.338 C 
ATOM     23  O   UNL A   1      38.486  22.003  25.631  1.00  0.00    -0.246 OA
BRANCH  22  24
ATOM     24  C   UNL A   1      39.696  23.419  27.088  1.00  0.00     0.060 A 
ATOM     25  C   UNL A   1      40.644  23.518  28.099  1.00  0.00     0.016 A 
ATOM     26  C   UNL A   1      39.146  24.571  26.538  1.00  0.00     0.016 A 
ATOM     27  C   UNL A   1      41.017  24.786  28.562  1.00  0.00     0.010 A 
ATOM     28  C   UNL A   1      39.621  25.828  26.896  1.00  0.00     0.010 A 
ATOM     29  C   UNL A   1      40.540  25.960  27.941  1.00  0.00    -0.014 A 
BRANCH  29  30
ATOM     30  C   UNL A   1      40.988  27.317  28.375  1.00  0.00     0.031 A 
ATOM     31  C   UNL A   1      42.421  27.764  28.183  1.00  0.00     0.074 A 
ATOM     32  C   UNL A   1      40.118  28.147  28.988  1.00  0.00     0.049 A 
ATOM     33  N   UNL A   1      42.977  28.907  28.506  1.00  0.00    -0.248 NA
ATOM     34  C   UNL A   1      43.364  26.798  27.592  1.00  0.00     0.031 C 
ATOM     35  C   UNL A   1      38.730  27.819  29.326  1.00  0.00     0.029 A 
ATOM     36  N   UNL A   1      40.262  29.444  29.421  1.00  0.00    -0.354 N 
ATOM     37  C   UNL A   1      44.326  28.778  28.190  1.00  0.00     0.074 A 
ATOM     38  C   UNL A   1      44.521  27.430  27.714  1.00  0.00     0.031 C 
ATOM     39  C   UNL A   1      38.130  28.908  29.829  1.00  0.00     0.029 A 
ATOM     40  C   UNL A   1      39.098  29.997  29.901  1.00  0.00     0.049 A 
ATOM     41  H   UNL A   1      41.118  29.929  29.390  1.00  0.00     0.167 HD
ATOM     42  C   UNL A   1      45.309  29.707  28.249  1.00  0.00     0.031 A 
ATOM     43  C   UNL A   1      38.828  31.245  30.331  1.00  0.00     0.031 A 
ATOM     44  C   UNL A   1      45.106  31.072  28.654  1.00  0.00     0.049 A 
ATOM     45  C   UNL A   1      39.918  32.281  30.326  1.00  0.00     0.074 A 
ATOM     46  C   UNL A   1      46.022  32.110  28.657  1.00  0.00     0.029 A 
ATOM     47  N   UNL A   1      43.906  31.592  29.107  1.00  0.00    -0.354 N 
ATOM     48  N   UNL A   1      41.167  32.158  29.950  1.00  0.00    -0.248 NA
ATOM     49  C   UNL A   1      39.560  33.628  30.795  1.00  0.00     0.031 C 
ATOM     50  C   UNL A   1      45.386  33.250  29.151  1.00  0.00     0.029 A 
ATOM     51  C   UNL A   1      44.061  32.934  29.404  1.00  0.00     0.049 A 
ATOM     52  H   UNL A   1      43.069  31.082  29.205  1.00  0.00     0.167 HD
ATOM     53  C   UNL A   1      41.738  33.412  30.117  1.00  0.00     0.074 A 
ATOM     54  C   UNL A   1      40.697  34.288  30.611  1.00  0.00     0.031 C 
ATOM     55  C   UNL A   1      43.016  33.799  29.885  1.00  0.00     0.031 A 
BRANCH  42  56
ATOM     56  C   UNL A   1      46.695  29.307  27.820  1.00  0.00    -0.014 A 
ATOM     57  C   UNL A   1      47.012  29.228  26.454  1.00  0.00     0.009 A 
ATOM     58  C   UNL A   1      47.658  28.912  28.762  1.00  0.00     0.009 A 
ATOM     59  C   UNL A   1      48.260  28.754  26.041  1.00  0.00     0.001 A 
ATOM     60  C   UNL A   1      48.916  28.469  28.348  1.00  0.00     0.001 A 
ATOM     61  C   UNL A   1      49.212  28.381  26.988  1.00  0.00     0.000 A 
ENDBRANCH  42  56
BRANCH  43  62
ATOM     62  C   UNL A   1      37.441  31.597  30.738  1.00  0.00    -0.014 A 
ATOM     63  C   UNL A   1      36.492  32.005  29.788  1.00  0.00     0.009 A 
ATOM     64  C   UNL A   1      37.075  31.571  32.093  1.00  0.00     0.009 A 
ATOM     65  C   UNL A   1      35.212  32.398  30.189  1.00  0.00     0.001 A 
ATOM     66  C   UNL A   1      35.786  31.936  32.488  1.00  0.00     0.001 A 
ATOM     67  C   UNL A   1      34.859  32.358  31.536  1.00  0.00     0.000 A 
ENDBRANCH  43  62
BRANCH  55  68
ATOM     68  C   UNL A   1      43.380  35.232  30.140  1.00  0.00    -0.014 A 
ATOM     69  C   UNL A   1      43.318  36.163  29.090  1.00  0.00     0.009 A 
ATOM     70  C   UNL A   1      43.905  35.633  31.378  1.00  0.00     0.009 A 
ATOM     71  C   UNL A   1      43.795  37.462  29.268  1.00  0.00     0.001 A 
ATOM     72  C   UNL A   1      44.356  36.941  31.561  1.00  0.00     0.001 A 
ATOM     73  C   UNL A   1      44.311  37.851  30.504  1.00  0.00     0.000 A 
ENDBRANCH  55  68
ENDBRANCH  29  30
ENDBRANCH  22  24
ENDBRANCH  21  22
ENDBRANCH   1  21
TORSDOF 12
ENDMDL
