MODEL 1
REMARK VINA RESULT:      -9.6      0.000      0.000
REMARK SMILES Cn1cc2cc(C(=O)OCCOC(=O)c3ccc(-c4c5nc(c(-c6ccccc6)c6ccc([nH]6)c(-c6ccccc6)c6nc(c(-c7ccccc7)c7ccc4[nH]7)C=C6)C=C5)cc3)ccc2n1
REMARK SMILES IDX 11 1 10 2 9 3 7 4 8 5 6 6 1 7 2 8 3 9 66 10 4 11 65 12 5 13
REMARK SMILES IDX 64 14 63 15 12 16 13 17 14 18 15 19 16 20 62 21 17 22 61 23
REMARK SMILES IDX 18 24 19 25 20 26 55 27 21 28 60 29 54 30 56 31 22 32 59 33
REMARK SMILES IDX 53 34 52 35 23 37 45 38 30 39 44 40 31 41 34 42 43 43 57 44
REMARK SMILES IDX 32 45 33 46 42 48 58 49 35 50 24 51 25 52 29 53 26 54 28 55
REMARK SMILES IDX 27 56 46 57 47 58 51 59 48 60 50 61 49 62 36 63 37 64 41 65
REMARK SMILES IDX 38 66 40 67 39 68
REMARK H PARENT 56 36 34 47
REMARK Flexibility Score: inf
ROOT
ATOM      1  C   UNL A   1      32.541  35.388  30.186  1.00  0.00     0.275 C 
ENDROOT
BRANCH   1   2
ATOM      2  C   UNL A   1      33.766  35.617  31.071  1.00  0.00     0.275 C 
BRANCH   2   3
ATOM      3  O   UNL A   1      33.742  34.736  32.212  1.00  0.00    -0.458 OA
BRANCH   3   4
ATOM      4  C   UNL A   1      34.561  35.074  33.238  1.00  0.00     0.338 C 
ATOM      5  O   UNL A   1      34.476  36.073  33.937  1.00  0.00    -0.246 OA
BRANCH   4   6
ATOM      6  C   UNL A   1      35.545  33.992  33.505  1.00  0.00     0.060 A 
ATOM      7  C   UNL A   1      38.111  28.771  32.839  1.00  0.00     0.173 C 
ATOM      8  N   UNL A   1      37.572  30.087  33.089  1.00  0.00    -0.275 N 
ATOM      9  C   UNL A   1      36.467  30.631  32.500  1.00  0.00     0.117 A 
ATOM     10  N   UNL A   1      38.174  30.890  33.996  1.00  0.00    -0.173 NA
ATOM     11  C   UNL A   1      36.346  31.861  33.079  1.00  0.00     0.021 A 
ATOM     12  C   UNL A   1      37.440  32.016  33.999  1.00  0.00     0.092 A 
ATOM     13  C   UNL A   1      35.347  32.781  32.799  1.00  0.00     0.027 A 
ATOM     14  C   UNL A   1      37.595  33.208  34.729  1.00  0.00     0.032 A 
ATOM     15  C   UNL A   1      36.619  34.194  34.437  1.00  0.00     0.018 A 
ENDBRANCH   4   6
ENDBRANCH   3   4
ENDBRANCH   2   3
ENDBRANCH   1   2
BRANCH   1  16
ATOM     16  O   UNL A   1      32.938  35.410  28.803  1.00  0.00    -0.458 OA
BRANCH  16  17
ATOM     17  C   UNL A   1      33.004  34.208  28.186  1.00  0.00     0.338 C 
ATOM     18  O   UNL A   1      32.145  33.668  27.513  1.00  0.00    -0.246 OA
BRANCH  17  19
ATOM     19  C   UNL A   1      34.323  33.600  28.441  1.00  0.00     0.060 A 
ATOM     20  C   UNL A   1      34.403  32.372  29.091  1.00  0.00     0.016 A 
ATOM     21  C   UNL A   1      35.486  34.306  28.141  1.00  0.00     0.016 A 
ATOM     22  C   UNL A   1      35.635  31.882  29.524  1.00  0.00     0.010 A 
ATOM     23  C   UNL A   1      36.730  33.768  28.489  1.00  0.00     0.010 A 
ATOM     24  C   UNL A   1      36.820  32.570  29.223  1.00  0.00    -0.014 A 
BRANCH  24  25
ATOM     25  C   UNL A   1      38.138  32.072  29.715  1.00  0.00     0.031 A 
ATOM     26  C   UNL A   1      38.687  30.757  29.216  1.00  0.00     0.074 A 
ATOM     27  C   UNL A   1      38.863  32.787  30.598  1.00  0.00     0.049 A 
ATOM     28  N   UNL A   1      39.718  30.073  29.644  1.00  0.00    -0.248 NA
ATOM     29  C   UNL A   1      37.973  30.123  28.096  1.00  0.00     0.031 C 
ATOM     30  C   UNL A   1      38.498  34.098  31.139  1.00  0.00     0.029 A 
ATOM     31  N   UNL A   1      40.073  32.511  31.191  1.00  0.00    -0.354 N 
ATOM     32  C   UNL A   1      39.736  28.902  28.896  1.00  0.00     0.074 A 
ATOM     33  C   UNL A   1      38.614  28.968  27.985  1.00  0.00     0.031 C 
ATOM     34  C   UNL A   1      39.481  34.532  31.943  1.00  0.00     0.029 A 
ATOM     35  C   UNL A   1      40.503  33.496  32.047  1.00  0.00     0.049 A 
ATOM     36  H   UNL A   1      40.581  31.687  31.018  1.00  0.00     0.167 HD
ATOM     37  C   UNL A   1      40.602  27.862  28.962  1.00  0.00     0.031 A 
ATOM     38  C   UNL A   1      41.576  33.551  32.860  1.00  0.00     0.031 A 
ATOM     39  C   UNL A   1      41.750  27.810  29.828  1.00  0.00     0.049 A 
ATOM     40  C   UNL A   1      42.507  32.377  32.938  1.00  0.00     0.074 A 
ATOM     41  C   UNL A   1      42.693  26.803  29.950  1.00  0.00     0.029 A 
ATOM     42  N   UNL A   1      42.122  28.814  30.707  1.00  0.00    -0.354 N 
ATOM     43  N   UNL A   1      42.474  31.251  32.269  1.00  0.00    -0.248 NA
ATOM     44  C   UNL A   1      43.613  32.474  33.903  1.00  0.00     0.031 C 
ATOM     45  C   UNL A   1      43.618  27.185  30.930  1.00  0.00     0.029 A 
ATOM     46  C   UNL A   1      43.272  28.447  31.384  1.00  0.00     0.049 A 
ATOM     47  H   UNL A   1      41.638  29.662  30.832  1.00  0.00     0.167 HD
ATOM     48  C   UNL A   1      43.553  30.508  32.726  1.00  0.00     0.074 A 
ATOM     49  C   UNL A   1      44.237  31.320  33.712  1.00  0.00     0.031 C 
ATOM     50  C   UNL A   1      43.939  29.259  32.367  1.00  0.00     0.031 A 
BRANCH  37  51
ATOM     51  C   UNL A   1      40.313  26.665  28.099  1.00  0.00    -0.014 A 
ATOM     52  C   UNL A   1      39.462  25.635  28.527  1.00  0.00     0.009 A 
ATOM     53  C   UNL A   1      40.885  26.586  26.818  1.00  0.00     0.009 A 
ATOM     54  C   UNL A   1      39.218  24.533  27.703  1.00  0.00     0.001 A 
ATOM     55  C   UNL A   1      40.619  25.497  25.987  1.00  0.00     0.001 A 
ATOM     56  C   UNL A   1      39.794  24.467  26.434  1.00  0.00     0.000 A 
ENDBRANCH  37  51
BRANCH  38  57
ATOM     57  C   UNL A   1      41.800  34.752  33.706  1.00  0.00    -0.014 A 
ATOM     58  C   UNL A   1      42.650  35.780  33.273  1.00  0.00     0.009 A 
ATOM     59  C   UNL A   1      41.157  34.878  34.948  1.00  0.00     0.009 A 
ATOM     60  C   UNL A   1      42.857  36.908  34.071  1.00  0.00     0.001 A 
ATOM     61  C   UNL A   1      41.343  36.020  35.729  1.00  0.00     0.001 A 
ATOM     62  C   UNL A   1      42.197  37.030  35.294  1.00  0.00     0.000 A 
ENDBRANCH  38  57
BRANCH  50  63
ATOM     63  C   UNL A   1      45.169  28.708  33.027  1.00  0.00    -0.014 A 
ATOM     64  C   UNL A   1      45.080  27.951  34.206  1.00  0.00     0.009 A 
ATOM     65  C   UNL A   1      46.428  28.927  32.450  1.00  0.00     0.009 A 
ATOM     66  C   UNL A   1      46.235  27.449  34.810  1.00  0.00     0.001 A 
ATOM     67  C   UNL A   1      47.578  28.405  33.042  1.00  0.00     0.001 A 
ATOM     68  C   UNL A   1      47.481  27.674  34.226  1.00  0.00     0.000 A 
ENDBRANCH  50  63
ENDBRANCH  24  25
ENDBRANCH  17  19
ENDBRANCH  16  17
ENDBRANCH   1  16
TORSDOF 11
ENDMDL
MODEL 2
REMARK VINA RESULT:      -9.3      4.840     10.384
REMARK SMILES Cn1cc2cc(C(=O)OCCOC(=O)c3ccc(-c4c5nc(c(-c6ccccc6)c6ccc([nH]6)c(-c6ccccc6)c6nc(c(-c7ccccc7)c7ccc4[nH]7)C=C6)C=C5)cc3)ccc2n1
REMARK SMILES IDX 11 1 10 2 9 3 7 4 8 5 6 6 1 7 2 8 3 9 66 10 4 11 65 12 5 13
REMARK SMILES IDX 64 14 63 15 12 16 13 17 14 18 15 19 16 20 62 21 17 22 61 23
REMARK SMILES IDX 18 24 19 25 20 26 55 27 21 28 60 29 54 30 56 31 22 32 59 33
REMARK SMILES IDX 53 34 52 35 23 37 45 38 30 39 44 40 31 41 34 42 43 43 57 44
REMARK SMILES IDX 32 45 33 46 42 48 58 49 35 50 24 51 25 52 29 53 26 54 28 55
REMARK SMILES IDX 27 56 46 57 47 58 51 59 48 60 50 61 49 62 36 63 37 64 41 65
REMARK SMILES IDX 38 66 40 67 39 68
REMARK H PARENT 56 36 34 47
REMARK Flexibility Score: inf
ROOT
ATOM      1  C   UNL A   1      43.783  21.426  25.377  1.00  0.00     0.275 C 
ENDROOT
BRANCH   1   2
ATOM      2  C   UNL A   1      42.774  20.541  26.109  1.00  0.00     0.275 C 
BRANCH   2   3
ATOM      3  O   UNL A   1      41.425  20.904  25.751  1.00  0.00    -0.458 OA
BRANCH   3   4
ATOM      4  C   UNL A   1      40.574  21.109  26.786  1.00  0.00     0.338 C 
ATOM      5  O   UNL A   1      40.748  20.774  27.948  1.00  0.00    -0.246 OA
BRANCH   4   6
ATOM      6  C   UNL A   1      39.407  21.925  26.355  1.00  0.00     0.060 A 
ATOM      7  C   UNL A   1      34.375  23.073  23.590  1.00  0.00     0.173 C 
ATOM      8  N   UNL A   1      35.607  22.908  24.324  1.00  0.00    -0.275 N 
ATOM      9  C   UNL A   1      36.403  21.799  24.326  1.00  0.00     0.117 A 
ATOM     10  N   UNL A   1      36.069  23.928  25.084  1.00  0.00    -0.173 NA
ATOM     11  C   UNL A   1      37.451  22.136  25.134  1.00  0.00     0.021 A 
ATOM     12  C   UNL A   1      37.213  23.468  25.618  1.00  0.00     0.092 A 
ATOM     13  C   UNL A   1      38.529  21.315  25.426  1.00  0.00     0.027 A 
ATOM     14  C   UNL A   1      38.120  24.078  26.504  1.00  0.00     0.032 A 
ATOM     15  C   UNL A   1      39.215  23.253  26.866  1.00  0.00     0.018 A 
ENDBRANCH   4   6
ENDBRANCH   3   4
ENDBRANCH   2   3
ENDBRANCH   1   2
BRANCH   1  16
ATOM     16  O   UNL A   1      43.121  22.606  24.890  1.00  0.00    -0.458 OA
BRANCH  16  17
ATOM     17  C   UNL A   1      43.824  23.758  24.972  1.00  0.00     0.338 C 
ATOM     18  O   UNL A   1      44.839  24.055  24.368  1.00  0.00    -0.246 OA
BRANCH  17  19
ATOM     19  C   UNL A   1      43.172  24.662  25.935  1.00  0.00     0.060 A 
ATOM     20  C   UNL A   1      43.310  26.040  25.793  1.00  0.00     0.016 A 
ATOM     21  C   UNL A   1      42.520  24.140  27.051  1.00  0.00     0.016 A 
ATOM     22  C   UNL A   1      42.880  26.900  26.803  1.00  0.00     0.010 A 
ATOM     23  C   UNL A   1      42.002  25.009  28.018  1.00  0.00     0.010 A 
ATOM     24  C   UNL A   1      42.211  26.398  27.929  1.00  0.00    -0.014 A 
BRANCH  24  25
ATOM     25  C   UNL A   1      41.781  27.308  29.031  1.00  0.00     0.031 A 
ATOM     26  C   UNL A   1      42.578  27.379  30.311  1.00  0.00     0.074 A 
ATOM     27  C   UNL A   1      40.690  28.088  28.900  1.00  0.00     0.049 A 
ATOM     28  N   UNL A   1      42.280  27.969  31.442  1.00  0.00    -0.248 NA
ATOM     29  C   UNL A   1      43.874  26.682  30.325  1.00  0.00     0.031 C 
ATOM     30  C   UNL A   1      39.841  28.175  27.710  1.00  0.00     0.029 A 
ATOM     31  N   UNL A   1      40.110  28.970  29.782  1.00  0.00    -0.354 N 
ATOM     32  C   UNL A   1      43.314  27.658  32.318  1.00  0.00     0.074 A 
ATOM     33  C   UNL A   1      44.249  26.830  31.587  1.00  0.00     0.031 C 
ATOM     34  C   UNL A   1      38.884  29.092  27.917  1.00  0.00     0.029 A 
ATOM     35  C   UNL A   1      38.992  29.593  29.283  1.00  0.00     0.049 A 
ATOM     36  H   UNL A   1      40.464  29.138  30.685  1.00  0.00     0.167 HD
ATOM     37  C   UNL A   1      43.471  28.023  33.613  1.00  0.00     0.031 A 
ATOM     38  C   UNL A   1      38.123  30.442  29.864  1.00  0.00     0.031 A 
ATOM     39  C   UNL A   1      42.574  28.889  34.331  1.00  0.00     0.049 A 
ATOM     40  C   UNL A   1      38.300  30.811  31.308  1.00  0.00     0.074 A 
ATOM     41  C   UNL A   1      42.664  29.328  35.642  1.00  0.00     0.029 A 
ATOM     42  N   UNL A   1      41.433  29.463  33.795  1.00  0.00    -0.354 N 
ATOM     43  N   UNL A   1      39.250  30.459  32.139  1.00  0.00    -0.248 NA
ATOM     44  C   UNL A   1      37.271  31.679  31.899  1.00  0.00     0.031 C 
ATOM     45  C   UNL A   1      41.555  30.140  35.910  1.00  0.00     0.029 A 
ATOM     46  C   UNL A   1      40.802  30.241  34.752  1.00  0.00     0.049 A 
ATOM     47  H   UNL A   1      41.117  29.335  32.872  1.00  0.00     0.167 HD
ATOM     48  C   UNL A   1      38.936  31.064  33.348  1.00  0.00     0.074 A 
ATOM     49  C   UNL A   1      37.723  31.826  33.137  1.00  0.00     0.031 C 
ATOM     50  C   UNL A   1      39.592  30.988  34.532  1.00  0.00     0.031 A 
BRANCH  37  51
ATOM     51  C   UNL A   1      44.644  27.447  34.357  1.00  0.00    -0.014 A 
ATOM     52  C   UNL A   1      45.884  28.102  34.401  1.00  0.00     0.009 A 
ATOM     53  C   UNL A   1      44.490  26.236  35.052  1.00  0.00     0.009 A 
ATOM     54  C   UNL A   1      46.956  27.537  35.096  1.00  0.00     0.001 A 
ATOM     55  C   UNL A   1      45.554  25.687  35.768  1.00  0.00     0.001 A 
ATOM     56  C   UNL A   1      46.789  26.333  35.781  1.00  0.00     0.000 A 
ENDBRANCH  37  51
BRANCH  38  57
ATOM     57  C   UNL A   1      36.970  30.965  29.086  1.00  0.00    -0.014 A 
ATOM     58  C   UNL A   1      35.908  30.121  28.731  1.00  0.00     0.009 A 
ATOM     59  C   UNL A   1      36.923  32.315  28.704  1.00  0.00     0.009 A 
ATOM     60  C   UNL A   1      34.825  30.617  28.001  1.00  0.00     0.001 A 
ATOM     61  C   UNL A   1      35.825  32.815  28.000  1.00  0.00     0.001 A 
ATOM     62  C   UNL A   1      34.781  31.965  27.644  1.00  0.00     0.000 A 
ENDBRANCH  38  57
BRANCH  50  63
ATOM     63  C   UNL A   1      39.022  31.769  35.680  1.00  0.00    -0.014 A 
ATOM     64  C   UNL A   1      38.153  31.167  36.603  1.00  0.00     0.009 A 
ATOM     65  C   UNL A   1      39.378  33.114  35.853  1.00  0.00     0.009 A 
ATOM     66  C   UNL A   1      37.628  31.909  37.663  1.00  0.00     0.001 A 
ATOM     67  C   UNL A   1      38.869  33.848  36.926  1.00  0.00     0.001 A 
ATOM     68  C   UNL A   1      37.988  33.247  37.825  1.00  0.00     0.000 A 
ENDBRANCH  50  63
ENDBRANCH  24  25
ENDBRANCH  17  19
ENDBRANCH  16  17
ENDBRANCH   1  16
TORSDOF 11
ENDMDL
MODEL 3
REMARK VINA RESULT:      -9.2      5.848     11.374
REMARK SMILES Cn1cc2cc(C(=O)OCCOC(=O)c3ccc(-c4c5nc(c(-c6ccccc6)c6ccc([nH]6)c(-c6ccccc6)c6nc(c(-c7ccccc7)c7ccc4[nH]7)C=C6)C=C5)cc3)ccc2n1
REMARK SMILES IDX 11 1 10 2 9 3 7 4 8 5 6 6 1 7 2 8 3 9 66 10 4 11 65 12 5 13
REMARK SMILES IDX 64 14 63 15 12 16 13 17 14 18 15 19 16 20 62 21 17 22 61 23
REMARK SMILES IDX 18 24 19 25 20 26 55 27 21 28 60 29 54 30 56 31 22 32 59 33
REMARK SMILES IDX 53 34 52 35 23 37 45 38 30 39 44 40 31 41 34 42 43 43 57 44
REMARK SMILES IDX 32 45 33 46 42 48 58 49 35 50 24 51 25 52 29 53 26 54 28 55
REMARK SMILES IDX 27 56 46 57 47 58 51 59 48 60 50 61 49 62 36 63 37 64 41 65
REMARK SMILES IDX 38 66 40 67 39 68
REMARK H PARENT 56 36 34 47
REMARK Flexibility Score: inf
ROOT
ATOM      1  C   UNL A   1      42.821  18.558  25.192  1.00  0.00     0.275 C 
ENDROOT
BRANCH   1   2
ATOM      2  C   UNL A   1      44.222  19.147  25.353  1.00  0.00     0.275 C 
BRANCH   2   3
ATOM      3  O   UNL A   1      44.407  20.270  24.466  1.00  0.00    -0.458 OA
BRANCH   3   4
ATOM      4  C   UNL A   1      45.562  20.962  24.622  1.00  0.00     0.338 C 
ATOM      5  O   UNL A   1      46.695  20.516  24.529  1.00  0.00    -0.246 OA
BRANCH   4   6
ATOM      6  C   UNL A   1      45.286  22.411  24.810  1.00  0.00     0.060 A 
ATOM      7  C   UNL A   1      46.553  28.046  25.781  1.00  0.00     0.173 C 
ATOM      8  N   UNL A   1      46.117  26.693  25.524  1.00  0.00    -0.275 N 
ATOM      9  C   UNL A   1      46.908  25.581  25.503  1.00  0.00     0.117 A 
ATOM     10  N   UNL A   1      44.807  26.450  25.293  1.00  0.00    -0.173 NA
ATOM     11  C   UNL A   1      46.044  24.555  25.253  1.00  0.00     0.021 A 
ATOM     12  C   UNL A   1      44.731  25.122  25.102  1.00  0.00     0.092 A 
ATOM     13  C   UNL A   1      46.398  23.218  25.155  1.00  0.00     0.027 A 
ATOM     14  C   UNL A   1      43.628  24.301  24.807  1.00  0.00     0.032 A 
ATOM     15  C   UNL A   1      43.957  22.930  24.652  1.00  0.00     0.018 A 
ENDBRANCH   4   6
ENDBRANCH   3   4
ENDBRANCH   2   3
ENDBRANCH   1   2
BRANCH   1  16
ATOM     16  O   UNL A   1      42.035  18.867  26.356  1.00  0.00    -0.458 OA
BRANCH  16  17
ATOM     17  C   UNL A   1      40.975  19.682  26.157  1.00  0.00     0.338 C 
ATOM     18  O   UNL A   1      39.954  19.439  25.539  1.00  0.00    -0.246 OA
BRANCH  17  19
ATOM     19  C   UNL A   1      41.219  20.974  26.823  1.00  0.00     0.060 A 
ATOM     20  C   UNL A   1      40.696  22.142  26.277  1.00  0.00     0.016 A 
ATOM     21  C   UNL A   1      42.070  21.040  27.925  1.00  0.00     0.016 A 
ATOM     22  C   UNL A   1      41.087  23.388  26.770  1.00  0.00     0.010 A 
ATOM     23  C   UNL A   1      42.385  22.285  28.481  1.00  0.00     0.010 A 
ATOM     24  C   UNL A   1      41.932  23.478  27.886  1.00  0.00    -0.014 A 
BRANCH  24  25
ATOM     25  C   UNL A   1      42.385  24.806  28.395  1.00  0.00     0.031 A 
ATOM     26  C   UNL A   1      41.380  25.905  28.647  1.00  0.00     0.074 A 
ATOM     27  C   UNL A   1      43.687  25.044  28.649  1.00  0.00     0.049 A 
ATOM     28  N   UNL A   1      41.585  27.169  28.921  1.00  0.00    -0.248 NA
ATOM     29  C   UNL A   1      39.958  25.533  28.567  1.00  0.00     0.031 C 
ATOM     30  C   UNL A   1      44.776  24.075  28.506  1.00  0.00     0.029 A 
ATOM     31  N   UNL A   1      44.316  26.183  29.095  1.00  0.00    -0.354 N 
ATOM     32  C   UNL A   1      40.326  27.755  28.977  1.00  0.00     0.074 A 
ATOM     33  C   UNL A   1      39.362  26.708  28.713  1.00  0.00     0.031 C 
ATOM     34  C   UNL A   1      45.925  24.643  28.902  1.00  0.00     0.029 A 
ATOM     35  C   UNL A   1      45.675  26.040  29.240  1.00  0.00     0.049 A 
ATOM     36  H   UNL A   1      43.838  27.020  29.291  1.00  0.00     0.167 HD
ATOM     37  C   UNL A   1      39.998  29.047  29.222  1.00  0.00     0.031 A 
ATOM     38  C   UNL A   1      46.626  26.935  29.568  1.00  0.00     0.031 A 
ATOM     39  C   UNL A   1      40.945  30.083  29.538  1.00  0.00     0.049 A 
ATOM     40  C   UNL A   1      46.244  28.367  29.808  1.00  0.00     0.074 A 
ATOM     41  C   UNL A   1      40.701  31.417  29.818  1.00  0.00     0.029 A 
ATOM     42  N   UNL A   1      42.314  29.898  29.633  1.00  0.00    -0.354 N 
ATOM     43  N   UNL A   1      45.055  28.917  29.797  1.00  0.00    -0.248 NA
ATOM     44  C   UNL A   1      47.342  29.306  30.085  1.00  0.00     0.031 C 
ATOM     45  C   UNL A   1      41.930  32.048  30.049  1.00  0.00     0.029 A 
ATOM     46  C   UNL A   1      42.931  31.096  29.955  1.00  0.00     0.049 A 
ATOM     47  H   UNL A   1      42.780  29.043  29.492  1.00  0.00     0.167 HD
ATOM     48  C   UNL A   1      45.259  30.263  30.068  1.00  0.00     0.074 A 
ATOM     49  C   UNL A   1      46.683  30.443  30.265  1.00  0.00     0.031 C 
ATOM     50  C   UNL A   1      44.348  31.263  30.141  1.00  0.00     0.031 A 
BRANCH  37  51
ATOM     51  C   UNL A   1      38.546  29.425  29.113  1.00  0.00    -0.014 A 
ATOM     52  C   UNL A   1      37.986  29.858  27.902  1.00  0.00     0.009 A 
ATOM     53  C   UNL A   1      37.720  29.315  30.244  1.00  0.00     0.009 A 
ATOM     54  C   UNL A   1      36.635  30.207  27.836  1.00  0.00     0.001 A 
ATOM     55  C   UNL A   1      36.365  29.639  30.168  1.00  0.00     0.001 A 
ATOM     56  C   UNL A   1      35.826  30.095  28.966  1.00  0.00     0.000 A 
ENDBRANCH  37  51
BRANCH  38  57
ATOM     57  C   UNL A   1      48.048  26.510  29.641  1.00  0.00    -0.014 A 
ATOM     58  C   UNL A   1      48.579  26.002  30.835  1.00  0.00     0.009 A 
ATOM     59  C   UNL A   1      48.877  26.600  28.511  1.00  0.00     0.009 A 
ATOM     60  C   UNL A   1      49.916  25.602  30.899  1.00  0.00     0.001 A 
ATOM     61  C   UNL A   1      50.204  26.171  28.570  1.00  0.00     0.001 A 
ATOM     62  C   UNL A   1      50.724  25.679  29.765  1.00  0.00     0.000 A 
ENDBRANCH  38  57
BRANCH  50  63
ATOM     63  C   UNL A   1      44.863  32.634  30.468  1.00  0.00    -0.014 A 
ATOM     64  C   UNL A   1      45.233  33.530  29.453  1.00  0.00     0.009 A 
ATOM     65  C   UNL A   1      44.956  33.043  31.807  1.00  0.00     0.009 A 
ATOM     66  C   UNL A   1      45.715  34.800  29.776  1.00  0.00     0.001 A 
ATOM     67  C   UNL A   1      45.416  34.321  32.126  1.00  0.00     0.001 A 
ATOM     68  C   UNL A   1      45.803  35.195  31.111  1.00  0.00     0.000 A 
ENDBRANCH  50  63
ENDBRANCH  24  25
ENDBRANCH  17  19
ENDBRANCH  16  17
ENDBRANCH   1  16
TORSDOF 11
ENDMDL
