MODEL 1
REMARK VINA RESULT:      -9.4      0.000      0.000
REMARK SMILES C[C@@H](C(=O)OCCOC(=O)c1ccc(-c2c3nc(c(-c4ccccc4)c4ccc([nH]4)c(-c4ccccc4)c4nc(c(-c5ccccc5)c5ccc2[nH]5)C=C4)C=C3)cc1)c1cc(/C=C/S(C)(=O)=O)cc(C(=O)c2ccccc2)c1
REMARK SMILES IDX 6 1 5 2 3 3 4 4 2 5 1 6 59 7 60 8 78 9 61 10 69 11 68 12
REMARK SMILES IDX 62 13 63 14 64 15 65 16 66 17 67 18 70 19 71 20 72 21 73 22
REMARK SMILES IDX 77 23 74 24 76 25 75 26 7 27 8 28 9 29 10 30 11 31 12 32
REMARK SMILES IDX 58 33 13 34 57 35 14 36 15 37 16 38 51 39 17 40 56 41 50 42
REMARK SMILES IDX 52 43 18 44 55 45 49 46 48 47 19 49 41 50 26 51 40 52 27 53
REMARK SMILES IDX 30 54 39 55 53 56 28 57 29 58 38 60 54 61 31 62 20 63 21 64
REMARK SMILES IDX 25 65 22 66 24 67 23 68 42 69 43 70 47 71 44 72 46 73 45 74
REMARK SMILES IDX 32 75 33 76 37 77 34 78 36 79 35 80
REMARK H PARENT 52 48 30 59
REMARK Flexibility Score: inf
ROOT
ATOM      1  C   UNL A   1      33.855  35.400  32.114  1.00  0.00     0.274 C 
ENDROOT
BRANCH   1   2
ATOM      2  O   UNL A   1      34.770  34.856  31.141  1.00  0.00    -0.462 OA
BRANCH   2   3
ATOM      3  C   UNL A   1      34.454  33.643  30.615  1.00  0.00     0.313 C 
ATOM      4  O   UNL A   1      34.139  32.663  31.282  1.00  0.00    -0.252 OA
BRANCH   3   5
ATOM      5  C   UNL A   1      34.573  33.609  29.089  1.00  0.00     0.126 C 
ATOM      6  C   UNL A   1      33.380  34.210  28.341  1.00  0.00     0.025 C 
BRANCH   5   7
ATOM      7  C   UNL A   1      34.904  32.207  28.591  1.00  0.00    -0.033 A 
ATOM      8  C   UNL A   1      33.967  31.504  27.811  1.00  0.00     0.012 A 
ATOM      9  C   UNL A   1      36.149  31.615  28.843  1.00  0.00     0.016 A 
ATOM     10  C   UNL A   1      34.228  30.214  27.322  1.00  0.00    -0.024 A 
ATOM     11  C   UNL A   1      36.447  30.343  28.348  1.00  0.00     0.023 A 
ATOM     12  C   UNL A   1      35.483  29.646  27.596  1.00  0.00     0.020 A 
BRANCH  10  13
ATOM     13  C   UNL A   1      33.243  29.443  26.533  1.00  0.00     0.020 C 
ATOM     14  C   UNL A   1      33.451  28.984  25.289  1.00  0.00     0.106 C 
BRANCH  14  15
ATOM     15  S   UNL A   1      32.189  28.182  24.406  1.00  0.00     0.168 S 
ATOM     16  C   UNL A   1      31.395  27.271  25.712  1.00  0.00     0.163 C 
ATOM     17  O   UNL A   1      31.242  29.186  23.955  1.00  0.00    -0.225 OA
ATOM     18  O   UNL A   1      32.741  27.213  23.481  1.00  0.00    -0.225 OA
ENDBRANCH  14  15
ENDBRANCH  10  13
BRANCH  11  19
ATOM     19  C   UNL A   1      37.798  29.739  28.530  1.00  0.00     0.193 C 
ATOM     20  O   UNL A   1      38.639  29.809  27.639  1.00  0.00    -0.289 OA
BRANCH  19  21
ATOM     21  C   UNL A   1      38.190  29.097  29.802  1.00  0.00     0.022 A 
ATOM     22  C   UNL A   1      39.366  28.349  29.842  1.00  0.00     0.012 A 
ATOM     23  C   UNL A   1      37.388  29.195  30.936  1.00  0.00     0.012 A 
ATOM     24  C   UNL A   1      39.746  27.677  31.000  1.00  0.00     0.001 A 
ATOM     25  C   UNL A   1      37.778  28.536  32.106  1.00  0.00     0.001 A 
ATOM     26  C   UNL A   1      38.949  27.773  32.135  1.00  0.00     0.000 A 
ENDBRANCH  19  21
ENDBRANCH  11  19
ENDBRANCH   5   7
ENDBRANCH   3   5
ENDBRANCH   2   3
ENDBRANCH   1   2
BRANCH   1  27
ATOM     27  C   UNL A   1      34.426  35.323  33.530  1.00  0.00     0.275 C 
BRANCH  27  28
ATOM     28  O   UNL A   1      35.869  35.322  33.519  1.00  0.00    -0.458 OA
BRANCH  28  29
ATOM     29  C   UNL A   1      36.436  34.276  34.157  1.00  0.00     0.338 C 
ATOM     30  O   UNL A   1      35.990  33.676  35.121  1.00  0.00    -0.246 OA
BRANCH  29  31
ATOM     31  C   UNL A   1      37.673  33.848  33.484  1.00  0.00     0.060 A 
ATOM     32  C   UNL A   1      37.549  32.932  32.446  1.00  0.00     0.016 A 
ATOM     33  C   UNL A   1      38.930  34.118  34.034  1.00  0.00     0.016 A 
ATOM     34  C   UNL A   1      38.656  32.193  32.039  1.00  0.00     0.010 A 
ATOM     35  C   UNL A   1      40.060  33.423  33.564  1.00  0.00     0.010 A 
ATOM     36  C   UNL A   1      39.929  32.415  32.593  1.00  0.00    -0.014 A 
BRANCH  36  37
ATOM     37  C   UNL A   1      41.083  31.591  32.126  1.00  0.00     0.031 A 
ATOM     38  C   UNL A   1      41.911  31.971  30.920  1.00  0.00     0.074 A 
ATOM     39  C   UNL A   1      41.453  30.517  32.850  1.00  0.00     0.049 A 
ATOM     40  N   UNL A   1      42.914  31.337  30.359  1.00  0.00    -0.248 NA
ATOM     41  C   UNL A   1      41.578  33.236  30.261  1.00  0.00     0.031 C 
ATOM     42  C   UNL A   1      40.804  30.061  34.081  1.00  0.00     0.029 A 
ATOM     43  N   UNL A   1      42.480  29.627  32.664  1.00  0.00    -0.354 N 
ATOM     44  C   UNL A   1      43.334  32.143  29.302  1.00  0.00     0.074 A 
ATOM     45  C   UNL A   1      42.467  33.296  29.282  1.00  0.00     0.031 C 
ATOM     46  C   UNL A   1      41.467  28.999  34.557  1.00  0.00     0.029 A 
ATOM     47  C   UNL A   1      42.525  28.642  33.618  1.00  0.00     0.049 A 
ATOM     48  H   UNL A   1      43.120  29.688  31.919  1.00  0.00     0.167 HD
ATOM     49  C   UNL A   1      44.346  31.949  28.422  1.00  0.00     0.031 A 
ATOM     50  C   UNL A   1      43.289  27.539  33.708  1.00  0.00     0.031 A 
ATOM     51  C   UNL A   1      45.197  30.791  28.411  1.00  0.00     0.049 A 
ATOM     52  C   UNL A   1      44.304  27.258  32.642  1.00  0.00     0.074 A 
ATOM     53  C   UNL A   1      46.209  30.467  27.524  1.00  0.00     0.029 A 
ATOM     54  N   UNL A   1      45.131  29.766  29.338  1.00  0.00    -0.354 N 
ATOM     55  N   UNL A   1      44.633  27.988  31.604  1.00  0.00    -0.248 NA
ATOM     56  C   UNL A   1      45.037  25.990  32.747  1.00  0.00     0.031 C 
ATOM     57  C   UNL A   1      46.727  29.220  27.892  1.00  0.00     0.029 A 
ATOM     58  C   UNL A   1      46.067  28.794  29.034  1.00  0.00     0.049 A 
ATOM     59  H   UNL A   1      44.511  29.733  30.102  1.00  0.00     0.167 HD
ATOM     60  C   UNL A   1      45.615  27.271  30.935  1.00  0.00     0.074 A 
ATOM     61  C   UNL A   1      45.841  26.058  31.695  1.00  0.00     0.031 C 
ATOM     62  C   UNL A   1      46.267  27.587  29.790  1.00  0.00     0.031 A 
BRANCH  49  63
ATOM     63  C   UNL A   1      44.556  32.999  27.364  1.00  0.00    -0.014 A 
ATOM     64  C   UNL A   1      43.934  32.901  26.110  1.00  0.00     0.009 A 
ATOM     65  C   UNL A   1      45.369  34.111  27.633  1.00  0.00     0.009 A 
ATOM     66  C   UNL A   1      44.142  33.884  25.139  1.00  0.00     0.001 A 
ATOM     67  C   UNL A   1      45.560  35.102  26.668  1.00  0.00     0.001 A 
ATOM     68  C   UNL A   1      44.952  34.984  25.419  1.00  0.00     0.000 A 
ENDBRANCH  49  63
BRANCH  50  69
ATOM     69  C   UNL A   1      43.040  26.579  34.813  1.00  0.00    -0.014 A 
ATOM     70  C   UNL A   1      43.760  26.654  36.012  1.00  0.00     0.009 A 
ATOM     71  C   UNL A   1      42.034  25.606  34.680  1.00  0.00     0.009 A 
ATOM     72  C   UNL A   1      43.477  25.770  37.057  1.00  0.00     0.001 A 
ATOM     73  C   UNL A   1      41.731  24.748  35.736  1.00  0.00     0.001 A 
ATOM     74  C   UNL A   1      42.457  24.826  36.922  1.00  0.00     0.000 A 
ENDBRANCH  50  69
BRANCH  62  75
ATOM     75  C   UNL A   1      47.293  26.611  29.298  1.00  0.00    -0.014 A 
ATOM     76  C   UNL A   1      46.986  25.692  28.284  1.00  0.00     0.009 A 
ATOM     77  C   UNL A   1      48.591  26.636  29.831  1.00  0.00     0.009 A 
ATOM     78  C   UNL A   1      47.954  24.796  27.830  1.00  0.00     0.001 A 
ATOM     79  C   UNL A   1      49.563  25.753  29.359  1.00  0.00     0.001 A 
ATOM     80  C   UNL A   1      49.242  24.830  28.365  1.00  0.00     0.000 A 
ENDBRANCH  62  75
ENDBRANCH  36  37
ENDBRANCH  29  31
ENDBRANCH  28  29
ENDBRANCH  27  28
ENDBRANCH   1  27
TORSDOF 16
ENDMDL
MODEL 2
REMARK VINA RESULT:      -9.4      3.428      7.148
REMARK SMILES C[C@@H](C(=O)OCCOC(=O)c1ccc(-c2c3nc(c(-c4ccccc4)c4ccc([nH]4)c(-c4ccccc4)c4nc(c(-c5ccccc5)c5ccc2[nH]5)C=C4)C=C3)cc1)c1cc(/C=C/S(C)(=O)=O)cc(C(=O)c2ccccc2)c1
REMARK SMILES IDX 6 1 5 2 3 3 4 4 2 5 1 6 59 7 60 8 78 9 61 10 69 11 68 12
REMARK SMILES IDX 62 13 63 14 64 15 65 16 66 17 67 18 70 19 71 20 72 21 73 22
REMARK SMILES IDX 77 23 74 24 76 25 75 26 7 27 8 28 9 29 10 30 11 31 12 32
REMARK SMILES IDX 58 33 13 34 57 35 14 36 15 37 16 38 51 39 17 40 56 41 50 42
REMARK SMILES IDX 52 43 18 44 55 45 49 46 48 47 19 49 41 50 26 51 40 52 27 53
REMARK SMILES IDX 30 54 39 55 53 56 28 57 29 58 38 60 54 61 31 62 20 63 21 64
REMARK SMILES IDX 25 65 22 66 24 67 23 68 42 69 43 70 47 71 44 72 46 73 45 74
REMARK SMILES IDX 32 75 33 76 37 77 34 78 36 79 35 80
REMARK H PARENT 52 48 30 59
REMARK Flexibility Score: inf
ROOT
ATOM      1  C   UNL A   1      34.154  32.593  28.121  1.00  0.00     0.274 C 
ENDROOT
BRANCH   1   2
ATOM      2  O   UNL A   1      34.230  31.456  27.238  1.00  0.00    -0.462 OA
BRANCH   2   3
ATOM      3  C   UNL A   1      33.116  30.684  27.138  1.00  0.00     0.313 C 
ATOM      4  O   UNL A   1      31.969  31.115  27.198  1.00  0.00    -0.252 OA
BRANCH   3   5
ATOM      5  C   UNL A   1      33.438  29.195  26.982  1.00  0.00     0.126 C 
ATOM      6  C   UNL A   1      34.914  28.836  27.173  1.00  0.00     0.025 C 
BRANCH   5   7
ATOM      7  C   UNL A   1      32.888  28.643  25.672  1.00  0.00    -0.033 A 
ATOM      8  C   UNL A   1      31.826  29.305  25.028  1.00  0.00     0.012 A 
ATOM      9  C   UNL A   1      33.452  27.518  25.056  1.00  0.00     0.016 A 
ATOM     10  C   UNL A   1      31.290  28.841  23.815  1.00  0.00    -0.024 A 
ATOM     11  C   UNL A   1      32.957  27.048  23.837  1.00  0.00     0.023 A 
ATOM     12  C   UNL A   1      31.874  27.708  23.226  1.00  0.00     0.020 A 
BRANCH  10  13
ATOM     13  C   UNL A   1      30.149  29.498  23.142  1.00  0.00     0.020 C 
ATOM     14  C   UNL A   1      29.426  30.500  23.667  1.00  0.00     0.106 C 
BRANCH  14  15
ATOM     15  S   UNL A   1      28.035  31.131  22.840  1.00  0.00     0.168 S 
ATOM     16  C   UNL A   1      28.625  32.744  22.377  1.00  0.00     0.163 C 
ATOM     17  O   UNL A   1      27.857  30.377  21.612  1.00  0.00    -0.225 OA
ATOM     18  O   UNL A   1      26.932  31.325  23.758  1.00  0.00    -0.225 OA
ENDBRANCH  14  15
ENDBRANCH  10  13
BRANCH  11  19
ATOM     19  C   UNL A   1      33.605  25.909  23.126  1.00  0.00     0.193 C 
ATOM     20  O   UNL A   1      33.979  26.029  21.963  1.00  0.00    -0.289 OA
BRANCH  19  21
ATOM     21  C   UNL A   1      33.876  24.628  23.810  1.00  0.00     0.022 A 
ATOM     22  C   UNL A   1      34.969  24.544  24.672  1.00  0.00     0.012 A 
ATOM     23  C   UNL A   1      33.086  23.505  23.578  1.00  0.00     0.012 A 
ATOM     24  C   UNL A   1      35.299  23.343  25.293  1.00  0.00     0.001 A 
ATOM     25  C   UNL A   1      33.404  22.302  24.216  1.00  0.00     0.001 A 
ATOM     26  C   UNL A   1      34.512  22.220  25.064  1.00  0.00     0.000 A 
ENDBRANCH  19  21
ENDBRANCH  11  19
ENDBRANCH   5   7
ENDBRANCH   3   5
ENDBRANCH   2   3
ENDBRANCH   1   2
BRANCH   1  27
ATOM     27  C   UNL A   1      34.537  32.221  29.554  1.00  0.00     0.275 C 
BRANCH  27  28
ATOM     28  O   UNL A   1      35.967  32.228  29.737  1.00  0.00    -0.458 OA
BRANCH  28  29
ATOM     29  C   UNL A   1      36.411  31.433  30.734  1.00  0.00     0.338 C 
ATOM     30  O   UNL A   1      35.952  31.344  31.861  1.00  0.00    -0.246 OA
BRANCH  29  31
ATOM     31  C   UNL A   1      37.510  30.567  30.276  1.00  0.00     0.060 A 
ATOM     32  C   UNL A   1      38.487  30.233  31.208  1.00  0.00     0.016 A 
ATOM     33  C   UNL A   1      37.727  30.324  28.917  1.00  0.00     0.016 A 
ATOM     34  C   UNL A   1      39.728  29.772  30.776  1.00  0.00     0.010 A 
ATOM     35  C   UNL A   1      38.956  29.785  28.492  1.00  0.00     0.010 A 
ATOM     36  C   UNL A   1      39.990  29.547  29.414  1.00  0.00    -0.014 A 
BRANCH  36  37
ATOM     37  C   UNL A   1      41.340  29.058  29.001  1.00  0.00     0.031 A 
ATOM     38  C   UNL A   1      41.592  27.621  28.605  1.00  0.00     0.074 A 
ATOM     39  C   UNL A   1      42.350  29.942  28.898  1.00  0.00     0.049 A 
ATOM     40  N   UNL A   1      42.714  27.029  28.269  1.00  0.00    -0.248 NA
ATOM     41  C   UNL A   1      40.430  26.731  28.571  1.00  0.00     0.031 C 
ATOM     42  C   UNL A   1      42.252  31.378  29.170  1.00  0.00     0.029 A 
ATOM     43  N   UNL A   1      43.655  29.764  28.514  1.00  0.00    -0.354 N 
ATOM     44  C   UNL A   1      42.376  25.711  27.966  1.00  0.00     0.074 A 
ATOM     45  C   UNL A   1      40.955  25.581  28.181  1.00  0.00     0.031 C 
ATOM     46  C   UNL A   1      43.434  31.954  28.913  1.00  0.00     0.029 A 
ATOM     47  C   UNL A   1      44.396  30.919  28.552  1.00  0.00     0.049 A 
ATOM     48  H   UNL A   1      44.025  28.894  28.240  1.00  0.00     0.167 HD
ATOM     49  C   UNL A   1      43.169  24.695  27.548  1.00  0.00     0.031 A 
ATOM     50  C   UNL A   1      45.712  31.126  28.373  1.00  0.00     0.031 A 
ATOM     51  C   UNL A   1      44.590  24.802  27.361  1.00  0.00     0.049 A 
ATOM     52  C   UNL A   1      46.604  29.962  28.061  1.00  0.00     0.074 A 
ATOM     53  C   UNL A   1      45.494  23.817  27.003  1.00  0.00     0.029 A 
ATOM     54  N   UNL A   1      45.311  25.973  27.518  1.00  0.00    -0.354 N 
ATOM     55  N   UNL A   1      46.283  28.708  27.859  1.00  0.00    -0.248 NA
ATOM     56  C   UNL A   1      48.044  30.240  27.975  1.00  0.00     0.031 C 
ATOM     57  C   UNL A   1      46.773  24.386  26.987  1.00  0.00     0.029 A 
ATOM     58  C   UNL A   1      46.654  25.733  27.288  1.00  0.00     0.049 A 
ATOM     59  H   UNL A   1      44.925  26.846  27.756  1.00  0.00     0.167 HD
ATOM     60  C   UNL A   1      47.478  28.047  27.616  1.00  0.00     0.074 A 
ATOM     61  C   UNL A   1      48.529  29.043  27.677  1.00  0.00     0.031 C 
ATOM     62  C   UNL A   1      47.687  26.731  27.369  1.00  0.00     0.031 A 
BRANCH  49  63
ATOM     63  C   UNL A   1      42.517  23.359  27.312  1.00  0.00    -0.014 A 
ATOM     64  C   UNL A   1      42.097  22.972  26.030  1.00  0.00     0.009 A 
ATOM     65  C   UNL A   1      42.343  22.467  28.381  1.00  0.00     0.009 A 
ATOM     66  C   UNL A   1      41.492  21.728  25.830  1.00  0.00     0.001 A 
ATOM     67  C   UNL A   1      41.756  21.216  28.175  1.00  0.00     0.001 A 
ATOM     68  C   UNL A   1      41.324  20.851  26.902  1.00  0.00     0.000 A 
ENDBRANCH  49  63
BRANCH  50  69
ATOM     69  C   UNL A   1      46.263  32.488  28.585  1.00  0.00    -0.014 A 
ATOM     70  C   UNL A   1      46.359  33.402  27.528  1.00  0.00     0.009 A 
ATOM     71  C   UNL A   1      46.649  32.893  29.875  1.00  0.00     0.009 A 
ATOM     72  C   UNL A   1      46.836  34.695  27.759  1.00  0.00     0.001 A 
ATOM     73  C   UNL A   1      47.092  34.194  30.109  1.00  0.00     0.001 A 
ATOM     74  C   UNL A   1      47.192  35.093  29.050  1.00  0.00     0.000 A 
ENDBRANCH  50  69
BRANCH  62  75
ATOM     75  C   UNL A   1      49.102  26.297  27.138  1.00  0.00    -0.014 A 
ATOM     76  C   UNL A   1      49.896  25.831  28.196  1.00  0.00     0.009 A 
ATOM     77  C   UNL A   1      49.637  26.322  25.840  1.00  0.00     0.009 A 
ATOM     78  C   UNL A   1      51.209  25.421  27.964  1.00  0.00     0.001 A 
ATOM     79  C   UNL A   1      50.943  25.891  25.607  1.00  0.00     0.001 A 
ATOM     80  C   UNL A   1      51.730  25.448  26.670  1.00  0.00     0.000 A 
ENDBRANCH  62  75
ENDBRANCH  36  37
ENDBRANCH  29  31
ENDBRANCH  28  29
ENDBRANCH  27  28
ENDBRANCH   1  27
TORSDOF 16
ENDMDL
MODEL 3
REMARK VINA RESULT:      -9.4      3.497      5.579
REMARK SMILES C[C@@H](C(=O)OCCOC(=O)c1ccc(-c2c3nc(c(-c4ccccc4)c4ccc([nH]4)c(-c4ccccc4)c4nc(c(-c5ccccc5)c5ccc2[nH]5)C=C4)C=C3)cc1)c1cc(/C=C/S(C)(=O)=O)cc(C(=O)c2ccccc2)c1
REMARK SMILES IDX 6 1 5 2 3 3 4 4 2 5 1 6 59 7 60 8 78 9 61 10 69 11 68 12
REMARK SMILES IDX 62 13 63 14 64 15 65 16 66 17 67 18 70 19 71 20 72 21 73 22
REMARK SMILES IDX 77 23 74 24 76 25 75 26 7 27 8 28 9 29 10 30 11 31 12 32
REMARK SMILES IDX 58 33 13 34 57 35 14 36 15 37 16 38 51 39 17 40 56 41 50 42
REMARK SMILES IDX 52 43 18 44 55 45 49 46 48 47 19 49 41 50 26 51 40 52 27 53
REMARK SMILES IDX 30 54 39 55 53 56 28 57 29 58 38 60 54 61 31 62 20 63 21 64
REMARK SMILES IDX 25 65 22 66 24 67 23 68 42 69 43 70 47 71 44 72 46 73 45 74
REMARK SMILES IDX 32 75 33 76 37 77 34 78 36 79 35 80
REMARK H PARENT 52 48 30 59
REMARK Flexibility Score: inf
ROOT
ATOM      1  C   UNL A   1      33.952  32.772  28.054  1.00  0.00     0.274 C 
ENDROOT
BRANCH   1   2
ATOM      2  O   UNL A   1      34.087  31.630  27.183  1.00  0.00    -0.462 OA
BRANCH   2   3
ATOM      3  C   UNL A   1      32.993  30.837  27.041  1.00  0.00     0.313 C 
ATOM      4  O   UNL A   1      31.863  31.253  26.809  1.00  0.00    -0.252 OA
BRANCH   3   5
ATOM      5  C   UNL A   1      33.308  29.351  27.241  1.00  0.00     0.126 C 
ATOM      6  C   UNL A   1      34.768  29.048  27.588  1.00  0.00     0.025 C 
BRANCH   5   7
ATOM      7  C   UNL A   1      32.824  28.518  26.060  1.00  0.00    -0.033 A 
ATOM      8  C   UNL A   1      31.688  28.928  25.337  1.00  0.00     0.012 A 
ATOM      9  C   UNL A   1      33.517  27.376  25.636  1.00  0.00     0.016 A 
ATOM     10  C   UNL A   1      31.208  28.199  24.236  1.00  0.00    -0.024 A 
ATOM     11  C   UNL A   1      33.077  26.645  24.529  1.00  0.00     0.023 A 
ATOM     12  C   UNL A   1      31.921  27.057  23.839  1.00  0.00     0.020 A 
BRANCH  10  13
ATOM     13  C   UNL A   1      29.994  28.590  23.486  1.00  0.00     0.020 C 
ATOM     14  C   UNL A   1      29.478  29.829  23.461  1.00  0.00     0.106 C 
BRANCH  14  15
ATOM     15  S   UNL A   1      27.986  30.162  22.637  1.00  0.00     0.168 S 
ATOM     16  C   UNL A   1      27.031  28.730  23.084  1.00  0.00     0.163 C 
ATOM     17  O   UNL A   1      27.360  31.305  23.277  1.00  0.00    -0.225 OA
ATOM     18  O   UNL A   1      28.169  30.124  21.201  1.00  0.00    -0.225 OA
ENDBRANCH  14  15
ENDBRANCH  10  13
BRANCH  11  19
ATOM     19  C   UNL A   1      33.855  25.484  24.011  1.00  0.00     0.193 C 
ATOM     20  O   UNL A   1      34.177  25.424  22.828  1.00  0.00    -0.289 OA
BRANCH  19  21
ATOM     21  C   UNL A   1      34.315  24.404  24.908  1.00  0.00     0.022 A 
ATOM     22  C   UNL A   1      33.366  23.675  25.623  1.00  0.00     0.012 A 
ATOM     23  C   UNL A   1      35.671  24.135  25.077  1.00  0.00     0.012 A 
ATOM     24  C   UNL A   1      33.753  22.688  26.525  1.00  0.00     0.001 A 
ATOM     25  C   UNL A   1      36.062  23.131  25.968  1.00  0.00     0.001 A 
ATOM     26  C   UNL A   1      35.106  22.416  26.696  1.00  0.00     0.000 A 
ENDBRANCH  19  21
ENDBRANCH  11  19
ENDBRANCH   5   7
ENDBRANCH   3   5
ENDBRANCH   2   3
ENDBRANCH   1   2
BRANCH   1  27
ATOM     27  C   UNL A   1      34.406  32.453  29.478  1.00  0.00     0.275 C 
BRANCH  27  28
ATOM     28  O   UNL A   1      35.831  32.238  29.543  1.00  0.00    -0.458 OA
BRANCH  28  29
ATOM     29  C   UNL A   1      36.227  31.373  30.500  1.00  0.00     0.338 C 
ATOM     30  O   UNL A   1      35.705  31.195  31.590  1.00  0.00    -0.246 OA
BRANCH  29  31
ATOM     31  C   UNL A   1      37.360  30.554  30.043  1.00  0.00     0.060 A 
ATOM     32  C   UNL A   1      38.184  30.005  31.021  1.00  0.00     0.016 A 
ATOM     33  C   UNL A   1      37.767  30.555  28.706  1.00  0.00     0.016 A 
ATOM     34  C   UNL A   1      39.463  29.570  30.684  1.00  0.00     0.010 A 
ATOM     35  C   UNL A   1      39.032  30.043  28.361  1.00  0.00     0.010 A 
ATOM     36  C   UNL A   1      39.915  29.588  29.354  1.00  0.00    -0.014 A 
BRANCH  36  37
ATOM     37  C   UNL A   1      41.299  29.117  29.047  1.00  0.00     0.031 A 
ATOM     38  C   UNL A   1      42.505  30.021  29.166  1.00  0.00     0.074 A 
ATOM     39  C   UNL A   1      41.492  27.822  28.731  1.00  0.00     0.049 A 
ATOM     40  N   UNL A   1      43.764  29.778  28.889  1.00  0.00    -0.248 NA
ATOM     41  C   UNL A   1      42.269  31.374  29.672  1.00  0.00     0.031 C 
ATOM     42  C   UNL A   1      40.442  26.804  28.648  1.00  0.00     0.029 A 
ATOM     43  N   UNL A   1      42.645  27.137  28.443  1.00  0.00    -0.354 N 
ATOM     44  C   UNL A   1      44.460  30.942  29.213  1.00  0.00     0.074 A 
ATOM     45  C   UNL A   1      43.485  31.898  29.681  1.00  0.00     0.031 C 
ATOM     46  C   UNL A   1      41.002  25.621  28.364  1.00  0.00     0.029 A 
ATOM     47  C   UNL A   1      42.432  25.813  28.151  1.00  0.00     0.049 A 
ATOM     48  H   UNL A   1      43.537  27.554  28.444  1.00  0.00     0.167 HD
ATOM     49  C   UNL A   1      45.787  31.202  29.130  1.00  0.00     0.031 A 
ATOM     50  C   UNL A   1      43.275  24.864  27.707  1.00  0.00     0.031 A 
ATOM     51  C   UNL A   1      46.764  30.271  28.636  1.00  0.00     0.049 A 
ATOM     52  C   UNL A   1      44.714  25.209  27.473  1.00  0.00     0.074 A 
ATOM     53  C   UNL A   1      48.123  30.456  28.452  1.00  0.00     0.029 A 
ATOM     54  N   UNL A   1      46.479  28.973  28.251  1.00  0.00    -0.354 N 
ATOM     55  N   UNL A   1      45.340  26.337  27.706  1.00  0.00    -0.248 NA
ATOM     56  C   UNL A   1      45.559  24.155  26.895  1.00  0.00     0.031 C 
ATOM     57  C   UNL A   1      48.653  29.280  27.910  1.00  0.00     0.029 A 
ATOM     58  C   UNL A   1      47.631  28.350  27.805  1.00  0.00     0.049 A 
ATOM     59  H   UNL A   1      45.589  28.554  28.289  1.00  0.00     0.167 HD
ATOM     60  C   UNL A   1      46.653  26.129  27.307  1.00  0.00     0.074 A 
ATOM     61  C   UNL A   1      46.737  24.760  26.837  1.00  0.00     0.031 C 
ATOM     62  C   UNL A   1      47.694  26.995  27.325  1.00  0.00     0.031 A 
BRANCH  49  63
ATOM     63  C   UNL A   1      46.252  32.573  29.541  1.00  0.00    -0.014 A 
ATOM     64  C   UNL A   1      46.669  32.835  30.855  1.00  0.00     0.009 A 
ATOM     65  C   UNL A   1      46.297  33.609  28.595  1.00  0.00     0.009 A 
ATOM     66  C   UNL A   1      47.096  34.116  31.219  1.00  0.00     0.001 A 
ATOM     67  C   UNL A   1      46.743  34.882  28.956  1.00  0.00     0.001 A 
ATOM     68  C   UNL A   1      47.135  35.137  30.269  1.00  0.00     0.000 A 
ENDBRANCH  49  63
BRANCH  50  69
ATOM     69  C   UNL A   1      42.734  23.523  27.367  1.00  0.00    -0.014 A 
ATOM     70  C   UNL A   1      42.334  23.215  26.060  1.00  0.00     0.009 A 
ATOM     71  C   UNL A   1      42.665  22.526  28.355  1.00  0.00     0.009 A 
ATOM     72  C   UNL A   1      41.872  21.933  25.752  1.00  0.00     0.001 A 
ATOM     73  C   UNL A   1      42.237  21.238  28.037  1.00  0.00     0.001 A 
ATOM     74  C   UNL A   1      41.834  20.944  26.736  1.00  0.00     0.000 A 
ENDBRANCH  50  69
BRANCH  62  75
ATOM     75  C   UNL A   1      49.014  26.485  26.831  1.00  0.00    -0.014 A 
ATOM     76  C   UNL A   1      49.862  25.748  27.670  1.00  0.00     0.009 A 
ATOM     77  C   UNL A   1      49.396  26.714  25.500  1.00  0.00     0.009 A 
ATOM     78  C   UNL A   1      51.083  25.271  27.192  1.00  0.00     0.001 A 
ATOM     79  C   UNL A   1      50.607  26.218  25.019  1.00  0.00     0.001 A 
ATOM     80  C   UNL A   1      51.453  25.503  25.867  1.00  0.00     0.000 A 
ENDBRANCH  62  75
ENDBRANCH  36  37
ENDBRANCH  29  31
ENDBRANCH  28  29
ENDBRANCH  27  28
ENDBRANCH   1  27
TORSDOF 16
ENDMDL
