MODEL 1
REMARK VINA RESULT:     -11.7      0.000      0.000
REMARK SMILES O=C(OCCOC(=O)c1cc(OC[C@@H]2Cc3cc(F)ccc3O2)cs1)c1ccc(-c2c3nc(c(-c4ccccc4)c4ccc([nH]4)c(-c4ccccc4)c4nc(c(-c5ccccc5)c5ccc2[nH]5)C=C4)C=C3)cc1
REMARK SMILES IDX 5 1 4 2 3 3 2 4 1 5 26 6 27 7 73 8 28 9 72 10 29 11 30 12
REMARK SMILES IDX 31 13 66 14 32 15 71 16 65 17 67 18 33 19 70 20 64 21 63 22
REMARK SMILES IDX 34 24 56 25 41 26 55 27 42 28 45 29 54 30 68 31 43 32 44 33
REMARK SMILES IDX 53 35 69 36 46 37 35 38 36 39 40 40 37 41 39 42 38 43 57 44
REMARK SMILES IDX 58 45 62 46 59 47 61 48 60 49 47 50 48 51 52 52 49 53 51 54
REMARK SMILES IDX 50 55 6 56 7 57 8 58 9 59 10 60 25 61 11 62 24 63 12 64
REMARK SMILES IDX 13 65 14 66 15 67 23 68 16 69 22 70 17 71 21 72 18 73 20 74
REMARK SMILES IDX 19 75
REMARK H PARENT 67 23 45 34
REMARK Flexibility Score: inf
ROOT
ATOM      1  C   UNL A   1      44.572  20.202  24.758  1.00  0.00     0.275 C 
ENDROOT
BRANCH   1   2
ATOM      2  C   UNL A   1      44.392  21.689  24.369  1.00  0.00     0.275 C 
BRANCH   2   3
ATOM      3  O   UNL A   1      44.930  22.617  25.334  1.00  0.00    -0.458 OA
BRANCH   3   4
ATOM      4  C   UNL A   1      44.989  23.975  25.315  1.00  0.00     0.338 C 
ATOM      5  O   UNL A   1      45.830  24.526  24.608  1.00  0.00    -0.246 OA
BRANCH   4   6
ATOM      6  C   UNL A   1      44.175  24.836  26.227  1.00  0.00     0.060 A 
ATOM      7  C   UNL A   1      44.518  26.192  26.382  1.00  0.00     0.016 A 
ATOM      8  C   UNL A   1      43.153  24.363  27.020  1.00  0.00     0.016 A 
ATOM      9  C   UNL A   1      43.912  26.995  27.372  1.00  0.00     0.010 A 
ATOM     10  C   UNL A   1      42.606  25.143  28.017  1.00  0.00     0.010 A 
ATOM     11  C   UNL A   1      42.943  26.460  28.226  1.00  0.00    -0.014 A 
BRANCH  11  12
ATOM     12  C   UNL A   1      42.184  27.170  29.279  1.00  0.00     0.031 A 
ATOM     13  C   UNL A   1      41.051  28.120  28.940  1.00  0.00     0.074 A 
ATOM     14  C   UNL A   1      42.644  27.213  30.545  1.00  0.00     0.049 A 
ATOM     15  N   UNL A   1      39.980  28.777  30.012  1.00  0.00    -0.248 NA
ATOM     16  C   UNL A   1      40.459  28.682  27.079  1.00  0.00     0.031 C 
ATOM     17  C   UNL A   1      43.899  26.610  30.985  1.00  0.00     0.029 A 
ATOM     18  N   UNL A   1      42.218  27.947  31.638  1.00  0.00    -0.354 N 
ATOM     19  C   UNL A   1      38.663  29.690  29.157  1.00  0.00     0.074 A 
ATOM     20  C   UNL A   1      39.091  29.615  27.274  1.00  0.00     0.031 C 
ATOM     21  C   UNL A   1      44.206  27.084  32.198  1.00  0.00     0.029 A 
ATOM     22  C   UNL A   1      43.163  28.013  32.635  1.00  0.00     0.049 A 
ATOM     23  H   UNL A   1      41.333  28.374  31.695  1.00  0.00     0.167 HD
ATOM     24  C   UNL A   1      37.609  30.317  29.721  1.00  0.00     0.031 A 
ATOM     25  C   UNL A   1      43.253  28.765  33.750  1.00  0.00     0.031 A 
ATOM     26  C   UNL A   1      37.519  30.629  31.125  1.00  0.00     0.049 A 
ATOM     27  C   UNL A   1      42.117  29.636  34.214  1.00  0.00     0.074 A 
ATOM     28  C   UNL A   1      36.459  31.216  31.796  1.00  0.00     0.029 A 
ATOM     29  N   UNL A   1      38.552  30.498  32.051  1.00  0.00    -0.354 N 
ATOM     30  N   UNL A   1      40.982  29.922  33.628  1.00  0.00    -0.248 NA
ATOM     31  C   UNL A   1      42.264  30.227  35.554  1.00  0.00     0.031 C 
ATOM     32  C   UNL A   1      36.883  31.547  33.084  1.00  0.00     0.029 A 
ATOM     33  C   UNL A   1      38.172  31.068  33.261  1.00  0.00     0.049 A 
ATOM     34  H   UNL A   1      39.420  30.067  31.875  1.00  0.00     0.167 HD
ATOM     35  C   UNL A   1      40.249  30.657  34.556  1.00  0.00     0.074 A 
ATOM     36  C   UNL A   1      41.075  30.783  35.738  1.00  0.00     0.031 C 
ATOM     37  C   UNL A   1      38.995  31.161  34.448  1.00  0.00     0.031 A 
BRANCH  24  38
ATOM     38  C   UNL A   1      36.457  30.614  28.824  1.00  0.00    -0.014 A 
ATOM     39  C   UNL A   1      35.960  31.914  28.662  1.00  0.00     0.009 A 
ATOM     40  C   UNL A   1      35.723  29.537  28.300  1.00  0.00     0.009 A 
ATOM     41  C   UNL A   1      34.754  32.127  27.986  1.00  0.00     0.001 A 
ATOM     42  C   UNL A   1      34.529  29.753  27.612  1.00  0.00     0.001 A 
ATOM     43  C   UNL A   1      34.043  31.048  27.459  1.00  0.00     0.000 A 
ENDBRANCH  24  38
BRANCH  25  44
ATOM     44  C   UNL A   1      44.498  28.648  34.560  1.00  0.00    -0.014 A 
ATOM     45  C   UNL A   1      44.571  27.762  35.649  1.00  0.00     0.009 A 
ATOM     46  C   UNL A   1      45.582  29.499  34.301  1.00  0.00     0.009 A 
ATOM     47  C   UNL A   1      45.698  27.749  36.474  1.00  0.00     0.001 A 
ATOM     48  C   UNL A   1      46.719  29.461  35.109  1.00  0.00     0.001 A 
ATOM     49  C   UNL A   1      46.772  28.595  36.201  1.00  0.00     0.000 A 
ENDBRANCH  25  44
BRANCH  37  50
ATOM     50  C   UNL A   1      38.387  31.841  35.656  1.00  0.00    -0.014 A 
ATOM     51  C   UNL A   1      38.508  33.236  35.794  1.00  0.00     0.009 A 
ATOM     52  C   UNL A   1      37.815  31.112  36.711  1.00  0.00     0.009 A 
ATOM     53  C   UNL A   1      38.125  33.877  36.974  1.00  0.00     0.001 A 
ATOM     54  C   UNL A   1      37.390  31.763  37.875  1.00  0.00     0.001 A 
ATOM     55  C   UNL A   1      37.565  33.139  38.015  1.00  0.00     0.000 A 
ENDBRANCH  37  50
ENDBRANCH  11  12
ENDBRANCH   4   6
ENDBRANCH   3   4
ENDBRANCH   2   3
ENDBRANCH   1   2
BRANCH   1  56
ATOM     56  O   UNL A   1      43.391  19.360  24.651  1.00  0.00    -0.458 OA
BRANCH  56  57
ATOM     57  C   UNL A   1      42.869  18.853  25.819  1.00  0.00     0.348 C 
ATOM     58  O   UNL A   1      43.403  17.953  26.454  1.00  0.00    -0.245 OA
BRANCH  57  59
ATOM     59  C   UNL A   1      41.703  19.636  26.233  1.00  0.00     0.116 A 
ATOM     60  C   UNL A   1      40.354  19.569  25.875  1.00  0.00     0.074 A 
ATOM     61  S   UNL A   1      41.929  20.921  27.346  1.00  0.00    -0.133 S 
ATOM     62  C   UNL A   1      39.701  20.849  26.020  1.00  0.00     0.131 A 
ATOM     63  C   UNL A   1      40.421  21.610  26.921  1.00  0.00     0.112 A 
BRANCH  62  64
ATOM     64  O   UNL A   1      38.660  21.507  25.397  1.00  0.00    -0.489 OA
BRANCH  64  65
ATOM     65  C   UNL A   1      37.775  22.753  25.916  1.00  0.00     0.275 C 
BRANCH  65  66
ATOM     66  C   UNL A   1      35.503  22.898  26.095  1.00  0.00     0.215 C 
ATOM     67  C   UNL A   1      34.347  21.829  26.960  1.00  0.00     0.088 C 
ATOM     68  O   UNL A   1      34.461  23.140  24.852  1.00  0.00    -0.486 OA
ATOM     69  C   UNL A   1      33.584  21.218  25.849  1.00  0.00     0.001 A 
ATOM     70  C   UNL A   1      33.623  22.050  24.751  1.00  0.00     0.123 A 
ATOM     71  C   UNL A   1      33.006  19.954  25.759  1.00  0.00     0.047 A 
ATOM     72  C   UNL A   1      33.023  21.694  23.555  1.00  0.00     0.050 A 
ATOM     73  C   UNL A   1      32.540  19.534  24.511  1.00  0.00     0.123 A 
ATOM     74  C   UNL A   1      32.529  20.397  23.415  1.00  0.00     0.043 A 
ATOM     75  F   UNL A   1      32.193  18.250  24.338  1.00  0.00    -0.207 F 
ENDBRANCH  65  66
ENDBRANCH  64  65
ENDBRANCH  62  64
ENDBRANCH  57  59
ENDBRANCH  56  57
ENDBRANCH   1  56
TORSDOF 14
ENDMDL
MODEL 2
REMARK VINA RESULT:     -11.5      3.814      8.780
REMARK SMILES O=C(OCCOC(=O)c1cc(OC[C@@H]2Cc3cc(F)ccc3O2)cs1)c1ccc(-c2c3nc(c(-c4ccccc4)c4ccc([nH]4)c(-c4ccccc4)c4nc(c(-c5ccccc5)c5ccc2[nH]5)C=C4)C=C3)cc1
REMARK SMILES IDX 5 1 4 2 3 3 2 4 1 5 26 6 27 7 73 8 28 9 72 10 29 11 30 12
REMARK SMILES IDX 31 13 66 14 32 15 71 16 65 17 67 18 33 19 70 20 64 21 63 22
REMARK SMILES IDX 34 24 56 25 41 26 55 27 42 28 45 29 54 30 68 31 43 32 44 33
REMARK SMILES IDX 53 35 69 36 46 37 35 38 36 39 40 40 37 41 39 42 38 43 57 44
REMARK SMILES IDX 58 45 62 46 59 47 61 48 60 49 47 50 48 51 52 52 49 53 51 54
REMARK SMILES IDX 50 55 6 56 7 57 8 58 9 59 10 60 25 61 11 62 24 63 12 64
REMARK SMILES IDX 13 65 14 66 15 67 23 68 16 69 22 70 17 71 21 72 18 73 20 74
REMARK SMILES IDX 19 75
REMARK H PARENT 67 23 45 34
REMARK Flexibility Score: inf
ROOT
ATOM      1  C   UNL A   1      32.915  31.229  27.052  1.00  0.00     0.275 C 
ENDROOT
BRANCH   1   2
ATOM      2  C   UNL A   1      31.869  32.356  27.223  1.00  0.00     0.275 C 
BRANCH   2   3
ATOM      3  O   UNL A   1      32.441  33.673  27.362  1.00  0.00    -0.458 OA
BRANCH   3   4
ATOM      4  C   UNL A   1      32.983  34.290  28.445  1.00  0.00     0.338 C 
ATOM      5  O   UNL A   1      32.485  35.340  28.846  1.00  0.00    -0.246 OA
BRANCH   4   6
ATOM      6  C   UNL A   1      34.251  33.831  29.090  1.00  0.00     0.060 A 
ATOM      7  C   UNL A   1      35.482  34.324  28.617  1.00  0.00     0.016 A 
ATOM      8  C   UNL A   1      34.309  32.865  30.070  1.00  0.00     0.016 A 
ATOM      9  C   UNL A   1      36.709  33.778  29.054  1.00  0.00     0.010 A 
ATOM     10  C   UNL A   1      35.511  32.306  30.450  1.00  0.00     0.010 A 
ATOM     11  C   UNL A   1      36.732  32.732  29.980  1.00  0.00    -0.014 A 
BRANCH  11  12
ATOM     12  C   UNL A   1      37.922  32.081  30.570  1.00  0.00     0.031 A 
ATOM     13  C   UNL A   1      38.439  30.751  30.057  1.00  0.00     0.074 A 
ATOM     14  C   UNL A   1      38.418  32.502  31.751  1.00  0.00     0.049 A 
ATOM     15  N   UNL A   1      39.878  30.046  30.460  1.00  0.00    -0.248 NA
ATOM     16  C   UNL A   1      37.584  29.592  28.623  1.00  0.00     0.031 C 
ATOM     17  C   UNL A   1      37.842  33.582  32.547  1.00  0.00     0.029 A 
ATOM     18  N   UNL A   1      39.386  31.952  32.573  1.00  0.00    -0.354 N 
ATOM     19  C   UNL A   1      40.192  28.564  29.459  1.00  0.00     0.074 A 
ATOM     20  C   UNL A   1      38.632  28.325  28.344  1.00  0.00     0.031 C 
ATOM     21  C   UNL A   1      38.374  33.547  33.774  1.00  0.00     0.029 A 
ATOM     22  C   UNL A   1      39.342  32.453  33.854  1.00  0.00     0.049 A 
ATOM     23  H   UNL A   1      40.036  31.277  32.273  1.00  0.00     0.167 HD
ATOM     24  C   UNL A   1      41.285  27.771  29.499  1.00  0.00     0.031 A 
ATOM     25  C   UNL A   1      39.941  32.067  34.998  1.00  0.00     0.031 A 
ATOM     26  C   UNL A   1      42.252  27.793  30.566  1.00  0.00     0.049 A 
ATOM     27  C   UNL A   1      41.002  31.001  35.019  1.00  0.00     0.074 A 
ATOM     28  C   UNL A   1      43.424  27.061  30.663  1.00  0.00     0.029 A 
ATOM     29  N   UNL A   1      42.116  28.486  31.768  1.00  0.00    -0.354 N 
ATOM     30  N   UNL A   1      41.424  30.214  34.061  1.00  0.00    -0.248 NA
ATOM     31  C   UNL A   1      41.724  30.835  36.291  1.00  0.00     0.031 C 
ATOM     32  C   UNL A   1      43.932  27.212  31.954  1.00  0.00     0.029 A 
ATOM     33  C   UNL A   1      43.145  28.129  32.633  1.00  0.00     0.049 A 
ATOM     34  H   UNL A   1      41.400  29.130  31.973  1.00  0.00     0.167 HD
ATOM     35  C   UNL A   1      42.509  29.519  34.589  1.00  0.00     0.074 A 
ATOM     36  C   UNL A   1      42.670  29.969  35.955  1.00  0.00     0.031 C 
ATOM     37  C   UNL A   1      43.315  28.608  33.988  1.00  0.00     0.031 A 
BRANCH  24  38
ATOM     38  C   UNL A   1      41.511  26.894  28.316  1.00  0.00    -0.014 A 
ATOM     39  C   UNL A   1      42.010  27.394  27.107  1.00  0.00     0.009 A 
ATOM     40  C   UNL A   1      41.010  25.581  28.353  1.00  0.00     0.009 A 
ATOM     41  C   UNL A   1      42.008  26.593  25.960  1.00  0.00     0.001 A 
ATOM     42  C   UNL A   1      41.024  24.779  27.212  1.00  0.00     0.001 A 
ATOM     43  C   UNL A   1      41.520  25.287  26.015  1.00  0.00     0.000 A 
ENDBRANCH  24  38
BRANCH  25  44
ATOM     44  C   UNL A   1      39.569  32.790  36.246  1.00  0.00    -0.014 A 
ATOM     45  C   UNL A   1      38.481  32.368  37.029  1.00  0.00     0.009 A 
ATOM     46  C   UNL A   1      40.246  33.966  36.600  1.00  0.00     0.009 A 
ATOM     47  C   UNL A   1      38.067  33.123  38.129  1.00  0.00     0.001 A 
ATOM     48  C   UNL A   1      39.850  34.700  37.717  1.00  0.00     0.001 A 
ATOM     49  C   UNL A   1      38.754  34.286  38.474  1.00  0.00     0.000 A 
ENDBRANCH  25  44
BRANCH  37  50
ATOM     50  C   UNL A   1      44.499  28.074  34.764  1.00  0.00    -0.014 A 
ATOM     51  C   UNL A   1      45.744  28.718  34.648  1.00  0.00     0.009 A 
ATOM     52  C   UNL A   1      44.430  26.879  35.498  1.00  0.00     0.009 A 
ATOM     53  C   UNL A   1      46.898  28.155  35.197  1.00  0.00     0.001 A 
ATOM     54  C   UNL A   1      45.581  26.340  36.087  1.00  0.00     0.001 A 
ATOM     55  C   UNL A   1      46.815  26.965  35.918  1.00  0.00     0.000 A 
ENDBRANCH  37  50
ENDBRANCH  11  12
ENDBRANCH   4   6
ENDBRANCH   3   4
ENDBRANCH   2   3
ENDBRANCH   1   2
BRANCH   1  56
ATOM     56  O   UNL A   1      32.414  29.867  27.127  1.00  0.00    -0.458 OA
BRANCH  56  57
ATOM     57  C   UNL A   1      33.345  28.852  27.145  1.00  0.00     0.348 C 
ATOM     58  O   UNL A   1      34.435  28.955  27.691  1.00  0.00    -0.245 OA
BRANCH  57  59
ATOM     59  C   UNL A   1      32.777  27.636  26.558  1.00  0.00     0.116 A 
ATOM     60  C   UNL A   1      31.502  27.070  26.627  1.00  0.00     0.074 A 
ATOM     61  S   UNL A   1      33.792  26.631  25.609  1.00  0.00    -0.133 S 
ATOM     62  C   UNL A   1      31.546  25.637  26.444  1.00  0.00     0.131 A 
ATOM     63  C   UNL A   1      32.706  25.318  25.765  1.00  0.00     0.112 A 
BRANCH  62  64
ATOM     64  O   UNL A   1      30.809  24.558  26.886  1.00  0.00    -0.489 OA
BRANCH  64  65
ATOM     65  C   UNL A   1      31.107  22.979  26.734  1.00  0.00     0.275 C 
BRANCH  65  66
ATOM     66  C   UNL A   1      32.189  21.900  25.037  1.00  0.00     0.215 C 
ATOM     67  C   UNL A   1      33.387  20.563  25.103  1.00  0.00     0.088 C 
ATOM     68  O   UNL A   1      32.959  22.625  23.782  1.00  0.00    -0.486 OA
ATOM     69  C   UNL A   1      34.624  21.219  24.623  1.00  0.00     0.001 A 
ATOM     70  C   UNL A   1      34.296  22.295  23.826  1.00  0.00     0.123 A 
ATOM     71  C   UNL A   1      35.951  20.972  24.969  1.00  0.00     0.047 A 
ATOM     72  C   UNL A   1      35.272  23.112  23.282  1.00  0.00     0.050 A 
ATOM     73  C   UNL A   1      36.919  21.888  24.547  1.00  0.00     0.123 A 
ATOM     74  C   UNL A   1      36.593  22.944  23.696  1.00  0.00     0.043 A 
ATOM     75  F   UNL A   1      38.159  21.809  25.051  1.00  0.00    -0.207 F 
ENDBRANCH  65  66
ENDBRANCH  64  65
ENDBRANCH  62  64
ENDBRANCH  57  59
ENDBRANCH  56  57
ENDBRANCH   1  56
TORSDOF 14
ENDMDL
MODEL 3
REMARK VINA RESULT:     -11.4      4.173      8.698
REMARK SMILES O=C(OCCOC(=O)c1cc(OC[C@@H]2Cc3cc(F)ccc3O2)cs1)c1ccc(-c2c3nc(c(-c4ccccc4)c4ccc([nH]4)c(-c4ccccc4)c4nc(c(-c5ccccc5)c5ccc2[nH]5)C=C4)C=C3)cc1
REMARK SMILES IDX 5 1 4 2 3 3 2 4 1 5 26 6 27 7 73 8 28 9 72 10 29 11 30 12
REMARK SMILES IDX 31 13 66 14 32 15 71 16 65 17 67 18 33 19 70 20 64 21 63 22
REMARK SMILES IDX 34 24 56 25 41 26 55 27 42 28 45 29 54 30 68 31 43 32 44 33
REMARK SMILES IDX 53 35 69 36 46 37 35 38 36 39 40 40 37 41 39 42 38 43 57 44
REMARK SMILES IDX 58 45 62 46 59 47 61 48 60 49 47 50 48 51 52 52 49 53 51 54
REMARK SMILES IDX 50 55 6 56 7 57 8 58 9 59 10 60 25 61 11 62 24 63 12 64
REMARK SMILES IDX 13 65 14 66 15 67 23 68 16 69 22 70 17 71 21 72 18 73 20 74
REMARK SMILES IDX 19 75
REMARK H PARENT 67 23 45 34
REMARK Flexibility Score: inf
ROOT
ATOM      1  C   UNL A   1      37.046  19.826  25.006  1.00  0.00     0.275 C 
ENDROOT
BRANCH   1   2
ATOM      2  C   UNL A   1      38.502  20.351  25.045  1.00  0.00     0.275 C 
BRANCH   2   3
ATOM      3  O   UNL A   1      39.461  19.386  25.526  1.00  0.00    -0.458 OA
BRANCH   3   4
ATOM      4  C   UNL A   1      40.752  19.546  25.919  1.00  0.00     0.338 C 
ATOM      5  O   UNL A   1      41.471  18.554  26.025  1.00  0.00    -0.246 OA
BRANCH   4   6
ATOM      6  C   UNL A   1      41.307  20.857  26.372  1.00  0.00     0.060 A 
ATOM      7  C   UNL A   1      40.949  21.357  27.637  1.00  0.00     0.016 A 
ATOM      8  C   UNL A   1      42.082  21.677  25.582  1.00  0.00     0.016 A 
ATOM      9  C   UNL A   1      41.283  22.672  28.031  1.00  0.00     0.010 A 
ATOM     10  C   UNL A   1      42.357  22.976  25.955  1.00  0.00     0.010 A 
ATOM     11  C   UNL A   1      41.989  23.513  27.167  1.00  0.00    -0.014 A 
BRANCH  11  12
ATOM     12  C   UNL A   1      42.454  24.892  27.438  1.00  0.00     0.031 A 
ATOM     13  C   UNL A   1      43.898  25.190  27.793  1.00  0.00     0.074 A 
ATOM     14  C   UNL A   1      41.567  25.885  27.650  1.00  0.00     0.049 A 
ATOM     15  N   UNL A   1      44.589  26.688  27.878  1.00  0.00    -0.248 NA
ATOM     16  C   UNL A   1      45.380  23.828  28.079  1.00  0.00     0.031 C 
ATOM     17  C   UNL A   1      40.118  25.706  27.658  1.00  0.00     0.029 A 
ATOM     18  N   UNL A   1      41.752  27.184  28.089  1.00  0.00    -0.354 N 
ATOM     19  C   UNL A   1      46.384  26.575  28.130  1.00  0.00     0.074 A 
ATOM     20  C   UNL A   1      46.787  24.693  28.301  1.00  0.00     0.031 C 
ATOM     21  C   UNL A   1      39.550  26.795  28.188  1.00  0.00     0.029 A 
ATOM     22  C   UNL A   1      40.589  27.761  28.544  1.00  0.00     0.049 A 
ATOM     23  H   UNL A   1      42.621  27.644  28.077  1.00  0.00     0.167 HD
ATOM     24  C   UNL A   1      47.261  27.600  28.208  1.00  0.00     0.031 A 
ATOM     25  C   UNL A   1      40.350  28.897  29.229  1.00  0.00     0.031 A 
ATOM     26  C   UNL A   1      46.874  28.972  28.412  1.00  0.00     0.049 A 
ATOM     27  C   UNL A   1      41.430  29.910  29.492  1.00  0.00     0.074 A 
ATOM     28  C   UNL A   1      47.695  30.088  28.448  1.00  0.00     0.029 A 
ATOM     29  N   UNL A   1      45.591  29.413  28.731  1.00  0.00    -0.354 N 
ATOM     30  N   UNL A   1      42.717  29.847  29.257  1.00  0.00    -0.248 NA
ATOM     31  C   UNL A   1      40.986  31.196  30.052  1.00  0.00     0.031 C 
ATOM     32  C   UNL A   1      46.943  31.173  28.902  1.00  0.00     0.029 A 
ATOM     33  C   UNL A   1      45.624  30.768  29.042  1.00  0.00     0.049 A 
ATOM     34  H   UNL A   1      44.783  28.850  28.736  1.00  0.00     0.167 HD
ATOM     35  C   UNL A   1      43.223  31.108  29.566  1.00  0.00     0.074 A 
ATOM     36  C   UNL A   1      42.104  31.908  30.017  1.00  0.00     0.031 C 
ATOM     37  C   UNL A   1      44.494  31.568  29.462  1.00  0.00     0.031 A 
BRANCH  24  38
ATOM     38  C   UNL A   1      48.695  27.263  27.984  1.00  0.00    -0.014 A 
ATOM     39  C   UNL A   1      49.209  27.022  26.703  1.00  0.00     0.009 A 
ATOM     40  C   UNL A   1      49.495  26.970  29.102  1.00  0.00     0.009 A 
ATOM     41  C   UNL A   1      50.499  26.503  26.549  1.00  0.00     0.001 A 
ATOM     42  C   UNL A   1      50.786  26.467  28.945  1.00  0.00     0.001 A 
ATOM     43  C   UNL A   1      51.286  26.230  27.668  1.00  0.00     0.000 A 
ENDBRANCH  24  38
BRANCH  25  44
ATOM     44  C   UNL A   1      38.947  29.158  29.659  1.00  0.00    -0.014 A 
ATOM     45  C   UNL A   1      38.034  29.794  28.798  1.00  0.00     0.009 A 
ATOM     46  C   UNL A   1      38.550  28.858  30.970  1.00  0.00     0.009 A 
ATOM     47  C   UNL A   1      36.760  30.142  29.253  1.00  0.00     0.001 A 
ATOM     48  C   UNL A   1      37.266  29.179  31.410  1.00  0.00     0.001 A 
ATOM     49  C   UNL A   1      36.377  29.831  30.557  1.00  0.00     0.000 A 
ENDBRANCH  25  44
BRANCH  37  50
ATOM     50  C   UNL A   1      44.758  33.026  29.769  1.00  0.00    -0.014 A 
ATOM     51  C   UNL A   1      44.999  33.416  31.099  1.00  0.00     0.009 A 
ATOM     52  C   UNL A   1      44.645  34.026  28.789  1.00  0.00     0.009 A 
ATOM     53  C   UNL A   1      45.064  34.765  31.451  1.00  0.00     0.001 A 
ATOM     54  C   UNL A   1      44.757  35.377  29.138  1.00  0.00     0.001 A 
ATOM     55  C   UNL A   1      44.944  35.746  30.469  1.00  0.00     0.000 A 
ENDBRANCH  37  50
ENDBRANCH  11  12
ENDBRANCH   4   6
ENDBRANCH   3   4
ENDBRANCH   2   3
ENDBRANCH   1   2
BRANCH   1  56
ATOM     56  O   UNL A   1      36.015  20.753  25.441  1.00  0.00    -0.458 OA
BRANCH  56  57
ATOM     57  C   UNL A   1      34.790  20.673  24.818  1.00  0.00     0.348 C 
ATOM     58  O   UNL A   1      34.176  19.622  24.684  1.00  0.00    -0.245 OA
BRANCH  57  59
ATOM     59  C   UNL A   1      34.300  22.013  24.491  1.00  0.00     0.116 A 
ATOM     60  C   UNL A   1      33.696  22.537  23.345  1.00  0.00     0.074 A 
ATOM     61  S   UNL A   1      34.477  23.259  25.655  1.00  0.00    -0.133 S 
ATOM     62  C   UNL A   1      33.940  23.955  23.215  1.00  0.00     0.131 A 
ATOM     63  C   UNL A   1      34.239  24.464  24.464  1.00  0.00     0.112 A 
BRANCH  62  64
ATOM     64  O   UNL A   1      34.074  24.846  22.170  1.00  0.00    -0.489 OA
BRANCH  64  65
ATOM     65  C   UNL A   1      33.224  26.177  21.840  1.00  0.00     0.275 C 
BRANCH  65  66
ATOM     66  C   UNL A   1      31.503  27.090  23.033  1.00  0.00     0.215 C 
ATOM     67  C   UNL A   1      31.129  28.811  23.379  1.00  0.00     0.088 C 
ATOM     68  O   UNL A   1      31.013  26.608  24.523  1.00  0.00    -0.486 OA
ATOM     69  C   UNL A   1      31.347  28.898  24.841  1.00  0.00     0.001 A 
ATOM     70  C   UNL A   1      31.175  27.653  25.407  1.00  0.00     0.123 A 
ATOM     71  C   UNL A   1      31.799  29.969  25.609  1.00  0.00     0.047 A 
ATOM     72  C   UNL A   1      31.366  27.445  26.762  1.00  0.00     0.050 A 
ATOM     73  C   UNL A   1      32.140  29.721  26.942  1.00  0.00     0.123 A 
ATOM     74  C   UNL A   1      31.913  28.475  27.527  1.00  0.00     0.043 A 
ATOM     75  F   UNL A   1      32.791  30.664  27.638  1.00  0.00    -0.207 F 
ENDBRANCH  65  66
ENDBRANCH  64  65
ENDBRANCH  62  64
ENDBRANCH  57  59
ENDBRANCH  56  57
ENDBRANCH   1  56
TORSDOF 14
ENDMDL
