MODEL 1
REMARK VINA RESULT:     -11.5      0.000      0.000
REMARK SMILES CC(C)Cc1ccc(-c2cc(Cl)cc3c2O[C@H](C(F)(F)F)C(C(=O)OCCOC(=O)c2ccc(-c4c5nc(c(-c6ccccc6)c6ccc([nH]6)c(-c6ccccc6)c6nc(c(-c7ccccc7)c7ccc4[nH]7)C=C6)C=C5)cc2)=C3)cc1
REMARK SMILES IDX 26 1 25 2 23 3 24 4 22 5 9 6 10 7 15 8 11 9 14 10 16 11
REMARK SMILES IDX 12 12 13 13 79 14 17 15 8 16 5 17 6 18 81 19 7 20 80 21 4 22
REMARK SMILES IDX 2 23 1 24 3 25 18 26 19 27 20 28 21 29 27 30 28 31 29 32
REMARK SMILES IDX 30 33 31 34 32 35 78 36 33 37 77 38 34 39 35 40 36 41 71 42
REMARK SMILES IDX 37 43 76 44 70 45 72 46 38 47 75 48 69 49 68 50 39 52 61 53
REMARK SMILES IDX 46 54 60 55 47 56 50 57 59 58 73 59 48 60 49 61 58 63 74 64
REMARK SMILES IDX 51 65 40 66 41 67 45 68 42 69 44 70 43 71 62 72 63 73 67 74
REMARK SMILES IDX 64 75 66 76 65 77 52 78 53 79 57 80 54 81 56 82 55 83
REMARK H PARENT 72 51 50 62
REMARK Flexibility Score: inf
ROOT
ATOM      1  C   UNL A   1      45.075  23.441  25.535  1.00  0.00     0.275 C 
ENDROOT
BRANCH   1   2
ATOM      2  O   UNL A   1      43.688  23.170  25.857  1.00  0.00    -0.459 OA
BRANCH   2   3
ATOM      3  C   UNL A   1      43.529  22.730  27.135  1.00  0.00     0.338 C 
ATOM      4  O   UNL A   1      44.249  23.064  28.070  1.00  0.00    -0.246 OA
BRANCH   3   5
ATOM      5  C   UNL A   1      42.335  21.873  27.341  1.00  0.00     0.087 C 
ATOM      6  C   UNL A   1      38.626  23.171  26.222  1.00  0.00     0.026 A 
ATOM      7  C   UNL A   1      38.822  24.574  26.345  1.00  0.00     0.033 A 
ATOM      8  C   UNL A   1      39.687  22.439  26.769  1.00  0.00     0.135 A 
ATOM      9  C   UNL A   1      39.854  25.198  27.053  1.00  0.00     0.042 A 
ATOM     10  C   UNL A   1      40.552  23.069  27.718  1.00  0.00     0.019 A 
ATOM     11  O   UNL A   1      40.103  21.182  26.345  1.00  0.00    -0.475 OA
ATOM     12  Cl  UNL A   1      40.224  26.869  26.943  1.00  0.00    -0.084 Cl
ATOM     13  C   UNL A   1      40.655  24.440  27.851  1.00  0.00     0.032 A 
ATOM     14  C   UNL A   1      41.594  22.271  28.387  1.00  0.00     0.027 C 
ATOM     15  C   UNL A   1      41.615  21.080  26.266  1.00  0.00     0.316 C 
BRANCH   6  16
ATOM     16  C   UNL A   1      37.264  22.813  25.638  1.00  0.00    -0.015 A 
ATOM     17  C   UNL A   1      35.110  23.842  23.919  1.00  0.00    -0.048 A 
ATOM     18  C   UNL A   1      35.967  22.817  23.499  1.00  0.00     0.004 A 
ATOM     19  C   UNL A   1      35.112  23.991  25.325  1.00  0.00     0.004 A 
ATOM     20  C   UNL A   1      37.022  22.303  24.351  1.00  0.00     0.009 A 
ATOM     21  C   UNL A   1      36.163  23.517  26.154  1.00  0.00     0.009 A 
BRANCH  17  22
ATOM     22  C   UNL A   1      34.033  24.709  22.964  1.00  0.00     0.038 C 
BRANCH  22  23
ATOM     23  C   UNL A   1      33.179  26.492  22.901  1.00  0.00    -0.013 C 
ATOM     24  C   UNL A   1      32.267  27.059  24.050  1.00  0.00     0.008 C 
ATOM     25  C   UNL A   1      33.752  27.931  22.417  1.00  0.00     0.008 C 
ENDBRANCH  22  23
ENDBRANCH  17  22
ENDBRANCH   6  16
BRANCH  15  26
ATOM     26  C   UNL A   1      42.079  19.631  26.466  1.00  0.00     0.430 C 
ATOM     27  F   UNL A   1      41.335  18.761  25.740  1.00  0.00    -0.167 F 
ATOM     28  F   UNL A   1      43.372  19.453  26.123  1.00  0.00    -0.167 F 
ATOM     29  F   UNL A   1      41.960  19.260  27.768  1.00  0.00    -0.167 F 
ENDBRANCH  15  26
ENDBRANCH   3   5
ENDBRANCH   2   3
ENDBRANCH   1   2
BRANCH   1  30
ATOM     30  C   UNL A   1      45.305  24.860  25.009  1.00  0.00     0.275 C 
BRANCH  30  31
ATOM     31  O   UNL A   1      44.160  25.698  25.260  1.00  0.00    -0.458 OA
BRANCH  31  32
ATOM     32  C   UNL A   1      44.483  26.975  25.590  1.00  0.00     0.338 C 
ATOM     33  O   UNL A   1      45.039  27.778  24.873  1.00  0.00    -0.246 OA
BRANCH  32  34
ATOM     34  C   UNL A   1      43.924  27.342  26.918  1.00  0.00     0.060 A 
ATOM     35  C   UNL A   1      43.626  28.684  27.079  1.00  0.00     0.016 A 
ATOM     36  C   UNL A   1      43.680  26.464  27.987  1.00  0.00     0.016 A 
ATOM     37  C   UNL A   1      43.033  29.112  28.261  1.00  0.00     0.010 A 
ATOM     38  C   UNL A   1      43.035  26.914  29.174  1.00  0.00     0.010 A 
ATOM     39  C   UNL A   1      42.645  28.247  29.303  1.00  0.00    -0.014 A 
BRANCH  39  40
ATOM     40  C   UNL A   1      41.904  28.896  30.449  1.00  0.00     0.031 A 
ATOM     41  C   UNL A   1      42.927  29.265  31.694  1.00  0.00     0.074 A 
ATOM     42  C   UNL A   1      40.588  29.345  30.341  1.00  0.00     0.049 A 
ATOM     43  N   UNL A   1      42.862  30.180  32.644  1.00  0.00    -0.248 NA
ATOM     44  C   UNL A   1      44.171  28.488  31.837  1.00  0.00     0.031 C 
ATOM     45  C   UNL A   1      39.472  29.257  29.403  1.00  0.00     0.029 A 
ATOM     46  N   UNL A   1      40.013  30.262  31.171  1.00  0.00    -0.354 N 
ATOM     47  C   UNL A   1      43.937  30.086  33.526  1.00  0.00     0.074 A 
ATOM     48  C   UNL A   1      44.749  29.034  32.913  1.00  0.00     0.031 C 
ATOM     49  C   UNL A   1      38.521  30.213  29.659  1.00  0.00     0.029 A 
ATOM     50  C   UNL A   1      38.835  30.971  30.896  1.00  0.00     0.049 A 
ATOM     51  H   UNL A   1      40.460  30.441  32.030  1.00  0.00     0.167 HD
ATOM     52  C   UNL A   1      44.213  30.732  34.725  1.00  0.00     0.031 A 
ATOM     53  C   UNL A   1      38.144  32.054  31.520  1.00  0.00     0.031 A 
ATOM     54  C   UNL A   1      43.435  31.737  35.520  1.00  0.00     0.049 A 
ATOM     55  C   UNL A   1      38.410  32.995  32.954  1.00  0.00     0.074 A 
ATOM     56  C   UNL A   1      43.672  32.345  36.750  1.00  0.00     0.029 A 
ATOM     57  N   UNL A   1      42.183  32.231  35.225  1.00  0.00    -0.354 N 
ATOM     58  N   UNL A   1      39.495  33.125  33.689  1.00  0.00    -0.248 NA
ATOM     59  C   UNL A   1      37.383  33.862  33.585  1.00  0.00     0.031 C 
ATOM     60  C   UNL A   1      42.571  33.211  37.079  1.00  0.00     0.029 A 
ATOM     61  C   UNL A   1      41.633  33.208  36.044  1.00  0.00     0.049 A 
ATOM     62  H   UNL A   1      41.685  31.896  34.444  1.00  0.00     0.167 HD
ATOM     63  C   UNL A   1      39.369  33.852  34.836  1.00  0.00     0.074 A 
ATOM     64  C   UNL A   1      38.013  34.375  34.672  1.00  0.00     0.031 C 
ATOM     65  C   UNL A   1      40.273  33.892  35.890  1.00  0.00     0.031 A 
BRANCH  52  66
ATOM     66  C   UNL A   1      45.528  30.307  35.334  1.00  0.00    -0.014 A 
ATOM     67  C   UNL A   1      46.721  30.973  35.000  1.00  0.00     0.009 A 
ATOM     68  C   UNL A   1      45.584  29.218  36.217  1.00  0.00     0.009 A 
ATOM     69  C   UNL A   1      47.945  30.531  35.507  1.00  0.00     0.001 A 
ATOM     70  C   UNL A   1      46.808  28.792  36.739  1.00  0.00     0.001 A 
ATOM     71  C   UNL A   1      47.989  29.441  36.376  1.00  0.00     0.000 A 
ENDBRANCH  52  66
BRANCH  53  72
ATOM     72  C   UNL A   1      36.937  32.579  30.785  1.00  0.00    -0.014 A 
ATOM     73  C   UNL A   1      37.091  33.579  29.805  1.00  0.00     0.009 A 
ATOM     74  C   UNL A   1      35.640  32.130  31.069  1.00  0.00     0.009 A 
ATOM     75  C   UNL A   1      35.984  34.115  29.141  1.00  0.00     0.001 A 
ATOM     76  C   UNL A   1      34.537  32.631  30.367  1.00  0.00     0.001 A 
ATOM     77  C   UNL A   1      34.708  33.629  29.411  1.00  0.00     0.000 A 
ENDBRANCH  53  72
BRANCH  65  78
ATOM     78  C   UNL A   1      39.807  34.661  37.096  1.00  0.00    -0.014 A 
ATOM     79  C   UNL A   1      39.165  34.022  38.170  1.00  0.00     0.009 A 
ATOM     80  C   UNL A   1      40.124  36.021  37.212  1.00  0.00     0.009 A 
ATOM     81  C   UNL A   1      38.821  34.740  39.319  1.00  0.00     0.001 A 
ATOM     82  C   UNL A   1      39.809  36.730  38.374  1.00  0.00     0.001 A 
ATOM     83  C   UNL A   1      39.150  36.091  39.422  1.00  0.00     0.000 A 
ENDBRANCH  65  78
ENDBRANCH  39  40
ENDBRANCH  32  34
ENDBRANCH  31  32
ENDBRANCH  30  31
ENDBRANCH   1  30
TORSDOF 15
ENDMDL
MODEL 2
REMARK VINA RESULT:     -11.4      1.437      2.241
REMARK SMILES CC(C)Cc1ccc(-c2cc(Cl)cc3c2O[C@H](C(F)(F)F)C(C(=O)OCCOC(=O)c2ccc(-c4c5nc(c(-c6ccccc6)c6ccc([nH]6)c(-c6ccccc6)c6nc(c(-c7ccccc7)c7ccc4[nH]7)C=C6)C=C5)cc2)=C3)cc1
REMARK SMILES IDX 26 1 25 2 23 3 24 4 22 5 9 6 10 7 15 8 11 9 14 10 16 11
REMARK SMILES IDX 12 12 13 13 79 14 17 15 8 16 5 17 6 18 81 19 7 20 80 21 4 22
REMARK SMILES IDX 2 23 1 24 3 25 18 26 19 27 20 28 21 29 27 30 28 31 29 32
REMARK SMILES IDX 30 33 31 34 32 35 78 36 33 37 77 38 34 39 35 40 36 41 71 42
REMARK SMILES IDX 37 43 76 44 70 45 72 46 38 47 75 48 69 49 68 50 39 52 61 53
REMARK SMILES IDX 46 54 60 55 47 56 50 57 59 58 73 59 48 60 49 61 58 63 74 64
REMARK SMILES IDX 51 65 40 66 41 67 45 68 42 69 44 70 43 71 62 72 63 73 67 74
REMARK SMILES IDX 64 75 66 76 65 77 52 78 53 79 57 80 54 81 56 82 55 83
REMARK H PARENT 72 51 50 62
REMARK Flexibility Score: inf
ROOT
ATOM      1  C   UNL A   1      43.272  23.940  25.174  1.00  0.00     0.275 C 
ENDROOT
BRANCH   1   2
ATOM      2  O   UNL A   1      43.711  22.667  25.710  1.00  0.00    -0.459 OA
BRANCH   2   3
ATOM      3  C   UNL A   1      43.326  22.489  27.002  1.00  0.00     0.338 C 
ATOM      4  O   UNL A   1      43.906  22.979  27.966  1.00  0.00    -0.246 OA
BRANCH   3   5
ATOM      5  C   UNL A   1      42.066  21.721  27.163  1.00  0.00     0.087 C 
ATOM      6  C   UNL A   1      38.477  23.378  26.130  1.00  0.00     0.026 A 
ATOM      7  C   UNL A   1      38.786  24.751  26.333  1.00  0.00     0.033 A 
ATOM      8  C   UNL A   1      39.474  22.532  26.631  1.00  0.00     0.135 A 
ATOM      9  C   UNL A   1      39.864  25.248  27.072  1.00  0.00     0.042 A 
ATOM     10  C   UNL A   1      40.385  23.035  27.612  1.00  0.00     0.019 A 
ATOM     11  O   UNL A   1      39.787  21.272  26.135  1.00  0.00    -0.475 OA
ATOM     12  Cl  UNL A   1      40.368  26.887  27.057  1.00  0.00    -0.084 Cl
ATOM     13  C   UNL A   1      40.599  24.383  27.823  1.00  0.00     0.032 A 
ATOM     14  C   UNL A   1      41.358  22.118  28.231  1.00  0.00     0.027 C 
ATOM     15  C   UNL A   1      41.286  21.052  26.046  1.00  0.00     0.316 C 
BRANCH   6  16
ATOM     16  C   UNL A   1      37.091  23.165  25.530  1.00  0.00    -0.015 A 
ATOM     17  C   UNL A   1      34.914  21.199  25.306  1.00  0.00    -0.048 A 
ATOM     18  C   UNL A   1      34.795  22.349  26.097  1.00  0.00     0.004 A 
ATOM     19  C   UNL A   1      35.945  21.322  24.345  1.00  0.00     0.004 A 
ATOM     20  C   UNL A   1      35.865  23.323  26.200  1.00  0.00     0.009 A 
ATOM     21  C   UNL A   1      37.010  22.253  24.465  1.00  0.00     0.009 A 
BRANCH  17  22
ATOM     22  C   UNL A   1      33.885  19.871  25.298  1.00  0.00     0.038 C 
BRANCH  22  23
ATOM     23  C   UNL A   1      33.272  18.452  24.064  1.00  0.00    -0.013 C 
ATOM     24  C   UNL A   1      32.447  18.735  22.755  1.00  0.00     0.008 C 
ATOM     25  C   UNL A   1      34.026  17.130  23.503  1.00  0.00     0.008 C 
ENDBRANCH  22  23
ENDBRANCH  17  22
ENDBRANCH   6  16
BRANCH  15  26
ATOM     26  C   UNL A   1      41.630  19.561  26.162  1.00  0.00     0.430 C 
ATOM     27  F   UNL A   1      42.688  19.229  25.383  1.00  0.00    -0.167 F 
ATOM     28  F   UNL A   1      41.920  19.198  27.428  1.00  0.00    -0.167 F 
ATOM     29  F   UNL A   1      40.586  18.790  25.757  1.00  0.00    -0.167 F 
ENDBRANCH  15  26
ENDBRANCH   3   5
ENDBRANCH   2   3
ENDBRANCH   1   2
BRANCH   1  30
ATOM     30  C   UNL A   1      44.408  24.954  25.019  1.00  0.00     0.275 C 
BRANCH  30  31
ATOM     31  O   UNL A   1      43.939  26.297  25.246  1.00  0.00    -0.458 OA
BRANCH  31  32
ATOM     32  C   UNL A   1      44.741  27.020  26.069  1.00  0.00     0.338 C 
ATOM     33  O   UNL A   1      45.813  27.505  25.776  1.00  0.00    -0.246 OA
BRANCH  32  34
ATOM     34  C   UNL A   1      44.069  27.293  27.367  1.00  0.00     0.060 A 
ATOM     35  C   UNL A   1      43.835  28.631  27.638  1.00  0.00     0.016 A 
ATOM     36  C   UNL A   1      43.663  26.334  28.309  1.00  0.00     0.016 A 
ATOM     37  C   UNL A   1      43.149  28.980  28.795  1.00  0.00     0.010 A 
ATOM     38  C   UNL A   1      42.926  26.709  29.467  1.00  0.00     0.010 A 
ATOM     39  C   UNL A   1      42.603  28.046  29.697  1.00  0.00    -0.014 A 
BRANCH  39  40
ATOM     40  C   UNL A   1      41.786  28.630  30.827  1.00  0.00     0.031 A 
ATOM     41  C   UNL A   1      42.700  28.825  32.190  1.00  0.00     0.074 A 
ATOM     42  C   UNL A   1      40.510  29.160  30.641  1.00  0.00     0.049 A 
ATOM     43  N   UNL A   1      42.587  29.653  33.213  1.00  0.00    -0.248 NA
ATOM     44  C   UNL A   1      43.886  27.970  32.372  1.00  0.00     0.031 C 
ATOM     45  C   UNL A   1      39.488  29.221  29.600  1.00  0.00     0.029 A 
ATOM     46  N   UNL A   1      39.902  30.029  31.498  1.00  0.00    -0.354 N 
ATOM     47  C   UNL A   1      43.565  29.419  34.178  1.00  0.00     0.074 A 
ATOM     48  C   UNL A   1      44.382  28.382  33.544  1.00  0.00     0.031 C 
ATOM     49  C   UNL A   1      38.563  30.201  29.857  1.00  0.00     0.029 A 
ATOM     50  C   UNL A   1      38.791  30.826  31.184  1.00  0.00     0.049 A 
ATOM     51  H   UNL A   1      40.271  30.104  32.408  1.00  0.00     0.167 HD
ATOM     52  C   UNL A   1      43.754  29.936  35.453  1.00  0.00     0.031 A 
ATOM     53  C   UNL A   1      38.095  31.885  31.843  1.00  0.00     0.031 A 
ATOM     54  C   UNL A   1      42.951  30.908  36.266  1.00  0.00     0.049 A 
ATOM     55  C   UNL A   1      38.264  32.675  33.379  1.00  0.00     0.074 A 
ATOM     56  C   UNL A   1      43.096  31.387  37.565  1.00  0.00     0.029 A 
ATOM     57  N   UNL A   1      41.758  31.496  35.904  1.00  0.00    -0.354 N 
ATOM     58  N   UNL A   1      39.278  32.676  34.220  1.00  0.00    -0.248 NA
ATOM     59  C   UNL A   1      37.224  33.538  33.993  1.00  0.00     0.031 C 
ATOM     60  C   UNL A   1      42.010  32.280  37.872  1.00  0.00     0.029 A 
ATOM     61  C   UNL A   1      41.179  32.424  36.760  1.00  0.00     0.049 A 
ATOM     62  H   UNL A   1      41.324  31.262  35.053  1.00  0.00     0.167 HD
ATOM     63  C   UNL A   1      39.076  33.302  35.414  1.00  0.00     0.074 A 
ATOM     64  C   UNL A   1      37.769  33.914  35.177  1.00  0.00     0.031 C 
ATOM     65  C   UNL A   1      39.874  33.195  36.547  1.00  0.00     0.031 A 
BRANCH  52  66
ATOM     66  C   UNL A   1      44.981  29.384  36.138  1.00  0.00    -0.014 A 
ATOM     67  C   UNL A   1      46.231  30.011  35.983  1.00  0.00     0.009 A 
ATOM     68  C   UNL A   1      44.900  28.216  36.911  1.00  0.00     0.009 A 
ATOM     69  C   UNL A   1      47.377  29.456  36.556  1.00  0.00     0.001 A 
ATOM     70  C   UNL A   1      46.046  27.676  37.500  1.00  0.00     0.001 A 
ATOM     71  C   UNL A   1      47.285  28.290  37.314  1.00  0.00     0.000 A 
ENDBRANCH  52  66
BRANCH  53  72
ATOM     72  C   UNL A   1      36.991  32.542  31.053  1.00  0.00    -0.014 A 
ATOM     73  C   UNL A   1      35.659  32.116  31.222  1.00  0.00     0.009 A 
ATOM     74  C   UNL A   1      37.246  33.552  30.116  1.00  0.00     0.009 A 
ATOM     75  C   UNL A   1      34.622  32.678  30.471  1.00  0.00     0.001 A 
ATOM     76  C   UNL A   1      36.201  34.149  29.402  1.00  0.00     0.001 A 
ATOM     77  C   UNL A   1      34.892  33.705  29.572  1.00  0.00     0.000 A 
ENDBRANCH  53  72
BRANCH  65  78
ATOM     78  C   UNL A   1      39.330  33.876  37.772  1.00  0.00    -0.014 A 
ATOM     79  C   UNL A   1      38.587  33.172  38.735  1.00  0.00     0.009 A 
ATOM     80  C   UNL A   1      39.670  35.212  38.028  1.00  0.00     0.009 A 
ATOM     81  C   UNL A   1      38.169  33.804  39.909  1.00  0.00     0.001 A 
ATOM     82  C   UNL A   1      39.278  35.832  39.217  1.00  0.00     0.001 A 
ATOM     83  C   UNL A   1      38.521  35.131  40.151  1.00  0.00     0.000 A 
ENDBRANCH  65  78
ENDBRANCH  39  40
ENDBRANCH  32  34
ENDBRANCH  31  32
ENDBRANCH  30  31
ENDBRANCH   1  30
TORSDOF 15
ENDMDL
MODEL 3
REMARK VINA RESULT:     -11.3      5.856     11.237
REMARK SMILES CC(C)Cc1ccc(-c2cc(Cl)cc3c2O[C@H](C(F)(F)F)C(C(=O)OCCOC(=O)c2ccc(-c4c5nc(c(-c6ccccc6)c6ccc([nH]6)c(-c6ccccc6)c6nc(c(-c7ccccc7)c7ccc4[nH]7)C=C6)C=C5)cc2)=C3)cc1
REMARK SMILES IDX 26 1 25 2 23 3 24 4 22 5 9 6 10 7 15 8 11 9 14 10 16 11
REMARK SMILES IDX 12 12 13 13 79 14 17 15 8 16 5 17 6 18 81 19 7 20 80 21 4 22
REMARK SMILES IDX 2 23 1 24 3 25 18 26 19 27 20 28 21 29 27 30 28 31 29 32
REMARK SMILES IDX 30 33 31 34 32 35 78 36 33 37 77 38 34 39 35 40 36 41 71 42
REMARK SMILES IDX 37 43 76 44 70 45 72 46 38 47 75 48 69 49 68 50 39 52 61 53
REMARK SMILES IDX 46 54 60 55 47 56 50 57 59 58 73 59 48 60 49 61 58 63 74 64
REMARK SMILES IDX 51 65 40 66 41 67 45 68 42 69 44 70 43 71 62 72 63 73 67 74
REMARK SMILES IDX 64 75 66 76 65 77 52 78 53 79 57 80 54 81 56 82 55 83
REMARK H PARENT 72 51 50 62
REMARK Flexibility Score: inf
ROOT
ATOM      1  C   UNL A   1      36.038  32.184  32.289  1.00  0.00     0.275 C 
ENDROOT
BRANCH   1   2
ATOM      2  O   UNL A   1      35.585  33.449  31.744  1.00  0.00    -0.459 OA
BRANCH   2   3
ATOM      3  C   UNL A   1      36.370  33.882  30.721  1.00  0.00     0.338 C 
ATOM      4  O   UNL A   1      37.545  34.208  30.847  1.00  0.00    -0.246 OA
BRANCH   3   5
ATOM      5  C   UNL A   1      35.714  33.838  29.389  1.00  0.00     0.087 C 
ATOM      6  C   UNL A   1      34.674  30.265  27.701  1.00  0.00     0.026 A 
ATOM      7  C   UNL A   1      35.648  29.427  28.310  1.00  0.00     0.033 A 
ATOM      8  C   UNL A   1      34.931  31.623  27.925  1.00  0.00     0.135 A 
ATOM      9  C   UNL A   1      36.823  29.855  28.935  1.00  0.00     0.042 A 
ATOM     10  C   UNL A   1      36.252  32.030  28.297  1.00  0.00     0.019 A 
ATOM     11  O   UNL A   1      33.971  32.626  27.995  1.00  0.00    -0.475 OA
ATOM     12  Cl  UNL A   1      37.822  28.851  29.901  1.00  0.00    -0.084 Cl
ATOM     13  C   UNL A   1      37.190  31.161  28.817  1.00  0.00     0.032 A 
ATOM     14  C   UNL A   1      36.559  33.466  28.415  1.00  0.00     0.027 C 
ATOM     15  C   UNL A   1      34.238  33.592  29.134  1.00  0.00     0.316 C 
BRANCH   6  16
ATOM     16  C   UNL A   1      33.666  29.489  26.861  1.00  0.00    -0.015 A 
ATOM     17  C   UNL A   1      32.585  26.791  26.401  1.00  0.00    -0.048 A 
ATOM     18  C   UNL A   1      31.837  27.791  27.035  1.00  0.00     0.004 A 
ATOM     19  C   UNL A   1      33.663  27.328  25.659  1.00  0.00     0.004 A 
ATOM     20  C   UNL A   1      32.367  29.124  27.253  1.00  0.00     0.009 A 
ATOM     21  C   UNL A   1      34.202  28.620  25.896  1.00  0.00     0.009 A 
BRANCH  17  22
ATOM     22  C   UNL A   1      32.215  25.155  26.319  1.00  0.00     0.038 C 
BRANCH  22  23
ATOM     23  C   UNL A   1      33.124  23.401  26.410  1.00  0.00    -0.013 C 
ATOM     24  C   UNL A   1      34.675  23.216  26.222  1.00  0.00     0.008 C 
ATOM     25  C   UNL A   1      32.929  22.151  27.425  1.00  0.00     0.008 C 
ENDBRANCH  22  23
ENDBRANCH  17  22
ENDBRANCH   6  16
BRANCH  15  26
ATOM     26  C   UNL A   1      33.654  34.977  28.829  1.00  0.00     0.430 C 
ATOM     27  F   UNL A   1      33.399  35.676  29.962  1.00  0.00    -0.167 F 
ATOM     28  F   UNL A   1      34.475  35.723  28.061  1.00  0.00    -0.167 F 
ATOM     29  F   UNL A   1      32.475  34.869  28.160  1.00  0.00    -0.167 F 
ENDBRANCH  15  26
ENDBRANCH   3   5
ENDBRANCH   2   3
ENDBRANCH   1   2
BRANCH   1  30
ATOM     30  C   UNL A   1      36.537  32.293  33.731  1.00  0.00     0.275 C 
BRANCH  30  31
ATOM     31  O   UNL A   1      37.976  32.236  33.788  1.00  0.00    -0.458 OA
BRANCH  31  32
ATOM     32  C   UNL A   1      38.470  30.972  33.777  1.00  0.00     0.338 C 
ATOM     33  O   UNL A   1      38.072  30.044  34.449  1.00  0.00    -0.246 OA
BRANCH  32  34
ATOM     34  C   UNL A   1      39.486  30.803  32.704  1.00  0.00     0.060 A 
ATOM     35  C   UNL A   1      40.360  29.744  32.884  1.00  0.00     0.016 A 
ATOM     36  C   UNL A   1      39.624  31.604  31.558  1.00  0.00     0.016 A 
ATOM     37  C   UNL A   1      41.299  29.464  31.899  1.00  0.00     0.010 A 
ATOM     38  C   UNL A   1      40.565  31.276  30.543  1.00  0.00     0.010 A 
ATOM     39  C   UNL A   1      41.382  30.154  30.673  1.00  0.00    -0.014 A 
BRANCH  39  40
ATOM     40  C   UNL A   1      42.392  29.613  29.687  1.00  0.00     0.031 A 
ATOM     41  C   UNL A   1      43.849  30.380  29.836  1.00  0.00     0.074 A 
ATOM     42  C   UNL A   1      42.175  28.454  28.942  1.00  0.00     0.049 A 
ATOM     43  N   UNL A   1      45.079  29.993  29.553  1.00  0.00    -0.248 NA
ATOM     44  C   UNL A   1      43.873  31.744  30.394  1.00  0.00     0.031 C 
ATOM     45  C   UNL A   1      41.085  27.530  28.643  1.00  0.00     0.029 A 
ATOM     46  N   UNL A   1      43.162  27.716  28.356  1.00  0.00    -0.354 N 
ATOM     47  C   UNL A   1      46.007  31.006  29.791  1.00  0.00     0.074 A 
ATOM     48  C   UNL A   1      45.173  32.056  30.378  1.00  0.00     0.031 C 
ATOM     49  C   UNL A   1      41.553  26.346  28.130  1.00  0.00     0.029 A 
ATOM     50  C   UNL A   1      43.019  26.397  27.901  1.00  0.00     0.049 A 
ATOM     51  H   UNL A   1      44.042  28.143  28.243  1.00  0.00     0.167 HD
ATOM     52  C   UNL A   1      47.365  31.103  29.517  1.00  0.00     0.031 A 
ATOM     53  C   UNL A   1      43.916  25.402  27.408  1.00  0.00     0.031 A 
ATOM     54  C   UNL A   1      48.316  30.167  28.833  1.00  0.00     0.049 A 
ATOM     55  C   UNL A   1      45.622  25.357  27.091  1.00  0.00     0.074 A 
ATOM     56  C   UNL A   1      49.663  30.278  28.499  1.00  0.00     0.029 A 
ATOM     57  N   UNL A   1      48.007  28.952  28.261  1.00  0.00    -0.354 N 
ATOM     58  N   UNL A   1      46.578  26.165  27.501  1.00  0.00    -0.248 NA
ATOM     59  C   UNL A   1      46.292  24.316  26.273  1.00  0.00     0.031 C 
ATOM     60  C   UNL A   1      50.085  29.093  27.802  1.00  0.00     0.029 A 
ATOM     61  C   UNL A   1      49.029  28.183  27.719  1.00  0.00     0.049 A 
ATOM     62  H   UNL A   1      47.076  28.633  28.236  1.00  0.00     0.167 HD
ATOM     63  C   UNL A   1      47.822  25.943  26.992  1.00  0.00     0.074 A 
ATOM     64  C   UNL A   1      47.597  24.687  26.277  1.00  0.00     0.031 C 
ATOM     65  C   UNL A   1      48.905  26.811  27.052  1.00  0.00     0.031 A 
BRANCH  52  66
ATOM     66  C   UNL A   1      47.967  32.410  29.976  1.00  0.00    -0.014 A 
ATOM     67  C   UNL A   1      47.979  33.530  29.126  1.00  0.00     0.009 A 
ATOM     68  C   UNL A   1      48.555  32.516  31.245  1.00  0.00     0.009 A 
ATOM     69  C   UNL A   1      48.601  34.715  29.525  1.00  0.00     0.001 A 
ATOM     70  C   UNL A   1      49.158  33.710  31.649  1.00  0.00     0.001 A 
ATOM     71  C   UNL A   1      49.191  34.805  30.786  1.00  0.00     0.000 A 
ENDBRANCH  52  66
BRANCH  53  72
ATOM     72  C   UNL A   1      43.314  24.046  27.136  1.00  0.00    -0.014 A 
ATOM     73  C   UNL A   1      42.897  23.712  25.833  1.00  0.00     0.009 A 
ATOM     74  C   UNL A   1      43.117  23.102  28.153  1.00  0.00     0.009 A 
ATOM     75  C   UNL A   1      42.296  22.479  25.562  1.00  0.00     0.001 A 
ATOM     76  C   UNL A   1      42.562  21.849  27.871  1.00  0.00     0.001 A 
ATOM     77  C   UNL A   1      42.142  21.542  26.579  1.00  0.00     0.000 A 
ENDBRANCH  53  72
BRANCH  65  78
ATOM     78  C   UNL A   1      50.114  26.371  26.273  1.00  0.00    -0.014 A 
ATOM     79  C   UNL A   1      50.388  26.880  24.992  1.00  0.00     0.009 A 
ATOM     80  C   UNL A   1      51.058  25.530  26.880  1.00  0.00     0.009 A 
ATOM     81  C   UNL A   1      51.564  26.526  24.325  1.00  0.00     0.001 A 
ATOM     82  C   UNL A   1      52.247  25.202  26.224  1.00  0.00     0.001 A 
ATOM     83  C   UNL A   1      52.494  25.693  24.944  1.00  0.00     0.000 A 
ENDBRANCH  65  78
ENDBRANCH  39  40
ENDBRANCH  32  34
ENDBRANCH  31  32
ENDBRANCH  30  31
ENDBRANCH   1  30
TORSDOF 15
ENDMDL
