MODEL 1
REMARK VINA RESULT:      -9.7      0.000      0.000
REMARK SMILES O=C(OCCOC(=O)c1ccccc1C(=O)Nc1ccc(N2C(=O)[C@H]3[C@@H]4CC[C@@H](C4)[C@@H]3C2=O)cc1)c1ccc(-c2c3nc(c(-c4ccccc4)c4ccc([nH]4)c(-c4ccccc4)c4nc(c(-c5ccccc5)c5ccc2[nH]5)C=C4)C=C3)cc1
REMARK SMILES IDX 5 1 4 2 3 3 2 4 1 5 36 6 37 7 83 8 38 9 82 10 39 11 40 12
REMARK SMILES IDX 41 13 76 14 42 15 81 16 75 17 77 18 43 19 80 20 74 21 73 22
REMARK SMILES IDX 44 24 66 25 51 26 65 27 52 28 55 29 64 30 78 31 53 32 54 33
REMARK SMILES IDX 63 35 79 36 56 37 45 38 46 39 50 40 47 41 49 42 48 43 67 44
REMARK SMILES IDX 68 45 72 46 69 47 71 48 70 49 57 50 58 51 62 52 59 53 61 54
REMARK SMILES IDX 60 55 6 56 7 57 8 58 9 59 10 60 14 61 11 62 13 63 12 64
REMARK SMILES IDX 15 65 16 66 17 67 18 69 19 70 35 71 20 72 34 73 21 74 22 75
REMARK SMILES IDX 23 76 32 77 24 78 25 79 31 80 33 81 26 82 29 83 27 84 30 85
REMARK SMILES IDX 28 86
REMARK H PARENT 77 23 55 34 17 68
REMARK Flexibility Score: inf
ROOT
ATOM      1  C   UNL A   1      34.695  32.517  30.175  1.00  0.00     0.275 C 
ENDROOT
BRANCH   1   2
ATOM      2  C   UNL A   1      34.439  32.663  28.660  1.00  0.00     0.275 C 
BRANCH   2   3
ATOM      3  O   UNL A   1      34.630  31.603  27.704  1.00  0.00    -0.458 OA
BRANCH   3   4
ATOM      4  C   UNL A   1      34.901  30.295  27.866  1.00  0.00     0.338 C 
ATOM      5  O   UNL A   1      34.030  29.433  27.806  1.00  0.00    -0.246 OA
BRANCH   4   6
ATOM      6  C   UNL A   1      36.257  29.922  28.289  1.00  0.00     0.060 A 
ATOM      7  C   UNL A   1      36.529  29.466  29.577  1.00  0.00     0.016 A 
ATOM      8  C   UNL A   1      37.271  29.974  27.323  1.00  0.00     0.016 A 
ATOM      9  C   UNL A   1      37.750  28.871  29.846  1.00  0.00     0.010 A 
ATOM     10  C   UNL A   1      38.524  29.445  27.609  1.00  0.00     0.010 A 
ATOM     11  C   UNL A   1      38.750  28.874  28.867  1.00  0.00    -0.014 A 
BRANCH  11  12
ATOM     12  C   UNL A   1      40.117  28.620  29.328  1.00  0.00     0.031 A 
ATOM     13  C   UNL A   1      40.662  27.271  28.985  1.00  0.00     0.074 A 
ATOM     14  C   UNL A   1      40.862  29.578  29.902  1.00  0.00     0.049 A 
ATOM     15  N   UNL A   1      41.885  26.836  29.071  1.00  0.00    -0.248 NA
ATOM     16  C   UNL A   1      39.714  26.310  28.382  1.00  0.00     0.031 C 
ATOM     17  C   UNL A   1      40.437  30.954  30.149  1.00  0.00     0.029 A 
ATOM     18  N   UNL A   1      42.141  29.532  30.381  1.00  0.00    -0.354 N 
ATOM     19  C   UNL A   1      41.868  25.596  28.452  1.00  0.00     0.074 A 
ATOM     20  C   UNL A   1      40.515  25.321  28.034  1.00  0.00     0.031 C 
ATOM     21  C   UNL A   1      41.415  31.604  30.807  1.00  0.00     0.029 A 
ATOM     22  C   UNL A   1      42.530  30.686  31.016  1.00  0.00     0.049 A 
ATOM     23  H   UNL A   1      42.727  28.747  30.281  1.00  0.00     0.167 HD
ATOM     24  C   UNL A   1      42.906  24.762  28.246  1.00  0.00     0.031 A 
ATOM     25  C   UNL A   1      43.658  30.934  31.706  1.00  0.00     0.031 A 
ATOM     26  C   UNL A   1      44.202  24.997  28.800  1.00  0.00     0.049 A 
ATOM     27  C   UNL A   1      44.717  29.860  31.708  1.00  0.00     0.074 A 
ATOM     28  C   UNL A   1      45.321  24.194  28.757  1.00  0.00     0.029 A 
ATOM     29  N   UNL A   1      44.524  26.116  29.557  1.00  0.00    -0.354 N 
ATOM     30  N   UNL A   1      44.726  28.714  31.065  1.00  0.00    -0.248 NA
ATOM     31  C   UNL A   1      45.920  30.109  32.510  1.00  0.00     0.031 C 
ATOM     32  C   UNL A   1      46.298  24.791  29.562  1.00  0.00     0.029 A 
ATOM     33  C   UNL A   1      45.805  25.994  30.051  1.00  0.00     0.049 A 
ATOM     34  H   UNL A   1      43.926  26.882  29.718  1.00  0.00     0.167 HD
ATOM     35  C   UNL A   1      45.949  28.125  31.349  1.00  0.00     0.074 A 
ATOM     36  C   UNL A   1      46.654  29.041  32.226  1.00  0.00     0.031 C 
ATOM     37  C   UNL A   1      46.455  26.941  30.921  1.00  0.00     0.031 A 
BRANCH  24  38
ATOM     38  C   UNL A   1      42.607  23.509  27.487  1.00  0.00    -0.014 A 
ATOM     39  C   UNL A   1      42.177  22.348  28.150  1.00  0.00     0.009 A 
ATOM     40  C   UNL A   1      42.851  23.459  26.108  1.00  0.00     0.009 A 
ATOM     41  C   UNL A   1      42.021  21.152  27.447  1.00  0.00     0.001 A 
ATOM     42  C   UNL A   1      42.680  22.266  25.406  1.00  0.00     0.001 A 
ATOM     43  C   UNL A   1      42.273  21.112  26.075  1.00  0.00     0.000 A 
ENDBRANCH  24  38
BRANCH  25  44
ATOM     44  C   UNL A   1      43.815  32.183  32.500  1.00  0.00    -0.014 A 
ATOM     45  C   UNL A   1      43.292  32.308  33.795  1.00  0.00     0.009 A 
ATOM     46  C   UNL A   1      44.444  33.300  31.920  1.00  0.00     0.009 A 
ATOM     47  C   UNL A   1      43.361  33.530  34.474  1.00  0.00     0.001 A 
ATOM     48  C   UNL A   1      44.534  34.512  32.610  1.00  0.00     0.001 A 
ATOM     49  C   UNL A   1      43.980  34.631  33.881  1.00  0.00     0.000 A 
ENDBRANCH  25  44
BRANCH  37  50
ATOM     50  C   UNL A   1      47.837  26.591  31.379  1.00  0.00    -0.014 A 
ATOM     51  C   UNL A   1      48.042  25.817  32.530  1.00  0.00     0.009 A 
ATOM     52  C   UNL A   1      48.937  26.967  30.594  1.00  0.00     0.009 A 
ATOM     53  C   UNL A   1      49.334  25.439  32.896  1.00  0.00     0.001 A 
ATOM     54  C   UNL A   1      50.222  26.562  30.946  1.00  0.00     0.001 A 
ATOM     55  C   UNL A   1      50.419  25.804  32.099  1.00  0.00     0.000 A 
ENDBRANCH  37  50
ENDBRANCH  11  12
ENDBRANCH   4   6
ENDBRANCH   3   4
ENDBRANCH   2   3
ENDBRANCH   1   2
BRANCH   1  56
ATOM     56  O   UNL A   1      35.859  32.992  30.871  1.00  0.00    -0.458 OA
BRANCH  56  57
ATOM     57  C   UNL A   1      36.434  32.304  31.873  1.00  0.00     0.339 C 
ATOM     58  O   UNL A   1      36.039  31.278  32.396  1.00  0.00    -0.246 OA
BRANCH  57  59
ATOM     59  C   UNL A   1      37.755  32.898  32.175  1.00  0.00     0.072 A 
ATOM     60  C   UNL A   1      38.380  33.552  31.097  1.00  0.00     0.016 A 
ATOM     61  C   UNL A   1      38.352  32.923  33.443  1.00  0.00     0.054 A 
ATOM     62  C   UNL A   1      39.482  34.380  31.304  1.00  0.00     0.001 A 
ATOM     63  C   UNL A   1      39.466  33.769  33.635  1.00  0.00     0.015 A 
ATOM     64  C   UNL A   1      40.004  34.516  32.583  1.00  0.00     0.001 A 
BRANCH  61  65
ATOM     65  C   UNL A   1      37.865  32.221  34.662  1.00  0.00     0.256 C 
ATOM     66  O   UNL A   1      36.848  32.666  35.204  1.00  0.00    -0.269 OA
ATOM     67  N   UNL A   1      38.430  31.083  35.198  1.00  0.00    -0.322 N 
ATOM     68  H   UNL A   1      37.923  30.696  35.948  1.00  0.00     0.170 HD
BRANCH  67  69
ATOM     69  C   UNL A   1      39.596  30.377  34.870  1.00  0.00     0.041 A 
ATOM     70  C   UNL A   1      40.622  30.405  35.817  1.00  0.00     0.028 A 
ATOM     71  C   UNL A   1      39.720  29.559  33.753  1.00  0.00     0.028 A 
ATOM     72  C   UNL A   1      41.594  29.400  35.815  1.00  0.00     0.029 A 
ATOM     73  C   UNL A   1      40.770  28.631  33.687  1.00  0.00     0.029 A 
ATOM     74  C   UNL A   1      41.640  28.464  34.778  1.00  0.00     0.052 A 
BRANCH  74  75
ATOM     75  N   UNL A   1      42.384  27.265  34.898  1.00  0.00    -0.250 N 
ATOM     76  C   UNL A   1      43.759  27.172  34.656  1.00  0.00     0.237 C 
ATOM     77  C   UNL A   1      41.805  26.001  35.125  1.00  0.00     0.237 C 
ATOM     78  O   UNL A   1      44.615  28.037  34.657  1.00  0.00    -0.274 OA
ATOM     79  C   UNL A   1      43.938  25.758  34.224  1.00  0.00     0.095 C 
ATOM     80  C   UNL A   1      42.967  25.061  35.149  1.00  0.00     0.095 C 
ATOM     81  O   UNL A   1      40.673  25.707  35.469  1.00  0.00    -0.274 OA
ATOM     82  C   UNL A   1      45.104  24.759  34.202  1.00  0.00     0.002 C 
ATOM     83  C   UNL A   1      43.252  23.600  34.807  1.00  0.00     0.002 C 
ATOM     84  C   UNL A   1      44.836  23.914  32.942  1.00  0.00     0.005 C 
ATOM     85  C   UNL A   1      44.738  23.660  35.239  1.00  0.00     0.009 C 
ATOM     86  C   UNL A   1      43.452  23.283  33.289  1.00  0.00     0.005 C 
ENDBRANCH  74  75
ENDBRANCH  67  69
ENDBRANCH  61  65
ENDBRANCH  57  59
ENDBRANCH  56  57
ENDBRANCH   1  56
TORSDOF 14
ENDMDL
MODEL 2
REMARK VINA RESULT:      -9.6      5.181     11.500
REMARK SMILES O=C(OCCOC(=O)c1ccccc1C(=O)Nc1ccc(N2C(=O)[C@H]3[C@@H]4CC[C@@H](C4)[C@@H]3C2=O)cc1)c1ccc(-c2c3nc(c(-c4ccccc4)c4ccc([nH]4)c(-c4ccccc4)c4nc(c(-c5ccccc5)c5ccc2[nH]5)C=C4)C=C3)cc1
REMARK SMILES IDX 5 1 4 2 3 3 2 4 1 5 36 6 37 7 83 8 38 9 82 10 39 11 40 12
REMARK SMILES IDX 41 13 76 14 42 15 81 16 75 17 77 18 43 19 80 20 74 21 73 22
REMARK SMILES IDX 44 24 66 25 51 26 65 27 52 28 55 29 64 30 78 31 53 32 54 33
REMARK SMILES IDX 63 35 79 36 56 37 45 38 46 39 50 40 47 41 49 42 48 43 67 44
REMARK SMILES IDX 68 45 72 46 69 47 71 48 70 49 57 50 58 51 62 52 59 53 61 54
REMARK SMILES IDX 60 55 6 56 7 57 8 58 9 59 10 60 14 61 11 62 13 63 12 64
REMARK SMILES IDX 15 65 16 66 17 67 18 69 19 70 35 71 20 72 34 73 21 74 22 75
REMARK SMILES IDX 23 76 32 77 24 78 25 79 31 80 33 81 26 82 29 83 27 84 30 85
REMARK SMILES IDX 28 86
REMARK H PARENT 77 23 55 34 17 68
REMARK Flexibility Score: inf
ROOT
ATOM      1  C   UNL A   1      38.087  19.522  24.865  1.00  0.00     0.275 C 
ENDROOT
BRANCH   1   2
ATOM      2  C   UNL A   1      39.322  19.928  25.696  1.00  0.00     0.275 C 
BRANCH   2   3
ATOM      3  O   UNL A   1      40.557  19.188  25.719  1.00  0.00    -0.458 OA
BRANCH   3   4
ATOM      4  C   UNL A   1      41.812  19.557  26.038  1.00  0.00     0.338 C 
ATOM      5  O   UNL A   1      42.738  18.754  26.093  1.00  0.00    -0.246 OA
BRANCH   4   6
ATOM      6  C   UNL A   1      42.027  20.938  26.490  1.00  0.00     0.060 A 
ATOM      7  C   UNL A   1      42.435  21.945  25.618  1.00  0.00     0.016 A 
ATOM      8  C   UNL A   1      41.735  21.231  27.829  1.00  0.00     0.016 A 
ATOM      9  C   UNL A   1      42.357  23.267  26.020  1.00  0.00     0.010 A 
ATOM     10  C   UNL A   1      41.726  22.552  28.260  1.00  0.00     0.010 A 
ATOM     11  C   UNL A   1      42.016  23.568  27.343  1.00  0.00    -0.014 A 
BRANCH  11  12
ATOM     12  C   UNL A   1      42.350  24.915  27.814  1.00  0.00     0.031 A 
ATOM     13  C   UNL A   1      43.811  25.187  27.973  1.00  0.00     0.074 A 
ATOM     14  C   UNL A   1      41.415  25.866  27.965  1.00  0.00     0.049 A 
ATOM     15  N   UNL A   1      44.416  26.323  28.168  1.00  0.00    -0.248 NA
ATOM     16  C   UNL A   1      44.720  24.034  27.804  1.00  0.00     0.031 C 
ATOM     17  C   UNL A   1      39.987  25.706  27.702  1.00  0.00     0.029 A 
ATOM     18  N   UNL A   1      41.535  27.163  28.379  1.00  0.00    -0.354 N 
ATOM     19  C   UNL A   1      45.766  26.033  28.051  1.00  0.00     0.074 A 
ATOM     20  C   UNL A   1      45.904  24.618  27.816  1.00  0.00     0.031 C 
ATOM     21  C   UNL A   1      39.348  26.842  28.037  1.00  0.00     0.029 A 
ATOM     22  C   UNL A   1      40.329  27.804  28.528  1.00  0.00     0.049 A 
ATOM     23  H   UNL A   1      42.401  27.596  28.554  1.00  0.00     0.167 HD
ATOM     24  C   UNL A   1      46.804  26.890  28.129  1.00  0.00     0.031 A 
ATOM     25  C   UNL A   1      40.077  29.024  29.035  1.00  0.00     0.031 A 
ATOM     26  C   UNL A   1      46.643  28.259  28.508  1.00  0.00     0.049 A 
ATOM     27  C   UNL A   1      41.263  29.883  29.394  1.00  0.00     0.074 A 
ATOM     28  C   UNL A   1      47.610  29.217  28.723  1.00  0.00     0.029 A 
ATOM     29  N   UNL A   1      45.414  28.841  28.786  1.00  0.00    -0.354 N 
ATOM     30  N   UNL A   1      42.541  29.633  29.219  1.00  0.00    -0.248 NA
ATOM     31  C   UNL A   1      40.983  31.190  30.001  1.00  0.00     0.031 C 
ATOM     32  C   UNL A   1      46.968  30.360  29.213  1.00  0.00     0.029 A 
ATOM     33  C   UNL A   1      45.598  30.129  29.242  1.00  0.00     0.049 A 
ATOM     34  H   UNL A   1      44.540  28.400  28.675  1.00  0.00     0.167 HD
ATOM     35  C   UNL A   1      43.217  30.763  29.654  1.00  0.00     0.074 A 
ATOM     36  C   UNL A   1      42.203  31.700  30.104  1.00  0.00     0.031 C 
ATOM     37  C   UNL A   1      44.549  31.016  29.676  1.00  0.00     0.031 A 
BRANCH  24  38
ATOM     38  C   UNL A   1      48.162  26.307  27.898  1.00  0.00    -0.014 A 
ATOM     39  C   UNL A   1      48.702  26.229  26.604  1.00  0.00     0.009 A 
ATOM     40  C   UNL A   1      48.865  25.743  28.970  1.00  0.00     0.009 A 
ATOM     41  C   UNL A   1      49.915  25.572  26.387  1.00  0.00     0.001 A 
ATOM     42  C   UNL A   1      50.083  25.100  28.752  1.00  0.00     0.001 A 
ATOM     43  C   UNL A   1      50.604  25.008  27.461  1.00  0.00     0.000 A 
ENDBRANCH  24  38
BRANCH  25  44
ATOM     44  C   UNL A   1      38.682  29.471  29.305  1.00  0.00    -0.014 A 
ATOM     45  C   UNL A   1      38.071  29.276  30.551  1.00  0.00     0.009 A 
ATOM     46  C   UNL A   1      37.924  30.044  28.268  1.00  0.00     0.009 A 
ATOM     47  C   UNL A   1      36.725  29.608  30.741  1.00  0.00     0.001 A 
ATOM     48  C   UNL A   1      36.587  30.398  28.467  1.00  0.00     0.001 A 
ATOM     49  C   UNL A   1      35.984  30.167  29.700  1.00  0.00     0.000 A 
ENDBRANCH  25  44
BRANCH  37  50
ATOM     50  C   UNL A   1      44.975  32.361  30.178  1.00  0.00    -0.014 A 
ATOM     51  C   UNL A   1      45.042  33.465  29.317  1.00  0.00     0.009 A 
ATOM     52  C   UNL A   1      45.223  32.536  31.548  1.00  0.00     0.009 A 
ATOM     53  C   UNL A   1      45.367  34.724  29.820  1.00  0.00     0.001 A 
ATOM     54  C   UNL A   1      45.517  33.801  32.052  1.00  0.00     0.001 A 
ATOM     55  C   UNL A   1      45.595  34.892  31.187  1.00  0.00     0.000 A 
ENDBRANCH  37  50
ENDBRANCH  11  12
ENDBRANCH   4   6
ENDBRANCH   3   4
ENDBRANCH   2   3
ENDBRANCH   1   2
BRANCH   1  56
ATOM     56  O   UNL A   1      36.742  19.972  25.100  1.00  0.00    -0.458 OA
BRANCH  56  57
ATOM     57  C   UNL A   1      36.321  21.202  24.757  1.00  0.00     0.339 C 
ATOM     58  O   UNL A   1      36.698  21.886  23.824  1.00  0.00    -0.246 OA
BRANCH  57  59
ATOM     59  C   UNL A   1      35.174  21.579  25.613  1.00  0.00     0.072 A 
ATOM     60  C   UNL A   1      34.329  20.517  25.986  1.00  0.00     0.016 A 
ATOM     61  C   UNL A   1      34.943  22.863  26.124  1.00  0.00     0.054 A 
ATOM     62  C   UNL A   1      33.384  20.677  26.997  1.00  0.00     0.001 A 
ATOM     63  C   UNL A   1      33.983  23.005  27.150  1.00  0.00     0.015 A 
ATOM     64  C   UNL A   1      33.235  21.916  27.605  1.00  0.00     0.001 A 
BRANCH  61  65
ATOM     65  C   UNL A   1      35.690  24.101  25.772  1.00  0.00     0.256 C 
ATOM     66  O   UNL A   1      36.908  24.107  25.979  1.00  0.00    -0.269 OA
ATOM     67  N   UNL A   1      35.136  25.219  25.183  1.00  0.00    -0.322 N 
ATOM     68  H   UNL A   1      35.792  25.908  24.930  1.00  0.00     0.170 HD
BRANCH  67  69
ATOM     69  C   UNL A   1      33.809  25.552  24.881  1.00  0.00     0.041 A 
ATOM     70  C   UNL A   1      33.208  26.506  25.706  1.00  0.00     0.028 A 
ATOM     71  C   UNL A   1      33.134  25.104  23.751  1.00  0.00     0.028 A 
ATOM     72  C   UNL A   1      32.108  27.232  25.238  1.00  0.00     0.029 A 
ATOM     73  C   UNL A   1      31.957  25.751  23.346  1.00  0.00     0.029 A 
ATOM     74  C   UNL A   1      31.508  26.899  24.021  1.00  0.00     0.052 A 
BRANCH  74  75
ATOM     75  N   UNL A   1      30.618  27.788  23.369  1.00  0.00    -0.250 N 
ATOM     76  C   UNL A   1      31.021  28.961  22.722  1.00  0.00     0.237 C 
ATOM     77  C   UNL A   1      29.215  27.674  23.426  1.00  0.00     0.237 C 
ATOM     78  O   UNL A   1      32.110  29.279  22.281  1.00  0.00    -0.274 OA
ATOM     79  C   UNL A   1      29.824  29.842  22.830  1.00  0.00     0.095 C 
ATOM     80  C   UNL A   1      28.718  28.832  22.621  1.00  0.00     0.095 C 
ATOM     81  O   UNL A   1      28.517  26.753  23.812  1.00  0.00    -0.274 OA
ATOM     82  C   UNL A   1      29.281  31.050  22.054  1.00  0.00     0.002 C 
ATOM     83  C   UNL A   1      27.500  29.753  22.589  1.00  0.00     0.002 C 
ATOM     84  C   UNL A   1      28.588  31.898  23.138  1.00  0.00     0.005 C 
ATOM     85  C   UNL A   1      27.983  30.554  21.355  1.00  0.00     0.009 C 
ATOM     86  C   UNL A   1      27.492  30.909  23.643  1.00  0.00     0.005 C 
ENDBRANCH  74  75
ENDBRANCH  67  69
ENDBRANCH  61  65
ENDBRANCH  57  59
ENDBRANCH  56  57
ENDBRANCH   1  56
TORSDOF 14
ENDMDL
MODEL 3
REMARK VINA RESULT:      -9.5      5.368     11.990
REMARK SMILES O=C(OCCOC(=O)c1ccccc1C(=O)Nc1ccc(N2C(=O)[C@H]3[C@@H]4CC[C@@H](C4)[C@@H]3C2=O)cc1)c1ccc(-c2c3nc(c(-c4ccccc4)c4ccc([nH]4)c(-c4ccccc4)c4nc(c(-c5ccccc5)c5ccc2[nH]5)C=C4)C=C3)cc1
REMARK SMILES IDX 5 1 4 2 3 3 2 4 1 5 36 6 37 7 83 8 38 9 82 10 39 11 40 12
REMARK SMILES IDX 41 13 76 14 42 15 81 16 75 17 77 18 43 19 80 20 74 21 73 22
REMARK SMILES IDX 44 24 66 25 51 26 65 27 52 28 55 29 64 30 78 31 53 32 54 33
REMARK SMILES IDX 63 35 79 36 56 37 45 38 46 39 50 40 47 41 49 42 48 43 67 44
REMARK SMILES IDX 68 45 72 46 69 47 71 48 70 49 57 50 58 51 62 52 59 53 61 54
REMARK SMILES IDX 60 55 6 56 7 57 8 58 9 59 10 60 14 61 11 62 13 63 12 64
REMARK SMILES IDX 15 65 16 66 17 67 18 69 19 70 35 71 20 72 34 73 21 74 22 75
REMARK SMILES IDX 23 76 32 77 24 78 25 79 31 80 33 81 26 82 29 83 27 84 30 85
REMARK SMILES IDX 28 86
REMARK H PARENT 77 23 55 34 17 68
REMARK Flexibility Score: inf
ROOT
ATOM      1  C   UNL A   1      38.139  19.558  24.937  1.00  0.00     0.275 C 
ENDROOT
BRANCH   1   2
ATOM      2  C   UNL A   1      39.525  19.990  25.461  1.00  0.00     0.275 C 
BRANCH   2   3
ATOM      3  O   UNL A   1      40.553  19.071  25.876  1.00  0.00    -0.458 OA
BRANCH   3   4
ATOM      4  C   UNL A   1      41.850  19.263  26.180  1.00  0.00     0.338 C 
ATOM      5  O   UNL A   1      42.625  18.329  26.363  1.00  0.00    -0.246 OA
BRANCH   4   6
ATOM      6  C   UNL A   1      42.294  20.635  26.460  1.00  0.00     0.060 A 
ATOM      7  C   UNL A   1      42.767  21.476  25.457  1.00  0.00     0.016 A 
ATOM      8  C   UNL A   1      42.156  21.101  27.774  1.00  0.00     0.016 A 
ATOM      9  C   UNL A   1      42.910  22.829  25.712  1.00  0.00     0.010 A 
ATOM     10  C   UNL A   1      42.368  22.446  28.055  1.00  0.00     0.010 A 
ATOM     11  C   UNL A   1      42.724  23.309  27.013  1.00  0.00    -0.014 A 
BRANCH  11  12
ATOM     12  C   UNL A   1      43.281  24.632  27.307  1.00  0.00     0.031 A 
ATOM     13  C   UNL A   1      42.270  25.696  27.594  1.00  0.00     0.074 A 
ATOM     14  C   UNL A   1      44.601  24.834  27.434  1.00  0.00     0.049 A 
ATOM     15  N   UNL A   1      42.453  26.889  28.082  1.00  0.00    -0.248 NA
ATOM     16  C   UNL A   1      40.853  25.335  27.382  1.00  0.00     0.031 C 
ATOM     17  C   UNL A   1      45.636  23.812  27.297  1.00  0.00     0.029 A 
ATOM     18  N   UNL A   1      45.296  25.978  27.711  1.00  0.00    -0.354 N 
ATOM     19  C   UNL A   1      41.178  27.377  28.318  1.00  0.00     0.074 A 
ATOM     20  C   UNL A   1      40.228  26.383  27.884  1.00  0.00     0.031 C 
ATOM     21  C   UNL A   1      46.845  24.393  27.414  1.00  0.00     0.029 A 
ATOM     22  C   UNL A   1      46.659  25.822  27.641  1.00  0.00     0.049 A 
ATOM     23  H   UNL A   1      44.862  26.831  27.939  1.00  0.00     0.167 HD
ATOM     24  C   UNL A   1      40.835  28.561  28.863  1.00  0.00     0.031 A 
ATOM     25  C   UNL A   1      47.623  26.756  27.727  1.00  0.00     0.031 A 
ATOM     26  C   UNL A   1      41.794  29.582  29.147  1.00  0.00     0.049 A 
ATOM     27  C   UNL A   1      47.196  28.163  28.061  1.00  0.00     0.074 A 
ATOM     28  C   UNL A   1      41.584  30.864  29.608  1.00  0.00     0.029 A 
ATOM     29  N   UNL A   1      43.159  29.438  28.933  1.00  0.00    -0.354 N 
ATOM     30  N   UNL A   1      45.994  28.609  28.352  1.00  0.00    -0.248 NA
ATOM     31  C   UNL A   1      48.243  29.190  28.095  1.00  0.00     0.031 C 
ATOM     32  C   UNL A   1      42.818  31.524  29.592  1.00  0.00     0.029 A 
ATOM     33  C   UNL A   1      43.801  30.632  29.183  1.00  0.00     0.049 A 
ATOM     34  H   UNL A   1      43.602  28.606  28.645  1.00  0.00     0.167 HD
ATOM     35  C   UNL A   1      46.146  29.956  28.644  1.00  0.00     0.074 A 
ATOM     36  C   UNL A   1      47.558  30.254  28.493  1.00  0.00     0.031 C 
ATOM     37  C   UNL A   1      45.212  30.868  29.014  1.00  0.00     0.031 A 
BRANCH  24  38
ATOM     38  C   UNL A   1      39.372  28.800  29.062  1.00  0.00    -0.014 A 
ATOM     39  C   UNL A   1      38.586  29.357  28.041  1.00  0.00     0.009 A 
ATOM     40  C   UNL A   1      38.795  28.556  30.316  1.00  0.00     0.009 A 
ATOM     41  C   UNL A   1      37.251  29.688  28.282  1.00  0.00     0.001 A 
ATOM     42  C   UNL A   1      37.458  28.875  30.549  1.00  0.00     0.001 A 
ATOM     43  C   UNL A   1      36.689  29.447  29.536  1.00  0.00     0.000 A 
ENDBRANCH  24  38
BRANCH  25  44
ATOM     44  C   UNL A   1      49.043  26.425  27.422  1.00  0.00    -0.014 A 
ATOM     45  C   UNL A   1      49.526  26.378  26.107  1.00  0.00     0.009 A 
ATOM     46  C   UNL A   1      49.916  26.082  28.471  1.00  0.00     0.009 A 
ATOM     47  C   UNL A   1      50.836  25.959  25.847  1.00  0.00     0.001 A 
ATOM     48  C   UNL A   1      51.231  25.688  28.210  1.00  0.00     0.001 A 
ATOM     49  C   UNL A   1      51.686  25.613  26.897  1.00  0.00     0.000 A 
ENDBRANCH  25  44
BRANCH  37  50
ATOM     50  C   UNL A   1      45.697  32.256  29.299  1.00  0.00    -0.014 A 
ATOM     51  C   UNL A   1      45.724  33.232  28.293  1.00  0.00     0.009 A 
ATOM     52  C   UNL A   1      46.044  32.606  30.612  1.00  0.00     0.009 A 
ATOM     53  C   UNL A   1      46.108  34.538  28.598  1.00  0.00     0.001 A 
ATOM     54  C   UNL A   1      46.397  33.918  30.919  1.00  0.00     0.001 A 
ATOM     55  C   UNL A   1      46.434  34.880  29.910  1.00  0.00     0.000 A 
ENDBRANCH  37  50
ENDBRANCH  11  12
ENDBRANCH   4   6
ENDBRANCH   3   4
ENDBRANCH   2   3
ENDBRANCH   1   2
BRANCH   1  56
ATOM     56  O   UNL A   1      36.894  20.207  25.245  1.00  0.00    -0.458 OA
BRANCH  56  57
ATOM     57  C   UNL A   1      36.423  21.244  24.532  1.00  0.00     0.339 C 
ATOM     58  O   UNL A   1      37.011  21.898  23.690  1.00  0.00    -0.246 OA
BRANCH  57  59
ATOM     59  C   UNL A   1      34.978  21.405  24.805  1.00  0.00     0.072 A 
ATOM     60  C   UNL A   1      34.171  20.314  24.430  1.00  0.00     0.016 A 
ATOM     61  C   UNL A   1      34.404  22.498  25.467  1.00  0.00     0.054 A 
ATOM     62  C   UNL A   1      32.853  20.215  24.871  1.00  0.00     0.001 A 
ATOM     63  C   UNL A   1      33.067  22.379  25.907  1.00  0.00     0.015 A 
ATOM     64  C   UNL A   1      32.311  21.234  25.641  1.00  0.00     0.001 A 
BRANCH  61  65
ATOM     65  C   UNL A   1      35.096  23.756  25.859  1.00  0.00     0.256 C 
ATOM     66  O   UNL A   1      36.169  23.649  26.462  1.00  0.00    -0.269 OA
ATOM     67  N   UNL A   1      34.659  25.028  25.552  1.00  0.00    -0.322 N 
ATOM     68  H   UNL A   1      35.288  25.742  25.804  1.00  0.00     0.170 HD
BRANCH  67  69
ATOM     69  C   UNL A   1      33.481  25.489  24.949  1.00  0.00     0.041 A 
ATOM     70  C   UNL A   1      32.329  25.459  25.739  1.00  0.00     0.028 A 
ATOM     71  C   UNL A   1      33.435  26.090  23.696  1.00  0.00     0.028 A 
ATOM     72  C   UNL A   1      31.252  26.293  25.424  1.00  0.00     0.029 A 
ATOM     73  C   UNL A   1      32.301  26.828  23.324  1.00  0.00     0.029 A 
ATOM     74  C   UNL A   1      31.255  27.034  24.239  1.00  0.00     0.052 A 
BRANCH  74  75
ATOM     75  N   UNL A   1      30.357  28.112  24.040  1.00  0.00    -0.250 N 
ATOM     76  C   UNL A   1      29.060  27.964  23.537  1.00  0.00     0.237 C 
ATOM     77  C   UNL A   1      30.715  29.467  24.179  1.00  0.00     0.237 C 
ATOM     78  O   UNL A   1      28.337  26.985  23.510  1.00  0.00    -0.274 OA
ATOM     79  C   UNL A   1      28.797  29.271  22.873  1.00  0.00     0.095 C 
ATOM     80  C   UNL A   1      29.464  30.215  23.847  1.00  0.00     0.095 C 
ATOM     81  O   UNL A   1      31.707  29.970  24.677  1.00  0.00    -0.274 OA
ATOM     82  C   UNL A   1      27.544  30.070  22.488  1.00  0.00     0.002 C 
ATOM     83  C   UNL A   1      29.073  31.563  23.245  1.00  0.00     0.002 C 
ATOM     84  C   UNL A   1      27.954  30.787  21.187  1.00  0.00     0.005 C 
ATOM     85  C   UNL A   1      27.550  31.331  23.399  1.00  0.00     0.009 C 
ATOM     86  C   UNL A   1      29.149  31.659  21.685  1.00  0.00     0.005 C 
ENDBRANCH  74  75
ENDBRANCH  67  69
ENDBRANCH  61  65
ENDBRANCH  57  59
ENDBRANCH  56  57
ENDBRANCH   1  56
TORSDOF 14
ENDMDL
