MODEL 1
REMARK VINA RESULT:     -12.5      0.000      0.000
REMARK SMILES Cn1cc(C[C@@H](NC(=O)OCC2c3ccccc3-c3ccccc32)C(=O)OCCOC(=O)c2ccc(-c3c4nc(c(-c5ccccc5)c5ccc([nH]5)c(-c5ccccc5)c5nc(c(-c6ccccc6)c6ccc3[nH]6)C=C5)C=C4)cc2)c2ccccc21
REMARK SMILES IDX 28 1 27 2 25 3 26 4 6 5 5 6 4 7 1 8 2 9 3 10 86 11 81 12
REMARK SMILES IDX 85 13 82 14 84 15 83 16 7 17 8 18 9 20 10 21 11 22 12 23
REMARK SMILES IDX 13 24 24 25 14 26 18 27 19 28 23 29 15 30 17 31 20 32 22 33
REMARK SMILES IDX 16 34 21 35 29 36 30 37 31 38 32 39 33 40 34 41 80 42 35 43
REMARK SMILES IDX 79 44 36 45 37 46 38 47 73 48 39 49 78 50 72 51 74 52 40 53
REMARK SMILES IDX 77 54 71 55 70 56 41 58 63 59 48 60 62 61 49 62 52 63 61 64
REMARK SMILES IDX 75 65 50 66 51 67 60 69 76 70 53 71 42 72 43 73 47 74 44 75
REMARK SMILES IDX 46 76 45 77 64 78 65 79 69 80 66 81 68 82 67 83 54 84 55 85
REMARK SMILES IDX 59 86 56 87 58 88 57 89
REMARK H PARENT 7 19 74 57 52 68
REMARK Flexibility Score: inf
ROOT
ATOM      1  C   UNL A   1      31.763  28.121  27.739  1.00  0.00     0.274 C 
ENDROOT
BRANCH   1   2
ATOM      2  O   UNL A   1      30.988  27.411  26.755  1.00  0.00    -0.461 OA
BRANCH   2   3
ATOM      3  C   UNL A   1      31.389  26.131  26.498  1.00  0.00     0.329 C 
ATOM      4  O   UNL A   1      32.529  25.712  26.666  1.00  0.00    -0.250 OA
BRANCH   3   5
ATOM      5  C   UNL A   1      30.276  25.305  25.844  1.00  0.00     0.200 C 
BRANCH   5   6
ATOM      6  C   UNL A   1      30.479  25.008  24.343  1.00  0.00     0.075 C 
BRANCH   6   7
ATOM      7  C   UNL A   1      31.021  26.204  23.586  1.00  0.00    -0.020 A 
ATOM      8  C   UNL A   1      33.637  28.150  21.974  1.00  0.00     0.149 C 
ATOM      9  N   UNL A   1      32.439  27.621  22.590  1.00  0.00    -0.350 N 
ATOM     10  C   UNL A   1      32.336  26.397  23.198  1.00  0.00     0.090 A 
ATOM     11  C   UNL A   1      31.227  28.273  22.627  1.00  0.00     0.048 A 
ATOM     12  C   UNL A   1      30.300  27.372  23.160  1.00  0.00     0.003 A 
ATOM     13  C   UNL A   1      30.866  29.570  22.222  1.00  0.00     0.027 A 
ATOM     14  C   UNL A   1      28.945  27.765  23.211  1.00  0.00     0.010 A 
ATOM     15  C   UNL A   1      29.529  29.953  22.355  1.00  0.00     0.002 A 
ATOM     16  C   UNL A   1      28.577  29.059  22.828  1.00  0.00     0.001 A 
ENDBRANCH   6   7
ENDBRANCH   5   6
BRANCH   5  17
ATOM     17  N   UNL A   1      29.910  24.117  26.611  1.00  0.00    -0.308 N 
ATOM     18  C   UNL A   1      30.366  22.851  26.414  1.00  0.00     0.407 C 
ATOM     19  H   UNL A   1      29.268  24.245  27.346  1.00  0.00     0.168 HD
ATOM     20  O   UNL A   1      29.635  21.877  26.570  1.00  0.00    -0.225 OA
BRANCH  18  21
ATOM     21  O   UNL A   1      31.706  22.797  26.224  1.00  0.00    -0.449 OA
BRANCH  21  22
ATOM     22  C   UNL A   1      32.163  21.753  25.344  1.00  0.00     0.248 C 
BRANCH  22  23
ATOM     23  C   UNL A   1      33.307  20.899  25.944  1.00  0.00     0.088 C 
ATOM     24  C   UNL A   1      33.459  19.513  25.316  1.00  0.00    -0.029 A 
ATOM     25  C   UNL A   1      34.720  21.460  25.787  1.00  0.00    -0.029 A 
ATOM     26  C   UNL A   1      32.538  18.475  25.272  1.00  0.00     0.005 A 
ATOM     27  C   UNL A   1      34.779  19.331  24.849  1.00  0.00    -0.014 A 
ATOM     28  C   UNL A   1      35.533  20.542  25.086  1.00  0.00    -0.014 A 
ATOM     29  C   UNL A   1      35.229  22.674  26.216  1.00  0.00     0.005 A 
ATOM     30  C   UNL A   1      32.952  17.243  24.759  1.00  0.00     0.000 A 
ATOM     31  C   UNL A   1      35.189  18.109  24.339  1.00  0.00     0.009 A 
ATOM     32  C   UNL A   1      36.836  20.869  24.744  1.00  0.00     0.009 A 
ATOM     33  C   UNL A   1      36.535  23.014  25.854  1.00  0.00     0.000 A 
ATOM     34  C   UNL A   1      34.267  17.059  24.300  1.00  0.00     0.001 A 
ATOM     35  C   UNL A   1      37.329  22.122  25.116  1.00  0.00     0.001 A 
ENDBRANCH  22  23
ENDBRANCH  21  22
ENDBRANCH  18  21
ENDBRANCH   5  17
ENDBRANCH   3   5
ENDBRANCH   2   3
ENDBRANCH   1   2
BRANCH   1  36
ATOM     36  C   UNL A   1      32.597  29.247  27.120  1.00  0.00     0.275 C 
BRANCH  36  37
ATOM     37  O   UNL A   1      33.988  29.140  27.468  1.00  0.00    -0.458 OA
BRANCH  37  38
ATOM     38  C   UNL A   1      34.546  30.289  27.916  1.00  0.00     0.338 C 
ATOM     39  O   UNL A   1      33.988  31.359  28.100  1.00  0.00    -0.246 OA
BRANCH  38  40
ATOM     40  C   UNL A   1      35.935  30.045  28.335  1.00  0.00     0.060 A 
ATOM     41  C   UNL A   1      36.937  30.214  27.373  1.00  0.00     0.016 A 
ATOM     42  C   UNL A   1      36.247  29.588  29.615  1.00  0.00     0.016 A 
ATOM     43  C   UNL A   1      38.257  29.911  27.677  1.00  0.00     0.010 A 
ATOM     44  C   UNL A   1      37.572  29.262  29.916  1.00  0.00     0.010 A 
ATOM     45  C   UNL A   1      38.575  29.400  28.939  1.00  0.00    -0.014 A 
BRANCH  45  46
ATOM     46  C   UNL A   1      39.936  28.875  29.174  1.00  0.00     0.031 A 
ATOM     47  C   UNL A   1      40.931  29.742  29.891  1.00  0.00     0.074 A 
ATOM     48  C   UNL A   1      40.256  27.623  28.807  1.00  0.00     0.049 A 
ATOM     49  N   UNL A   1      42.185  29.503  30.174  1.00  0.00    -0.248 NA
ATOM     50  C   UNL A   1      40.445  31.052  30.354  1.00  0.00     0.031 C 
ATOM     51  C   UNL A   1      39.348  26.669  28.171  1.00  0.00     0.029 A 
ATOM     52  N   UNL A   1      41.438  26.939  28.926  1.00  0.00    -0.354 N 
ATOM     53  C   UNL A   1      42.644  30.638  30.830  1.00  0.00     0.074 A 
ATOM     54  C   UNL A   1      41.539  31.571  30.890  1.00  0.00     0.031 C 
ATOM     55  C   UNL A   1      40.009  25.519  27.955  1.00  0.00     0.029 A 
ATOM     56  C   UNL A   1      41.391  25.673  28.401  1.00  0.00     0.049 A 
ATOM     57  H   UNL A   1      42.242  27.320  29.347  1.00  0.00     0.167 HD
ATOM     58  C   UNL A   1      43.876  30.881  31.335  1.00  0.00     0.031 A 
ATOM     59  C   UNL A   1      42.365  24.751  28.278  1.00  0.00     0.031 A 
ATOM     60  C   UNL A   1      44.971  29.953  31.265  1.00  0.00     0.049 A 
ATOM     61  C   UNL A   1      43.743  25.070  28.789  1.00  0.00     0.074 A 
ATOM     62  C   UNL A   1      46.265  30.105  31.731  1.00  0.00     0.029 A 
ATOM     63  N   UNL A   1      44.897  28.693  30.690  1.00  0.00    -0.354 N 
ATOM     64  N   UNL A   1      44.173  26.153  29.391  1.00  0.00    -0.248 NA
ATOM     65  C   UNL A   1      44.770  24.036  28.606  1.00  0.00     0.031 C 
ATOM     66  C   UNL A   1      46.985  28.952  31.401  1.00  0.00     0.029 A 
ATOM     67  C   UNL A   1      46.125  28.062  30.778  1.00  0.00     0.049 A 
ATOM     68  H   UNL A   1      44.090  28.305  30.280  1.00  0.00     0.167 HD
ATOM     69  C   UNL A   1      45.510  25.920  29.685  1.00  0.00     0.074 A 
ATOM     70  C   UNL A   1      45.816  24.587  29.206  1.00  0.00     0.031 C 
ATOM     71  C   UNL A   1      46.405  26.734  30.297  1.00  0.00     0.031 A 
BRANCH  58  72
ATOM     72  C   UNL A   1      44.107  32.225  31.964  1.00  0.00    -0.014 A 
ATOM     73  C   UNL A   1      44.594  33.309  31.216  1.00  0.00     0.009 A 
ATOM     74  C   UNL A   1      43.822  32.412  33.324  1.00  0.00     0.009 A 
ATOM     75  C   UNL A   1      44.824  34.543  31.828  1.00  0.00     0.001 A 
ATOM     76  C   UNL A   1      44.027  33.654  33.928  1.00  0.00     0.001 A 
ATOM     77  C   UNL A   1      44.536  34.715  33.182  1.00  0.00     0.000 A 
ENDBRANCH  58  72
BRANCH  59  78
ATOM     78  C   UNL A   1      42.079  23.448  27.623  1.00  0.00    -0.014 A 
ATOM     79  C   UNL A   1      41.471  22.405  28.338  1.00  0.00     0.009 A 
ATOM     80  C   UNL A   1      42.428  23.238  26.281  1.00  0.00     0.009 A 
ATOM     81  C   UNL A   1      41.241  21.170  27.726  1.00  0.00     0.001 A 
ATOM     82  C   UNL A   1      42.173  22.011  25.664  1.00  0.00     0.001 A 
ATOM     83  C   UNL A   1      41.588  20.975  26.390  1.00  0.00     0.000 A 
ENDBRANCH  59  78
BRANCH  71  84
ATOM     84  C   UNL A   1      47.784  26.182  30.522  1.00  0.00    -0.014 A 
ATOM     85  C   UNL A   1      48.742  26.167  29.497  1.00  0.00     0.009 A 
ATOM     86  C   UNL A   1      48.134  25.696  31.792  1.00  0.00     0.009 A 
ATOM     87  C   UNL A   1      50.013  25.640  29.730  1.00  0.00     0.001 A 
ATOM     88  C   UNL A   1      49.415  25.196  32.029  1.00  0.00     0.001 A 
ATOM     89  C   UNL A   1      50.349  25.158  30.995  1.00  0.00     0.000 A 
ENDBRANCH  71  84
ENDBRANCH  45  46
ENDBRANCH  38  40
ENDBRANCH  37  38
ENDBRANCH  36  37
ENDBRANCH   1  36
TORSDOF 17
ENDMDL
MODEL 2
REMARK VINA RESULT:     -12.3      2.650      7.121
REMARK SMILES Cn1cc(C[C@@H](NC(=O)OCC2c3ccccc3-c3ccccc32)C(=O)OCCOC(=O)c2ccc(-c3c4nc(c(-c5ccccc5)c5ccc([nH]5)c(-c5ccccc5)c5nc(c(-c6ccccc6)c6ccc3[nH]6)C=C5)C=C4)cc2)c2ccccc21
REMARK SMILES IDX 28 1 27 2 25 3 26 4 6 5 5 6 4 7 1 8 2 9 3 10 86 11 81 12
REMARK SMILES IDX 85 13 82 14 84 15 83 16 7 17 8 18 9 20 10 21 11 22 12 23
REMARK SMILES IDX 13 24 24 25 14 26 18 27 19 28 23 29 15 30 17 31 20 32 22 33
REMARK SMILES IDX 16 34 21 35 29 36 30 37 31 38 32 39 33 40 34 41 80 42 35 43
REMARK SMILES IDX 79 44 36 45 37 46 38 47 73 48 39 49 78 50 72 51 74 52 40 53
REMARK SMILES IDX 77 54 71 55 70 56 41 58 63 59 48 60 62 61 49 62 52 63 61 64
REMARK SMILES IDX 75 65 50 66 51 67 60 69 76 70 53 71 42 72 43 73 47 74 44 75
REMARK SMILES IDX 46 76 45 77 64 78 65 79 69 80 66 81 68 82 67 83 54 84 55 85
REMARK SMILES IDX 59 86 56 87 58 88 57 89
REMARK H PARENT 7 19 74 57 52 68
REMARK Flexibility Score: inf
ROOT
ATOM      1  C   UNL A   1      36.980  21.366  24.635  1.00  0.00     0.274 C 
ENDROOT
BRANCH   1   2
ATOM      2  O   UNL A   1      36.315  22.604  24.948  1.00  0.00    -0.461 OA
BRANCH   2   3
ATOM      3  C   UNL A   1      35.807  23.288  23.880  1.00  0.00     0.329 C 
ATOM      4  O   UNL A   1      36.348  23.366  22.782  1.00  0.00    -0.250 OA
BRANCH   3   5
ATOM      5  C   UNL A   1      34.539  24.063  24.251  1.00  0.00     0.200 C 
BRANCH   5   6
ATOM      6  C   UNL A   1      34.755  25.241  25.226  1.00  0.00     0.075 C 
BRANCH   6   7
ATOM      7  C   UNL A   1      33.575  26.193  25.252  1.00  0.00    -0.020 A 
ATOM      8  C   UNL A   1      30.186  27.230  24.439  1.00  0.00     0.149 C 
ATOM      9  N   UNL A   1      31.567  27.095  24.847  1.00  0.00    -0.350 N 
ATOM     10  C   UNL A   1      32.346  25.985  24.648  1.00  0.00     0.090 A 
ATOM     11  C   UNL A   1      32.282  28.063  25.517  1.00  0.00     0.048 A 
ATOM     12  C   UNL A   1      33.509  27.491  25.865  1.00  0.00     0.003 A 
ATOM     13  C   UNL A   1      31.946  29.385  25.858  1.00  0.00     0.027 A 
ATOM     14  C   UNL A   1      34.396  28.252  26.656  1.00  0.00     0.010 A 
ATOM     15  C   UNL A   1      32.878  30.136  26.579  1.00  0.00     0.002 A 
ATOM     16  C   UNL A   1      34.081  29.574  26.986  1.00  0.00     0.001 A 
ENDBRANCH   6   7
ENDBRANCH   5   6
BRANCH   5  17
ATOM     17  N   UNL A   1      33.725  24.430  23.095  1.00  0.00    -0.308 N 
ATOM     18  C   UNL A   1      33.441  23.647  22.021  1.00  0.00     0.407 C 
ATOM     19  H   UNL A   1      33.342  25.337  23.093  1.00  0.00     0.168 HD
ATOM     20  O   UNL A   1      33.363  24.119  20.889  1.00  0.00    -0.225 OA
BRANCH  18  21
ATOM     21  O   UNL A   1      33.085  22.387  22.365  1.00  0.00    -0.449 OA
BRANCH  21  22
ATOM     22  C   UNL A   1      31.768  22.250  22.930  1.00  0.00     0.248 C 
BRANCH  22  23
ATOM     23  C   UNL A   1      31.698  21.218  24.083  1.00  0.00     0.088 C 
ATOM     24  C   UNL A   1      32.503  19.941  23.839  1.00  0.00    -0.029 A 
ATOM     25  C   UNL A   1      32.255  21.675  25.430  1.00  0.00    -0.029 A 
ATOM     26  C   UNL A   1      32.358  19.005  22.824  1.00  0.00     0.005 A 
ATOM     27  C   UNL A   1      33.407  19.724  24.902  1.00  0.00    -0.014 A 
ATOM     28  C   UNL A   1      33.295  20.815  25.845  1.00  0.00    -0.014 A 
ATOM     29  C   UNL A   1      31.880  22.759  26.207  1.00  0.00     0.005 A 
ATOM     30  C   UNL A   1      33.126  17.838  22.884  1.00  0.00     0.000 A 
ATOM     31  C   UNL A   1      34.170  18.568  24.959  1.00  0.00     0.009 A 
ATOM     32  C   UNL A   1      34.015  21.080  26.999  1.00  0.00     0.009 A 
ATOM     33  C   UNL A   1      32.619  23.040  27.359  1.00  0.00     0.000 A 
ATOM     34  C   UNL A   1      34.021  17.619  23.944  1.00  0.00     0.001 A 
ATOM     35  C   UNL A   1      33.684  22.212  27.747  1.00  0.00     0.001 A 
ENDBRANCH  22  23
ENDBRANCH  21  22
ENDBRANCH  18  21
ENDBRANCH   5  17
ENDBRANCH   3   5
ENDBRANCH   2   3
ENDBRANCH   1   2
BRANCH   1  36
ATOM     36  C   UNL A   1      38.347  21.251  25.316  1.00  0.00     0.275 C 
BRANCH  36  37
ATOM     37  O   UNL A   1      38.549  22.287  26.294  1.00  0.00    -0.458 OA
BRANCH  37  38
ATOM     38  C   UNL A   1      39.818  22.751  26.368  1.00  0.00     0.338 C 
ATOM     39  O   UNL A   1      40.822  22.234  25.906  1.00  0.00    -0.246 OA
BRANCH  38  40
ATOM     40  C   UNL A   1      39.827  24.102  26.952  1.00  0.00     0.060 A 
ATOM     41  C   UNL A   1      40.522  25.098  26.258  1.00  0.00     0.016 A 
ATOM     42  C   UNL A   1      39.238  24.372  28.187  1.00  0.00     0.016 A 
ATOM     43  C   UNL A   1      40.648  26.369  26.800  1.00  0.00     0.010 A 
ATOM     44  C   UNL A   1      39.382  25.646  28.743  1.00  0.00     0.010 A 
ATOM     45  C   UNL A   1      40.109  26.639  28.062  1.00  0.00    -0.014 A 
BRANCH  45  46
ATOM     46  C   UNL A   1      40.440  27.919  28.720  1.00  0.00     0.031 A 
ATOM     47  C   UNL A   1      41.830  28.120  29.252  1.00  0.00     0.074 A 
ATOM     48  C   UNL A   1      39.531  28.907  28.785  1.00  0.00     0.049 A 
ATOM     49  N   UNL A   1      42.331  29.143  29.894  1.00  0.00    -0.248 NA
ATOM     50  C   UNL A   1      42.783  27.022  29.027  1.00  0.00     0.031 C 
ATOM     51  C   UNL A   1      38.176  28.848  28.237  1.00  0.00     0.029 A 
ATOM     52  N   UNL A   1      39.619  30.158  29.339  1.00  0.00    -0.354 N 
ATOM     53  C   UNL A   1      43.650  28.805  30.166  1.00  0.00     0.074 A 
ATOM     54  C   UNL A   1      43.868  27.478  29.634  1.00  0.00     0.031 C 
ATOM     55  C   UNL A   1      37.558  30.016  28.483  1.00  0.00     0.029 A 
ATOM     56  C   UNL A   1      38.459  30.883  29.237  1.00  0.00     0.049 A 
ATOM     57  H   UNL A   1      40.436  30.502  29.768  1.00  0.00     0.167 HD
ATOM     58  C   UNL A   1      44.594  29.536  30.804  1.00  0.00     0.031 A 
ATOM     59  C   UNL A   1      38.157  32.103  29.720  1.00  0.00     0.031 A 
ATOM     60  C   UNL A   1      44.369  30.851  31.338  1.00  0.00     0.049 A 
ATOM     61  C   UNL A   1      39.204  32.868  30.482  1.00  0.00     0.074 A 
ATOM     62  C   UNL A   1      45.252  31.672  32.016  1.00  0.00     0.029 A 
ATOM     63  N   UNL A   1      43.168  31.539  31.250  1.00  0.00    -0.354 N 
ATOM     64  N   UNL A   1      40.443  32.533  30.751  1.00  0.00    -0.248 NA
ATOM     65  C   UNL A   1      38.810  34.184  31.004  1.00  0.00     0.031 C 
ATOM     66  C   UNL A   1      44.572  32.841  32.374  1.00  0.00     0.029 A 
ATOM     67  C   UNL A   1      43.282  32.769  31.873  1.00  0.00     0.049 A 
ATOM     68  H   UNL A   1      42.354  31.202  30.810  1.00  0.00     0.167 HD
ATOM     69  C   UNL A   1      40.985  33.605  31.447  1.00  0.00     0.074 A 
ATOM     70  C   UNL A   1      39.942  34.607  31.547  1.00  0.00     0.031 C 
ATOM     71  C   UNL A   1      42.232  33.751  31.957  1.00  0.00     0.031 A 
BRANCH  58  72
ATOM     72  C   UNL A   1      45.941  28.899  30.997  1.00  0.00    -0.014 A 
ATOM     73  C   UNL A   1      46.999  29.141  30.107  1.00  0.00     0.009 A 
ATOM     74  C   UNL A   1      46.154  28.050  32.093  1.00  0.00     0.009 A 
ATOM     75  C   UNL A   1      48.235  28.517  30.294  1.00  0.00     0.001 A 
ATOM     76  C   UNL A   1      47.398  27.449  32.293  1.00  0.00     0.001 A 
ATOM     77  C   UNL A   1      48.434  27.675  31.388  1.00  0.00     0.000 A 
ENDBRANCH  58  72
BRANCH  59  78
ATOM     78  C   UNL A   1      36.798  32.668  29.517  1.00  0.00    -0.014 A 
ATOM     79  C   UNL A   1      36.479  33.367  28.342  1.00  0.00     0.009 A 
ATOM     80  C   UNL A   1      35.816  32.524  30.508  1.00  0.00     0.009 A 
ATOM     81  C   UNL A   1      35.211  33.929  28.177  1.00  0.00     0.001 A 
ATOM     82  C   UNL A   1      34.540  33.064  30.328  1.00  0.00     0.001 A 
ATOM     83  C   UNL A   1      34.242  33.774  29.167  1.00  0.00     0.000 A 
ENDBRANCH  59  78
BRANCH  71  84
ATOM     84  C   UNL A   1      42.547  35.058  32.626  1.00  0.00    -0.014 A 
ATOM     85  C   UNL A   1      42.133  35.326  33.940  1.00  0.00     0.009 A 
ATOM     86  C   UNL A   1      43.294  36.025  31.935  1.00  0.00     0.009 A 
ATOM     87  C   UNL A   1      42.430  36.554  34.535  1.00  0.00     0.001 A 
ATOM     88  C   UNL A   1      43.613  37.240  32.543  1.00  0.00     0.001 A 
ATOM     89  C   UNL A   1      43.171  37.507  33.838  1.00  0.00     0.000 A 
ENDBRANCH  71  84
ENDBRANCH  45  46
ENDBRANCH  38  40
ENDBRANCH  37  38
ENDBRANCH  36  37
ENDBRANCH   1  36
TORSDOF 17
ENDMDL
MODEL 3
REMARK VINA RESULT:     -12.3      2.223      6.991
REMARK SMILES Cn1cc(C[C@@H](NC(=O)OCC2c3ccccc3-c3ccccc32)C(=O)OCCOC(=O)c2ccc(-c3c4nc(c(-c5ccccc5)c5ccc([nH]5)c(-c5ccccc5)c5nc(c(-c6ccccc6)c6ccc3[nH]6)C=C5)C=C4)cc2)c2ccccc21
REMARK SMILES IDX 28 1 27 2 25 3 26 4 6 5 5 6 4 7 1 8 2 9 3 10 86 11 81 12
REMARK SMILES IDX 85 13 82 14 84 15 83 16 7 17 8 18 9 20 10 21 11 22 12 23
REMARK SMILES IDX 13 24 24 25 14 26 18 27 19 28 23 29 15 30 17 31 20 32 22 33
REMARK SMILES IDX 16 34 21 35 29 36 30 37 31 38 32 39 33 40 34 41 80 42 35 43
REMARK SMILES IDX 79 44 36 45 37 46 38 47 73 48 39 49 78 50 72 51 74 52 40 53
REMARK SMILES IDX 77 54 71 55 70 56 41 58 63 59 48 60 62 61 49 62 52 63 61 64
REMARK SMILES IDX 75 65 50 66 51 67 60 69 76 70 53 71 42 72 43 73 47 74 44 75
REMARK SMILES IDX 46 76 45 77 64 78 65 79 69 80 66 81 68 82 67 83 54 84 55 85
REMARK SMILES IDX 59 86 56 87 58 88 57 89
REMARK H PARENT 7 19 74 57 52 68
REMARK Flexibility Score: inf
ROOT
ATOM      1  C   UNL A   1      37.328  20.460  25.062  1.00  0.00     0.274 C 
ENDROOT
BRANCH   1   2
ATOM      2  O   UNL A   1      37.331  21.802  24.540  1.00  0.00    -0.461 OA
BRANCH   2   3
ATOM      3  C   UNL A   1      37.535  22.793  25.457  1.00  0.00     0.329 C 
ATOM      4  O   UNL A   1      38.595  22.993  26.041  1.00  0.00    -0.250 OA
BRANCH   3   5
ATOM      5  C   UNL A   1      36.242  23.550  25.776  1.00  0.00     0.200 C 
BRANCH   5   6
ATOM      6  C   UNL A   1      35.230  23.633  24.613  1.00  0.00     0.075 C 
BRANCH   6   7
ATOM      7  C   UNL A   1      34.416  24.912  24.646  1.00  0.00    -0.020 A 
ATOM      8  C   UNL A   1      33.028  27.870  26.242  1.00  0.00     0.149 C 
ATOM      9  N   UNL A   1      33.393  26.758  25.392  1.00  0.00    -0.350 N 
ATOM     10  C   UNL A   1      34.237  25.737  25.744  1.00  0.00     0.090 A 
ATOM     11  C   UNL A   1      32.956  26.588  24.098  1.00  0.00     0.048 A 
ATOM     12  C   UNL A   1      33.653  25.493  23.577  1.00  0.00     0.003 A 
ATOM     13  C   UNL A   1      32.021  27.313  23.339  1.00  0.00     0.027 A 
ATOM     14  C   UNL A   1      33.460  25.170  22.216  1.00  0.00     0.010 A 
ATOM     15  C   UNL A   1      31.799  26.919  22.017  1.00  0.00     0.002 A 
ATOM     16  C   UNL A   1      32.519  25.872  21.457  1.00  0.00     0.001 A 
ENDBRANCH   6   7
ENDBRANCH   5   6
BRANCH   5  17
ATOM     17  N   UNL A   1      35.624  23.138  27.034  1.00  0.00    -0.308 N 
ATOM     18  C   UNL A   1      34.461  22.451  27.181  1.00  0.00     0.407 C 
ATOM     19  H   UNL A   1      36.100  23.381  27.860  1.00  0.00     0.168 HD
ATOM     20  O   UNL A   1      33.692  22.687  28.109  1.00  0.00    -0.225 OA
BRANCH  18  21
ATOM     21  O   UNL A   1      34.357  21.401  26.331  1.00  0.00    -0.449 OA
BRANCH  21  22
ATOM     22  C   UNL A   1      33.594  20.283  26.822  1.00  0.00     0.248 C 
BRANCH  22  23
ATOM     23  C   UNL A   1      32.518  19.787  25.824  1.00  0.00     0.088 C 
ATOM     24  C   UNL A   1      32.238  20.746  24.667  1.00  0.00    -0.029 A 
ATOM     25  C   UNL A   1      32.840  18.494  25.076  1.00  0.00    -0.029 A 
ATOM     26  C   UNL A   1      31.769  22.052  24.717  1.00  0.00     0.005 A 
ATOM     27  C   UNL A   1      32.403  20.082  23.432  1.00  0.00    -0.014 A 
ATOM     28  C   UNL A   1      32.827  18.721  23.682  1.00  0.00    -0.014 A 
ATOM     29  C   UNL A   1      33.129  17.239  25.586  1.00  0.00     0.005 A 
ATOM     30  C   UNL A   1      31.458  22.690  23.513  1.00  0.00     0.000 A 
ATOM     31  C   UNL A   1      32.096  20.717  22.238  1.00  0.00     0.009 A 
ATOM     32  C   UNL A   1      33.177  17.714  22.797  1.00  0.00     0.009 A 
ATOM     33  C   UNL A   1      33.504  16.229  24.697  1.00  0.00     0.000 A 
ATOM     34  C   UNL A   1      31.616  22.028  22.285  1.00  0.00     0.001 A 
ATOM     35  C   UNL A   1      33.536  16.467  23.314  1.00  0.00     0.001 A 
ENDBRANCH  22  23
ENDBRANCH  21  22
ENDBRANCH  18  21
ENDBRANCH   5  17
ENDBRANCH   3   5
ENDBRANCH   2   3
ENDBRANCH   1   2
BRANCH   1  36
ATOM     36  C   UNL A   1      38.701  19.791  24.954  1.00  0.00     0.275 C 
BRANCH  36  37
ATOM     37  O   UNL A   1      39.416  19.826  26.202  1.00  0.00    -0.458 OA
BRANCH  37  38
ATOM     38  C   UNL A   1      40.763  19.777  26.081  1.00  0.00     0.338 C 
ATOM     39  O   UNL A   1      41.424  18.919  25.519  1.00  0.00    -0.246 OA
BRANCH  38  40
ATOM     40  C   UNL A   1      41.360  21.024  26.585  1.00  0.00     0.060 A 
ATOM     41  C   UNL A   1      41.250  21.282  27.956  1.00  0.00     0.016 A 
ATOM     42  C   UNL A   1      41.946  21.957  25.729  1.00  0.00     0.016 A 
ATOM     43  C   UNL A   1      41.709  22.482  28.480  1.00  0.00     0.010 A 
ATOM     44  C   UNL A   1      42.390  23.174  26.252  1.00  0.00     0.010 A 
ATOM     45  C   UNL A   1      42.249  23.448  27.625  1.00  0.00    -0.014 A 
BRANCH  45  46
ATOM     46  C   UNL A   1      42.527  24.798  28.158  1.00  0.00     0.031 A 
ATOM     47  C   UNL A   1      43.938  25.152  28.528  1.00  0.00     0.074 A 
ATOM     48  C   UNL A   1      41.544  25.709  28.250  1.00  0.00     0.049 A 
ATOM     49  N   UNL A   1      44.406  26.259  29.044  1.00  0.00    -0.248 NA
ATOM     50  C   UNL A   1      44.960  24.122  28.280  1.00  0.00     0.031 C 
ATOM     51  C   UNL A   1      40.153  25.498  27.849  1.00  0.00     0.029 A 
ATOM     52  N   UNL A   1      41.573  27.001  28.706  1.00  0.00    -0.354 N 
ATOM     53  C   UNL A   1      45.770  26.052  29.201  1.00  0.00     0.074 A 
ATOM     54  C   UNL A   1      46.053  24.710  28.740  1.00  0.00     0.031 C 
ATOM     55  C   UNL A   1      39.459  26.626  28.080  1.00  0.00     0.029 A 
ATOM     56  C   UNL A   1      40.349  27.619  28.676  1.00  0.00     0.049 A 
ATOM     57  H   UNL A   1      42.394  27.443  29.024  1.00  0.00     0.167 HD
ATOM     58  C   UNL A   1      46.703  26.905  29.687  1.00  0.00     0.031 A 
ATOM     59  C   UNL A   1      39.987  28.843  29.104  1.00  0.00     0.031 A 
ATOM     60  C   UNL A   1      46.414  28.234  30.151  1.00  0.00     0.049 A 
ATOM     61  C   UNL A   1      41.030  29.748  29.701  1.00  0.00     0.074 A 
ATOM     62  C   UNL A   1      47.281  29.174  30.677  1.00  0.00     0.029 A 
ATOM     63  N   UNL A   1      45.153  28.812  30.142  1.00  0.00    -0.354 N 
ATOM     64  N   UNL A   1      42.314  29.537  29.861  1.00  0.00    -0.248 NA
ATOM     65  C   UNL A   1      40.572  31.062  30.171  1.00  0.00     0.031 C 
ATOM     66  C   UNL A   1      46.538  30.307  31.024  1.00  0.00     0.029 A 
ATOM     67  C   UNL A   1      45.217  30.091  30.665  1.00  0.00     0.049 A 
ATOM     68  H   UNL A   1      44.333  28.376  29.812  1.00  0.00     0.167 HD
ATOM     69  C   UNL A   1      42.823  30.700  30.424  1.00  0.00     0.074 A 
ATOM     70  C   UNL A   1      41.710  31.617  30.564  1.00  0.00     0.031 C 
ATOM     71  C   UNL A   1      44.096  30.986  30.791  1.00  0.00     0.031 A 
BRANCH  58  72
ATOM     72  C   UNL A   1      48.113  26.397  29.782  1.00  0.00    -0.014 A 
ATOM     73  C   UNL A   1      49.022  26.560  28.725  1.00  0.00     0.009 A 
ATOM     74  C   UNL A   1      48.540  25.753  30.953  1.00  0.00     0.009 A 
ATOM     75  C   UNL A   1      50.322  26.058  28.827  1.00  0.00     0.001 A 
ATOM     76  C   UNL A   1      49.847  25.275  31.064  1.00  0.00     0.001 A 
ATOM     77  C   UNL A   1      50.734  25.420  29.997  1.00  0.00     0.000 A 
ENDBRANCH  58  72
BRANCH  59  78
ATOM     78  C   UNL A   1      38.569  29.277  29.005  1.00  0.00    -0.014 A 
ATOM     79  C   UNL A   1      38.067  29.823  27.814  1.00  0.00     0.009 A 
ATOM     80  C   UNL A   1      37.714  29.162  30.112  1.00  0.00     0.009 A 
ATOM     81  C   UNL A   1      36.744  30.266  27.742  1.00  0.00     0.001 A 
ATOM     82  C   UNL A   1      36.384  29.580  30.028  1.00  0.00     0.001 A 
ATOM     83  C   UNL A   1      35.903  30.140  28.846  1.00  0.00     0.000 A 
ENDBRANCH  59  78
BRANCH  71  84
ATOM     84  C   UNL A   1      44.356  32.362  31.334  1.00  0.00    -0.014 A 
ATOM     85  C   UNL A   1      44.290  32.630  32.710  1.00  0.00     0.009 A 
ATOM     86  C   UNL A   1      44.700  33.399  30.452  1.00  0.00     0.009 A 
ATOM     87  C   UNL A   1      44.525  33.921  33.188  1.00  0.00     0.001 A 
ATOM     88  C   UNL A   1      44.963  34.681  30.936  1.00  0.00     0.001 A 
ATOM     89  C   UNL A   1      44.864  34.943  32.302  1.00  0.00     0.000 A 
ENDBRANCH  71  84
ENDBRANCH  45  46
ENDBRANCH  38  40
ENDBRANCH  37  38
ENDBRANCH  36  37
ENDBRANCH   1  36
TORSDOF 17
ENDMDL
