MODEL 1
REMARK VINA RESULT:     -10.9      0.000      0.000
REMARK SMILES CC[C@](C)(NC(=O)N1Cc2ccccc2C1)C(=O)OCCOC(=O)c1ccc(-c2c3nc(c(-c4ccccc4)c4ccc([nH]4)c(-c4ccccc4)c4nc(c(-c5ccccc5)c5ccc2[nH]5)C=C4)C=C3)cc1
REMARK SMILES IDX 21 1 20 2 19 3 17 4 18 5 3 6 4 7 2 8 1 9 5 10 6 11 7 13 8 14
REMARK SMILES IDX 9 15 16 16 10 17 15 18 11 19 14 20 12 21 13 22 22 23 23 24
REMARK SMILES IDX 24 25 25 26 26 27 72 28 27 29 71 30 28 31 29 32 30 33 65 34
REMARK SMILES IDX 31 35 70 36 64 37 66 38 32 39 69 40 63 41 62 42 33 44 55 45
REMARK SMILES IDX 40 46 54 47 41 48 44 49 53 50 67 51 42 52 43 53 52 55 68 56
REMARK SMILES IDX 45 57 34 58 35 59 39 60 36 61 38 62 37 63 56 64 57 65 61 66
REMARK SMILES IDX 58 67 60 68 59 69 46 70 47 71 51 72 48 73 50 74 49 75
REMARK H PARENT 5 12 66 43 44 54
REMARK Flexibility Score: inf
ROOT
ATOM      1  C   UNL A   1      37.244  20.227  25.040  1.00  0.00     0.275 C 
ENDROOT
BRANCH   1   2
ATOM      2  C   UNL A   1      35.823  20.769  24.919  1.00  0.00     0.274 C 
BRANCH   2   3
ATOM      3  O   UNL A   1      35.800  22.206  25.044  1.00  0.00    -0.460 OA
BRANCH   3   4
ATOM      4  C   UNL A   1      35.393  22.919  23.955  1.00  0.00     0.331 C 
ATOM      5  O   UNL A   1      35.999  22.928  22.888  1.00  0.00    -0.249 OA
BRANCH   4   6
ATOM      6  C   UNL A   1      34.139  23.807  24.249  1.00  0.00     0.136 C 
ATOM      7  C   UNL A   1      34.097  24.994  23.272  1.00  0.00     0.047 C 
BRANCH   6   8
ATOM      8  C   UNL A   1      34.290  24.326  25.706  1.00  0.00     0.037 C 
ATOM      9  C   UNL A   1      33.213  23.882  26.698  1.00  0.00     0.007 C 
ENDBRANCH   6   8
BRANCH   6  10
ATOM     10  N   UNL A   1      32.907  22.974  24.195  1.00  0.00    -0.322 N 
ATOM     11  C   UNL A   1      32.600  22.131  23.160  1.00  0.00     0.318 C 
ATOM     12  H   UNL A   1      32.275  23.032  24.947  1.00  0.00     0.166 HD
ATOM     13  O   UNL A   1      32.790  22.434  21.987  1.00  0.00    -0.249 OA
ATOM     14  N   UNL A   1      32.154  20.885  23.528  1.00  0.00    -0.316 N 
ATOM     15  C   UNL A   1      32.141  19.824  22.514  1.00  0.00     0.157 C 
ATOM     16  C   UNL A   1      32.127  20.301  24.873  1.00  0.00     0.157 C 
ATOM     17  C   UNL A   1      32.688  18.651  23.272  1.00  0.00    -0.023 A 
ATOM     18  C   UNL A   1      32.686  18.930  24.646  1.00  0.00    -0.023 A 
ATOM     19  C   UNL A   1      33.225  17.475  22.778  1.00  0.00     0.006 A 
ATOM     20  C   UNL A   1      33.217  18.033  25.556  1.00  0.00     0.006 A 
ATOM     21  C   UNL A   1      33.784  16.576  23.687  1.00  0.00     0.000 A 
ATOM     22  C   UNL A   1      33.779  16.851  25.066  1.00  0.00     0.000 A 
ENDBRANCH   6  10
ENDBRANCH   4   6
ENDBRANCH   3   4
ENDBRANCH   2   3
ENDBRANCH   1   2
BRANCH   1  23
ATOM     23  O   UNL A   1      38.149  21.320  25.238  1.00  0.00    -0.458 OA
BRANCH  23  24
ATOM     24  C   UNL A   1      39.170  21.104  26.094  1.00  0.00     0.338 C 
ATOM     25  O   UNL A   1      39.587  20.041  26.525  1.00  0.00    -0.246 OA
BRANCH  24  26
ATOM     26  C   UNL A   1      39.689  22.402  26.527  1.00  0.00     0.060 A 
ATOM     27  C   UNL A   1      40.827  22.466  27.328  1.00  0.00     0.016 A 
ATOM     28  C   UNL A   1      39.029  23.564  26.133  1.00  0.00     0.016 A 
ATOM     29  C   UNL A   1      41.303  23.691  27.762  1.00  0.00     0.010 A 
ATOM     30  C   UNL A   1      39.564  24.802  26.484  1.00  0.00     0.010 A 
ATOM     31  C   UNL A   1      40.710  24.869  27.292  1.00  0.00    -0.014 A 
BRANCH  31  32
ATOM     32  C   UNL A   1      41.370  26.159  27.578  1.00  0.00     0.031 A 
ATOM     33  C   UNL A   1      40.739  27.153  28.500  1.00  0.00     0.074 A 
ATOM     34  C   UNL A   1      42.562  26.399  26.997  1.00  0.00     0.049 A 
ATOM     35  N   UNL A   1      41.150  28.353  28.813  1.00  0.00    -0.248 NA
ATOM     36  C   UNL A   1      39.476  26.757  29.144  1.00  0.00     0.031 C 
ATOM     37  C   UNL A   1      43.257  25.481  26.087  1.00  0.00     0.029 A 
ATOM     38  N   UNL A   1      43.413  27.464  27.103  1.00  0.00    -0.354 N 
ATOM     39  C   UNL A   1      40.182  28.871  29.665  1.00  0.00     0.074 A 
ATOM     40  C   UNL A   1      39.159  27.858  29.811  1.00  0.00     0.031 C 
ATOM     41  C   UNL A   1      44.455  25.994  25.774  1.00  0.00     0.029 A 
ATOM     42  C   UNL A   1      44.579  27.305  26.392  1.00  0.00     0.049 A 
ATOM     43  H   UNL A   1      43.212  28.267  27.637  1.00  0.00     0.167 HD
ATOM     44  C   UNL A   1      40.157  30.087  30.260  1.00  0.00     0.031 A 
ATOM     45  C   UNL A   1      45.625  28.136  26.241  1.00  0.00     0.031 A 
ATOM     46  C   UNL A   1      41.188  31.078  30.098  1.00  0.00     0.049 A 
ATOM     47  C   UNL A   1      45.572  29.468  26.924  1.00  0.00     0.074 A 
ATOM     48  C   UNL A   1      41.253  32.357  30.620  1.00  0.00     0.029 A 
ATOM     49  N   UNL A   1      42.350  30.888  29.360  1.00  0.00    -0.354 N 
ATOM     50  N   UNL A   1      44.628  29.963  27.691  1.00  0.00    -0.248 NA
ATOM     51  C   UNL A   1      46.717  30.360  26.716  1.00  0.00     0.031 C 
ATOM     52  C   UNL A   1      42.439  32.952  30.175  1.00  0.00     0.029 A 
ATOM     53  C   UNL A   1      43.136  32.027  29.411  1.00  0.00     0.049 A 
ATOM     54  H   UNL A   1      42.580  30.065  28.871  1.00  0.00     0.167 HD
ATOM     55  C   UNL A   1      45.059  31.229  28.048  1.00  0.00     0.074 A 
ATOM     56  C   UNL A   1      46.370  31.407  27.452  1.00  0.00     0.031 C 
ATOM     57  C   UNL A   1      44.424  32.172  28.786  1.00  0.00     0.031 A 
BRANCH  44  58
ATOM     58  C   UNL A   1      38.956  30.415  31.101  1.00  0.00    -0.014 A 
ATOM     59  C   UNL A   1      37.807  30.993  30.540  1.00  0.00     0.009 A 
ATOM     60  C   UNL A   1      38.972  30.133  32.476  1.00  0.00     0.009 A 
ATOM     61  C   UNL A   1      36.710  31.311  31.345  1.00  0.00     0.001 A 
ATOM     62  C   UNL A   1      37.865  30.432  33.275  1.00  0.00     0.001 A 
ATOM     63  C   UNL A   1      36.739  31.028  32.710  1.00  0.00     0.000 A 
ENDBRANCH  44  58
BRANCH  45  64
ATOM     64  C   UNL A   1      46.776  27.735  25.392  1.00  0.00    -0.014 A 
ATOM     65  C   UNL A   1      47.843  27.000  25.931  1.00  0.00     0.009 A 
ATOM     66  C   UNL A   1      46.800  28.061  24.027  1.00  0.00     0.009 A 
ATOM     67  C   UNL A   1      48.915  26.615  25.122  1.00  0.00     0.001 A 
ATOM     68  C   UNL A   1      47.856  27.647  23.214  1.00  0.00     0.001 A 
ATOM     69  C   UNL A   1      48.916  26.931  23.764  1.00  0.00     0.000 A 
ENDBRANCH  45  64
BRANCH  57  70
ATOM     70  C   UNL A   1      45.157  33.467  28.972  1.00  0.00    -0.014 A 
ATOM     71  C   UNL A   1      44.990  34.524  28.063  1.00  0.00     0.009 A 
ATOM     72  C   UNL A   1      46.027  33.628  30.060  1.00  0.00     0.009 A 
ATOM     73  C   UNL A   1      45.717  35.704  28.218  1.00  0.00     0.001 A 
ATOM     74  C   UNL A   1      46.733  34.818  30.225  1.00  0.00     0.001 A 
ATOM     75  C   UNL A   1      46.587  35.850  29.299  1.00  0.00     0.000 A 
ENDBRANCH  57  70
ENDBRANCH  31  32
ENDBRANCH  24  26
ENDBRANCH  23  24
ENDBRANCH   1  23
TORSDOF 13
ENDMDL
MODEL 2
REMARK VINA RESULT:     -10.9      0.340      6.092
REMARK SMILES CC[C@](C)(NC(=O)N1Cc2ccccc2C1)C(=O)OCCOC(=O)c1ccc(-c2c3nc(c(-c4ccccc4)c4ccc([nH]4)c(-c4ccccc4)c4nc(c(-c5ccccc5)c5ccc2[nH]5)C=C4)C=C3)cc1
REMARK SMILES IDX 21 1 20 2 19 3 17 4 18 5 3 6 4 7 2 8 1 9 5 10 6 11 7 13 8 14
REMARK SMILES IDX 9 15 16 16 10 17 15 18 11 19 14 20 12 21 13 22 22 23 23 24
REMARK SMILES IDX 24 25 25 26 26 27 72 28 27 29 71 30 28 31 29 32 30 33 65 34
REMARK SMILES IDX 31 35 70 36 64 37 66 38 32 39 69 40 63 41 62 42 33 44 55 45
REMARK SMILES IDX 40 46 54 47 41 48 44 49 53 50 67 51 42 52 43 53 52 55 68 56
REMARK SMILES IDX 45 57 34 58 35 59 39 60 36 61 38 62 37 63 56 64 57 65 61 66
REMARK SMILES IDX 58 67 60 68 59 69 46 70 47 71 51 72 48 73 50 74 49 75
REMARK H PARENT 5 12 66 43 44 54
REMARK Flexibility Score: inf
ROOT
ATOM      1  C   UNL A   1      37.365  20.378  24.981  1.00  0.00     0.275 C 
ENDROOT
BRANCH   1   2
ATOM      2  C   UNL A   1      35.909  20.764  24.736  1.00  0.00     0.274 C 
BRANCH   2   3
ATOM      3  O   UNL A   1      35.688  22.163  25.010  1.00  0.00    -0.460 OA
BRANCH   3   4
ATOM      4  C   UNL A   1      35.437  22.974  23.943  1.00  0.00     0.331 C 
ATOM      5  O   UNL A   1      36.153  23.021  22.947  1.00  0.00    -0.249 OA
BRANCH   4   6
ATOM      6  C   UNL A   1      34.207  23.913  24.174  1.00  0.00     0.136 C 
ATOM      7  C   UNL A   1      34.224  25.060  23.149  1.00  0.00     0.047 C 
BRANCH   6   8
ATOM      8  C   UNL A   1      34.346  24.486  25.612  1.00  0.00     0.037 C 
ATOM      9  C   UNL A   1      33.683  25.841  25.868  1.00  0.00     0.007 C 
ENDBRANCH   6   8
BRANCH   6  10
ATOM     10  N   UNL A   1      32.949  23.118  24.128  1.00  0.00    -0.322 N 
ATOM     11  C   UNL A   1      32.622  22.267  23.106  1.00  0.00     0.318 C 
ATOM     12  H   UNL A   1      32.315  23.210  24.875  1.00  0.00     0.166 HD
ATOM     13  O   UNL A   1      32.828  22.542  21.929  1.00  0.00    -0.249 OA
ATOM     14  N   UNL A   1      32.135  21.042  23.493  1.00  0.00    -0.316 N 
ATOM     15  C   UNL A   1      32.094  19.964  22.498  1.00  0.00     0.157 C 
ATOM     16  C   UNL A   1      32.081  20.485  24.849  1.00  0.00     0.157 C 
ATOM     17  C   UNL A   1      32.599  18.789  23.281  1.00  0.00    -0.023 A 
ATOM     18  C   UNL A   1      32.598  19.092  24.649  1.00  0.00    -0.023 A 
ATOM     19  C   UNL A   1      33.101  17.588  22.812  1.00  0.00     0.006 A 
ATOM     20  C   UNL A   1      33.095  18.195  25.579  1.00  0.00     0.006 A 
ATOM     21  C   UNL A   1      33.627  16.687  23.740  1.00  0.00     0.000 A 
ATOM     22  C   UNL A   1      33.622  16.988  25.113  1.00  0.00     0.000 A 
ENDBRANCH   6  10
ENDBRANCH   4   6
ENDBRANCH   3   4
ENDBRANCH   2   3
ENDBRANCH   1   2
BRANCH   1  23
ATOM     23  O   UNL A   1      37.918  21.240  25.983  1.00  0.00    -0.458 OA
BRANCH  23  24
ATOM     24  C   UNL A   1      39.244  21.123  26.207  1.00  0.00     0.338 C 
ATOM     25  O   UNL A   1      39.937  20.119  26.158  1.00  0.00    -0.246 OA
BRANCH  24  26
ATOM     26  C   UNL A   1      39.756  22.430  26.622  1.00  0.00     0.060 A 
ATOM     27  C   UNL A   1      40.876  22.511  27.447  1.00  0.00     0.016 A 
ATOM     28  C   UNL A   1      39.108  23.584  26.186  1.00  0.00     0.016 A 
ATOM     29  C   UNL A   1      41.344  23.745  27.863  1.00  0.00     0.010 A 
ATOM     30  C   UNL A   1      39.636  24.829  26.521  1.00  0.00     0.010 A 
ATOM     31  C   UNL A   1      40.764  24.913  27.354  1.00  0.00    -0.014 A 
BRANCH  31  32
ATOM     32  C   UNL A   1      41.420  26.208  27.625  1.00  0.00     0.031 A 
ATOM     33  C   UNL A   1      42.725  26.553  26.983  1.00  0.00     0.074 A 
ATOM     34  C   UNL A   1      40.793  27.071  28.449  1.00  0.00     0.049 A 
ATOM     35  N   UNL A   1      43.465  27.617  27.156  1.00  0.00    -0.248 NA
ATOM     36  C   UNL A   1      43.283  25.574  26.037  1.00  0.00     0.031 C 
ATOM     37  C   UNL A   1      39.509  26.820  29.114  1.00  0.00     0.029 A 
ATOM     38  N   UNL A   1      41.128  28.336  28.846  1.00  0.00    -0.354 N 
ATOM     39  C   UNL A   1      44.592  27.422  26.367  1.00  0.00     0.074 A 
ATOM     40  C   UNL A   1      44.442  26.135  25.722  1.00  0.00     0.031 C 
ATOM     41  C   UNL A   1      39.136  27.921  29.781  1.00  0.00     0.029 A 
ATOM     42  C   UNL A   1      40.185  28.922  29.656  1.00  0.00     0.049 A 
ATOM     43  H   UNL A   1      41.962  28.784  28.578  1.00  0.00     0.167 HD
ATOM     44  C   UNL A   1      45.652  28.248  26.206  1.00  0.00     0.031 A 
ATOM     45  C   UNL A   1      40.177  30.128  30.249  1.00  0.00     0.031 A 
ATOM     46  C   UNL A   1      45.778  29.525  26.860  1.00  0.00     0.049 A 
ATOM     47  C   UNL A   1      41.361  31.024  30.041  1.00  0.00     0.074 A 
ATOM     48  C   UNL A   1      46.822  30.430  26.804  1.00  0.00     0.029 A 
ATOM     49  N   UNL A   1      44.809  30.082  27.685  1.00  0.00    -0.354 N 
ATOM     50  N   UNL A   1      42.441  30.808  29.328  1.00  0.00    -0.248 NA
ATOM     51  C   UNL A   1      41.332  32.321  30.725  1.00  0.00     0.031 C 
ATOM     52  C   UNL A   1      46.498  31.522  27.618  1.00  0.00     0.029 A 
ATOM     53  C   UNL A   1      45.232  31.317  28.146  1.00  0.00     0.049 A 
ATOM     54  H   UNL A   1      43.948  29.660  27.909  1.00  0.00     0.167 HD
ATOM     55  C   UNL A   1      43.227  31.936  29.484  1.00  0.00     0.074 A 
ATOM     56  C   UNL A   1      42.478  32.853  30.323  1.00  0.00     0.031 C 
ATOM     57  C   UNL A   1      44.466  32.190  28.997  1.00  0.00     0.031 A 
BRANCH  44  58
ATOM     58  C   UNL A   1      46.770  27.768  25.324  1.00  0.00    -0.014 A 
ATOM     59  C   UNL A   1      47.833  27.010  25.839  1.00  0.00     0.009 A 
ATOM     60  C   UNL A   1      46.754  28.072  23.954  1.00  0.00     0.009 A 
ATOM     61  C   UNL A   1      48.874  26.593  25.005  1.00  0.00     0.001 A 
ATOM     62  C   UNL A   1      47.785  27.635  23.118  1.00  0.00     0.001 A 
ATOM     63  C   UNL A   1      48.847  26.904  23.646  1.00  0.00     0.000 A 
ENDBRANCH  44  58
BRANCH  45  64
ATOM     64  C   UNL A   1      39.032  30.529  31.107  1.00  0.00    -0.014 A 
ATOM     65  C   UNL A   1      39.042  30.267  32.484  1.00  0.00     0.009 A 
ATOM     66  C   UNL A   1      37.933  31.205  30.553  1.00  0.00     0.009 A 
ATOM     67  C   UNL A   1      37.967  30.660  33.286  1.00  0.00     0.001 A 
ATOM     68  C   UNL A   1      36.876  31.625  31.362  1.00  0.00     0.001 A 
ATOM     69  C   UNL A   1      36.890  31.345  32.725  1.00  0.00     0.000 A 
ENDBRANCH  45  64
BRANCH  57  70
ATOM     70  C   UNL A   1      45.065  33.511  29.374  1.00  0.00    -0.014 A 
ATOM     71  C   UNL A   1      45.841  33.643  30.537  1.00  0.00     0.009 A 
ATOM     72  C   UNL A   1      44.845  34.635  28.565  1.00  0.00     0.009 A 
ATOM     73  C   UNL A   1      46.349  34.889  30.905  1.00  0.00     0.001 A 
ATOM     74  C   UNL A   1      45.374  35.874  28.923  1.00  0.00     0.001 A 
ATOM     75  C   UNL A   1      46.116  36.003  30.098  1.00  0.00     0.000 A 
ENDBRANCH  57  70
ENDBRANCH  31  32
ENDBRANCH  24  26
ENDBRANCH  23  24
ENDBRANCH   1  23
TORSDOF 13
ENDMDL
MODEL 3
REMARK VINA RESULT:     -10.8      4.872      9.533
REMARK SMILES CC[C@](C)(NC(=O)N1Cc2ccccc2C1)C(=O)OCCOC(=O)c1ccc(-c2c3nc(c(-c4ccccc4)c4ccc([nH]4)c(-c4ccccc4)c4nc(c(-c5ccccc5)c5ccc2[nH]5)C=C4)C=C3)cc1
REMARK SMILES IDX 21 1 20 2 19 3 17 4 18 5 3 6 4 7 2 8 1 9 5 10 6 11 7 13 8 14
REMARK SMILES IDX 9 15 16 16 10 17 15 18 11 19 14 20 12 21 13 22 22 23 23 24
REMARK SMILES IDX 24 25 25 26 26 27 72 28 27 29 71 30 28 31 29 32 30 33 65 34
REMARK SMILES IDX 31 35 70 36 64 37 66 38 32 39 69 40 63 41 62 42 33 44 55 45
REMARK SMILES IDX 40 46 54 47 41 48 44 49 53 50 67 51 42 52 43 53 52 55 68 56
REMARK SMILES IDX 45 57 34 58 35 59 39 60 36 61 38 62 37 63 56 64 57 65 61 66
REMARK SMILES IDX 58 67 60 68 59 69 46 70 47 71 51 72 48 73 50 74 49 75
REMARK H PARENT 5 12 66 43 44 54
REMARK Flexibility Score: inf
ROOT
ATOM      1  C   UNL A   1      31.644  30.807  26.220  1.00  0.00     0.275 C 
ENDROOT
BRANCH   1   2
ATOM      2  C   UNL A   1      31.474  29.514  25.429  1.00  0.00     0.274 C 
BRANCH   2   3
ATOM      3  O   UNL A   1      32.414  28.509  25.864  1.00  0.00    -0.460 OA
BRANCH   3   4
ATOM      4  C   UNL A   1      31.903  27.402  26.474  1.00  0.00     0.331 C 
ATOM      5  O   UNL A   1      31.288  27.437  27.534  1.00  0.00    -0.249 OA
BRANCH   4   6
ATOM      6  C   UNL A   1      32.282  26.076  25.734  1.00  0.00     0.136 C 
ATOM      7  C   UNL A   1      32.205  24.890  26.710  1.00  0.00     0.047 C 
BRANCH   6   8
ATOM      8  C   UNL A   1      33.741  26.249  25.226  1.00  0.00     0.037 C 
ATOM      9  C   UNL A   1      34.665  25.041  25.396  1.00  0.00     0.007 C 
ENDBRANCH   6   8
BRANCH   6  10
ATOM     10  N   UNL A   1      31.411  25.897  24.540  1.00  0.00    -0.322 N 
ATOM     11  C   UNL A   1      30.052  26.062  24.557  1.00  0.00     0.318 C 
ATOM     12  H   UNL A   1      31.837  25.644  23.690  1.00  0.00     0.166 HD
ATOM     13  O   UNL A   1      29.352  25.665  25.482  1.00  0.00    -0.249 OA
ATOM     14  N   UNL A   1      29.534  26.788  23.512  1.00  0.00    -0.316 N 
ATOM     15  C   UNL A   1      28.165  27.304  23.634  1.00  0.00     0.157 C 
ATOM     16  C   UNL A   1      30.269  27.537  22.487  1.00  0.00     0.157 C 
ATOM     17  C   UNL A   1      28.302  28.699  23.104  1.00  0.00    -0.023 A 
ATOM     18  C   UNL A   1      29.530  28.839  22.441  1.00  0.00    -0.023 A 
ATOM     19  C   UNL A   1      27.452  29.778  23.274  1.00  0.00     0.006 A 
ATOM     20  C   UNL A   1      29.929  30.062  21.929  1.00  0.00     0.006 A 
ATOM     21  C   UNL A   1      27.857  31.019  22.783  1.00  0.00     0.000 A 
ATOM     22  C   UNL A   1      29.085  31.160  22.113  1.00  0.00     0.000 A 
ENDBRANCH   6  10
ENDBRANCH   4   6
ENDBRANCH   3   4
ENDBRANCH   2   3
ENDBRANCH   1   2
BRANCH   1  23
ATOM     23  O   UNL A   1      33.035  31.145  26.276  1.00  0.00    -0.458 OA
BRANCH  23  24
ATOM     24  C   UNL A   1      33.404  32.000  27.253  1.00  0.00     0.338 C 
ATOM     25  O   UNL A   1      32.881  33.054  27.578  1.00  0.00    -0.246 OA
BRANCH  24  26
ATOM     26  C   UNL A   1      34.642  31.501  27.856  1.00  0.00     0.060 A 
ATOM     27  C   UNL A   1      35.669  32.387  28.172  1.00  0.00     0.016 A 
ATOM     28  C   UNL A   1      34.777  30.137  28.100  1.00  0.00     0.016 A 
ATOM     29  C   UNL A   1      36.852  31.914  28.714  1.00  0.00     0.010 A 
ATOM     30  C   UNL A   1      35.925  29.671  28.739  1.00  0.00     0.010 A 
ATOM     31  C   UNL A   1      36.963  30.562  29.058  1.00  0.00    -0.014 A 
BRANCH  31  32
ATOM     32  C   UNL A   1      38.134  30.122  29.843  1.00  0.00     0.031 A 
ATOM     33  C   UNL A   1      39.216  29.306  29.211  1.00  0.00     0.074 A 
ATOM     34  C   UNL A   1      38.202  30.496  31.136  1.00  0.00     0.049 A 
ATOM     35  N   UNL A   1      40.279  28.788  29.767  1.00  0.00    -0.248 NA
ATOM     36  C   UNL A   1      39.082  29.021  27.774  1.00  0.00     0.031 C 
ATOM     37  C   UNL A   1      37.192  31.301  31.836  1.00  0.00     0.029 A 
ATOM     38  N   UNL A   1      39.164  30.280  32.083  1.00  0.00    -0.354 N 
ATOM     39  C   UNL A   1      40.926  28.088  28.757  1.00  0.00     0.074 A 
ATOM     40  C   UNL A   1      40.131  28.240  27.557  1.00  0.00     0.031 C 
ATOM     41  C   UNL A   1      37.622  31.565  33.077  1.00  0.00     0.029 A 
ATOM     42  C   UNL A   1      38.892  30.886  33.287  1.00  0.00     0.049 A 
ATOM     43  H   UNL A   1      39.973  29.744  31.920  1.00  0.00     0.167 HD
ATOM     44  C   UNL A   1      42.078  27.380  28.836  1.00  0.00     0.031 A 
ATOM     45  C   UNL A   1      39.584  30.879  34.439  1.00  0.00     0.031 A 
ATOM     46  C   UNL A   1      42.850  27.243  30.043  1.00  0.00     0.049 A 
ATOM     47  C   UNL A   1      40.861  30.097  34.490  1.00  0.00     0.074 A 
ATOM     48  C   UNL A   1      44.011  26.521  30.253  1.00  0.00     0.029 A 
ATOM     49  N   UNL A   1      42.539  27.860  31.248  1.00  0.00    -0.354 N 
ATOM     50  N   UNL A   1      41.438  29.401  33.539  1.00  0.00    -0.248 NA
ATOM     51  C   UNL A   1      41.576  30.087  35.771  1.00  0.00     0.031 C 
ATOM     52  C   UNL A   1      44.387  26.677  31.593  1.00  0.00     0.029 A 
ATOM     53  C   UNL A   1      43.484  27.533  32.206  1.00  0.00     0.049 A 
ATOM     54  H   UNL A   1      41.760  28.443  31.399  1.00  0.00     0.167 HD
ATOM     55  C   UNL A   1      42.579  28.861  34.107  1.00  0.00     0.074 A 
ATOM     56  C   UNL A   1      42.636  29.348  35.473  1.00  0.00     0.031 C 
ATOM     57  C   UNL A   1      43.492  28.021  33.561  1.00  0.00     0.031 A 
BRANCH  44  58
ATOM     58  C   UNL A   1      42.535  26.671  27.593  1.00  0.00    -0.014 A 
ATOM     59  C   UNL A   1      43.400  27.288  26.676  1.00  0.00     0.009 A 
ATOM     60  C   UNL A   1      42.100  25.361  27.339  1.00  0.00     0.009 A 
ATOM     61  C   UNL A   1      43.794  26.619  25.514  1.00  0.00     0.001 A 
ATOM     62  C   UNL A   1      42.515  24.685  26.188  1.00  0.00     0.001 A 
ATOM     63  C   UNL A   1      43.354  25.319  25.273  1.00  0.00     0.000 A 
ENDBRANCH  44  58
BRANCH  45  64
ATOM     64  C   UNL A   1      39.063  31.607  35.624  1.00  0.00    -0.014 A 
ATOM     65  C   UNL A   1      38.177  30.985  36.516  1.00  0.00     0.009 A 
ATOM     66  C   UNL A   1      39.475  32.923  35.887  1.00  0.00     0.009 A 
ATOM     67  C   UNL A   1      37.703  31.673  37.637  1.00  0.00     0.001 A 
ATOM     68  C   UNL A   1      39.026  33.596  37.024  1.00  0.00     0.001 A 
ATOM     69  C   UNL A   1      38.134  32.974  37.893  1.00  0.00     0.000 A 
ENDBRANCH  45  64
BRANCH  57  70
ATOM     70  C   UNL A   1      44.613  27.592  34.459  1.00  0.00    -0.014 A 
ATOM     71  C   UNL A   1      45.804  28.333  34.527  1.00  0.00     0.009 A 
ATOM     72  C   UNL A   1      44.481  26.432  35.236  1.00  0.00     0.009 A 
ATOM     73  C   UNL A   1      46.859  27.894  35.326  1.00  0.00     0.001 A 
ATOM     74  C   UNL A   1      45.529  26.010  36.052  1.00  0.00     0.001 A 
ATOM     75  C   UNL A   1      46.720  26.734  36.088  1.00  0.00     0.000 A 
ENDBRANCH  57  70
ENDBRANCH  31  32
ENDBRANCH  24  26
ENDBRANCH  23  24
ENDBRANCH   1  23
TORSDOF 13
ENDMDL
