MODEL 1
REMARK VINA RESULT:     -11.0      0.000      0.000
REMARK SMILES O=C(OCCOC(=O)[C@@H]1[C@H](C(=O)Nc2ccccc2OC(F)F)[C@@H]2C=C[C@H]1C2)c1ccc(-c2c3nc(c(-c4ccccc4)c4ccc([nH]4)c(-c4ccccc4)c4nc(c(-c5ccccc5)c5ccc2[nH]5)C=C4)C=C3)cc1
REMARK SMILES IDX 5 1 4 2 3 3 2 4 1 5 29 6 30 7 76 8 31 9 75 10 32 11 33 12
REMARK SMILES IDX 34 13 69 14 35 15 74 16 68 17 70 18 36 19 73 20 67 21 66 22
REMARK SMILES IDX 37 24 59 25 44 26 58 27 45 28 48 29 57 30 71 31 46 32 47 33
REMARK SMILES IDX 56 35 72 36 49 37 38 38 39 39 43 40 40 41 42 42 41 43 60 44
REMARK SMILES IDX 61 45 65 46 62 47 64 48 63 49 50 50 51 51 55 52 52 53 54 54
REMARK SMILES IDX 53 55 6 56 7 57 8 58 9 59 10 60 27 61 24 62 26 63 28 64
REMARK SMILES IDX 25 65 11 66 12 67 13 68 14 70 15 71 19 72 16 73 18 74 17 75
REMARK SMILES IDX 20 76 21 77 22 78 23 79
REMARK H PARENT 70 23 48 34 13 69
REMARK Flexibility Score: inf
ROOT
ATOM      1  C   UNL A   1      37.640  21.097  24.951  1.00  0.00     0.274 C 
ENDROOT
BRANCH   1   2
ATOM      2  C   UNL A   1      38.399  19.770  24.950  1.00  0.00     0.275 C 
BRANCH   2   3
ATOM      3  O   UNL A   1      39.326  19.550  26.028  1.00  0.00    -0.458 OA
BRANCH   3   4
ATOM      4  C   UNL A   1      40.670  19.714  25.994  1.00  0.00     0.338 C 
ATOM      5  O   UNL A   1      41.418  18.827  25.593  1.00  0.00    -0.246 OA
BRANCH   4   6
ATOM      6  C   UNL A   1      41.259  20.942  26.565  1.00  0.00     0.060 A 
ATOM      7  C   UNL A   1      41.162  21.256  27.921  1.00  0.00     0.016 A 
ATOM      8  C   UNL A   1      41.888  21.834  25.685  1.00  0.00     0.016 A 
ATOM      9  C   UNL A   1      41.802  22.379  28.426  1.00  0.00     0.010 A 
ATOM     10  C   UNL A   1      42.483  22.997  26.178  1.00  0.00     0.010 A 
ATOM     11  C   UNL A   1      42.439  23.267  27.554  1.00  0.00    -0.014 A 
BRANCH  11  12
ATOM     12  C   UNL A   1      42.745  24.612  28.073  1.00  0.00     0.031 A 
ATOM     13  C   UNL A   1      44.188  24.932  28.259  1.00  0.00     0.074 A 
ATOM     14  C   UNL A   1      41.805  25.560  28.220  1.00  0.00     0.049 A 
ATOM     15  N   UNL A   1      44.741  26.103  28.404  1.00  0.00    -0.248 NA
ATOM     16  C   UNL A   1      45.137  23.809  28.160  1.00  0.00     0.031 C 
ATOM     17  C   UNL A   1      40.406  25.392  27.883  1.00  0.00     0.029 A 
ATOM     18  N   UNL A   1      41.876  26.848  28.672  1.00  0.00    -0.354 N 
ATOM     19  C   UNL A   1      46.100  25.869  28.304  1.00  0.00     0.074 A 
ATOM     20  C   UNL A   1      46.296  24.443  28.167  1.00  0.00     0.031 C 
ATOM     21  C   UNL A   1      39.709  26.478  28.248  1.00  0.00     0.029 A 
ATOM     22  C   UNL A   1      40.647  27.461  28.765  1.00  0.00     0.049 A 
ATOM     23  H   UNL A   1      42.721  27.292  28.908  1.00  0.00     0.167 HD
ATOM     24  C   UNL A   1      47.092  26.782  28.285  1.00  0.00     0.031 A 
ATOM     25  C   UNL A   1      40.329  28.698  29.182  1.00  0.00     0.031 A 
ATOM     26  C   UNL A   1      46.876  28.174  28.547  1.00  0.00     0.049 A 
ATOM     27  C   UNL A   1      41.464  29.648  29.419  1.00  0.00     0.074 A 
ATOM     28  C   UNL A   1      47.805  29.187  28.662  1.00  0.00     0.029 A 
ATOM     29  N   UNL A   1      45.627  28.736  28.784  1.00  0.00    -0.354 N 
ATOM     30  N   UNL A   1      42.750  29.436  29.263  1.00  0.00    -0.248 NA
ATOM     31  C   UNL A   1      41.116  31.017  29.814  1.00  0.00     0.031 C 
ATOM     32  C   UNL A   1      47.123  30.350  29.039  1.00  0.00     0.029 A 
ATOM     33  C   UNL A   1      45.763  30.075  29.099  1.00  0.00     0.049 A 
ATOM     34  H   UNL A   1      44.770  28.252  28.736  1.00  0.00     0.167 HD
ATOM     35  C   UNL A   1      43.366  30.656  29.488  1.00  0.00     0.074 A 
ATOM     36  C   UNL A   1      42.307  31.600  29.798  1.00  0.00     0.031 C 
ATOM     37  C   UNL A   1      44.683  30.973  29.421  1.00  0.00     0.031 A 
BRANCH  24  38
ATOM     38  C   UNL A   1      48.466  26.245  28.041  1.00  0.00    -0.014 A 
ATOM     39  C   UNL A   1      49.285  25.855  29.115  1.00  0.00     0.009 A 
ATOM     40  C   UNL A   1      48.988  26.229  26.742  1.00  0.00     0.009 A 
ATOM     41  C   UNL A   1      50.616  25.494  28.892  1.00  0.00     0.001 A 
ATOM     42  C   UNL A   1      50.313  25.849  26.520  1.00  0.00     0.001 A 
ATOM     43  C   UNL A   1      51.128  25.493  27.595  1.00  0.00     0.000 A 
ENDBRANCH  24  38
BRANCH  25  44
ATOM     44  C   UNL A   1      38.907  29.104  29.331  1.00  0.00    -0.014 A 
ATOM     45  C   UNL A   1      38.226  28.954  30.547  1.00  0.00     0.009 A 
ATOM     46  C   UNL A   1      38.219  29.657  28.236  1.00  0.00     0.009 A 
ATOM     47  C   UNL A   1      36.881  29.323  30.657  1.00  0.00     0.001 A 
ATOM     48  C   UNL A   1      36.881  30.042  28.354  1.00  0.00     0.001 A 
ATOM     49  C   UNL A   1      36.210  29.866  29.561  1.00  0.00     0.000 A 
ENDBRANCH  25  44
BRANCH  37  50
ATOM     50  C   UNL A   1      45.036  32.405  29.682  1.00  0.00    -0.014 A 
ATOM     51  C   UNL A   1      45.366  32.844  30.972  1.00  0.00     0.009 A 
ATOM     52  C   UNL A   1      45.086  33.310  28.611  1.00  0.00     0.009 A 
ATOM     53  C   UNL A   1      45.711  34.177  31.191  1.00  0.00     0.001 A 
ATOM     54  C   UNL A   1      45.461  34.634  28.829  1.00  0.00     0.001 A 
ATOM     55  C   UNL A   1      45.766  35.068  30.118  1.00  0.00     0.000 A 
ENDBRANCH  37  50
ENDBRANCH  11  12
ENDBRANCH   4   6
ENDBRANCH   3   4
ENDBRANCH   2   3
ENDBRANCH   1   2
BRANCH   1  56
ATOM     56  O   UNL A   1      36.235  21.126  24.624  1.00  0.00    -0.462 OA
BRANCH  56  57
ATOM     57  C   UNL A   1      35.672  22.358  24.451  1.00  0.00     0.310 C 
ATOM     58  O   UNL A   1      36.325  23.394  24.429  1.00  0.00    -0.252 OA
BRANCH  57  59
ATOM     59  C   UNL A   1      34.217  22.305  24.051  1.00  0.00     0.119 C 
ATOM     60  C   UNL A   1      33.164  23.411  24.300  1.00  0.00     0.100 C 
ATOM     61  C   UNL A   1      33.390  21.010  24.139  1.00  0.00     0.027 C 
ATOM     62  C   UNL A   1      31.824  22.607  24.118  1.00  0.00     0.025 C 
ATOM     63  C   UNL A   1      32.556  20.852  25.383  1.00  0.00    -0.027 C 
ATOM     64  C   UNL A   1      32.236  21.439  23.204  1.00  0.00     0.017 C 
ATOM     65  C   UNL A   1      31.583  21.773  25.345  1.00  0.00    -0.027 C 
BRANCH  60  66
ATOM     66  C   UNL A   1      33.021  24.409  25.460  1.00  0.00     0.229 C 
ATOM     67  O   UNL A   1      33.815  24.273  26.410  1.00  0.00    -0.274 OA
ATOM     68  N   UNL A   1      32.297  25.562  25.493  1.00  0.00    -0.323 N 
ATOM     69  H   UNL A   1      32.499  26.135  26.268  1.00  0.00     0.170 HD
BRANCH  68  70
ATOM     70  C   UNL A   1      31.325  26.092  24.644  1.00  0.00     0.084 A 
ATOM     71  C   UNL A   1      29.992  25.759  24.931  1.00  0.00     0.030 A 
ATOM     72  C   UNL A   1      31.589  26.900  23.546  1.00  0.00     0.149 A 
ATOM     73  C   UNL A   1      28.938  26.428  24.303  1.00  0.00     0.002 A 
ATOM     74  C   UNL A   1      30.530  27.609  22.956  1.00  0.00     0.049 A 
ATOM     75  C   UNL A   1      29.212  27.402  23.353  1.00  0.00     0.004 A 
BRANCH  72  76
ATOM     76  O   UNL A   1      32.776  27.089  22.914  1.00  0.00    -0.433 OA
BRANCH  76  77
ATOM     77  C   UNL A   1      33.266  26.175  21.936  1.00  0.00     0.542 C 
ATOM     78  F   UNL A   1      34.309  25.462  22.407  1.00  0.00    -0.167 F 
ATOM     79  F   UNL A   1      32.286  25.319  21.569  1.00  0.00    -0.167 F 
ENDBRANCH  76  77
ENDBRANCH  72  76
ENDBRANCH  68  70
ENDBRANCH  60  66
ENDBRANCH  57  59
ENDBRANCH  56  57
ENDBRANCH   1  56
TORSDOF 15
ENDMDL
MODEL 2
REMARK VINA RESULT:     -11.0      3.979      9.499
REMARK SMILES O=C(OCCOC(=O)[C@@H]1[C@H](C(=O)Nc2ccccc2OC(F)F)[C@@H]2C=C[C@H]1C2)c1ccc(-c2c3nc(c(-c4ccccc4)c4ccc([nH]4)c(-c4ccccc4)c4nc(c(-c5ccccc5)c5ccc2[nH]5)C=C4)C=C3)cc1
REMARK SMILES IDX 5 1 4 2 3 3 2 4 1 5 29 6 30 7 76 8 31 9 75 10 32 11 33 12
REMARK SMILES IDX 34 13 69 14 35 15 74 16 68 17 70 18 36 19 73 20 67 21 66 22
REMARK SMILES IDX 37 24 59 25 44 26 58 27 45 28 48 29 57 30 71 31 46 32 47 33
REMARK SMILES IDX 56 35 72 36 49 37 38 38 39 39 43 40 40 41 42 42 41 43 60 44
REMARK SMILES IDX 61 45 65 46 62 47 64 48 63 49 50 50 51 51 55 52 52 53 54 54
REMARK SMILES IDX 53 55 6 56 7 57 8 58 9 59 10 60 27 61 24 62 26 63 28 64
REMARK SMILES IDX 25 65 11 66 12 67 13 68 14 70 15 71 19 72 16 73 18 74 17 75
REMARK SMILES IDX 20 76 21 77 22 78 23 79
REMARK H PARENT 70 23 48 34 13 69
REMARK Flexibility Score: inf
ROOT
ATOM      1  C   UNL A   1      30.370  24.733  25.880  1.00  0.00     0.274 C 
ENDROOT
BRANCH   1   2
ATOM      2  C   UNL A   1      30.154  26.071  25.172  1.00  0.00     0.275 C 
BRANCH   2   3
ATOM      3  O   UNL A   1      30.780  27.226  25.758  1.00  0.00    -0.458 OA
BRANCH   3   4
ATOM      4  C   UNL A   1      31.666  28.062  25.166  1.00  0.00     0.338 C 
ATOM      5  O   UNL A   1      31.562  28.382  23.986  1.00  0.00    -0.246 OA
BRANCH   4   6
ATOM      6  C   UNL A   1      32.852  28.505  25.925  1.00  0.00     0.060 A 
ATOM      7  C   UNL A   1      32.848  28.625  27.315  1.00  0.00     0.016 A 
ATOM      8  C   UNL A   1      33.998  28.861  25.198  1.00  0.00     0.016 A 
ATOM      9  C   UNL A   1      34.011  28.965  27.992  1.00  0.00     0.010 A 
ATOM     10  C   UNL A   1      35.154  29.262  25.870  1.00  0.00     0.010 A 
ATOM     11  C   UNL A   1      35.158  29.311  27.271  1.00  0.00    -0.014 A 
BRANCH  11  12
ATOM     12  C   UNL A   1      36.214  30.035  28.002  1.00  0.00     0.031 A 
ATOM     13  C   UNL A   1      35.803  31.304  28.665  1.00  0.00     0.074 A 
ATOM     14  C   UNL A   1      37.436  29.518  28.205  1.00  0.00     0.049 A 
ATOM     15  N   UNL A   1      36.427  31.964  29.598  1.00  0.00    -0.248 NA
ATOM     16  C   UNL A   1      34.474  31.838  28.314  1.00  0.00     0.031 C 
ATOM     17  C   UNL A   1      37.861  28.207  27.756  1.00  0.00     0.029 A 
ATOM     18  N   UNL A   1      38.538  30.011  28.845  1.00  0.00    -0.354 N 
ATOM     19  C   UNL A   1      35.524  32.922  30.021  1.00  0.00     0.074 A 
ATOM     20  C   UNL A   1      34.343  32.814  29.195  1.00  0.00     0.031 C 
ATOM     21  C   UNL A   1      39.164  28.029  28.015  1.00  0.00     0.029 A 
ATOM     22  C   UNL A   1      39.641  29.196  28.740  1.00  0.00     0.049 A 
ATOM     23  H   UNL A   1      38.542  30.865  29.334  1.00  0.00     0.167 HD
ATOM     24  C   UNL A   1      35.663  33.787  31.046  1.00  0.00     0.031 A 
ATOM     25  C   UNL A   1      40.886  29.362  29.217  1.00  0.00     0.031 A 
ATOM     26  C   UNL A   1      36.891  33.954  31.764  1.00  0.00     0.049 A 
ATOM     27  C   UNL A   1      41.104  30.501  30.166  1.00  0.00     0.074 A 
ATOM     28  C   UNL A   1      37.199  34.867  32.752  1.00  0.00     0.029 A 
ATOM     29  N   UNL A   1      38.039  33.207  31.527  1.00  0.00    -0.354 N 
ATOM     30  N   UNL A   1      40.227  31.371  30.610  1.00  0.00    -0.248 NA
ATOM     31  C   UNL A   1      42.447  30.647  30.736  1.00  0.00     0.031 C 
ATOM     32  C   UNL A   1      38.556  34.718  33.063  1.00  0.00     0.029 A 
ATOM     33  C   UNL A   1      39.077  33.672  32.313  1.00  0.00     0.049 A 
ATOM     34  H   UNL A   1      38.104  32.457  30.892  1.00  0.00     0.167 HD
ATOM     35  C   UNL A   1      40.893  32.135  31.553  1.00  0.00     0.074 A 
ATOM     36  C   UNL A   1      42.252  31.627  31.608  1.00  0.00     0.031 C 
ATOM     37  C   UNL A   1      40.420  33.149  32.319  1.00  0.00     0.031 A 
BRANCH  24  38
ATOM     38  C   UNL A   1      34.467  34.630  31.354  1.00  0.00    -0.014 A 
ATOM     39  C   UNL A   1      33.780  34.484  32.572  1.00  0.00     0.009 A 
ATOM     40  C   UNL A   1      33.957  35.499  30.382  1.00  0.00     0.009 A 
ATOM     41  C   UNL A   1      32.582  35.168  32.793  1.00  0.00     0.001 A 
ATOM     42  C   UNL A   1      32.770  36.195  30.613  1.00  0.00     0.001 A 
ATOM     43  C   UNL A   1      32.078  36.021  31.812  1.00  0.00     0.000 A 
ENDBRANCH  24  38
BRANCH  25  44
ATOM     44  C   UNL A   1      41.967  28.406  28.859  1.00  0.00    -0.014 A 
ATOM     45  C   UNL A   1      42.259  27.295  29.662  1.00  0.00     0.009 A 
ATOM     46  C   UNL A   1      42.717  28.607  27.687  1.00  0.00     0.009 A 
ATOM     47  C   UNL A   1      43.296  26.422  29.315  1.00  0.00     0.001 A 
ATOM     48  C   UNL A   1      43.740  27.724  27.333  1.00  0.00     0.001 A 
ATOM     49  C   UNL A   1      44.035  26.636  28.152  1.00  0.00     0.000 A 
ENDBRANCH  25  44
BRANCH  37  50
ATOM     50  C   UNL A   1      41.388  33.759  33.287  1.00  0.00    -0.014 A 
ATOM     51  C   UNL A   1      41.575  33.210  34.564  1.00  0.00     0.009 A 
ATOM     52  C   UNL A   1      42.153  34.867  32.893  1.00  0.00     0.009 A 
ATOM     53  C   UNL A   1      42.495  33.781  35.442  1.00  0.00     0.001 A 
ATOM     54  C   UNL A   1      43.092  35.416  33.763  1.00  0.00     0.001 A 
ATOM     55  C   UNL A   1      43.257  34.877  35.039  1.00  0.00     0.000 A 
ENDBRANCH  37  50
ENDBRANCH  11  12
ENDBRANCH   4   6
ENDBRANCH   3   4
ENDBRANCH   2   3
ENDBRANCH   1   2
BRANCH   1  56
ATOM     56  O   UNL A   1      31.254  24.651  27.017  1.00  0.00    -0.462 OA
BRANCH  56  57
ATOM     57  C   UNL A   1      32.217  23.685  26.975  1.00  0.00     0.310 C 
ATOM     58  O   UNL A   1      32.298  22.784  27.801  1.00  0.00    -0.252 OA
BRANCH  57  59
ATOM     59  C   UNL A   1      33.017  23.686  25.694  1.00  0.00     0.119 C 
ATOM     60  C   UNL A   1      33.736  22.467  25.068  1.00  0.00     0.100 C 
ATOM     61  C   UNL A   1      33.919  24.866  25.293  1.00  0.00     0.027 C 
ATOM     62  C   UNL A   1      34.738  23.173  24.082  1.00  0.00     0.025 C 
ATOM     63  C   UNL A   1      35.378  24.719  25.637  1.00  0.00    -0.027 C 
ATOM     64  C   UNL A   1      34.055  24.521  23.791  1.00  0.00     0.017 C 
ATOM     65  C   UNL A   1      35.883  23.741  24.873  1.00  0.00    -0.027 C 
BRANCH  60  66
ATOM     66  C   UNL A   1      34.419  21.262  25.735  1.00  0.00     0.229 C 
ATOM     67  O   UNL A   1      35.082  21.498  26.762  1.00  0.00    -0.274 OA
ATOM     68  N   UNL A   1      34.216  19.938  25.488  1.00  0.00    -0.323 N 
ATOM     69  H   UNL A   1      34.624  19.343  26.159  1.00  0.00     0.170 HD
BRANCH  68  70
ATOM     70  C   UNL A   1      33.545  19.258  24.472  1.00  0.00     0.084 A 
ATOM     71  C   UNL A   1      32.581  19.988  23.759  1.00  0.00     0.030 A 
ATOM     72  C   UNL A   1      33.755  17.926  24.138  1.00  0.00     0.149 A 
ATOM     73  C   UNL A   1      32.035  19.483  22.576  1.00  0.00     0.002 A 
ATOM     74  C   UNL A   1      33.247  17.445  22.921  1.00  0.00     0.049 A 
ATOM     75  C   UNL A   1      32.417  18.228  22.123  1.00  0.00     0.004 A 
BRANCH  72  76
ATOM     76  O   UNL A   1      34.387  16.972  24.868  1.00  0.00    -0.433 OA
BRANCH  76  77
ATOM     77  C   UNL A   1      33.674  16.056  25.695  1.00  0.00     0.542 C 
ATOM     78  F   UNL A   1      32.549  16.609  26.189  1.00  0.00    -0.167 F 
ATOM     79  F   UNL A   1      33.339  14.955  24.985  1.00  0.00    -0.167 F 
ENDBRANCH  76  77
ENDBRANCH  72  76
ENDBRANCH  68  70
ENDBRANCH  60  66
ENDBRANCH  57  59
ENDBRANCH  56  57
ENDBRANCH   1  56
TORSDOF 15
ENDMDL
MODEL 3
REMARK VINA RESULT:     -10.9      1.516      1.936
REMARK SMILES O=C(OCCOC(=O)[C@@H]1[C@H](C(=O)Nc2ccccc2OC(F)F)[C@@H]2C=C[C@H]1C2)c1ccc(-c2c3nc(c(-c4ccccc4)c4ccc([nH]4)c(-c4ccccc4)c4nc(c(-c5ccccc5)c5ccc2[nH]5)C=C4)C=C3)cc1
REMARK SMILES IDX 5 1 4 2 3 3 2 4 1 5 29 6 30 7 76 8 31 9 75 10 32 11 33 12
REMARK SMILES IDX 34 13 69 14 35 15 74 16 68 17 70 18 36 19 73 20 67 21 66 22
REMARK SMILES IDX 37 24 59 25 44 26 58 27 45 28 48 29 57 30 71 31 46 32 47 33
REMARK SMILES IDX 56 35 72 36 49 37 38 38 39 39 43 40 40 41 42 42 41 43 60 44
REMARK SMILES IDX 61 45 65 46 62 47 64 48 63 49 50 50 51 51 55 52 52 53 54 54
REMARK SMILES IDX 53 55 6 56 7 57 8 58 9 59 10 60 27 61 24 62 26 63 28 64
REMARK SMILES IDX 25 65 11 66 12 67 13 68 14 70 15 71 19 72 16 73 18 74 17 75
REMARK SMILES IDX 20 76 21 77 22 78 23 79
REMARK H PARENT 70 23 48 34 13 69
REMARK Flexibility Score: inf
ROOT
ATOM      1  C   UNL A   1      37.711  19.870  24.685  1.00  0.00     0.274 C 
ENDROOT
BRANCH   1   2
ATOM      2  C   UNL A   1      38.945  20.298  25.479  1.00  0.00     0.275 C 
BRANCH   2   3
ATOM      3  O   UNL A   1      39.872  19.262  25.849  1.00  0.00    -0.458 OA
BRANCH   3   4
ATOM      4  C   UNL A   1      41.217  19.374  25.964  1.00  0.00     0.338 C 
ATOM      5  O   UNL A   1      41.965  18.424  25.751  1.00  0.00    -0.246 OA
BRANCH   4   6
ATOM      6  C   UNL A   1      41.791  20.635  26.472  1.00  0.00     0.060 A 
ATOM      7  C   UNL A   1      41.652  21.037  27.801  1.00  0.00     0.016 A 
ATOM      8  C   UNL A   1      42.452  21.468  25.558  1.00  0.00     0.016 A 
ATOM      9  C   UNL A   1      42.280  22.189  28.254  1.00  0.00     0.010 A 
ATOM     10  C   UNL A   1      43.034  22.660  25.993  1.00  0.00     0.010 A 
ATOM     11  C   UNL A   1      42.948  23.018  27.347  1.00  0.00    -0.014 A 
BRANCH  11  12
ATOM     12  C   UNL A   1      43.241  24.393  27.788  1.00  0.00     0.031 A 
ATOM     13  C   UNL A   1      44.678  24.786  27.802  1.00  0.00     0.074 A 
ATOM     14  C   UNL A   1      42.278  25.301  28.010  1.00  0.00     0.049 A 
ATOM     15  N   UNL A   1      45.185  25.985  27.849  1.00  0.00    -0.248 NA
ATOM     16  C   UNL A   1      45.666  23.705  27.633  1.00  0.00     0.031 C 
ATOM     17  C   UNL A   1      40.860  25.058  27.836  1.00  0.00     0.029 A 
ATOM     18  N   UNL A   1      42.333  26.607  28.412  1.00  0.00    -0.354 N 
ATOM     19  C   UNL A   1      46.535  25.810  27.606  1.00  0.00     0.074 A 
ATOM     20  C   UNL A   1      46.785  24.391  27.491  1.00  0.00     0.031 C 
ATOM     21  C   UNL A   1      40.154  26.123  28.242  1.00  0.00     0.029 A 
ATOM     22  C   UNL A   1      41.093  27.166  28.622  1.00  0.00     0.049 A 
ATOM     23  H   UNL A   1      43.176  27.098  28.539  1.00  0.00     0.167 HD
ATOM     24  C   UNL A   1      47.473  26.766  27.449  1.00  0.00     0.031 A 
ATOM     25  C   UNL A   1      40.762  28.401  29.034  1.00  0.00     0.031 A 
ATOM     26  C   UNL A   1      47.218  28.156  27.691  1.00  0.00     0.049 A 
ATOM     27  C   UNL A   1      41.867  29.410  29.114  1.00  0.00     0.074 A 
ATOM     28  C   UNL A   1      48.103  29.214  27.671  1.00  0.00     0.029 A 
ATOM     29  N   UNL A   1      45.976  28.668  28.048  1.00  0.00    -0.354 N 
ATOM     30  N   UNL A   1      43.138  29.252  28.823  1.00  0.00    -0.248 NA
ATOM     31  C   UNL A   1      41.498  30.774  29.504  1.00  0.00     0.031 C 
ATOM     32  C   UNL A   1      47.409  30.357  28.086  1.00  0.00     0.029 A 
ATOM     33  C   UNL A   1      46.080  30.022  28.305  1.00  0.00     0.049 A 
ATOM     34  H   UNL A   1      45.144  28.144  28.111  1.00  0.00     0.167 HD
ATOM     35  C   UNL A   1      43.713  30.506  28.940  1.00  0.00     0.074 A 
ATOM     36  C   UNL A   1      42.649  31.411  29.338  1.00  0.00     0.031 C 
ATOM     37  C   UNL A   1      44.998  30.880  28.719  1.00  0.00     0.031 A 
BRANCH  24  38
ATOM     38  C   UNL A   1      48.837  26.285  27.070  1.00  0.00    -0.014 A 
ATOM     39  C   UNL A   1      49.772  25.930  28.058  1.00  0.00     0.009 A 
ATOM     40  C   UNL A   1      49.229  26.288  25.726  1.00  0.00     0.009 A 
ATOM     41  C   UNL A   1      51.088  25.622  27.705  1.00  0.00     0.001 A 
ATOM     42  C   UNL A   1      50.540  25.961  25.375  1.00  0.00     0.001 A 
ATOM     43  C   UNL A   1      51.470  25.640  26.364  1.00  0.00     0.000 A 
ENDBRANCH  24  38
BRANCH  25  44
ATOM     44  C   UNL A   1      39.346  28.746  29.327  1.00  0.00    -0.014 A 
ATOM     45  C   UNL A   1      38.488  29.230  28.330  1.00  0.00     0.009 A 
ATOM     46  C   UNL A   1      38.843  28.582  30.629  1.00  0.00     0.009 A 
ATOM     47  C   UNL A   1      37.165  29.568  28.636  1.00  0.00     0.001 A 
ATOM     48  C   UNL A   1      37.516  28.902  30.928  1.00  0.00     0.001 A 
ATOM     49  C   UNL A   1      36.680  29.404  29.933  1.00  0.00     0.000 A 
ENDBRANCH  25  44
BRANCH  37  50
ATOM     50  C   UNL A   1      45.306  32.335  28.894  1.00  0.00    -0.014 A 
ATOM     51  C   UNL A   1      45.138  33.241  27.836  1.00  0.00     0.009 A 
ATOM     52  C   UNL A   1      45.723  32.808  30.147  1.00  0.00     0.009 A 
ATOM     53  C   UNL A   1      45.412  34.596  28.025  1.00  0.00     0.001 A 
ATOM     54  C   UNL A   1      45.967  34.166  30.340  1.00  0.00     0.001 A 
ATOM     55  C   UNL A   1      45.819  35.057  29.278  1.00  0.00     0.000 A 
ENDBRANCH  37  50
ENDBRANCH  11  12
ENDBRANCH   4   6
ENDBRANCH   3   4
ENDBRANCH   2   3
ENDBRANCH   1   2
BRANCH   1  56
ATOM     56  O   UNL A   1      36.399  20.305  25.098  1.00  0.00    -0.462 OA
BRANCH  56  57
ATOM     57  C   UNL A   1      35.980  21.517  24.632  1.00  0.00     0.310 C 
ATOM     58  O   UNL A   1      36.651  22.211  23.877  1.00  0.00    -0.252 OA
BRANCH  57  59
ATOM     59  C   UNL A   1      34.530  21.811  24.933  1.00  0.00     0.119 C 
ATOM     60  C   UNL A   1      33.863  23.207  24.919  1.00  0.00     0.100 C 
ATOM     61  C   UNL A   1      33.754  21.065  26.032  1.00  0.00     0.027 C 
ATOM     62  C   UNL A   1      32.555  22.931  25.749  1.00  0.00     0.025 C 
ATOM     63  C   UNL A   1      33.672  21.764  27.363  1.00  0.00    -0.027 C 
ATOM     64  C   UNL A   1      32.327  21.421  25.555  1.00  0.00     0.017 C 
ATOM     65  C   UNL A   1      32.908  22.854  27.208  1.00  0.00    -0.027 C 
BRANCH  60  66
ATOM     66  C   UNL A   1      34.431  24.588  25.282  1.00  0.00     0.229 C 
ATOM     67  O   UNL A   1      35.590  24.609  25.737  1.00  0.00    -0.274 OA
ATOM     68  N   UNL A   1      33.928  25.814  24.967  1.00  0.00    -0.323 N 
ATOM     69  H   UNL A   1      34.553  26.555  25.142  1.00  0.00     0.170 HD
BRANCH  68  70
ATOM     70  C   UNL A   1      32.703  26.227  24.443  1.00  0.00     0.084 A 
ATOM     71  C   UNL A   1      32.634  26.375  23.050  1.00  0.00     0.030 A 
ATOM     72  C   UNL A   1      31.574  26.508  25.202  1.00  0.00     0.149 A 
ATOM     73  C   UNL A   1      31.402  26.540  22.410  1.00  0.00     0.002 A 
ATOM     74  C   UNL A   1      30.333  26.620  24.553  1.00  0.00     0.049 A 
ATOM     75  C   UNL A   1      30.239  26.602  23.165  1.00  0.00     0.004 A 
BRANCH  72  76
ATOM     76  O   UNL A   1      31.500  26.731  26.539  1.00  0.00    -0.433 OA
BRANCH  76  77
ATOM     77  C   UNL A   1      31.923  27.959  27.127  1.00  0.00     0.542 C 
ATOM     78  F   UNL A   1      31.784  28.990  26.270  1.00  0.00    -0.167 F 
ATOM     79  F   UNL A   1      31.194  28.216  28.236  1.00  0.00    -0.167 F 
ENDBRANCH  76  77
ENDBRANCH  72  76
ENDBRANCH  68  70
ENDBRANCH  60  66
ENDBRANCH  57  59
ENDBRANCH  56  57
ENDBRANCH   1  56
TORSDOF 15
ENDMDL
