MODEL 1
REMARK VINA RESULT:     -12.0      0.000      0.000
REMARK SMILES Cc1cccc(-c2cccc(O)c2)c1C(=O)OCCOC(=O)c1ccc(-c2c3nc(c(-c4ccccc4)c4ccc([nH]4)c(-c4ccccc4)c4nc(c(-c5ccccc5)c5ccc2[nH]5)C=C4)C=C3)cc1
REMARK SMILES IDX 18 1 17 2 15 3 16 4 14 5 1 6 2 7 3 8 4 9 6 10 5 11 7 12 8 13
REMARK SMILES IDX 13 14 9 15 11 16 10 17 12 18 19 20 20 21 21 22 22 23 23 24
REMARK SMILES IDX 24 25 70 26 25 27 69 28 26 29 27 30 28 31 63 32 29 33 68 34
REMARK SMILES IDX 62 35 64 36 30 37 67 38 61 39 60 40 31 42 53 43 38 44 52 45
REMARK SMILES IDX 39 46 42 47 51 48 65 49 40 50 41 51 50 53 66 54 43 55 32 56
REMARK SMILES IDX 33 57 37 58 34 59 36 60 35 61 54 62 55 63 59 64 56 65 58 66
REMARK SMILES IDX 57 67 44 68 45 69 49 70 46 71 48 72 47 73
REMARK H PARENT 12 19 64 41 42 52
REMARK Flexibility Score: inf
ROOT
ATOM      1  C   UNL A   1      33.143  29.722  25.653  1.00  0.00     0.275 C 
ENDROOT
BRANCH   1   2
ATOM      2  O   UNL A   1      31.790  29.695  25.129  1.00  0.00    -0.458 OA
BRANCH   2   3
ATOM      3  C   UNL A   1      31.711  29.058  23.920  1.00  0.00     0.339 C 
ATOM      4  O   UNL A   1      32.419  29.319  22.952  1.00  0.00    -0.246 OA
BRANCH   3   5
ATOM      5  C   UNL A   1      30.490  28.260  23.662  1.00  0.00     0.070 A 
ATOM      6  C   UNL A   1      31.903  26.302  24.635  1.00  0.00     0.045 C 
ATOM      7  C   UNL A   1      30.613  26.914  24.133  1.00  0.00    -0.036 A 
ATOM      8  C   UNL A   1      29.476  26.100  24.249  1.00  0.00     0.004 A 
ATOM      9  C   UNL A   1      28.233  26.572  23.880  1.00  0.00     0.001 A 
ATOM     10  C   UNL A   1      29.209  28.769  23.304  1.00  0.00    -0.003 A 
ATOM     11  C   UNL A   1      28.115  27.867  23.394  1.00  0.00     0.009 A 
BRANCH  10  12
ATOM     12  C   UNL A   1      28.793  30.144  22.922  1.00  0.00    -0.014 A 
ATOM     13  C   UNL A   1      29.044  31.279  23.705  1.00  0.00     0.009 A 
ATOM     14  C   UNL A   1      28.295  30.370  21.612  1.00  0.00     0.055 A 
ATOM     15  C   UNL A   1      28.802  32.574  23.202  1.00  0.00     0.004 A 
ATOM     16  C   UNL A   1      28.089  31.656  21.111  1.00  0.00     0.116 A 
ATOM     17  C   UNL A   1      28.337  32.767  21.899  1.00  0.00     0.046 A 
BRANCH  16  18
ATOM     18  O   UNL A   1      27.552  31.773  19.861  1.00  0.00    -0.508 OA
ATOM     19  H   UNL A   1      28.104  31.714  19.107  1.00  0.00     0.293 HD
ENDBRANCH  16  18
ENDBRANCH  10  12
ENDBRANCH   3   5
ENDBRANCH   2   3
ENDBRANCH   1   2
BRANCH   1  20
ATOM     20  C   UNL A   1      33.344  30.337  27.054  1.00  0.00     0.275 C 
BRANCH  20  21
ATOM     21  O   UNL A   1      34.506  30.001  27.851  1.00  0.00    -0.458 OA
BRANCH  21  22
ATOM     22  C   UNL A   1      35.602  30.765  28.022  1.00  0.00     0.338 C 
ATOM     23  O   UNL A   1      35.557  31.993  28.028  1.00  0.00    -0.246 OA
BRANCH  22  24
ATOM     24  C   UNL A   1      36.866  30.051  28.206  1.00  0.00     0.060 A 
ATOM     25  C   UNL A   1      36.981  29.215  29.322  1.00  0.00     0.016 A 
ATOM     26  C   UNL A   1      37.865  30.117  27.241  1.00  0.00     0.016 A 
ATOM     27  C   UNL A   1      38.052  28.356  29.456  1.00  0.00     0.010 A 
ATOM     28  C   UNL A   1      38.903  29.225  27.325  1.00  0.00     0.010 A 
ATOM     29  C   UNL A   1      39.002  28.382  28.447  1.00  0.00    -0.014 A 
BRANCH  29  30
ATOM     30  C   UNL A   1      40.326  27.850  28.660  1.00  0.00     0.031 A 
ATOM     31  C   UNL A   1      40.669  26.496  28.198  1.00  0.00     0.074 A 
ATOM     32  C   UNL A   1      41.131  28.823  29.147  1.00  0.00     0.049 A 
ATOM     33  N   UNL A   1      41.626  25.792  28.687  1.00  0.00    -0.248 NA
ATOM     34  C   UNL A   1      39.905  25.755  27.186  1.00  0.00     0.031 C 
ATOM     35  C   UNL A   1      42.570  28.954  29.167  1.00  0.00     0.029 A 
ATOM     36  N   UNL A   1      40.697  29.952  29.871  1.00  0.00    -0.354 N 
ATOM     37  C   UNL A   1      41.869  24.779  27.779  1.00  0.00     0.074 A 
ATOM     38  C   UNL A   1      40.661  24.664  27.006  1.00  0.00     0.031 C 
ATOM     39  C   UNL A   1      42.903  29.870  30.100  1.00  0.00     0.029 A 
ATOM     40  C   UNL A   1      41.684  30.254  30.804  1.00  0.00     0.049 A 
ATOM     41  H   UNL A   1      39.850  30.438  29.741  1.00  0.00     0.167 HD
ATOM     42  C   UNL A   1      43.154  24.354  27.616  1.00  0.00     0.031 A 
ATOM     43  C   UNL A   1      41.446  30.097  32.142  1.00  0.00     0.031 A 
ATOM     44  C   UNL A   1      44.018  25.064  28.559  1.00  0.00     0.049 A 
ATOM     45  C   UNL A   1      42.232  28.904  32.643  1.00  0.00     0.074 A 
ATOM     46  C   UNL A   1      44.784  26.208  28.405  1.00  0.00     0.029 A 
ATOM     47  N   UNL A   1      43.815  24.898  29.921  1.00  0.00    -0.354 N 
ATOM     48  N   UNL A   1      42.593  27.896  31.895  1.00  0.00    -0.248 NA
ATOM     49  C   UNL A   1      42.702  28.790  34.017  1.00  0.00     0.031 C 
ATOM     50  C   UNL A   1      44.942  26.793  29.691  1.00  0.00     0.029 A 
ATOM     51  C   UNL A   1      44.277  26.003  30.614  1.00  0.00     0.049 A 
ATOM     52  H   UNL A   1      43.402  24.106  30.336  1.00  0.00     0.167 HD
ATOM     53  C   UNL A   1      43.444  27.097  32.606  1.00  0.00     0.074 A 
ATOM     54  C   UNL A   1      43.445  27.674  33.941  1.00  0.00     0.031 C 
ATOM     55  C   UNL A   1      44.140  26.057  32.060  1.00  0.00     0.031 A 
BRANCH  42  56
ATOM     56  C   UNL A   1      43.706  23.608  26.420  1.00  0.00    -0.014 A 
ATOM     57  C   UNL A   1      43.622  22.199  26.411  1.00  0.00     0.009 A 
ATOM     58  C   UNL A   1      44.344  24.188  25.312  1.00  0.00     0.009 A 
ATOM     59  C   UNL A   1      44.181  21.414  25.394  1.00  0.00     0.001 A 
ATOM     60  C   UNL A   1      44.914  23.407  24.289  1.00  0.00     0.001 A 
ATOM     61  C   UNL A   1      44.838  22.020  24.334  1.00  0.00     0.000 A 
ENDBRANCH  42  56
BRANCH  43  62
ATOM     62  C   UNL A   1      40.042  30.406  32.557  1.00  0.00    -0.014 A 
ATOM     63  C   UNL A   1      39.431  31.585  32.068  1.00  0.00     0.009 A 
ATOM     64  C   UNL A   1      39.220  29.379  33.019  1.00  0.00     0.009 A 
ATOM     65  C   UNL A   1      38.043  31.667  31.893  1.00  0.00     0.001 A 
ATOM     66  C   UNL A   1      37.845  29.469  32.818  1.00  0.00     0.001 A 
ATOM     67  C   UNL A   1      37.249  30.583  32.230  1.00  0.00     0.000 A 
ENDBRANCH  43  62
BRANCH  55  68
ATOM     68  C   UNL A   1      44.871  25.017  32.858  1.00  0.00    -0.014 A 
ATOM     69  C   UNL A   1      46.178  25.185  33.328  1.00  0.00     0.009 A 
ATOM     70  C   UNL A   1      44.169  23.873  33.296  1.00  0.00     0.009 A 
ATOM     71  C   UNL A   1      46.783  24.211  34.126  1.00  0.00     0.001 A 
ATOM     72  C   UNL A   1      44.745  22.938  34.151  1.00  0.00     0.001 A 
ATOM     73  C   UNL A   1      46.065  23.096  34.545  1.00  0.00     0.000 A 
ENDBRANCH  55  68
ENDBRANCH  29  30
ENDBRANCH  22  24
ENDBRANCH  21  22
ENDBRANCH  20  21
ENDBRANCH   1  20
TORSDOF 13
ENDMDL
MODEL 2
REMARK VINA RESULT:     -11.9      2.404      3.940
REMARK SMILES Cc1cccc(-c2cccc(O)c2)c1C(=O)OCCOC(=O)c1ccc(-c2c3nc(c(-c4ccccc4)c4ccc([nH]4)c(-c4ccccc4)c4nc(c(-c5ccccc5)c5ccc2[nH]5)C=C4)C=C3)cc1
REMARK SMILES IDX 18 1 17 2 15 3 16 4 14 5 1 6 2 7 3 8 4 9 6 10 5 11 7 12 8 13
REMARK SMILES IDX 13 14 9 15 11 16 10 17 12 18 19 20 20 21 21 22 22 23 23 24
REMARK SMILES IDX 24 25 70 26 25 27 69 28 26 29 27 30 28 31 63 32 29 33 68 34
REMARK SMILES IDX 62 35 64 36 30 37 67 38 61 39 60 40 31 42 53 43 38 44 52 45
REMARK SMILES IDX 39 46 42 47 51 48 65 49 40 50 41 51 50 53 66 54 43 55 32 56
REMARK SMILES IDX 33 57 37 58 34 59 36 60 35 61 54 62 55 63 59 64 56 65 58 66
REMARK SMILES IDX 57 67 44 68 45 69 49 70 46 71 48 72 47 73
REMARK H PARENT 12 19 64 41 42 52
REMARK Flexibility Score: inf
ROOT
ATOM      1  C   UNL A   1      33.021  29.828  26.611  1.00  0.00     0.275 C 
ENDROOT
BRANCH   1   2
ATOM      2  O   UNL A   1      32.186  28.823  25.980  1.00  0.00    -0.458 OA
BRANCH   2   3
ATOM      3  C   UNL A   1      32.741  28.327  24.832  1.00  0.00     0.339 C 
ATOM      4  O   UNL A   1      33.507  28.955  24.106  1.00  0.00    -0.246 OA
BRANCH   3   5
ATOM      5  C   UNL A   1      32.124  27.108  24.260  1.00  0.00     0.070 A 
ATOM      6  C   UNL A   1      34.037  25.882  25.531  1.00  0.00     0.045 C 
ATOM      7  C   UNL A   1      32.755  25.911  24.727  1.00  0.00    -0.036 A 
ATOM      8  C   UNL A   1      32.136  24.667  24.538  1.00  0.00     0.004 A 
ATOM      9  C   UNL A   1      30.930  24.576  23.873  1.00  0.00     0.001 A 
ATOM     10  C   UNL A   1      30.867  27.031  23.597  1.00  0.00    -0.003 A 
ATOM     11  C   UNL A   1      30.330  25.731  23.392  1.00  0.00     0.009 A 
BRANCH  10  12
ATOM     12  C   UNL A   1      29.951  28.111  23.143  1.00  0.00    -0.014 A 
ATOM     13  C   UNL A   1      30.354  29.188  22.343  1.00  0.00     0.009 A 
ATOM     14  C   UNL A   1      28.554  27.956  23.347  1.00  0.00     0.055 A 
ATOM     15  C   UNL A   1      29.406  30.070  21.783  1.00  0.00     0.004 A 
ATOM     16  C   UNL A   1      27.622  28.813  22.762  1.00  0.00     0.116 A 
ATOM     17  C   UNL A   1      28.037  29.877  21.979  1.00  0.00     0.046 A 
BRANCH  16  18
ATOM     18  O   UNL A   1      26.304  28.621  23.064  1.00  0.00    -0.508 OA
ATOM     19  H   UNL A   1      25.921  27.771  22.971  1.00  0.00     0.293 HD
ENDBRANCH  16  18
ENDBRANCH  10  12
ENDBRANCH   3   5
ENDBRANCH   2   3
ENDBRANCH   1   2
BRANCH   1  20
ATOM     20  C   UNL A   1      32.309  31.048  27.231  1.00  0.00     0.275 C 
BRANCH  20  21
ATOM     21  O   UNL A   1      32.846  32.384  27.063  1.00  0.00    -0.458 OA
BRANCH  21  22
ATOM     22  C   UNL A   1      33.443  33.128  28.014  1.00  0.00     0.338 C 
ATOM     23  O   UNL A   1      32.923  34.137  28.486  1.00  0.00    -0.246 OA
BRANCH  22  24
ATOM     24  C   UNL A   1      34.755  32.667  28.468  1.00  0.00     0.060 A 
ATOM     25  C   UNL A   1      35.881  33.337  27.979  1.00  0.00     0.016 A 
ATOM     26  C   UNL A   1      34.862  31.676  29.438  1.00  0.00     0.016 A 
ATOM     27  C   UNL A   1      37.132  33.101  28.512  1.00  0.00     0.010 A 
ATOM     28  C   UNL A   1      36.086  31.475  30.023  1.00  0.00     0.010 A 
ATOM     29  C   UNL A   1      37.210  32.163  29.529  1.00  0.00    -0.014 A 
BRANCH  29  30
ATOM     30  C   UNL A   1      38.468  31.549  29.878  1.00  0.00     0.031 A 
ATOM     31  C   UNL A   1      38.911  30.320  29.202  1.00  0.00     0.074 A 
ATOM     32  C   UNL A   1      39.146  32.359  30.724  1.00  0.00     0.049 A 
ATOM     33  N   UNL A   1      39.755  29.491  29.702  1.00  0.00    -0.248 NA
ATOM     34  C   UNL A   1      38.377  29.851  27.917  1.00  0.00     0.031 C 
ATOM     35  C   UNL A   1      40.549  32.430  31.062  1.00  0.00     0.029 A 
ATOM     36  N   UNL A   1      38.562  33.314  31.581  1.00  0.00    -0.354 N 
ATOM     37  C   UNL A   1      40.188  28.697  28.657  1.00  0.00     0.074 A 
ATOM     38  C   UNL A   1      39.165  28.801  27.651  1.00  0.00     0.031 C 
ATOM     39  C   UNL A   1      40.676  33.102  32.225  1.00  0.00     0.029 A 
ATOM     40  C   UNL A   1      39.335  33.365  32.737  1.00  0.00     0.049 A 
ATOM     41  H   UNL A   1      37.755  33.847  31.396  1.00  0.00     0.167 HD
ATOM     42  C   UNL A   1      41.484  28.272  28.665  1.00  0.00     0.031 A 
ATOM     43  C   UNL A   1      38.830  32.923  33.930  1.00  0.00     0.031 A 
ATOM     44  C   UNL A   1      42.129  28.723  29.897  1.00  0.00     0.049 A 
ATOM     45  C   UNL A   1      39.509  31.621  34.297  1.00  0.00     0.074 A 
ATOM     46  C   UNL A   1      42.899  29.843  30.162  1.00  0.00     0.029 A 
ATOM     47  N   UNL A   1      41.654  28.265  31.118  1.00  0.00    -0.354 N 
ATOM     48  N   UNL A   1      40.026  30.791  33.429  1.00  0.00    -0.248 NA
ATOM     49  C   UNL A   1      39.690  31.187  35.675  1.00  0.00     0.031 C 
ATOM     50  C   UNL A   1      42.786  30.121  31.551  1.00  0.00     0.029 A 
ATOM     51  C   UNL A   1      41.954  29.170  32.120  1.00  0.00     0.049 A 
ATOM     52  H   UNL A   1      41.173  27.416  31.252  1.00  0.00     0.167 HD
ATOM     53  C   UNL A   1      40.722  29.824  34.098  1.00  0.00     0.074 A 
ATOM     54  C   UNL A   1      40.444  30.088  35.501  1.00  0.00     0.031 C 
ATOM     55  C   UNL A   1      41.524  28.907  33.483  1.00  0.00     0.031 A 
BRANCH  42  56
ATOM     56  C   UNL A   1      42.275  27.791  27.468  1.00  0.00    -0.014 A 
ATOM     57  C   UNL A   1      43.502  27.131  27.694  1.00  0.00     0.009 A 
ATOM     58  C   UNL A   1      41.923  27.977  26.121  1.00  0.00     0.009 A 
ATOM     59  C   UNL A   1      44.349  26.729  26.654  1.00  0.00     0.001 A 
ATOM     60  C   UNL A   1      42.770  27.580  25.069  1.00  0.00     0.001 A 
ATOM     61  C   UNL A   1      43.986  26.962  25.336  1.00  0.00     0.000 A 
ENDBRANCH  42  56
BRANCH  43  62
ATOM     62  C   UNL A   1      37.368  33.182  34.112  1.00  0.00    -0.014 A 
ATOM     63  C   UNL A   1      36.934  34.513  34.320  1.00  0.00     0.009 A 
ATOM     64  C   UNL A   1      36.441  32.249  33.649  1.00  0.00     0.009 A 
ATOM     65  C   UNL A   1      35.657  34.932  33.920  1.00  0.00     0.001 A 
ATOM     66  C   UNL A   1      35.185  32.689  33.238  1.00  0.00     0.001 A 
ATOM     67  C   UNL A   1      34.794  34.023  33.334  1.00  0.00     0.000 A 
ENDBRANCH  43  62
BRANCH  55  68
ATOM     68  C   UNL A   1      42.088  27.689  34.157  1.00  0.00    -0.014 A 
ATOM     69  C   UNL A   1      41.296  26.712  34.770  1.00  0.00     0.009 A 
ATOM     70  C   UNL A   1      43.470  27.422  34.042  1.00  0.00     0.009 A 
ATOM     71  C   UNL A   1      41.871  25.565  35.321  1.00  0.00     0.001 A 
ATOM     72  C   UNL A   1      44.035  26.246  34.524  1.00  0.00     0.001 A 
ATOM     73  C   UNL A   1      43.236  25.327  35.189  1.00  0.00     0.000 A 
ENDBRANCH  55  68
ENDBRANCH  29  30
ENDBRANCH  22  24
ENDBRANCH  21  22
ENDBRANCH  20  21
ENDBRANCH   1  20
TORSDOF 13
ENDMDL
MODEL 3
REMARK VINA RESULT:     -11.6      1.312      1.992
REMARK SMILES Cc1cccc(-c2cccc(O)c2)c1C(=O)OCCOC(=O)c1ccc(-c2c3nc(c(-c4ccccc4)c4ccc([nH]4)c(-c4ccccc4)c4nc(c(-c5ccccc5)c5ccc2[nH]5)C=C4)C=C3)cc1
REMARK SMILES IDX 18 1 17 2 15 3 16 4 14 5 1 6 2 7 3 8 4 9 6 10 5 11 7 12 8 13
REMARK SMILES IDX 13 14 9 15 11 16 10 17 12 18 19 20 20 21 21 22 22 23 23 24
REMARK SMILES IDX 24 25 70 26 25 27 69 28 26 29 27 30 28 31 63 32 29 33 68 34
REMARK SMILES IDX 62 35 64 36 30 37 67 38 61 39 60 40 31 42 53 43 38 44 52 45
REMARK SMILES IDX 39 46 42 47 51 48 65 49 40 50 41 51 50 53 66 54 43 55 32 56
REMARK SMILES IDX 33 57 37 58 34 59 36 60 35 61 54 62 55 63 59 64 56 65 58 66
REMARK SMILES IDX 57 67 44 68 45 69 49 70 46 71 48 72 47 73
REMARK H PARENT 12 19 64 41 42 52
REMARK Flexibility Score: inf
ROOT
ATOM      1  C   UNL A   1      32.276  29.324  27.073  1.00  0.00     0.275 C 
ENDROOT
BRANCH   1   2
ATOM      2  O   UNL A   1      32.806  28.510  25.994  1.00  0.00    -0.458 OA
BRANCH   2   3
ATOM      3  C   UNL A   1      31.875  27.645  25.486  1.00  0.00     0.339 C 
ATOM      4  O   UNL A   1      31.007  27.092  26.154  1.00  0.00    -0.246 OA
BRANCH   3   5
ATOM      5  C   UNL A   1      32.142  27.089  24.139  1.00  0.00     0.070 A 
ATOM      6  C   UNL A   1      34.024  25.771  25.362  1.00  0.00     0.045 C 
ATOM      7  C   UNL A   1      33.160  26.083  24.159  1.00  0.00    -0.036 A 
ATOM      8  C   UNL A   1      33.342  25.240  23.053  1.00  0.00     0.004 A 
ATOM      9  C   UNL A   1      32.567  25.390  21.921  1.00  0.00     0.001 A 
ATOM     10  C   UNL A   1      31.316  27.236  22.988  1.00  0.00    -0.003 A 
ATOM     11  C   UNL A   1      31.599  26.384  21.886  1.00  0.00     0.009 A 
BRANCH  10  12
ATOM     12  C   UNL A   1      30.122  28.092  22.763  1.00  0.00    -0.014 A 
ATOM     13  C   UNL A   1      28.832  27.757  23.194  1.00  0.00     0.009 A 
ATOM     14  C   UNL A   1      30.308  29.411  22.270  1.00  0.00     0.055 A 
ATOM     15  C   UNL A   1      27.779  28.693  23.126  1.00  0.00     0.004 A 
ATOM     16  C   UNL A   1      29.269  30.341  22.238  1.00  0.00     0.116 A 
ATOM     17  C   UNL A   1      27.998  29.993  22.661  1.00  0.00     0.046 A 
BRANCH  16  18
ATOM     18  O   UNL A   1      29.528  31.566  21.691  1.00  0.00    -0.508 OA
ATOM     19  H   UNL A   1      29.862  32.257  22.228  1.00  0.00     0.293 HD
ENDBRANCH  16  18
ENDBRANCH  10  12
ENDBRANCH   3   5
ENDBRANCH   2   3
ENDBRANCH   1   2
BRANCH   1  20
ATOM     20  C   UNL A   1      32.819  30.762  27.204  1.00  0.00     0.275 C 
BRANCH  20  21
ATOM     21  O   UNL A   1      34.242  31.007  27.331  1.00  0.00    -0.458 OA
BRANCH  21  22
ATOM     22  C   UNL A   1      34.913  31.226  28.478  1.00  0.00     0.338 C 
ATOM     23  O   UNL A   1      34.475  31.946  29.373  1.00  0.00    -0.246 OA
BRANCH  22  24
ATOM     24  C   UNL A   1      36.206  30.553  28.610  1.00  0.00     0.060 A 
ATOM     25  C   UNL A   1      36.436  29.818  29.777  1.00  0.00     0.016 A 
ATOM     26  C   UNL A   1      37.117  30.555  27.559  1.00  0.00     0.016 A 
ATOM     27  C   UNL A   1      37.536  28.992  29.888  1.00  0.00     0.010 A 
ATOM     28  C   UNL A   1      38.181  29.692  27.626  1.00  0.00     0.010 A 
ATOM     29  C   UNL A   1      38.396  28.950  28.801  1.00  0.00    -0.014 A 
BRANCH  29  30
ATOM     30  C   UNL A   1      39.747  28.461  28.942  1.00  0.00     0.031 A 
ATOM     31  C   UNL A   1      40.082  27.079  28.566  1.00  0.00     0.074 A 
ATOM     32  C   UNL A   1      40.565  29.486  29.275  1.00  0.00     0.049 A 
ATOM     33  N   UNL A   1      41.095  26.437  29.027  1.00  0.00    -0.248 NA
ATOM     34  C   UNL A   1      39.253  26.241  27.689  1.00  0.00     0.031 C 
ATOM     35  C   UNL A   1      41.997  29.644  29.159  1.00  0.00     0.029 A 
ATOM     36  N   UNL A   1      40.166  30.665  29.937  1.00  0.00    -0.354 N 
ATOM     37  C   UNL A   1      41.285  25.355  28.189  1.00  0.00     0.074 A 
ATOM     38  C   UNL A   1      40.019  25.153  27.535  1.00  0.00     0.031 C 
ATOM     39  C   UNL A   1      42.385  30.642  29.980  1.00  0.00     0.029 A 
ATOM     40  C   UNL A   1      41.221  31.063  30.753  1.00  0.00     0.049 A 
ATOM     41  H   UNL A   1      39.299  31.123  29.842  1.00  0.00     0.167 HD
ATOM     42  C   UNL A   1      42.562  24.941  27.950  1.00  0.00     0.031 A 
ATOM     43  C   UNL A   1      41.102  31.016  32.115  1.00  0.00     0.031 A 
ATOM     44  C   UNL A   1      43.485  25.743  28.752  1.00  0.00     0.049 A 
ATOM     45  C   UNL A   1      41.958  29.884  32.643  1.00  0.00     0.074 A 
ATOM     46  C   UNL A   1      44.206  26.883  28.437  1.00  0.00     0.029 A 
ATOM     47  N   UNL A   1      43.403  25.690  30.136  1.00  0.00    -0.354 N 
ATOM     48  N   UNL A   1      42.279  28.822  31.952  1.00  0.00    -0.248 NA
ATOM     49  C   UNL A   1      42.546  29.895  33.975  1.00  0.00     0.031 C 
ATOM     50  C   UNL A   1      44.458  27.578  29.651  1.00  0.00     0.029 A 
ATOM     51  C   UNL A   1      43.894  26.858  30.691  1.00  0.00     0.049 A 
ATOM     52  H   UNL A   1      43.047  24.929  30.650  1.00  0.00     0.167 HD
ATOM     53  C   UNL A   1      43.207  28.102  32.650  1.00  0.00     0.074 A 
ATOM     54  C   UNL A   1      43.307  28.790  33.928  1.00  0.00     0.031 C 
ATOM     55  C   UNL A   1      43.880  27.032  32.134  1.00  0.00     0.031 A 
BRANCH  42  56
ATOM     56  C   UNL A   1      43.028  24.106  26.777  1.00  0.00    -0.014 A 
ATOM     57  C   UNL A   1      42.852  22.706  26.836  1.00  0.00     0.009 A 
ATOM     58  C   UNL A   1      43.671  24.590  25.626  1.00  0.00     0.009 A 
ATOM     59  C   UNL A   1      43.329  21.840  25.844  1.00  0.00     0.001 A 
ATOM     60  C   UNL A   1      44.158  23.727  24.626  1.00  0.00     0.001 A 
ATOM     61  C   UNL A   1      43.992  22.352  24.739  1.00  0.00     0.000 A 
ENDBRANCH  42  56
BRANCH  43  62
ATOM     62  C   UNL A   1      39.731  31.333  32.623  1.00  0.00    -0.014 A 
ATOM     63  C   UNL A   1      38.962  30.295  33.201  1.00  0.00     0.009 A 
ATOM     64  C   UNL A   1      39.402  32.652  32.935  1.00  0.00     0.009 A 
ATOM     65  C   UNL A   1      38.002  30.564  34.187  1.00  0.00     0.001 A 
ATOM     66  C   UNL A   1      38.460  32.898  33.931  1.00  0.00     0.001 A 
ATOM     67  C   UNL A   1      37.782  31.871  34.585  1.00  0.00     0.000 A 
ENDBRANCH  43  62
BRANCH  55  68
ATOM     68  C   UNL A   1      44.702  26.077  32.949  1.00  0.00    -0.014 A 
ATOM     69  C   UNL A   1      44.155  25.194  33.886  1.00  0.00     0.009 A 
ATOM     70  C   UNL A   1      46.078  25.941  32.661  1.00  0.00     0.009 A 
ATOM     71  C   UNL A   1      44.962  24.278  34.565  1.00  0.00     0.001 A 
ATOM     72  C   UNL A   1      46.870  24.980  33.282  1.00  0.00     0.001 A 
ATOM     73  C   UNL A   1      46.314  24.165  34.256  1.00  0.00     0.000 A 
ENDBRANCH  55  68
ENDBRANCH  29  30
ENDBRANCH  22  24
ENDBRANCH  21  22
ENDBRANCH  20  21
ENDBRANCH   1  20
TORSDOF 13
ENDMDL
