MODEL 1
REMARK VINA RESULT:     -11.4      0.000      0.000
REMARK SMILES O=C(OCCOC(=O)c1csc(C[NH2+][C@H]2CCSc3ccc(F)cc32)c1)c1ccc(-c2c3nc(c(-c4ccccc4)c4ccc([nH]4)c(-c4ccccc4)c4nc(c(-c5ccccc5)c5ccc2[nH]5)C=C4)C=C3)cc1
REMARK SMILES IDX 5 1 4 2 3 3 2 4 1 5 27 6 28 7 74 8 29 9 73 10 30 11 31 12
REMARK SMILES IDX 32 13 67 14 33 15 72 16 66 17 68 18 34 19 71 20 65 21 64 22
REMARK SMILES IDX 35 24 57 25 42 26 56 27 43 28 46 29 55 30 69 31 44 32 45 33
REMARK SMILES IDX 54 35 70 36 47 37 36 38 37 39 41 40 38 41 40 42 39 43 58 44
REMARK SMILES IDX 59 45 63 46 60 47 62 48 61 49 48 50 49 51 53 52 50 53 52 54
REMARK SMILES IDX 51 55 6 56 7 57 8 58 9 59 10 60 26 61 11 62 12 63 13 64
REMARK SMILES IDX 14 65 15 68 16 69 25 70 17 71 19 72 24 73 18 74 20 75 22 76
REMARK SMILES IDX 21 77 23 78
REMARK H PARENT 68 23 46 34 14 66 14 67
REMARK Flexibility Score: inf
ROOT
ATOM      1  C   UNL A   1      43.559  19.950  25.663  1.00  0.00     0.275 C 
ENDROOT
BRANCH   1   2
ATOM      2  C   UNL A   1      44.164  21.182  24.976  1.00  0.00     0.275 C 
BRANCH   2   3
ATOM      3  O   UNL A   1      43.279  22.307  24.847  1.00  0.00    -0.458 OA
BRANCH   3   4
ATOM      4  C   UNL A   1      43.635  23.614  24.930  1.00  0.00     0.338 C 
ATOM      5  O   UNL A   1      44.593  24.043  24.295  1.00  0.00    -0.246 OA
BRANCH   4   6
ATOM      6  C   UNL A   1      43.061  24.459  26.013  1.00  0.00     0.060 A 
ATOM      7  C   UNL A   1      43.498  25.787  26.049  1.00  0.00     0.016 A 
ATOM      8  C   UNL A   1      42.144  24.030  26.976  1.00  0.00     0.016 A 
ATOM      9  C   UNL A   1      43.143  26.617  27.111  1.00  0.00     0.010 A 
ATOM     10  C   UNL A   1      41.785  24.861  28.044  1.00  0.00     0.010 A 
ATOM     11  C   UNL A   1      42.310  26.152  28.136  1.00  0.00    -0.014 A 
BRANCH  11  12
ATOM     12  C   UNL A   1      41.841  27.106  29.165  1.00  0.00     0.031 A 
ATOM     13  C   UNL A   1      40.600  27.926  29.004  1.00  0.00     0.074 A 
ATOM     14  C   UNL A   1      42.567  27.176  30.294  1.00  0.00     0.049 A 
ATOM     15  N   UNL A   1      39.949  28.609  29.911  1.00  0.00    -0.248 NA
ATOM     16  C   UNL A   1      40.012  28.000  27.660  1.00  0.00     0.031 C 
ATOM     17  C   UNL A   1      43.804  26.427  30.523  1.00  0.00     0.029 A 
ATOM     18  N   UNL A   1      42.360  27.858  31.462  1.00  0.00    -0.354 N 
ATOM     19  C   UNL A   1      38.853  29.160  29.261  1.00  0.00     0.074 A 
ATOM     20  C   UNL A   1      38.943  28.760  27.872  1.00  0.00     0.031 C 
ATOM     21  C   UNL A   1      44.211  26.637  31.779  1.00  0.00     0.029 A 
ATOM     22  C   UNL A   1      43.282  27.553  32.435  1.00  0.00     0.049 A 
ATOM     23  H   UNL A   1      41.627  28.502  31.593  1.00  0.00     0.167 HD
ATOM     24  C   UNL A   1      37.874  29.939  29.782  1.00  0.00     0.031 A 
ATOM     25  C   UNL A   1      43.353  27.928  33.725  1.00  0.00     0.031 A 
ATOM     26  C   UNL A   1      37.867  30.412  31.145  1.00  0.00     0.049 A 
ATOM     27  C   UNL A   1      42.268  28.808  34.268  1.00  0.00     0.074 A 
ATOM     28  C   UNL A   1      36.941  31.230  31.769  1.00  0.00     0.029 A 
ATOM     29  N   UNL A   1      38.853  30.140  32.084  1.00  0.00    -0.354 N 
ATOM     30  N   UNL A   1      41.189  29.250  33.666  1.00  0.00    -0.248 NA
ATOM     31  C   UNL A   1      42.407  29.242  35.662  1.00  0.00     0.031 C 
ATOM     32  C   UNL A   1      37.415  31.530  33.050  1.00  0.00     0.029 A 
ATOM     33  C   UNL A   1      38.592  30.828  33.260  1.00  0.00     0.049 A 
ATOM     34  H   UNL A   1      39.623  29.545  31.938  1.00  0.00     0.167 HD
ATOM     35  C   UNL A   1      40.534  30.041  34.598  1.00  0.00     0.074 A 
ATOM     36  C   UNL A   1      41.304  29.960  35.824  1.00  0.00     0.031 C 
ATOM     37  C   UNL A   1      39.411  30.787  34.446  1.00  0.00     0.031 A 
BRANCH  24  38
ATOM     38  C   UNL A   1      36.749  30.374  28.878  1.00  0.00    -0.014 A 
ATOM     39  C   UNL A   1      36.591  31.733  28.558  1.00  0.00     0.009 A 
ATOM     40  C   UNL A   1      35.782  29.459  28.431  1.00  0.00     0.009 A 
ATOM     41  C   UNL A   1      35.482  32.169  27.828  1.00  0.00     0.001 A 
ATOM     42  C   UNL A   1      34.686  29.895  27.681  1.00  0.00     0.001 A 
ATOM     43  C   UNL A   1      34.532  31.250  27.389  1.00  0.00     0.000 A 
ENDBRANCH  24  38
BRANCH  25  44
ATOM     44  C   UNL A   1      44.454  27.389  34.572  1.00  0.00    -0.014 A 
ATOM     45  C   UNL A   1      45.714  28.014  34.591  1.00  0.00     0.009 A 
ATOM     46  C   UNL A   1      44.302  26.165  35.240  1.00  0.00     0.009 A 
ATOM     47  C   UNL A   1      46.811  27.385  35.184  1.00  0.00     0.001 A 
ATOM     48  C   UNL A   1      45.393  25.555  35.864  1.00  0.00     0.001 A 
ATOM     49  C   UNL A   1      46.651  26.154  35.816  1.00  0.00     0.000 A 
ENDBRANCH  25  44
BRANCH  37  50
ATOM     50  C   UNL A   1      39.009  31.648  35.612  1.00  0.00    -0.014 A 
ATOM     51  C   UNL A   1      38.149  31.153  36.603  1.00  0.00     0.009 A 
ATOM     52  C   UNL A   1      39.449  32.979  35.698  1.00  0.00     0.009 A 
ATOM     53  C   UNL A   1      37.739  31.971  37.657  1.00  0.00     0.001 A 
ATOM     54  C   UNL A   1      39.067  33.785  36.772  1.00  0.00     0.001 A 
ATOM     55  C   UNL A   1      38.207  33.282  37.746  1.00  0.00     0.000 A 
ENDBRANCH  37  50
ENDBRANCH  11  12
ENDBRANCH   4   6
ENDBRANCH   3   4
ENDBRANCH   2   3
ENDBRANCH   1   2
BRANCH   1  56
ATOM     56  O   UNL A   1      42.147  19.785  25.468  1.00  0.00    -0.458 OA
BRANCH  56  57
ATOM     57  C   UNL A   1      41.363  20.265  26.489  1.00  0.00     0.339 C 
ATOM     58  O   UNL A   1      41.769  20.545  27.599  1.00  0.00    -0.246 OA
BRANCH  57  59
ATOM     59  C   UNL A   1      39.988  20.504  26.056  1.00  0.00     0.071 A 
ATOM     60  C   UNL A   1      39.191  19.576  25.419  1.00  0.00     0.081 A 
ATOM     61  C   UNL A   1      39.283  21.746  26.221  1.00  0.00     0.037 A 
ATOM     62  S   UNL A   1      37.666  20.211  24.966  1.00  0.00    -0.142 S 
ATOM     63  C   UNL A   1      38.051  21.761  25.589  1.00  0.00     0.060 A 
BRANCH  63  64
ATOM     64  C   UNL A   1      37.085  22.909  25.451  1.00  0.00     0.308 C 
BRANCH  64  65
ATOM     65  N   UNL A   1      36.085  22.920  26.528  1.00  0.00    -0.336 N 
ATOM     66  H   UNL A   1      36.424  23.530  27.272  1.00  0.00     0.347 HD
ATOM     67  H   UNL A   1      35.969  21.952  26.828  1.00  0.00     0.347 HD
BRANCH  65  68
ATOM     68  C   UNL A   1      34.743  23.398  26.113  1.00  0.00     0.215 C 
ATOM     69  C   UNL A   1      34.840  24.711  25.311  1.00  0.00     0.081 C 
ATOM     70  C   UNL A   1      33.971  22.282  25.402  1.00  0.00     0.026 A 
ATOM     71  C   UNL A   1      33.529  25.102  24.661  1.00  0.00     0.081 C 
ATOM     72  C   UNL A   1      33.326  22.438  24.155  1.00  0.00     0.017 A 
ATOM     73  C   UNL A   1      33.829  21.043  26.056  1.00  0.00     0.050 A 
ATOM     74  S   UNL A   1      33.233  23.985  23.275  1.00  0.00    -0.125 SA
ATOM     75  C   UNL A   1      32.657  21.357  23.553  1.00  0.00     0.018 A 
ATOM     76  C   UNL A   1      33.115  20.007  25.464  1.00  0.00     0.123 A 
ATOM     77  C   UNL A   1      32.552  20.137  24.208  1.00  0.00     0.040 A 
ATOM     78  F   UNL A   1      32.940  18.869  26.136  1.00  0.00    -0.207 F 
ENDBRANCH  65  68
ENDBRANCH  64  65
ENDBRANCH  63  64
ENDBRANCH  57  59
ENDBRANCH  56  57
ENDBRANCH   1  56
TORSDOF 14
ENDMDL
MODEL 2
REMARK VINA RESULT:     -11.3      5.344      9.957
REMARK SMILES O=C(OCCOC(=O)c1csc(C[NH2+][C@H]2CCSc3ccc(F)cc32)c1)c1ccc(-c2c3nc(c(-c4ccccc4)c4ccc([nH]4)c(-c4ccccc4)c4nc(c(-c5ccccc5)c5ccc2[nH]5)C=C4)C=C3)cc1
REMARK SMILES IDX 5 1 4 2 3 3 2 4 1 5 27 6 28 7 74 8 29 9 73 10 30 11 31 12
REMARK SMILES IDX 32 13 67 14 33 15 72 16 66 17 68 18 34 19 71 20 65 21 64 22
REMARK SMILES IDX 35 24 57 25 42 26 56 27 43 28 46 29 55 30 69 31 44 32 45 33
REMARK SMILES IDX 54 35 70 36 47 37 36 38 37 39 41 40 38 41 40 42 39 43 58 44
REMARK SMILES IDX 59 45 63 46 60 47 62 48 61 49 48 50 49 51 53 52 50 53 52 54
REMARK SMILES IDX 51 55 6 56 7 57 8 58 9 59 10 60 26 61 11 62 12 63 13 64
REMARK SMILES IDX 14 65 15 68 16 69 25 70 17 71 19 72 24 73 18 74 20 75 22 76
REMARK SMILES IDX 21 77 23 78
REMARK H PARENT 68 23 46 34 14 66 14 67
REMARK Flexibility Score: inf
ROOT
ATOM      1  C   UNL A   1      33.685  35.461  28.740  1.00  0.00     0.275 C 
ENDROOT
BRANCH   1   2
ATOM      2  C   UNL A   1      32.531  36.308  29.296  1.00  0.00     0.275 C 
BRANCH   2   3
ATOM      3  O   UNL A   1      32.713  36.787  30.638  1.00  0.00    -0.458 OA
BRANCH   3   4
ATOM      4  C   UNL A   1      32.494  36.077  31.774  1.00  0.00     0.338 C 
ATOM      5  O   UNL A   1      31.562  36.361  32.519  1.00  0.00    -0.246 OA
BRANCH   4   6
ATOM      6  C   UNL A   1      33.552  35.156  32.274  1.00  0.00     0.060 A 
ATOM      7  C   UNL A   1      34.870  35.597  32.118  1.00  0.00     0.016 A 
ATOM      8  C   UNL A   1      33.329  33.911  32.868  1.00  0.00     0.016 A 
ATOM      9  C   UNL A   1      35.937  34.748  32.409  1.00  0.00     0.010 A 
ATOM     10  C   UNL A   1      34.398  33.057  33.162  1.00  0.00     0.010 A 
ATOM     11  C   UNL A   1      35.710  33.458  32.903  1.00  0.00    -0.014 A 
BRANCH  11  12
ATOM     12  C   UNL A   1      36.868  32.644  33.335  1.00  0.00     0.031 A 
ATOM     13  C   UNL A   1      37.486  31.592  32.469  1.00  0.00     0.074 A 
ATOM     14  C   UNL A   1      37.379  32.923  34.546  1.00  0.00     0.049 A 
ATOM     15  N   UNL A   1      38.634  30.982  32.619  1.00  0.00    -0.248 NA
ATOM     16  C   UNL A   1      36.726  31.160  31.289  1.00  0.00     0.031 C 
ATOM     17  C   UNL A   1      36.823  33.917  35.464  1.00  0.00     0.029 A 
ATOM     18  N   UNL A   1      38.488  32.446  35.191  1.00  0.00    -0.354 N 
ATOM     19  C   UNL A   1      38.757  30.126  31.532  1.00  0.00     0.074 A 
ATOM     20  C   UNL A   1      37.548  30.268  30.747  1.00  0.00     0.031 C 
ATOM     21  C   UNL A   1      37.628  34.026  36.525  1.00  0.00     0.029 A 
ATOM     22  C   UNL A   1      38.741  33.093  36.377  1.00  0.00     0.049 A 
ATOM     23  H   UNL A   1      39.046  31.713  34.844  1.00  0.00     0.167 HD
ATOM     24  C   UNL A   1      39.782  29.290  31.236  1.00  0.00     0.031 A 
ATOM     25  C   UNL A   1      39.775  32.986  37.231  1.00  0.00     0.031 A 
ATOM     26  C   UNL A   1      40.924  29.087  32.093  1.00  0.00     0.049 A 
ATOM     27  C   UNL A   1      40.883  32.038  36.887  1.00  0.00     0.074 A 
ATOM     28  C   UNL A   1      42.005  28.243  31.904  1.00  0.00     0.029 A 
ATOM     29  N   UNL A   1      41.116  29.710  33.319  1.00  0.00    -0.354 N 
ATOM     30  N   UNL A   1      41.030  31.299  35.813  1.00  0.00    -0.248 NA
ATOM     31  C   UNL A   1      41.966  31.907  37.868  1.00  0.00     0.031 C 
ATOM     32  C   UNL A   1      42.797  28.283  33.056  1.00  0.00     0.029 A 
ATOM     33  C   UNL A   1      42.261  29.218  33.928  1.00  0.00     0.049 A 
ATOM     34  H   UNL A   1      40.526  30.399  33.701  1.00  0.00     0.167 HD
ATOM     35  C   UNL A   1      42.207  30.589  36.001  1.00  0.00     0.074 A 
ATOM     36  C   UNL A   1      42.766  31.040  37.261  1.00  0.00     0.031 C 
ATOM     37  C   UNL A   1      42.761  29.632  35.216  1.00  0.00     0.031 A 
BRANCH  24  38
ATOM     38  C   UNL A   1      39.707  28.492  29.959  1.00  0.00    -0.014 A 
ATOM     39  C   UNL A   1      39.252  27.163  29.987  1.00  0.00     0.009 A 
ATOM     40  C   UNL A   1      40.187  29.015  28.748  1.00  0.00     0.009 A 
ATOM     41  C   UNL A   1      39.297  26.369  28.838  1.00  0.00     0.001 A 
ATOM     42  C   UNL A   1      40.210  28.225  27.594  1.00  0.00     0.001 A 
ATOM     43  C   UNL A   1      39.774  26.901  27.643  1.00  0.00     0.000 A 
ENDBRANCH  24  38
BRANCH  25  44
ATOM     44  C   UNL A   1      39.812  33.869  38.431  1.00  0.00    -0.014 A 
ATOM     45  C   UNL A   1      39.179  33.481  39.625  1.00  0.00     0.009 A 
ATOM     46  C   UNL A   1      40.340  35.166  38.343  1.00  0.00     0.009 A 
ATOM     47  C   UNL A   1      39.001  34.396  40.666  1.00  0.00     0.001 A 
ATOM     48  C   UNL A   1      40.192  36.068  39.399  1.00  0.00     0.001 A 
ATOM     49  C   UNL A   1      39.503  35.690  40.550  1.00  0.00     0.000 A 
ENDBRANCH  25  44
BRANCH  37  50
ATOM     50  C   UNL A   1      43.988  28.945  35.751  1.00  0.00    -0.014 A 
ATOM     51  C   UNL A   1      45.269  29.423  35.437  1.00  0.00     0.009 A 
ATOM     52  C   UNL A   1      43.869  27.784  36.531  1.00  0.00     0.009 A 
ATOM     53  C   UNL A   1      46.405  28.754  35.895  1.00  0.00     0.001 A 
ATOM     54  C   UNL A   1      45.006  27.137  37.018  1.00  0.00     0.001 A 
ATOM     55  C   UNL A   1      46.273  27.618  36.694  1.00  0.00     0.000 A 
ENDBRANCH  37  50
ENDBRANCH  11  12
ENDBRANCH   4   6
ENDBRANCH   3   4
ENDBRANCH   2   3
ENDBRANCH   1   2
BRANCH   1  56
ATOM     56  O   UNL A   1      33.505  34.044  28.865  1.00  0.00    -0.458 OA
BRANCH  56  57
ATOM     57  C   UNL A   1      34.640  33.297  28.665  1.00  0.00     0.339 C 
ATOM     58  O   UNL A   1      35.758  33.636  28.999  1.00  0.00    -0.246 OA
BRANCH  57  59
ATOM     59  C   UNL A   1      34.339  31.986  28.094  1.00  0.00     0.071 A 
ATOM     60  C   UNL A   1      35.243  30.950  27.982  1.00  0.00     0.081 A 
ATOM     61  C   UNL A   1      33.062  31.601  27.557  1.00  0.00     0.037 A 
ATOM     62  S   UNL A   1      34.590  29.584  27.183  1.00  0.00    -0.142 S 
ATOM     63  C   UNL A   1      33.082  30.362  26.940  1.00  0.00     0.060 A 
BRANCH  63  64
ATOM     64  C   UNL A   1      31.977  29.680  26.177  1.00  0.00     0.308 C 
BRANCH  64  65
ATOM     65  N   UNL A   1      31.954  30.080  24.763  1.00  0.00    -0.336 N 
ATOM     66  H   UNL A   1      32.858  30.493  24.533  1.00  0.00     0.347 HD
ATOM     67  H   UNL A   1      31.179  30.736  24.658  1.00  0.00     0.347 HD
BRANCH  65  68
ATOM     68  C   UNL A   1      31.698  28.967  23.815  1.00  0.00     0.215 C 
ATOM     69  C   UNL A   1      32.430  27.683  24.251  1.00  0.00     0.081 C 
ATOM     70  C   UNL A   1      30.194  28.788  23.590  1.00  0.00     0.026 A 
ATOM     71  C   UNL A   1      32.004  26.464  23.457  1.00  0.00     0.081 C 
ATOM     72  C   UNL A   1      29.522  27.550  23.687  1.00  0.00     0.017 A 
ATOM     73  C   UNL A   1      29.438  29.907  23.189  1.00  0.00     0.050 A 
ATOM     74  S   UNL A   1      30.345  25.998  23.990  1.00  0.00    -0.125 SA
ATOM     75  C   UNL A   1      28.131  27.470  23.490  1.00  0.00     0.018 A 
ATOM     76  C   UNL A   1      28.073  29.791  22.946  1.00  0.00     0.123 A 
ATOM     77  C   UNL A   1      27.404  28.594  23.120  1.00  0.00     0.040 A 
ATOM     78  F   UNL A   1      27.398  30.851  22.504  1.00  0.00    -0.207 F 
ENDBRANCH  65  68
ENDBRANCH  64  65
ENDBRANCH  63  64
ENDBRANCH  57  59
ENDBRANCH  56  57
ENDBRANCH   1  56
TORSDOF 14
ENDMDL
MODEL 3
REMARK VINA RESULT:     -11.0      1.288      1.950
REMARK SMILES O=C(OCCOC(=O)c1csc(C[NH2+][C@H]2CCSc3ccc(F)cc32)c1)c1ccc(-c2c3nc(c(-c4ccccc4)c4ccc([nH]4)c(-c4ccccc4)c4nc(c(-c5ccccc5)c5ccc2[nH]5)C=C4)C=C3)cc1
REMARK SMILES IDX 5 1 4 2 3 3 2 4 1 5 27 6 28 7 74 8 29 9 73 10 30 11 31 12
REMARK SMILES IDX 32 13 67 14 33 15 72 16 66 17 68 18 34 19 71 20 65 21 64 22
REMARK SMILES IDX 35 24 57 25 42 26 56 27 43 28 46 29 55 30 69 31 44 32 45 33
REMARK SMILES IDX 54 35 70 36 47 37 36 38 37 39 41 40 38 41 40 42 39 43 58 44
REMARK SMILES IDX 59 45 63 46 60 47 62 48 61 49 48 50 49 51 53 52 50 53 52 54
REMARK SMILES IDX 51 55 6 56 7 57 8 58 9 59 10 60 26 61 11 62 12 63 13 64
REMARK SMILES IDX 14 65 15 68 16 69 25 70 17 71 19 72 24 73 18 74 20 75 22 76
REMARK SMILES IDX 21 77 23 78
REMARK H PARENT 68 23 46 34 14 66 14 67
REMARK Flexibility Score: inf
ROOT
ATOM      1  C   UNL A   1      43.437  20.092  26.003  1.00  0.00     0.275 C 
ENDROOT
BRANCH   1   2
ATOM      2  C   UNL A   1      44.131  21.261  25.290  1.00  0.00     0.275 C 
BRANCH   2   3
ATOM      3  O   UNL A   1      43.268  22.342  24.902  1.00  0.00    -0.458 OA
BRANCH   3   4
ATOM      4  C   UNL A   1      43.580  23.662  24.933  1.00  0.00     0.338 C 
ATOM      5  O   UNL A   1      44.487  24.107  24.237  1.00  0.00    -0.246 OA
BRANCH   4   6
ATOM      6  C   UNL A   1      43.033  24.515  26.024  1.00  0.00     0.060 A 
ATOM      7  C   UNL A   1      43.488  25.838  26.051  1.00  0.00     0.016 A 
ATOM      8  C   UNL A   1      42.124  24.099  27.000  1.00  0.00     0.016 A 
ATOM      9  C   UNL A   1      43.160  26.674  27.118  1.00  0.00     0.010 A 
ATOM     10  C   UNL A   1      41.793  24.937  28.072  1.00  0.00     0.010 A 
ATOM     11  C   UNL A   1      42.335  26.221  28.155  1.00  0.00    -0.014 A 
BRANCH  11  12
ATOM     12  C   UNL A   1      41.895  27.181  29.190  1.00  0.00     0.031 A 
ATOM     13  C   UNL A   1      40.664  28.020  29.045  1.00  0.00     0.074 A 
ATOM     14  C   UNL A   1      42.636  27.241  30.309  1.00  0.00     0.049 A 
ATOM     15  N   UNL A   1      40.035  28.713  29.959  1.00  0.00    -0.248 NA
ATOM     16  C   UNL A   1      40.060  28.102  27.709  1.00  0.00     0.031 C 
ATOM     17  C   UNL A   1      43.865  26.474  30.522  1.00  0.00     0.029 A 
ATOM     18  N   UNL A   1      42.455  27.926  31.480  1.00  0.00    -0.354 N 
ATOM     19  C   UNL A   1      38.939  29.280  29.323  1.00  0.00     0.074 A 
ATOM     20  C   UNL A   1      39.005  28.878  27.933  1.00  0.00     0.031 C 
ATOM     21  C   UNL A   1      44.291  26.679  31.772  1.00  0.00     0.029 A 
ATOM     22  C   UNL A   1      43.385  27.608  32.440  1.00  0.00     0.049 A 
ATOM     23  H   UNL A   1      41.733  28.582  31.620  1.00  0.00     0.167 HD
ATOM     24  C   UNL A   1      37.979  30.074  29.857  1.00  0.00     0.031 A 
ATOM     25  C   UNL A   1      43.478  27.983  33.729  1.00  0.00     0.031 A 
ATOM     26  C   UNL A   1      37.996  30.547  31.220  1.00  0.00     0.049 A 
ATOM     27  C   UNL A   1      42.414  28.879  34.285  1.00  0.00     0.074 A 
ATOM     28  C   UNL A   1      37.091  31.379  31.855  1.00  0.00     0.029 A 
ATOM     29  N   UNL A   1      38.990  30.261  32.146  1.00  0.00    -0.354 N 
ATOM     30  N   UNL A   1      41.333  29.336  33.698  1.00  0.00    -0.248 NA
ATOM     31  C   UNL A   1      42.578  29.311  35.677  1.00  0.00     0.031 C 
ATOM     32  C   UNL A   1      37.586  31.672  33.130  1.00  0.00     0.029 A 
ATOM     33  C   UNL A   1      38.755  30.953  33.325  1.00  0.00     0.049 A 
ATOM     34  H   UNL A   1      39.750  29.655  31.990  1.00  0.00     0.167 HD
ATOM     35  C   UNL A   1      40.702  30.137  34.638  1.00  0.00     0.074 A 
ATOM     36  C   UNL A   1      41.487  30.045  35.854  1.00  0.00     0.031 C 
ATOM     37  C   UNL A   1      39.589  30.900  34.500  1.00  0.00     0.031 A 
BRANCH  24  38
ATOM     38  C   UNL A   1      36.848  30.525  28.968  1.00  0.00    -0.014 A 
ATOM     39  C   UNL A   1      36.732  31.879  28.612  1.00  0.00     0.009 A 
ATOM     40  C   UNL A   1      35.838  29.635  28.571  1.00  0.00     0.009 A 
ATOM     41  C   UNL A   1      35.623  32.336  27.897  1.00  0.00     0.001 A 
ATOM     42  C   UNL A   1      34.740  30.091  27.834  1.00  0.00     0.001 A 
ATOM     43  C   UNL A   1      34.629  31.442  27.507  1.00  0.00     0.000 A 
ENDBRANCH  24  38
BRANCH  25  44
ATOM     44  C   UNL A   1      44.583  27.428  34.561  1.00  0.00    -0.014 A 
ATOM     45  C   UNL A   1      44.451  26.172  35.179  1.00  0.00     0.009 A 
ATOM     46  C   UNL A   1      45.704  28.213  34.870  1.00  0.00     0.009 A 
ATOM     47  C   UNL A   1      45.369  25.755  36.147  1.00  0.00     0.001 A 
ATOM     48  C   UNL A   1      46.639  27.778  35.812  1.00  0.00     0.001 A 
ATOM     49  C   UNL A   1      46.459  26.561  36.466  1.00  0.00     0.000 A 
ENDBRANCH  25  44
BRANCH  37  50
ATOM     50  C   UNL A   1      39.215  31.768  35.671  1.00  0.00    -0.014 A 
ATOM     51  C   UNL A   1      38.221  31.360  36.573  1.00  0.00     0.009 A 
ATOM     52  C   UNL A   1      39.821  33.022  35.848  1.00  0.00     0.009 A 
ATOM     53  C   UNL A   1      37.843  32.190  37.630  1.00  0.00     0.001 A 
ATOM     54  C   UNL A   1      39.466  33.835  36.926  1.00  0.00     0.001 A 
ATOM     55  C   UNL A   1      38.473  33.422  37.811  1.00  0.00     0.000 A 
ENDBRANCH  37  50
ENDBRANCH  11  12
ENDBRANCH   4   6
ENDBRANCH   3   4
ENDBRANCH   2   3
ENDBRANCH   1   2
BRANCH   1  56
ATOM     56  O   UNL A   1      42.045  19.939  25.691  1.00  0.00    -0.458 OA
BRANCH  56  57
ATOM     57  C   UNL A   1      41.183  20.391  26.660  1.00  0.00     0.339 C 
ATOM     58  O   UNL A   1      41.495  20.616  27.812  1.00  0.00    -0.246 OA
BRANCH  57  59
ATOM     59  C   UNL A   1      39.855  20.676  26.121  1.00  0.00     0.071 A 
ATOM     60  C   UNL A   1      39.060  19.761  25.463  1.00  0.00     0.081 A 
ATOM     61  C   UNL A   1      39.201  21.955  26.189  1.00  0.00     0.037 A 
ATOM     62  S   UNL A   1      37.604  20.447  24.879  1.00  0.00    -0.142 S 
ATOM     63  C   UNL A   1      38.019  22.001  25.471  1.00  0.00     0.060 A 
BRANCH  63  64
ATOM     64  C   UNL A   1      37.122  23.185  25.222  1.00  0.00     0.308 C 
BRANCH  64  65
ATOM     65  N   UNL A   1      35.866  23.096  25.981  1.00  0.00    -0.336 N 
ATOM     66  H   UNL A   1      35.812  23.901  26.604  1.00  0.00     0.347 HD
ATOM     67  H   UNL A   1      35.891  22.206  26.481  1.00  0.00     0.347 HD
BRANCH  65  68
ATOM     68  C   UNL A   1      34.643  23.075  25.141  1.00  0.00     0.215 C 
ATOM     69  C   UNL A   1      34.018  21.667  25.099  1.00  0.00     0.081 C 
ATOM     70  C   UNL A   1      33.676  24.181  25.574  1.00  0.00     0.026 A 
ATOM     71  C   UNL A   1      32.644  21.652  24.462  1.00  0.00     0.081 C 
ATOM     72  C   UNL A   1      32.305  23.971  25.840  1.00  0.00     0.017 A 
ATOM     73  C   UNL A   1      34.156  25.503  25.642  1.00  0.00     0.050 A 
ATOM     74  S   UNL A   1      31.480  22.407  25.616  1.00  0.00    -0.125 SA
ATOM     75  C   UNL A   1      31.483  25.035  26.258  1.00  0.00     0.018 A 
ATOM     76  C   UNL A   1      33.310  26.546  26.005  1.00  0.00     0.123 A 
ATOM     77  C   UNL A   1      31.988  26.326  26.342  1.00  0.00     0.040 A 
ATOM     78  F   UNL A   1      33.776  27.795  25.996  1.00  0.00    -0.207 F 
ENDBRANCH  65  68
ENDBRANCH  64  65
ENDBRANCH  63  64
ENDBRANCH  57  59
ENDBRANCH  56  57
ENDBRANCH   1  56
TORSDOF 14
ENDMDL
