MODEL 1
REMARK VINA RESULT:     -11.0      0.000      0.000
REMARK SMILES O=C(CCCOc1ccc(Cl)cc1Cl)Nc1cccc(C(=O)OCCOC(=O)c2ccc(-c3c4nc(c(-c5ccccc5)c5ccc([nH]5)c(-c5ccccc5)c5nc(c(-c6ccccc6)c6ccc3[nH]6)C=C5)C=C4)cc2)c1
REMARK SMILES IDX 21 1 22 2 20 3 16 4 17 5 77 6 18 7 19 8 15 9 1 10 2 11 3 13
REMARK SMILES IDX 4 14 5 15 6 16 7 17 8 18 13 19 9 20 12 21 14 22 10 23 11 24
REMARK SMILES IDX 23 25 24 26 25 27 26 28 27 29 28 30 29 31 30 32 76 33 31 34
REMARK SMILES IDX 75 35 32 36 33 37 34 38 69 39 35 40 74 41 68 42 70 43 36 44
REMARK SMILES IDX 73 45 67 46 66 47 37 49 59 50 44 51 58 52 45 53 48 54 57 55
REMARK SMILES IDX 71 56 46 57 47 58 56 60 72 61 49 62 38 63 39 64 43 65 40 66
REMARK SMILES IDX 42 67 41 68 60 69 61 70 65 71 62 72 64 73 63 74 50 75 51 76
REMARK SMILES IDX 55 77 52 78 54 79 53 80
REMARK H PARENT 15 12 70 48 48 59
REMARK Flexibility Score: inf
ROOT
ATOM      1  C   UNL A   1      40.169  20.290  26.037  1.00  0.00     0.338 C 
ATOM      2  O   UNL A   1      39.788  19.183  25.718  1.00  0.00    -0.246 OA
ENDROOT
BRANCH   1   3
ATOM      3  C   UNL A   1      39.297  21.487  26.089  1.00  0.00     0.062 A 
ATOM      4  C   UNL A   1      37.297  22.617  25.405  1.00  0.00     0.042 A 
ATOM      5  C   UNL A   1      37.736  23.805  25.991  1.00  0.00     0.026 A 
ATOM      6  C   UNL A   1      38.104  21.484  25.385  1.00  0.00     0.041 A 
ATOM      7  C   UNL A   1      38.899  23.790  26.752  1.00  0.00     0.003 A 
ATOM      8  C   UNL A   1      39.641  22.612  26.850  1.00  0.00     0.016 A 
BRANCH   4   9
ATOM      9  N   UNL A   1      35.986  22.558  24.925  1.00  0.00    -0.326 N 
ATOM     10  O   UNL A   1      36.511  23.112  22.745  1.00  0.00    -0.275 OA
ATOM     11  C   UNL A   1      35.687  22.781  23.597  1.00  0.00     0.224 C 
ATOM     12  H   UNL A   1      35.256  22.352  25.553  1.00  0.00     0.169 HD
BRANCH  11  13
ATOM     13  C   UNL A   1      34.234  22.630  23.203  1.00  0.00     0.104 C 
BRANCH  13  14
ATOM     14  C   UNL A   1      33.319  23.853  23.262  1.00  0.00     0.051 C 
BRANCH  14  15
ATOM     15  C   UNL A   1      33.911  25.272  23.252  1.00  0.00     0.230 C 
BRANCH  15  16
ATOM     16  O   UNL A   1      34.213  25.796  24.549  1.00  0.00    -0.492 OA
BRANCH  16  17
ATOM     17  C   UNL A   1      33.498  26.900  24.924  1.00  0.00     0.137 A 
ATOM     18  C   UNL A   1      33.859  28.089  24.287  1.00  0.00     0.049 A 
ATOM     19  C   UNL A   1      32.405  26.898  25.799  1.00  0.00     0.084 A 
ATOM     20  C   UNL A   1      33.243  29.292  24.622  1.00  0.00     0.024 A 
ATOM     21  C   UNL A   1      31.753  28.098  26.106  1.00  0.00     0.045 A 
ATOM     22  Cl  UNL A   1      31.800  25.445  26.504  1.00  0.00    -0.080 Cl
ATOM     23  C   UNL A   1      32.193  29.291  25.535  1.00  0.00     0.042 A 
ATOM     24  Cl  UNL A   1      31.424  30.776  25.938  1.00  0.00    -0.084 Cl
ENDBRANCH  16  17
ENDBRANCH  15  16
ENDBRANCH  14  15
ENDBRANCH  13  14
ENDBRANCH  11  13
ENDBRANCH   4   9
ENDBRANCH   1   3
BRANCH   1  25
ATOM     25  O   UNL A   1      41.390  20.632  26.528  1.00  0.00    -0.458 OA
BRANCH  25  26
ATOM     26  C   UNL A   1      42.542  20.007  25.931  1.00  0.00     0.275 C 
BRANCH  26  27
ATOM     27  C   UNL A   1      43.552  21.059  25.473  1.00  0.00     0.275 C 
BRANCH  27  28
ATOM     28  O   UNL A   1      42.866  22.252  25.049  1.00  0.00    -0.458 OA
BRANCH  28  29
ATOM     29  C   UNL A   1      43.578  23.398  25.142  1.00  0.00     0.338 C 
ATOM     30  O   UNL A   1      44.516  23.759  24.453  1.00  0.00    -0.246 OA
BRANCH  29  31
ATOM     31  C   UNL A   1      42.968  24.266  26.157  1.00  0.00     0.060 A 
ATOM     32  C   UNL A   1      42.922  25.624  25.881  1.00  0.00     0.016 A 
ATOM     33  C   UNL A   1      42.597  23.803  27.412  1.00  0.00     0.016 A 
ATOM     34  C   UNL A   1      42.635  26.548  26.875  1.00  0.00     0.010 A 
ATOM     35  C   UNL A   1      42.166  24.725  28.378  1.00  0.00     0.010 A 
ATOM     36  C   UNL A   1      42.211  26.113  28.131  1.00  0.00    -0.014 A 
BRANCH  36  37
ATOM     37  C   UNL A   1      41.824  27.111  29.168  1.00  0.00     0.031 A 
ATOM     38  C   UNL A   1      42.650  27.268  30.417  1.00  0.00     0.074 A 
ATOM     39  C   UNL A   1      40.739  27.896  28.986  1.00  0.00     0.049 A 
ATOM     40  N   UNL A   1      42.376  27.934  31.511  1.00  0.00    -0.248 NA
ATOM     41  C   UNL A   1      43.947  26.574  30.448  1.00  0.00     0.031 C 
ATOM     42  C   UNL A   1      39.884  27.911  27.796  1.00  0.00     0.029 A 
ATOM     43  N   UNL A   1      40.170  28.841  29.806  1.00  0.00    -0.354 N 
ATOM     44  C   UNL A   1      43.434  27.690  32.378  1.00  0.00     0.074 A 
ATOM     45  C   UNL A   1      44.352  26.811  31.687  1.00  0.00     0.031 C 
ATOM     46  C   UNL A   1      38.930  28.840  27.945  1.00  0.00     0.029 A 
ATOM     47  C   UNL A   1      39.029  29.404  29.284  1.00  0.00     0.049 A 
ATOM     48  H   UNL A   1      40.543  29.090  30.682  1.00  0.00     0.167 HD
ATOM     49  C   UNL A   1      43.616  28.150  33.639  1.00  0.00     0.031 A 
ATOM     50  C   UNL A   1      38.121  30.231  29.834  1.00  0.00     0.031 A 
ATOM     51  C   UNL A   1      42.711  29.047  34.311  1.00  0.00     0.049 A 
ATOM     52  C   UNL A   1      38.303  30.660  31.260  1.00  0.00     0.074 A 
ATOM     53  C   UNL A   1      42.811  29.580  35.584  1.00  0.00     0.029 A 
ATOM     54  N   UNL A   1      41.540  29.547  33.760  1.00  0.00    -0.354 N 
ATOM     55  N   UNL A   1      39.283  30.387  32.086  1.00  0.00    -0.248 NA
ATOM     56  C   UNL A   1      37.245  31.501  31.836  1.00  0.00     0.031 C 
ATOM     57  C   UNL A   1      41.671  30.352  35.827  1.00  0.00     0.029 A 
ATOM     58  C   UNL A   1      40.896  30.359  34.679  1.00  0.00     0.049 A 
ATOM     59  H   UNL A   1      41.217  29.355  32.850  1.00  0.00     0.167 HD
ATOM     60  C   UNL A   1      38.970  31.037  33.272  1.00  0.00     0.074 A 
ATOM     61  C   UNL A   1      37.723  31.738  33.048  1.00  0.00     0.031 C 
ATOM     62  C   UNL A   1      39.653  31.049  34.442  1.00  0.00     0.031 A 
BRANCH  49  63
ATOM     63  C   UNL A   1      44.813  27.646  34.401  1.00  0.00    -0.014 A 
ATOM     64  C   UNL A   1      44.769  26.462  35.154  1.00  0.00     0.009 A 
ATOM     65  C   UNL A   1      46.022  28.357  34.328  1.00  0.00     0.009 A 
ATOM     66  C   UNL A   1      45.901  26.023  35.846  1.00  0.00     0.001 A 
ATOM     67  C   UNL A   1      47.160  27.898  34.994  1.00  0.00     0.001 A 
ATOM     68  C   UNL A   1      47.096  26.737  35.760  1.00  0.00     0.000 A 
ENDBRANCH  49  63
BRANCH  50  69
ATOM     69  C   UNL A   1      36.919  30.643  29.060  1.00  0.00    -0.014 A 
ATOM     70  C   UNL A   1      36.748  31.974  28.651  1.00  0.00     0.009 A 
ATOM     71  C   UNL A   1      35.926  29.704  28.733  1.00  0.00     0.009 A 
ATOM     72  C   UNL A   1      35.599  32.359  27.955  1.00  0.00     0.001 A 
ATOM     73  C   UNL A   1      34.798  30.083  28.003  1.00  0.00     0.001 A 
ATOM     74  C   UNL A   1      34.630  31.412  27.624  1.00  0.00     0.000 A 
ENDBRANCH  50  69
BRANCH  62  75
ATOM     75  C   UNL A   1      39.084  31.882  35.555  1.00  0.00    -0.014 A 
ATOM     76  C   UNL A   1      39.442  33.230  35.718  1.00  0.00     0.009 A 
ATOM     77  C   UNL A   1      38.153  31.314  36.438  1.00  0.00     0.009 A 
ATOM     78  C   UNL A   1      38.909  33.980  36.767  1.00  0.00     0.001 A 
ATOM     79  C   UNL A   1      37.594  32.076  37.464  1.00  0.00     0.001 A 
ATOM     80  C   UNL A   1      37.980  33.404  37.635  1.00  0.00     0.000 A 
ENDBRANCH  62  75
ENDBRANCH  36  37
ENDBRANCH  29  31
ENDBRANCH  28  29
ENDBRANCH  27  28
ENDBRANCH  26  27
ENDBRANCH  25  26
ENDBRANCH   1  25
TORSDOF 17
ENDMDL
MODEL 2
REMARK VINA RESULT:     -10.8      4.987      7.391
REMARK SMILES O=C(CCCOc1ccc(Cl)cc1Cl)Nc1cccc(C(=O)OCCOC(=O)c2ccc(-c3c4nc(c(-c5ccccc5)c5ccc([nH]5)c(-c5ccccc5)c5nc(c(-c6ccccc6)c6ccc3[nH]6)C=C5)C=C4)cc2)c1
REMARK SMILES IDX 21 1 22 2 20 3 16 4 17 5 77 6 18 7 19 8 15 9 1 10 2 11 3 13
REMARK SMILES IDX 4 14 5 15 6 16 7 17 8 18 13 19 9 20 12 21 14 22 10 23 11 24
REMARK SMILES IDX 23 25 24 26 25 27 26 28 27 29 28 30 29 31 30 32 76 33 31 34
REMARK SMILES IDX 75 35 32 36 33 37 34 38 69 39 35 40 74 41 68 42 70 43 36 44
REMARK SMILES IDX 73 45 67 46 66 47 37 49 59 50 44 51 58 52 45 53 48 54 57 55
REMARK SMILES IDX 71 56 46 57 47 58 56 60 72 61 49 62 38 63 39 64 43 65 40 66
REMARK SMILES IDX 42 67 41 68 60 69 61 70 65 71 62 72 64 73 63 74 50 75 51 76
REMARK SMILES IDX 55 77 52 78 54 79 53 80
REMARK H PARENT 15 12 70 48 48 59
REMARK Flexibility Score: inf
ROOT
ATOM      1  C   UNL A   1      40.109  20.074  25.803  1.00  0.00     0.338 C 
ATOM      2  O   UNL A   1      39.444  19.105  25.502  1.00  0.00    -0.246 OA
ENDROOT
BRANCH   1   3
ATOM      3  C   UNL A   1      39.541  21.406  26.122  1.00  0.00     0.062 A 
ATOM      4  C   UNL A   1      37.833  23.055  25.795  1.00  0.00     0.042 A 
ATOM      5  C   UNL A   1      38.558  23.991  26.534  1.00  0.00     0.026 A 
ATOM      6  C   UNL A   1      38.353  21.794  25.524  1.00  0.00     0.041 A 
ATOM      7  C   UNL A   1      39.715  23.583  27.187  1.00  0.00     0.003 A 
ATOM      8  C   UNL A   1      40.166  22.271  27.029  1.00  0.00     0.016 A 
BRANCH   4   9
ATOM      9  N   UNL A   1      36.526  23.376  25.418  1.00  0.00    -0.326 N 
ATOM     10  O   UNL A   1      36.926  23.343  23.143  1.00  0.00    -0.275 OA
ATOM     11  C   UNL A   1      36.152  23.465  24.093  1.00  0.00     0.224 C 
ATOM     12  H   UNL A   1      35.854  23.543  26.117  1.00  0.00     0.169 HD
BRANCH  11  13
ATOM     13  C   UNL A   1      34.694  23.763  23.826  1.00  0.00     0.104 C 
BRANCH  13  14
ATOM     14  C   UNL A   1      33.777  22.631  23.365  1.00  0.00     0.051 C 
BRANCH  14  15
ATOM     15  C   UNL A   1      33.530  21.412  24.268  1.00  0.00     0.230 C 
BRANCH  15  16
ATOM     16  O   UNL A   1      32.454  20.568  23.842  1.00  0.00    -0.492 OA
BRANCH  16  17
ATOM     17  C   UNL A   1      32.598  19.237  24.120  1.00  0.00     0.137 A 
ATOM     18  C   UNL A   1      32.660  18.915  25.478  1.00  0.00     0.049 A 
ATOM     19  C   UNL A   1      32.592  18.207  23.172  1.00  0.00     0.084 A 
ATOM     20  C   UNL A   1      32.861  17.599  25.888  1.00  0.00     0.024 A 
ATOM     21  C   UNL A   1      32.749  16.878  23.583  1.00  0.00     0.045 A 
ATOM     22  Cl  UNL A   1      32.362  18.512  21.491  1.00  0.00    -0.080 Cl
ATOM     23  C   UNL A   1      32.909  16.586  24.937  1.00  0.00     0.042 A 
ATOM     24  Cl  UNL A   1      33.144  14.960  25.447  1.00  0.00    -0.084 Cl
ENDBRANCH  16  17
ENDBRANCH  15  16
ENDBRANCH  14  15
ENDBRANCH  13  14
ENDBRANCH  11  13
ENDBRANCH   4   9
ENDBRANCH   1   3
BRANCH   1  25
ATOM     25  O   UNL A   1      41.447  20.116  26.040  1.00  0.00    -0.458 OA
BRANCH  25  26
ATOM     26  C   UNL A   1      42.046  18.958  26.654  1.00  0.00     0.275 C 
BRANCH  26  27
ATOM     27  C   UNL A   1      43.358  18.595  25.957  1.00  0.00     0.275 C 
BRANCH  27  28
ATOM     28  O   UNL A   1      43.490  19.339  24.732  1.00  0.00    -0.458 OA
BRANCH  28  29
ATOM     29  C   UNL A   1      44.759  19.606  24.347  1.00  0.00     0.338 C 
ATOM     30  O   UNL A   1      45.550  18.862  23.794  1.00  0.00    -0.246 OA
BRANCH  29  31
ATOM     31  C   UNL A   1      45.046  21.028  24.578  1.00  0.00     0.060 A 
ATOM     32  C   UNL A   1      45.576  21.373  25.812  1.00  0.00     0.016 A 
ATOM     33  C   UNL A   1      44.662  22.023  23.688  1.00  0.00     0.016 A 
ATOM     34  C   UNL A   1      45.614  22.695  26.232  1.00  0.00     0.010 A 
ATOM     35  C   UNL A   1      44.835  23.367  24.054  1.00  0.00     0.010 A 
ATOM     36  C   UNL A   1      45.283  23.719  25.344  1.00  0.00    -0.014 A 
BRANCH  36  37
ATOM     37  C   UNL A   1      45.406  25.140  25.775  1.00  0.00     0.031 A 
ATOM     38  C   UNL A   1      46.733  25.846  25.693  1.00  0.00     0.074 A 
ATOM     39  C   UNL A   1      44.323  25.811  26.226  1.00  0.00     0.049 A 
ATOM     40  N   UNL A   1      47.085  27.004  26.192  1.00  0.00    -0.248 NA
ATOM     41  C   UNL A   1      47.810  25.155  24.966  1.00  0.00     0.031 C 
ATOM     42  C   UNL A   1      42.957  25.283  26.295  1.00  0.00     0.029 A 
ATOM     43  N   UNL A   1      44.201  27.090  26.712  1.00  0.00    -0.354 N 
ATOM     44  C   UNL A   1      48.434  27.151  25.895  1.00  0.00     0.074 A 
ATOM     45  C   UNL A   1      48.839  25.962  25.176  1.00  0.00     0.031 C 
ATOM     46  C   UNL A   1      42.135  26.237  26.753  1.00  0.00     0.029 A 
ATOM     47  C   UNL A   1      42.926  27.402  27.123  1.00  0.00     0.049 A 
ATOM     48  H   UNL A   1      44.953  27.723  26.761  1.00  0.00     0.167 HD
ATOM     49  C   UNL A   1      49.260  28.180  26.202  1.00  0.00     0.031 A 
ATOM     50  C   UNL A   1      42.447  28.472  27.784  1.00  0.00     0.031 A 
ATOM     51  C   UNL A   1      48.843  29.372  26.895  1.00  0.00     0.049 A 
ATOM     52  C   UNL A   1      43.400  29.560  28.186  1.00  0.00     0.074 A 
ATOM     53  C   UNL A   1      49.601  30.476  27.244  1.00  0.00     0.029 A 
ATOM     54  N   UNL A   1      47.552  29.617  27.338  1.00  0.00    -0.354 N 
ATOM     55  N   UNL A   1      44.682  29.666  27.939  1.00  0.00    -0.248 NA
ATOM     56  C   UNL A   1      42.841  30.668  28.972  1.00  0.00     0.031 C 
ATOM     57  C   UNL A   1      48.784  31.361  27.953  1.00  0.00     0.029 A 
ATOM     58  C   UNL A   1      47.500  30.842  27.984  1.00  0.00     0.049 A 
ATOM     59  H   UNL A   1      46.787  29.011  27.212  1.00  0.00     0.167 HD
ATOM     60  C   UNL A   1      45.080  30.863  28.521  1.00  0.00     0.074 A 
ATOM     61  C   UNL A   1      43.897  31.455  29.111  1.00  0.00     0.031 C 
ATOM     62  C   UNL A   1      46.315  31.418  28.567  1.00  0.00     0.031 A 
BRANCH  49  63
ATOM     63  C   UNL A   1      50.716  28.038  25.844  1.00  0.00    -0.014 A 
ATOM     64  C   UNL A   1      51.641  27.442  26.715  1.00  0.00     0.009 A 
ATOM     65  C   UNL A   1      51.159  28.479  24.586  1.00  0.00     0.009 A 
ATOM     66  C   UNL A   1      52.984  27.325  26.348  1.00  0.00     0.001 A 
ATOM     67  C   UNL A   1      52.494  28.331  24.209  1.00  0.00     0.001 A 
ATOM     68  C   UNL A   1      53.408  27.763  25.094  1.00  0.00     0.000 A 
ENDBRANCH  49  63
BRANCH  50  69
ATOM     69  C   UNL A   1      41.013  28.529  28.176  1.00  0.00    -0.014 A 
ATOM     70  C   UNL A   1      40.574  27.965  29.383  1.00  0.00     0.009 A 
ATOM     71  C   UNL A   1      40.069  29.145  27.336  1.00  0.00     0.009 A 
ATOM     72  C   UNL A   1      39.220  27.993  29.727  1.00  0.00     0.001 A 
ATOM     73  C   UNL A   1      38.723  29.207  27.700  1.00  0.00     0.001 A 
ATOM     74  C   UNL A   1      38.297  28.620  28.889  1.00  0.00     0.000 A 
ENDBRANCH  50  69
BRANCH  62  75
ATOM     75  C   UNL A   1      46.437  32.755  29.242  1.00  0.00    -0.014 A 
ATOM     76  C   UNL A   1      46.778  32.862  30.599  1.00  0.00     0.009 A 
ATOM     77  C   UNL A   1      46.234  33.927  28.496  1.00  0.00     0.009 A 
ATOM     78  C   UNL A   1      46.874  34.115  31.205  1.00  0.00     0.001 A 
ATOM     79  C   UNL A   1      46.365  35.179  29.096  1.00  0.00     0.001 A 
ATOM     80  C   UNL A   1      46.674  35.273  30.452  1.00  0.00     0.000 A 
ENDBRANCH  62  75
ENDBRANCH  36  37
ENDBRANCH  29  31
ENDBRANCH  28  29
ENDBRANCH  27  28
ENDBRANCH  26  27
ENDBRANCH  25  26
ENDBRANCH   1  25
TORSDOF 17
ENDMDL
MODEL 3
REMARK VINA RESULT:     -10.7      4.502      6.444
REMARK SMILES O=C(CCCOc1ccc(Cl)cc1Cl)Nc1cccc(C(=O)OCCOC(=O)c2ccc(-c3c4nc(c(-c5ccccc5)c5ccc([nH]5)c(-c5ccccc5)c5nc(c(-c6ccccc6)c6ccc3[nH]6)C=C5)C=C4)cc2)c1
REMARK SMILES IDX 21 1 22 2 20 3 16 4 17 5 77 6 18 7 19 8 15 9 1 10 2 11 3 13
REMARK SMILES IDX 4 14 5 15 6 16 7 17 8 18 13 19 9 20 12 21 14 22 10 23 11 24
REMARK SMILES IDX 23 25 24 26 25 27 26 28 27 29 28 30 29 31 30 32 76 33 31 34
REMARK SMILES IDX 75 35 32 36 33 37 34 38 69 39 35 40 74 41 68 42 70 43 36 44
REMARK SMILES IDX 73 45 67 46 66 47 37 49 59 50 44 51 58 52 45 53 48 54 57 55
REMARK SMILES IDX 71 56 46 57 47 58 56 60 72 61 49 62 38 63 39 64 43 65 40 66
REMARK SMILES IDX 42 67 41 68 60 69 61 70 65 71 62 72 64 73 63 74 50 75 51 76
REMARK SMILES IDX 55 77 52 78 54 79 53 80
REMARK H PARENT 15 12 70 48 48 59
REMARK Flexibility Score: inf
ROOT
ATOM      1  C   UNL A   1      40.320  20.091  25.912  1.00  0.00     0.338 C 
ATOM      2  O   UNL A   1      39.821  18.999  25.742  1.00  0.00    -0.246 OA
ENDROOT
BRANCH   1   3
ATOM      3  C   UNL A   1      39.544  21.346  26.059  1.00  0.00     0.062 A 
ATOM      4  C   UNL A   1      37.632  22.672  25.482  1.00  0.00     0.042 A 
ATOM      5  C   UNL A   1      38.168  23.778  26.143  1.00  0.00     0.026 A 
ATOM      6  C   UNL A   1      38.348  21.484  25.374  1.00  0.00     0.041 A 
ATOM      7  C   UNL A   1      39.333  23.621  26.884  1.00  0.00     0.003 A 
ATOM      8  C   UNL A   1      39.981  22.386  26.890  1.00  0.00     0.016 A 
BRANCH   4   9
ATOM      9  N   UNL A   1      36.317  22.748  25.019  1.00  0.00    -0.326 N 
ATOM     10  O   UNL A   1      36.870  23.199  22.822  1.00  0.00    -0.275 OA
ATOM     11  C   UNL A   1      36.026  22.977  23.690  1.00  0.00     0.224 C 
ATOM     12  H   UNL A   1      35.577  22.635  25.658  1.00  0.00     0.169 HD
BRANCH  11  13
ATOM     13  C   UNL A   1      34.561  22.978  23.315  1.00  0.00     0.104 C 
BRANCH  13  14
ATOM     14  C   UNL A   1      33.610  22.022  24.035  1.00  0.00     0.051 C 
BRANCH  14  15
ATOM     15  C   UNL A   1      32.169  21.833  23.535  1.00  0.00     0.230 C 
BRANCH  15  16
ATOM     16  O   UNL A   1      31.165  22.354  24.412  1.00  0.00    -0.492 OA
BRANCH  16  17
ATOM     17  C   UNL A   1      31.147  23.714  24.551  1.00  0.00     0.137 A 
ATOM     18  C   UNL A   1      30.665  24.421  23.446  1.00  0.00     0.049 A 
ATOM     19  C   UNL A   1      31.477  24.413  25.718  1.00  0.00     0.084 A 
ATOM     20  C   UNL A   1      30.649  25.813  23.444  1.00  0.00     0.024 A 
ATOM     21  C   UNL A   1      31.420  25.811  25.736  1.00  0.00     0.045 A 
ATOM     22  Cl  UNL A   1      31.930  23.603  27.172  1.00  0.00    -0.080 Cl
ATOM     23  C   UNL A   1      31.031  26.503  24.589  1.00  0.00     0.042 A 
ATOM     24  Cl  UNL A   1      30.997  28.223  24.589  1.00  0.00    -0.084 Cl
ENDBRANCH  16  17
ENDBRANCH  15  16
ENDBRANCH  14  15
ENDBRANCH  13  14
ENDBRANCH  11  13
ENDBRANCH   4   9
ENDBRANCH   1   3
BRANCH   1  25
ATOM     25  O   UNL A   1      41.631  20.375  26.136  1.00  0.00    -0.458 OA
BRANCH  25  26
ATOM     26  C   UNL A   1      42.417  19.375  26.813  1.00  0.00     0.275 C 
BRANCH  26  27
ATOM     27  C   UNL A   1      43.206  18.535  25.808  1.00  0.00     0.275 C 
BRANCH  27  28
ATOM     28  O   UNL A   1      43.471  19.305  24.620  1.00  0.00    -0.458 OA
BRANCH  28  29
ATOM     29  C   UNL A   1      44.775  19.566  24.375  1.00  0.00     0.338 C 
ATOM     30  O   UNL A   1      45.624  18.811  23.935  1.00  0.00    -0.246 OA
BRANCH  29  31
ATOM     31  C   UNL A   1      45.033  20.994  24.599  1.00  0.00     0.060 A 
ATOM     32  C   UNL A   1      45.644  21.345  25.794  1.00  0.00     0.016 A 
ATOM     33  C   UNL A   1      44.551  21.984  23.753  1.00  0.00     0.016 A 
ATOM     34  C   UNL A   1      45.671  22.664  26.225  1.00  0.00     0.010 A 
ATOM     35  C   UNL A   1      44.708  23.329  24.119  1.00  0.00     0.010 A 
ATOM     36  C   UNL A   1      45.241  23.685  25.376  1.00  0.00    -0.014 A 
BRANCH  36  37
ATOM     37  C   UNL A   1      45.351  25.105  25.813  1.00  0.00     0.031 A 
ATOM     38  C   UNL A   1      46.673  25.821  25.744  1.00  0.00     0.074 A 
ATOM     39  C   UNL A   1      44.260  25.767  26.258  1.00  0.00     0.049 A 
ATOM     40  N   UNL A   1      47.013  26.980  26.250  1.00  0.00    -0.248 NA
ATOM     41  C   UNL A   1      47.761  25.140  25.023  1.00  0.00     0.031 C 
ATOM     42  C   UNL A   1      42.897  25.230  26.314  1.00  0.00     0.029 A 
ATOM     43  N   UNL A   1      44.125  27.044  26.747  1.00  0.00    -0.354 N 
ATOM     44  C   UNL A   1      48.364  27.137  25.964  1.00  0.00     0.074 A 
ATOM     45  C   UNL A   1      48.783  25.953  25.244  1.00  0.00     0.031 C 
ATOM     46  C   UNL A   1      42.064  26.176  26.768  1.00  0.00     0.029 A 
ATOM     47  C   UNL A   1      42.845  27.345  27.149  1.00  0.00     0.049 A 
ATOM     48  H   UNL A   1      44.872  27.682  26.804  1.00  0.00     0.167 HD
ATOM     49  C   UNL A   1      49.180  28.171  26.281  1.00  0.00     0.031 A 
ATOM     50  C   UNL A   1      42.353  28.410  27.810  1.00  0.00     0.031 A 
ATOM     51  C   UNL A   1      48.749  29.357  26.974  1.00  0.00     0.049 A 
ATOM     52  C   UNL A   1      43.295  29.503  28.222  1.00  0.00     0.074 A 
ATOM     53  C   UNL A   1      49.497  30.465  27.332  1.00  0.00     0.029 A 
ATOM     54  N   UNL A   1      47.453  29.592  27.408  1.00  0.00    -0.354 N 
ATOM     55  N   UNL A   1      44.578  29.619  27.986  1.00  0.00    -0.248 NA
ATOM     56  C   UNL A   1      42.722  30.604  29.007  1.00  0.00     0.031 C 
ATOM     57  C   UNL A   1      48.668  31.342  28.039  1.00  0.00     0.029 A 
ATOM     58  C   UNL A   1      47.388  30.814  28.057  1.00  0.00     0.049 A 
ATOM     59  H   UNL A   1      46.693  28.981  27.274  1.00  0.00     0.167 HD
ATOM     60  C   UNL A   1      44.963  30.816  28.576  1.00  0.00     0.074 A 
ATOM     61  C   UNL A   1      43.771  31.398  29.157  1.00  0.00     0.031 C 
ATOM     62  C   UNL A   1      46.194  31.379  28.633  1.00  0.00     0.031 A 
BRANCH  49  63
ATOM     63  C   UNL A   1      50.640  28.040  25.934  1.00  0.00    -0.014 A 
ATOM     64  C   UNL A   1      51.159  28.507  24.717  1.00  0.00     0.009 A 
ATOM     65  C   UNL A   1      51.519  27.469  26.869  1.00  0.00     0.009 A 
ATOM     66  C   UNL A   1      52.520  28.372  24.430  1.00  0.00     0.001 A 
ATOM     67  C   UNL A   1      52.883  27.365  26.594  1.00  0.00     0.001 A 
ATOM     68  C   UNL A   1      53.381  27.807  25.370  1.00  0.00     0.000 A 
ENDBRANCH  49  63
BRANCH  50  69
ATOM     69  C   UNL A   1      40.916  28.456  28.191  1.00  0.00    -0.014 A 
ATOM     70  C   UNL A   1      39.976  29.104  27.375  1.00  0.00     0.009 A 
ATOM     71  C   UNL A   1      40.475  27.857  29.384  1.00  0.00     0.009 A 
ATOM     72  C   UNL A   1      38.634  29.172  27.758  1.00  0.00     0.001 A 
ATOM     73  C   UNL A   1      39.127  27.892  29.743  1.00  0.00     0.001 A 
ATOM     74  C   UNL A   1      38.209  28.560  28.937  1.00  0.00     0.000 A 
ENDBRANCH  50  69
BRANCH  62  75
ATOM     75  C   UNL A   1      46.302  32.715  29.313  1.00  0.00    -0.014 A 
ATOM     76  C   UNL A   1      46.093  33.913  28.611  1.00  0.00     0.009 A 
ATOM     77  C   UNL A   1      46.589  32.772  30.685  1.00  0.00     0.009 A 
ATOM     78  C   UNL A   1      46.210  35.142  29.263  1.00  0.00     0.001 A 
ATOM     79  C   UNL A   1      46.671  34.000  31.342  1.00  0.00     0.001 A 
ATOM     80  C   UNL A   1      46.492  35.183  30.629  1.00  0.00     0.000 A 
ENDBRANCH  62  75
ENDBRANCH  36  37
ENDBRANCH  29  31
ENDBRANCH  28  29
ENDBRANCH  27  28
ENDBRANCH  26  27
ENDBRANCH  25  26
ENDBRANCH   1  25
TORSDOF 17
ENDMDL
