MODEL 1
REMARK VINA RESULT:     -11.1      0.000      0.000
REMARK SMILES Cc1c(C(=O)OCCOC(=O)c2ccc(-c3c4nc(c(-c5ccccc5)c5ccc([nH]5)c(-c5ccccc5)c5nc(c(-c6ccccc6)c6ccc3[nH]6)C=C5)C=C4)cc2)cnn1[C@H]1CCS(=O)(=O)C1
REMARK SMILES IDX 8 1 7 2 6 3 4 4 5 5 3 6 1 7 2 8 62 9 60 10 61 11 63 12 64 13
REMARK SMILES IDX 69 14 65 15 66 16 67 17 68 18 9 19 10 20 11 21 12 22 13 23
REMARK SMILES IDX 59 24 14 25 58 26 15 27 16 28 17 29 52 30 18 31 57 32 51 33
REMARK SMILES IDX 53 34 19 35 56 36 50 37 49 38 20 40 42 41 27 42 41 43 28 44
REMARK SMILES IDX 31 45 40 46 54 47 29 48 30 49 39 51 55 52 32 53 21 54 22 55
REMARK SMILES IDX 26 56 23 57 25 58 24 59 43 60 44 61 48 62 45 63 47 64 46 65
REMARK SMILES IDX 33 66 34 67 38 68 35 69 37 70 36 71
REMARK H PARENT 53 39 31 50
REMARK Flexibility Score: inf
ROOT
ATOM      1  C   UNL A   1      41.104  20.240  27.136  1.00  0.00     0.275 C 
ENDROOT
BRANCH   1   2
ATOM      2  C   UNL A   1      42.356  20.108  26.276  1.00  0.00     0.275 C 
BRANCH   2   3
ATOM      3  O   UNL A   1      42.773  21.382  25.759  1.00  0.00    -0.458 OA
BRANCH   3   4
ATOM      4  C   UNL A   1      43.928  21.357  25.031  1.00  0.00     0.341 C 
ATOM      5  O   UNL A   1      44.197  20.491  24.202  1.00  0.00    -0.246 OA
BRANCH   4   6
ATOM      6  C   UNL A   1      44.781  22.504  25.280  1.00  0.00     0.100 A 
ATOM      7  C   UNL A   1      43.047  24.400  24.979  1.00  0.00     0.067 C 
ATOM      8  C   UNL A   1      44.406  23.843  25.212  1.00  0.00     0.050 A 
ATOM      9  N   UNL A   1      45.551  24.567  25.459  1.00  0.00    -0.265 N 
ATOM     10  C   UNL A   1      46.113  22.535  25.723  1.00  0.00     0.151 A 
ATOM     11  N   UNL A   1      46.589  23.777  25.819  1.00  0.00    -0.180 NA
BRANCH   9  12
ATOM     12  C   UNL A   1      45.850  25.987  25.346  1.00  0.00     0.123 C 
ATOM     13  C   UNL A   1      45.904  26.651  26.736  1.00  0.00     0.044 C 
ATOM     14  C   UNL A   1      47.151  26.388  24.665  1.00  0.00     0.164 C 
ATOM     15  C   UNL A   1      46.328  28.098  26.529  1.00  0.00     0.139 C 
ATOM     16  S   UNL A   1      47.385  28.092  25.097  1.00  0.00     0.152 S 
ATOM     17  O   UNL A   1      46.778  28.908  24.067  1.00  0.00    -0.229 OA
ATOM     18  O   UNL A   1      48.758  28.269  25.518  1.00  0.00    -0.229 OA
ENDBRANCH   9  12
ENDBRANCH   4   6
ENDBRANCH   3   4
ENDBRANCH   2   3
ENDBRANCH   1   2
BRANCH   1  19
ATOM     19  O   UNL A   1      40.954  21.542  27.711  1.00  0.00    -0.458 OA
BRANCH  19  20
ATOM     20  C   UNL A   1      40.039  22.323  27.091  1.00  0.00     0.338 C 
ATOM     21  O   UNL A   1      39.178  21.970  26.305  1.00  0.00    -0.246 OA
BRANCH  20  22
ATOM     22  C   UNL A   1      40.362  23.736  27.315  1.00  0.00     0.060 A 
ATOM     23  C   UNL A   1      41.496  24.040  28.072  1.00  0.00     0.016 A 
ATOM     24  C   UNL A   1      39.408  24.713  27.000  1.00  0.00     0.016 A 
ATOM     25  C   UNL A   1      41.624  25.312  28.601  1.00  0.00     0.010 A 
ATOM     26  C   UNL A   1      39.535  25.979  27.532  1.00  0.00     0.010 A 
ATOM     27  C   UNL A   1      40.612  26.253  28.374  1.00  0.00    -0.014 A 
BRANCH  27  28
ATOM     28  C   UNL A   1      40.750  27.569  28.979  1.00  0.00     0.031 A 
ATOM     29  C   UNL A   1      41.778  28.439  28.356  1.00  0.00     0.074 A 
ATOM     30  C   UNL A   1      39.919  28.035  29.930  1.00  0.00     0.049 A 
ATOM     31  N   UNL A   1      42.793  28.999  28.925  1.00  0.00    -0.248 NA
ATOM     32  C   UNL A   1      41.708  28.643  26.901  1.00  0.00     0.031 C 
ATOM     33  C   UNL A   1      38.693  27.417  30.444  1.00  0.00     0.029 A 
ATOM     34  N   UNL A   1      39.941  29.247  30.550  1.00  0.00    -0.354 N 
ATOM     35  C   UNL A   1      43.420  29.750  27.935  1.00  0.00     0.074 A 
ATOM     36  C   UNL A   1      42.778  29.409  26.690  1.00  0.00     0.031 C 
ATOM     37  C   UNL A   1      37.973  28.353  31.105  1.00  0.00     0.029 A 
ATOM     38  C   UNL A   1      38.747  29.583  31.169  1.00  0.00     0.049 A 
ATOM     39  H   UNL A   1      40.733  29.831  30.558  1.00  0.00     0.167 HD
ATOM     40  C   UNL A   1      44.297  30.747  28.229  1.00  0.00     0.031 A 
ATOM     41  C   UNL A   1      38.395  30.804  31.636  1.00  0.00     0.031 A 
ATOM     42  C   UNL A   1      44.799  30.657  29.572  1.00  0.00     0.049 A 
ATOM     43  C   UNL A   1      39.627  31.606  31.799  1.00  0.00     0.074 A 
ATOM     44  C   UNL A   1      45.518  29.715  30.281  1.00  0.00     0.029 A 
ATOM     45  N   UNL A   1      44.269  31.509  30.512  1.00  0.00    -0.354 N 
ATOM     46  N   UNL A   1      40.515  31.380  32.722  1.00  0.00    -0.248 NA
ATOM     47  C   UNL A   1      40.085  32.422  30.683  1.00  0.00     0.031 C 
ATOM     48  C   UNL A   1      44.989  29.765  31.603  1.00  0.00     0.029 A 
ATOM     49  C   UNL A   1      44.010  30.759  31.629  1.00  0.00     0.049 A 
ATOM     50  H   UNL A   1      44.108  32.474  30.401  1.00  0.00     0.167 HD
ATOM     51  C   UNL A   1      41.733  31.631  32.109  1.00  0.00     0.074 A 
ATOM     52  C   UNL A   1      41.402  32.388  30.906  1.00  0.00     0.031 C 
ATOM     53  C   UNL A   1      42.860  30.955  32.483  1.00  0.00     0.031 A 
BRANCH  40  54
ATOM     54  C   UNL A   1      44.412  32.007  27.414  1.00  0.00    -0.014 A 
ATOM     55  C   UNL A   1      45.566  32.215  26.639  1.00  0.00     0.009 A 
ATOM     56  C   UNL A   1      43.563  33.115  27.604  1.00  0.00     0.009 A 
ATOM     57  C   UNL A   1      45.885  33.483  26.138  1.00  0.00     0.001 A 
ATOM     58  C   UNL A   1      43.858  34.371  27.071  1.00  0.00     0.001 A 
ATOM     59  C   UNL A   1      45.034  34.561  26.361  1.00  0.00     0.000 A 
ENDBRANCH  40  54
BRANCH  41  60
ATOM     60  C   UNL A   1      37.049  31.398  31.754  1.00  0.00    -0.014 A 
ATOM     61  C   UNL A   1      36.594  31.907  32.979  1.00  0.00     0.009 A 
ATOM     62  C   UNL A   1      36.301  31.696  30.599  1.00  0.00     0.009 A 
ATOM     63  C   UNL A   1      35.451  32.714  33.042  1.00  0.00     0.001 A 
ATOM     64  C   UNL A   1      35.156  32.495  30.662  1.00  0.00     0.001 A 
ATOM     65  C   UNL A   1      34.740  33.018  31.882  1.00  0.00     0.000 A 
ENDBRANCH  41  60
BRANCH  53  66
ATOM     66  C   UNL A   1      42.789  30.104  33.728  1.00  0.00    -0.014 A 
ATOM     67  C   UNL A   1      42.270  28.797  33.724  1.00  0.00     0.009 A 
ATOM     68  C   UNL A   1      43.389  30.576  34.904  1.00  0.00     0.009 A 
ATOM     69  C   UNL A   1      42.308  28.004  34.875  1.00  0.00     0.001 A 
ATOM     70  C   UNL A   1      43.448  29.776  36.047  1.00  0.00     0.001 A 
ATOM     71  C   UNL A   1      42.901  28.494  36.035  1.00  0.00     0.000 A 
ENDBRANCH  53  66
ENDBRANCH  27  28
ENDBRANCH  20  22
ENDBRANCH  19  20
ENDBRANCH   1  19
TORSDOF 12
ENDMDL
MODEL 2
REMARK VINA RESULT:     -11.0      3.981      6.242
REMARK SMILES Cc1c(C(=O)OCCOC(=O)c2ccc(-c3c4nc(c(-c5ccccc5)c5ccc([nH]5)c(-c5ccccc5)c5nc(c(-c6ccccc6)c6ccc3[nH]6)C=C5)C=C4)cc2)cnn1[C@H]1CCS(=O)(=O)C1
REMARK SMILES IDX 8 1 7 2 6 3 4 4 5 5 3 6 1 7 2 8 62 9 60 10 61 11 63 12 64 13
REMARK SMILES IDX 69 14 65 15 66 16 67 17 68 18 9 19 10 20 11 21 12 22 13 23
REMARK SMILES IDX 59 24 14 25 58 26 15 27 16 28 17 29 52 30 18 31 57 32 51 33
REMARK SMILES IDX 53 34 19 35 56 36 50 37 49 38 20 40 42 41 27 42 41 43 28 44
REMARK SMILES IDX 31 45 40 46 54 47 29 48 30 49 39 51 55 52 32 53 21 54 22 55
REMARK SMILES IDX 26 56 23 57 25 58 24 59 43 60 44 61 48 62 45 63 47 64 46 65
REMARK SMILES IDX 33 66 34 67 38 68 35 69 37 70 36 71
REMARK H PARENT 53 39 31 50
REMARK Flexibility Score: inf
ROOT
ATOM      1  C   UNL A   1      38.336  21.211  25.412  1.00  0.00     0.275 C 
ENDROOT
BRANCH   1   2
ATOM      2  C   UNL A   1      36.980  21.151  24.716  1.00  0.00     0.275 C 
BRANCH   2   3
ATOM      3  O   UNL A   1      36.263  19.956  25.068  1.00  0.00    -0.458 OA
BRANCH   3   4
ATOM      4  C   UNL A   1      34.904  20.058  24.996  1.00  0.00     0.341 C 
ATOM      5  O   UNL A   1      34.187  19.261  24.398  1.00  0.00    -0.246 OA
BRANCH   4   6
ATOM      6  C   UNL A   1      34.377  21.171  25.764  1.00  0.00     0.100 A 
ATOM      7  C   UNL A   1      33.345  22.565  23.844  1.00  0.00     0.067 C 
ATOM      8  C   UNL A   1      33.733  22.296  25.254  1.00  0.00     0.050 A 
ATOM      9  N   UNL A   1      33.472  23.102  26.339  1.00  0.00    -0.265 N 
ATOM     10  C   UNL A   1      34.309  21.329  27.157  1.00  0.00     0.151 A 
ATOM     11  N   UNL A   1      33.778  22.500  27.512  1.00  0.00    -0.180 NA
BRANCH   9  12
ATOM     12  C   UNL A   1      32.995  24.475  26.442  1.00  0.00     0.123 C 
ATOM     13  C   UNL A   1      33.922  25.437  25.675  1.00  0.00     0.044 C 
ATOM     14  C   UNL A   1      31.595  24.781  25.932  1.00  0.00     0.164 C 
ATOM     15  C   UNL A   1      33.291  26.821  25.743  1.00  0.00     0.139 C 
ATOM     16  S   UNL A   1      31.533  26.548  25.804  1.00  0.00     0.152 S 
ATOM     17  O   UNL A   1      31.024  27.076  27.052  1.00  0.00    -0.229 OA
ATOM     18  O   UNL A   1      30.954  26.892  24.523  1.00  0.00    -0.229 OA
ENDBRANCH   9  12
ENDBRANCH   4   6
ENDBRANCH   3   4
ENDBRANCH   2   3
ENDBRANCH   1   2
BRANCH   1  19
ATOM     19  O   UNL A   1      38.545  22.432  26.127  1.00  0.00    -0.458 OA
BRANCH  19  20
ATOM     20  C   UNL A   1      39.705  22.479  26.823  1.00  0.00     0.338 C 
ATOM     21  O   UNL A   1      40.303  21.544  27.324  1.00  0.00    -0.246 OA
BRANCH  20  22
ATOM     22  C   UNL A   1      40.056  23.874  27.107  1.00  0.00     0.060 A 
ATOM     23  C   UNL A   1      41.219  24.124  27.839  1.00  0.00     0.016 A 
ATOM     24  C   UNL A   1      39.107  24.878  26.874  1.00  0.00     0.016 A 
ATOM     25  C   UNL A   1      41.383  25.366  28.426  1.00  0.00     0.010 A 
ATOM     26  C   UNL A   1      39.270  26.114  27.464  1.00  0.00     0.010 A 
ATOM     27  C   UNL A   1      40.378  26.331  28.282  1.00  0.00    -0.014 A 
BRANCH  27  28
ATOM     28  C   UNL A   1      40.556  27.612  28.947  1.00  0.00     0.031 A 
ATOM     29  C   UNL A   1      41.580  28.496  28.339  1.00  0.00     0.074 A 
ATOM     30  C   UNL A   1      39.761  28.042  29.944  1.00  0.00     0.049 A 
ATOM     31  N   UNL A   1      42.621  29.011  28.905  1.00  0.00    -0.248 NA
ATOM     32  C   UNL A   1      41.473  28.774  26.898  1.00  0.00     0.031 C 
ATOM     33  C   UNL A   1      38.540  27.419  30.463  1.00  0.00     0.029 A 
ATOM     34  N   UNL A   1      39.822  29.221  30.623  1.00  0.00    -0.354 N 
ATOM     35  C   UNL A   1      43.232  29.801  27.935  1.00  0.00     0.074 A 
ATOM     36  C   UNL A   1      42.549  29.533  26.694  1.00  0.00     0.031 C 
ATOM     37  C   UNL A   1      37.856  28.332  31.190  1.00  0.00     0.029 A 
ATOM     38  C   UNL A   1      38.651  29.544  31.293  1.00  0.00     0.049 A 
ATOM     39  H   UNL A   1      40.624  29.792  30.637  1.00  0.00     0.167 HD
ATOM     40  C   UNL A   1      44.135  30.768  28.253  1.00  0.00     0.031 A 
ATOM     41  C   UNL A   1      38.334  30.745  31.830  1.00  0.00     0.031 A 
ATOM     42  C   UNL A   1      44.673  30.603  29.574  1.00  0.00     0.049 A 
ATOM     43  C   UNL A   1      39.584  31.519  31.997  1.00  0.00     0.074 A 
ATOM     44  C   UNL A   1      45.396  29.615  30.214  1.00  0.00     0.029 A 
ATOM     45  N   UNL A   1      44.185  31.415  30.570  1.00  0.00    -0.354 N 
ATOM     46  N   UNL A   1      40.494  31.233  32.881  1.00  0.00    -0.248 NA
ATOM     47  C   UNL A   1      40.023  32.383  30.910  1.00  0.00     0.031 C 
ATOM     48  C   UNL A   1      44.906  29.607  31.552  1.00  0.00     0.029 A 
ATOM     49  C   UNL A   1      43.945  30.614  31.656  1.00  0.00     0.049 A 
ATOM     50  H   UNL A   1      44.037  32.386  30.513  1.00  0.00     0.167 HD
ATOM     51  C   UNL A   1      41.698  31.495  32.245  1.00  0.00     0.074 A 
ATOM     52  C   UNL A   1      41.346  32.317  31.092  1.00  0.00     0.031 C 
ATOM     53  C   UNL A   1      42.824  30.784  32.552  1.00  0.00     0.031 A 
BRANCH  40  54
ATOM     54  C   UNL A   1      44.247  32.066  27.498  1.00  0.00    -0.014 A 
ATOM     55  C   UNL A   1      43.957  33.269  28.164  1.00  0.00     0.009 A 
ATOM     56  C   UNL A   1      44.351  32.122  26.094  1.00  0.00     0.009 A 
ATOM     57  C   UNL A   1      43.716  34.451  27.454  1.00  0.00     0.001 A 
ATOM     58  C   UNL A   1      44.152  33.309  25.387  1.00  0.00     0.001 A 
ATOM     59  C   UNL A   1      43.806  34.468  26.065  1.00  0.00     0.000 A 
ENDBRANCH  40  54
BRANCH  41  60
ATOM     60  C   UNL A   1      37.002  31.354  32.017  1.00  0.00    -0.014 A 
ATOM     61  C   UNL A   1      36.670  31.999  33.217  1.00  0.00     0.009 A 
ATOM     62  C   UNL A   1      36.138  31.522  30.919  1.00  0.00     0.009 A 
ATOM     63  C   UNL A   1      35.534  32.812  33.305  1.00  0.00     0.001 A 
ATOM     64  C   UNL A   1      34.999  32.328  31.008  1.00  0.00     0.001 A 
ATOM     65  C   UNL A   1      34.705  32.987  32.197  1.00  0.00     0.000 A 
ENDBRANCH  41  60
BRANCH  53  66
ATOM     66  C   UNL A   1      42.774  29.873  33.754  1.00  0.00    -0.014 A 
ATOM     67  C   UNL A   1      43.185  30.285  35.035  1.00  0.00     0.009 A 
ATOM     68  C   UNL A   1      42.165  28.617  33.626  1.00  0.00     0.009 A 
ATOM     69  C   UNL A   1      43.035  29.447  36.143  1.00  0.00     0.001 A 
ATOM     70  C   UNL A   1      41.993  27.789  34.737  1.00  0.00     0.001 A 
ATOM     71  C   UNL A   1      42.435  28.200  35.994  1.00  0.00     0.000 A 
ENDBRANCH  53  66
ENDBRANCH  27  28
ENDBRANCH  20  22
ENDBRANCH  19  20
ENDBRANCH   1  19
TORSDOF 12
ENDMDL
MODEL 3
REMARK VINA RESULT:     -11.0      2.957      5.259
REMARK SMILES Cc1c(C(=O)OCCOC(=O)c2ccc(-c3c4nc(c(-c5ccccc5)c5ccc([nH]5)c(-c5ccccc5)c5nc(c(-c6ccccc6)c6ccc3[nH]6)C=C5)C=C4)cc2)cnn1[C@H]1CCS(=O)(=O)C1
REMARK SMILES IDX 8 1 7 2 6 3 4 4 5 5 3 6 1 7 2 8 62 9 60 10 61 11 63 12 64 13
REMARK SMILES IDX 69 14 65 15 66 16 67 17 68 18 9 19 10 20 11 21 12 22 13 23
REMARK SMILES IDX 59 24 14 25 58 26 15 27 16 28 17 29 52 30 18 31 57 32 51 33
REMARK SMILES IDX 53 34 19 35 56 36 50 37 49 38 20 40 42 41 27 42 41 43 28 44
REMARK SMILES IDX 31 45 40 46 54 47 29 48 30 49 39 51 55 52 32 53 21 54 22 55
REMARK SMILES IDX 26 56 23 57 25 58 24 59 43 60 44 61 48 62 45 63 47 64 46 65
REMARK SMILES IDX 33 66 34 67 38 68 35 69 37 70 36 71
REMARK H PARENT 53 39 31 50
REMARK Flexibility Score: inf
ROOT
ATOM      1  C   UNL A   1      44.842  19.342  24.441  1.00  0.00     0.275 C 
ENDROOT
BRANCH   1   2
ATOM      2  C   UNL A   1      43.773  18.653  25.282  1.00  0.00     0.275 C 
BRANCH   2   3
ATOM      3  O   UNL A   1      42.545  19.399  25.283  1.00  0.00    -0.458 OA
BRANCH   3   4
ATOM      4  C   UNL A   1      42.002  19.613  26.517  1.00  0.00     0.341 C 
ATOM      5  O   UNL A   1      42.417  19.091  27.549  1.00  0.00    -0.246 OA
BRANCH   4   6
ATOM      6  C   UNL A   1      40.925  20.584  26.503  1.00  0.00     0.100 A 
ATOM      7  C   UNL A   1      39.016  19.093  25.595  1.00  0.00     0.067 C 
ATOM      8  C   UNL A   1      39.624  20.370  26.054  1.00  0.00     0.050 A 
ATOM      9  N   UNL A   1      38.981  21.582  26.171  1.00  0.00    -0.265 N 
ATOM     10  C   UNL A   1      40.909  21.895  27.006  1.00  0.00     0.151 A 
ATOM     11  N   UNL A   1      39.745  22.509  26.795  1.00  0.00    -0.180 NA
BRANCH   9  12
ATOM     12  C   UNL A   1      37.685  22.048  25.699  1.00  0.00     0.123 C 
ATOM     13  C   UNL A   1      37.599  23.585  25.756  1.00  0.00     0.044 C 
ATOM     14  C   UNL A   1      37.269  21.679  24.283  1.00  0.00     0.164 C 
ATOM     15  C   UNL A   1      36.263  23.986  25.146  1.00  0.00     0.139 C 
ATOM     16  S   UNL A   1      35.904  22.750  23.916  1.00  0.00     0.152 S 
ATOM     17  O   UNL A   1      34.681  22.069  24.284  1.00  0.00    -0.229 OA
ATOM     18  O   UNL A   1      36.111  23.316  22.599  1.00  0.00    -0.229 OA
ENDBRANCH   9  12
ENDBRANCH   4   6
ENDBRANCH   3   4
ENDBRANCH   2   3
ENDBRANCH   1   2
BRANCH   1  19
ATOM     19  O   UNL A   1      45.184  20.644  24.926  1.00  0.00    -0.458 OA
BRANCH  19  20
ATOM     20  C   UNL A   1      44.599  21.661  24.254  1.00  0.00     0.338 C 
ATOM     21  O   UNL A   1      44.602  21.848  23.050  1.00  0.00    -0.246 OA
BRANCH  20  22
ATOM     22  C   UNL A   1      44.130  22.677  25.202  1.00  0.00     0.060 A 
ATOM     23  C   UNL A   1      43.265  23.668  24.730  1.00  0.00     0.016 A 
ATOM     24  C   UNL A   1      44.750  22.781  26.453  1.00  0.00     0.016 A 
ATOM     25  C   UNL A   1      43.099  24.819  25.478  1.00  0.00     0.010 A 
ATOM     26  C   UNL A   1      44.587  23.932  27.196  1.00  0.00     0.010 A 
ATOM     27  C   UNL A   1      43.809  24.966  26.677  1.00  0.00    -0.014 A 
BRANCH  27  28
ATOM     28  C   UNL A   1      43.650  26.206  27.421  1.00  0.00     0.031 A 
ATOM     29  C   UNL A   1      44.695  27.228  27.164  1.00  0.00     0.074 A 
ATOM     30  C   UNL A   1      42.568  26.482  28.172  1.00  0.00     0.049 A 
ATOM     31  N   UNL A   1      45.475  27.798  28.022  1.00  0.00    -0.248 NA
ATOM     32  C   UNL A   1      44.956  27.600  25.765  1.00  0.00     0.031 C 
ATOM     33  C   UNL A   1      41.331  25.707  28.300  1.00  0.00     0.029 A 
ATOM     34  N   UNL A   1      42.306  27.608  28.892  1.00  0.00    -0.354 N 
ATOM     35  C   UNL A   1      46.234  28.713  27.298  1.00  0.00     0.074 A 
ATOM     36  C   UNL A   1      45.953  28.472  25.905  1.00  0.00     0.031 C 
ATOM     37  C   UNL A   1      40.374  26.492  28.845  1.00  0.00     0.029 A 
ATOM     38  C   UNL A   1      40.968  27.765  29.220  1.00  0.00     0.049 A 
ATOM     39  H   UNL A   1      43.003  28.251  29.156  1.00  0.00     0.167 HD
ATOM     40  C   UNL A   1      46.899  29.736  27.899  1.00  0.00     0.031 A 
ATOM     41  C   UNL A   1      40.381  28.887  29.700  1.00  0.00     0.031 A 
ATOM     42  C   UNL A   1      47.069  29.527  29.310  1.00  0.00     0.049 A 
ATOM     43  C   UNL A   1      41.441  29.764  30.245  1.00  0.00     0.074 A 
ATOM     44  C   UNL A   1      47.696  28.570  30.082  1.00  0.00     0.029 A 
ATOM     45  N   UNL A   1      46.237  30.212  30.163  1.00  0.00    -0.354 N 
ATOM     46  N   UNL A   1      42.100  29.503  31.335  1.00  0.00    -0.248 NA
ATOM     47  C   UNL A   1      42.060  30.744  29.364  1.00  0.00     0.031 C 
ATOM     48  C   UNL A   1      46.862  28.415  31.227  1.00  0.00     0.029 A 
ATOM     49  C   UNL A   1      45.801  29.313  31.102  1.00  0.00     0.049 A 
ATOM     50  H   UNL A   1      46.001  31.166  30.110  1.00  0.00     0.167 HD
ATOM     51  C   UNL A   1      43.394  29.927  31.075  1.00  0.00     0.074 A 
ATOM     52  C   UNL A   1      43.280  30.794  29.907  1.00  0.00     0.031 C 
ATOM     53  C   UNL A   1      44.465  29.307  31.653  1.00  0.00     0.031 A 
BRANCH  40  54
ATOM     54  C   UNL A   1      47.066  31.091  27.265  1.00  0.00    -0.014 A 
ATOM     55  C   UNL A   1      48.359  31.625  27.127  1.00  0.00     0.009 A 
ATOM     56  C   UNL A   1      45.987  31.974  27.061  1.00  0.00     0.009 A 
ATOM     57  C   UNL A   1      48.558  32.986  26.866  1.00  0.00     0.001 A 
ATOM     58  C   UNL A   1      46.182  33.323  26.759  1.00  0.00     0.001 A 
ATOM     59  C   UNL A   1      47.469  33.835  26.690  1.00  0.00     0.000 A 
ENDBRANCH  40  54
BRANCH  41  60
ATOM     60  C   UNL A   1      38.989  29.348  29.532  1.00  0.00    -0.014 A 
ATOM     61  C   UNL A   1      38.496  29.696  28.266  1.00  0.00     0.009 A 
ATOM     62  C   UNL A   1      38.062  29.205  30.582  1.00  0.00     0.009 A 
ATOM     63  C   UNL A   1      37.122  29.861  28.051  1.00  0.00     0.001 A 
ATOM     64  C   UNL A   1      36.691  29.377  30.369  1.00  0.00     0.001 A 
ATOM     65  C   UNL A   1      36.219  29.689  29.099  1.00  0.00     0.000 A 
ENDBRANCH  41  60
BRANCH  53  66
ATOM     66  C   UNL A   1      44.191  28.309  32.752  1.00  0.00    -0.014 A 
ATOM     67  C   UNL A   1      43.925  28.695  34.078  1.00  0.00     0.009 A 
ATOM     68  C   UNL A   1      44.057  26.954  32.417  1.00  0.00     0.009 A 
ATOM     69  C   UNL A   1      43.581  27.750  35.048  1.00  0.00     0.001 A 
ATOM     70  C   UNL A   1      43.689  26.013  33.380  1.00  0.00     0.001 A 
ATOM     71  C   UNL A   1      43.460  26.408  34.697  1.00  0.00     0.000 A 
ENDBRANCH  53  66
ENDBRANCH  27  28
ENDBRANCH  20  22
ENDBRANCH  19  20
ENDBRANCH   1  19
TORSDOF 12
ENDMDL
