MODEL 1
REMARK VINA RESULT:     -10.8      0.000      0.000
REMARK SMILES C[C@@H](C(=O)OCCOC(=O)c1ccc(-c2c3nc(c(-c4ccccc4)c4ccc([nH]4)c(-c4ccccc4)c4nc(c(-c5ccccc5)c5ccc2[nH]5)C=C4)C=C3)cc1)c1ccc(Cc2ccoc2)cc1F
REMARK SMILES IDX 6 1 5 2 3 3 4 4 2 5 1 6 59 7 60 8 70 9 61 10 69 11 71 12
REMARK SMILES IDX 62 13 63 14 64 15 65 16 68 17 66 18 67 19 7 20 8 21 9 22
REMARK SMILES IDX 10 23 11 24 12 25 58 26 13 27 57 28 14 29 15 30 16 31 51 32
REMARK SMILES IDX 17 33 56 34 50 35 52 36 18 37 55 38 49 39 48 40 19 42 41 43
REMARK SMILES IDX 26 44 40 45 27 46 30 47 39 48 53 49 28 50 29 51 38 53 54 54
REMARK SMILES IDX 31 55 20 56 21 57 25 58 22 59 24 60 23 61 42 62 43 63 47 64
REMARK SMILES IDX 44 65 46 66 45 67 32 68 33 69 37 70 34 71 36 72 35 73
REMARK H PARENT 52 41 30 52
REMARK Flexibility Score: inf
ROOT
ATOM      1  C   UNL A   1      34.720  20.928  24.654  1.00  0.00     0.274 C 
ENDROOT
BRANCH   1   2
ATOM      2  O   UNL A   1      33.753  20.614  25.681  1.00  0.00    -0.462 OA
BRANCH   2   3
ATOM      3  C   UNL A   1      33.564  21.543  26.660  1.00  0.00     0.313 C 
ATOM      4  O   UNL A   1      34.252  21.600  27.675  1.00  0.00    -0.252 OA
BRANCH   3   5
ATOM      5  C   UNL A   1      32.350  22.462  26.389  1.00  0.00     0.129 C 
ATOM      6  C   UNL A   1      31.468  21.903  25.264  1.00  0.00     0.025 C 
BRANCH   5   7
ATOM      7  C   UNL A   1      32.755  23.937  26.227  1.00  0.00     0.002 A 
ATOM      8  C   UNL A   1      34.070  24.253  25.839  1.00  0.00     0.008 A 
ATOM      9  C   UNL A   1      31.887  25.019  26.405  1.00  0.00     0.127 A 
ATOM     10  C   UNL A   1      34.462  25.572  25.548  1.00  0.00     0.004 A 
ATOM     11  C   UNL A   1      32.281  26.340  26.146  1.00  0.00     0.043 A 
ATOM     12  F   UNL A   1      30.617  24.833  26.787  1.00  0.00    -0.207 F 
ATOM     13  C   UNL A   1      33.570  26.644  25.682  1.00  0.00    -0.041 A 
BRANCH  13  14
ATOM     14  C   UNL A   1      33.829  28.044  25.154  1.00  0.00     0.074 C 
BRANCH  14  15
ATOM     15  C   UNL A   1      33.990  29.024  26.261  1.00  0.00    -0.005 A 
ATOM     16  C   UNL A   1      35.131  29.231  27.094  1.00  0.00     0.046 A 
ATOM     17  C   UNL A   1      33.113  30.034  26.605  1.00  0.00     0.198 A 
ATOM     18  C   UNL A   1      34.845  30.307  27.899  1.00  0.00     0.195 A 
ATOM     19  O   UNL A   1      33.619  30.804  27.601  1.00  0.00    -0.472 OA
ENDBRANCH  14  15
ENDBRANCH  13  14
ENDBRANCH   5   7
ENDBRANCH   3   5
ENDBRANCH   2   3
ENDBRANCH   1   2
BRANCH   1  20
ATOM     20  C   UNL A   1      36.073  20.310  24.993  1.00  0.00     0.275 C 
BRANCH  20  21
ATOM     21  O   UNL A   1      36.915  21.326  25.559  1.00  0.00    -0.458 OA
BRANCH  21  22
ATOM     22  C   UNL A   1      38.234  21.038  25.640  1.00  0.00     0.338 C 
ATOM     23  O   UNL A   1      38.798  20.010  25.318  1.00  0.00    -0.246 OA
BRANCH  22  24
ATOM     24  C   UNL A   1      38.929  22.216  26.181  1.00  0.00     0.060 A 
ATOM     25  C   UNL A   1      38.338  23.468  26.045  1.00  0.00     0.016 A 
ATOM     26  C   UNL A   1      40.197  22.096  26.748  1.00  0.00     0.016 A 
ATOM     27  C   UNL A   1      39.035  24.608  26.424  1.00  0.00     0.010 A 
ATOM     28  C   UNL A   1      40.873  23.245  27.179  1.00  0.00     0.010 A 
ATOM     29  C   UNL A   1      40.313  24.520  26.988  1.00  0.00    -0.014 A 
BRANCH  29  30
ATOM     30  C   UNL A   1      41.075  25.765  27.284  1.00  0.00     0.031 A 
ATOM     31  C   UNL A   1      40.531  26.760  28.277  1.00  0.00     0.074 A 
ATOM     32  C   UNL A   1      42.294  25.979  26.748  1.00  0.00     0.049 A 
ATOM     33  N   UNL A   1      40.983  27.949  28.589  1.00  0.00    -0.248 NA
ATOM     34  C   UNL A   1      39.326  26.363  29.023  1.00  0.00     0.031 C 
ATOM     35  C   UNL A   1      43.005  25.062  25.855  1.00  0.00     0.029 A 
ATOM     36  N   UNL A   1      43.166  27.029  26.907  1.00  0.00    -0.354 N 
ATOM     37  C   UNL A   1      40.086  28.465  29.516  1.00  0.00     0.074 A 
ATOM     38  C   UNL A   1      39.072  27.454  29.730  1.00  0.00     0.031 C 
ATOM     39  C   UNL A   1      44.222  25.565  25.591  1.00  0.00     0.029 A 
ATOM     40  C   UNL A   1      44.346  26.874  26.221  1.00  0.00     0.049 A 
ATOM     41  H   UNL A   1      42.964  27.817  27.461  1.00  0.00     0.167 HD
ATOM     42  C   UNL A   1      40.094  29.674  30.127  1.00  0.00     0.031 A 
ATOM     43  C   UNL A   1      45.396  27.707  26.082  1.00  0.00     0.031 A 
ATOM     44  C   UNL A   1      41.113  30.672  29.949  1.00  0.00     0.049 A 
ATOM     45  C   UNL A   1      45.346  29.074  26.707  1.00  0.00     0.074 A 
ATOM     46  C   UNL A   1      41.186  31.939  30.504  1.00  0.00     0.029 A 
ATOM     47  N   UNL A   1      42.246  30.512  29.170  1.00  0.00    -0.354 N 
ATOM     48  N   UNL A   1      44.439  29.589  27.500  1.00  0.00    -0.248 NA
ATOM     49  C   UNL A   1      46.455  29.986  26.386  1.00  0.00     0.031 C 
ATOM     50  C   UNL A   1      42.347  32.559  30.031  1.00  0.00     0.029 A 
ATOM     51  C   UNL A   1      43.017  31.661  29.217  1.00  0.00     0.049 A 
ATOM     52  H   UNL A   1      42.471  29.700  28.660  1.00  0.00     0.167 HD
ATOM     53  C   UNL A   1      44.869  30.880  27.774  1.00  0.00     0.074 A 
ATOM     54  C   UNL A   1      46.129  31.063  27.087  1.00  0.00     0.031 C 
ATOM     55  C   UNL A   1      44.265  31.834  28.524  1.00  0.00     0.031 A 
BRANCH  42  56
ATOM     56  C   UNL A   1      38.922  30.010  31.003  1.00  0.00    -0.014 A 
ATOM     57  C   UNL A   1      37.746  30.565  30.479  1.00  0.00     0.009 A 
ATOM     58  C   UNL A   1      38.995  29.733  32.378  1.00  0.00     0.009 A 
ATOM     59  C   UNL A   1      36.673  30.862  31.323  1.00  0.00     0.001 A 
ATOM     60  C   UNL A   1      37.914  30.011  33.214  1.00  0.00     0.001 A 
ATOM     61  C   UNL A   1      36.757  30.582  32.688  1.00  0.00     0.000 A 
ENDBRANCH  42  56
BRANCH  43  62
ATOM     62  C   UNL A   1      46.565  27.305  25.259  1.00  0.00    -0.014 A 
ATOM     63  C   UNL A   1      47.508  26.393  25.758  1.00  0.00     0.009 A 
ATOM     64  C   UNL A   1      46.764  27.856  23.983  1.00  0.00     0.009 A 
ATOM     65  C   UNL A   1      48.635  26.057  25.003  1.00  0.00     0.001 A 
ATOM     66  C   UNL A   1      47.874  27.495  23.218  1.00  0.00     0.001 A 
ATOM     67  C   UNL A   1      48.813  26.603  23.732  1.00  0.00     0.000 A 
ENDBRANCH  43  62
BRANCH  55  68
ATOM     68  C   UNL A   1      44.967  33.155  28.650  1.00  0.00    -0.014 A 
ATOM     69  C   UNL A   1      45.924  33.372  29.653  1.00  0.00     0.009 A 
ATOM     70  C   UNL A   1      44.695  34.182  27.733  1.00  0.00     0.009 A 
ATOM     71  C   UNL A   1      46.577  34.603  29.750  1.00  0.00     0.001 A 
ATOM     72  C   UNL A   1      45.365  35.403  27.819  1.00  0.00     0.001 A 
ATOM     73  C   UNL A   1      46.299  35.615  28.831  1.00  0.00     0.000 A 
ENDBRANCH  55  68
ENDBRANCH  29  30
ENDBRANCH  22  24
ENDBRANCH  21  22
ENDBRANCH  20  21
ENDBRANCH   1  20
TORSDOF 14
ENDMDL
MODEL 2
REMARK VINA RESULT:     -10.7      1.526      2.178
REMARK SMILES C[C@@H](C(=O)OCCOC(=O)c1ccc(-c2c3nc(c(-c4ccccc4)c4ccc([nH]4)c(-c4ccccc4)c4nc(c(-c5ccccc5)c5ccc2[nH]5)C=C4)C=C3)cc1)c1ccc(Cc2ccoc2)cc1F
REMARK SMILES IDX 6 1 5 2 3 3 4 4 2 5 1 6 59 7 60 8 70 9 61 10 69 11 71 12
REMARK SMILES IDX 62 13 63 14 64 15 65 16 68 17 66 18 67 19 7 20 8 21 9 22
REMARK SMILES IDX 10 23 11 24 12 25 58 26 13 27 57 28 14 29 15 30 16 31 51 32
REMARK SMILES IDX 17 33 56 34 50 35 52 36 18 37 55 38 49 39 48 40 19 42 41 43
REMARK SMILES IDX 26 44 40 45 27 46 30 47 39 48 53 49 28 50 29 51 38 53 54 54
REMARK SMILES IDX 31 55 20 56 21 57 25 58 22 59 24 60 23 61 42 62 43 63 47 64
REMARK SMILES IDX 44 65 46 66 45 67 32 68 33 69 37 70 34 71 36 72 35 73
REMARK H PARENT 52 41 30 52
REMARK Flexibility Score: inf
ROOT
ATOM      1  C   UNL A   1      35.023  20.423  25.008  1.00  0.00     0.274 C 
ENDROOT
BRANCH   1   2
ATOM      2  O   UNL A   1      33.865  21.147  24.535  1.00  0.00    -0.462 OA
BRANCH   2   3
ATOM      3  C   UNL A   1      32.931  21.498  25.464  1.00  0.00     0.313 C 
ATOM      4  O   UNL A   1      31.803  21.018  25.498  1.00  0.00    -0.252 OA
BRANCH   3   5
ATOM      5  C   UNL A   1      33.423  22.613  26.417  1.00  0.00     0.129 C 
ATOM      6  C   UNL A   1      33.154  22.251  27.884  1.00  0.00     0.025 C 
BRANCH   5   7
ATOM      7  C   UNL A   1      32.933  24.007  25.990  1.00  0.00     0.002 A 
ATOM      8  C   UNL A   1      31.588  24.362  26.202  1.00  0.00     0.008 A 
ATOM      9  C   UNL A   1      33.749  24.992  25.423  1.00  0.00     0.127 A 
ATOM     10  C   UNL A   1      31.115  25.663  25.954  1.00  0.00     0.004 A 
ATOM     11  C   UNL A   1      33.276  26.282  25.145  1.00  0.00     0.043 A 
ATOM     12  F   UNL A   1      35.042  24.756  25.165  1.00  0.00    -0.207 F 
ATOM     13  C   UNL A   1      31.954  26.656  25.433  1.00  0.00    -0.041 A 
BRANCH  13  14
ATOM     14  C   UNL A   1      31.600  28.132  25.374  1.00  0.00     0.074 C 
BRANCH  14  15
ATOM     15  C   UNL A   1      30.861  28.467  24.129  1.00  0.00    -0.005 A 
ATOM     16  C   UNL A   1      30.151  29.668  23.822  1.00  0.00     0.046 A 
ATOM     17  C   UNL A   1      30.841  27.735  22.957  1.00  0.00     0.198 A 
ATOM     18  C   UNL A   1      29.723  29.555  22.521  1.00  0.00     0.195 A 
ATOM     19  O   UNL A   1      30.145  28.381  21.988  1.00  0.00    -0.472 OA
ENDBRANCH  14  15
ENDBRANCH  13  14
ENDBRANCH   5   7
ENDBRANCH   3   5
ENDBRANCH   2   3
ENDBRANCH   1   2
BRANCH   1  20
ATOM     20  C   UNL A   1      36.302  21.161  24.622  1.00  0.00     0.275 C 
BRANCH  20  21
ATOM     21  O   UNL A   1      36.987  21.553  25.823  1.00  0.00    -0.458 OA
BRANCH  21  22
ATOM     22  C   UNL A   1      38.314  21.300  25.867  1.00  0.00     0.338 C 
ATOM     23  O   UNL A   1      38.897  20.291  25.522  1.00  0.00    -0.246 OA
BRANCH  22  24
ATOM     24  C   UNL A   1      38.991  22.493  26.400  1.00  0.00     0.060 A 
ATOM     25  C   UNL A   1      38.437  23.746  26.158  1.00  0.00     0.016 A 
ATOM     26  C   UNL A   1      40.211  22.382  27.065  1.00  0.00     0.016 A 
ATOM     27  C   UNL A   1      39.127  24.893  26.531  1.00  0.00     0.010 A 
ATOM     28  C   UNL A   1      40.876  23.540  27.488  1.00  0.00     0.010 A 
ATOM     29  C   UNL A   1      40.357  24.813  27.193  1.00  0.00    -0.014 A 
BRANCH  29  30
ATOM     30  C   UNL A   1      41.120  26.059  27.484  1.00  0.00     0.031 A 
ATOM     31  C   UNL A   1      40.572  27.063  28.465  1.00  0.00     0.074 A 
ATOM     32  C   UNL A   1      42.342  26.266  26.953  1.00  0.00     0.049 A 
ATOM     33  N   UNL A   1      41.025  28.254  28.771  1.00  0.00    -0.248 NA
ATOM     34  C   UNL A   1      39.362  26.673  29.207  1.00  0.00     0.031 C 
ATOM     35  C   UNL A   1      43.057  25.341  26.072  1.00  0.00     0.029 A 
ATOM     36  N   UNL A   1      43.215  27.316  27.108  1.00  0.00    -0.354 N 
ATOM     37  C   UNL A   1      40.123  28.778  29.688  1.00  0.00     0.074 A 
ATOM     38  C   UNL A   1      39.106  27.771  29.904  1.00  0.00     0.031 C 
ATOM     39  C   UNL A   1      44.276  25.838  25.811  1.00  0.00     0.029 A 
ATOM     40  C   UNL A   1      44.399  27.153  26.430  1.00  0.00     0.049 A 
ATOM     41  H   UNL A   1      43.012  28.109  27.655  1.00  0.00     0.167 HD
ATOM     42  C   UNL A   1      40.130  29.992  30.289  1.00  0.00     0.031 A 
ATOM     43  C   UNL A   1      45.451  27.982  26.291  1.00  0.00     0.031 A 
ATOM     44  C   UNL A   1      41.152  30.987  30.109  1.00  0.00     0.049 A 
ATOM     45  C   UNL A   1      45.401  29.354  26.905  1.00  0.00     0.074 A 
ATOM     46  C   UNL A   1      41.224  32.258  30.654  1.00  0.00     0.029 A 
ATOM     47  N   UNL A   1      42.290  30.818  29.338  1.00  0.00    -0.354 N 
ATOM     48  N   UNL A   1      44.490  29.877  27.688  1.00  0.00    -0.248 NA
ATOM     49  C   UNL A   1      46.513  30.262  26.583  1.00  0.00     0.031 C 
ATOM     50  C   UNL A   1      42.390  32.872  30.183  1.00  0.00     0.029 A 
ATOM     51  C   UNL A   1      43.062  31.966  29.380  1.00  0.00     0.049 A 
ATOM     52  H   UNL A   1      42.516  30.002  28.836  1.00  0.00     0.167 HD
ATOM     53  C   UNL A   1      44.921  31.170  27.955  1.00  0.00     0.074 A 
ATOM     54  C   UNL A   1      46.186  31.345  27.273  1.00  0.00     0.031 C 
ATOM     55  C   UNL A   1      44.314  32.132  28.693  1.00  0.00     0.031 A 
BRANCH  42  56
ATOM     56  C   UNL A   1      38.954  30.337  31.155  1.00  0.00    -0.014 A 
ATOM     57  C   UNL A   1      38.960  30.096  32.536  1.00  0.00     0.009 A 
ATOM     58  C   UNL A   1      37.830  30.944  30.572  1.00  0.00     0.009 A 
ATOM     59  C   UNL A   1      37.849  30.433  33.313  1.00  0.00     0.001 A 
ATOM     60  C   UNL A   1      36.731  31.299  31.354  1.00  0.00     0.001 A 
ATOM     61  C   UNL A   1      36.738  31.037  32.723  1.00  0.00     0.000 A 
ENDBRANCH  42  56
BRANCH  43  62
ATOM     62  C   UNL A   1      46.625  27.572  25.478  1.00  0.00    -0.014 A 
ATOM     63  C   UNL A   1      46.707  27.918  24.120  1.00  0.00     0.009 A 
ATOM     64  C   UNL A   1      47.653  26.803  26.046  1.00  0.00     0.009 A 
ATOM     65  C   UNL A   1      47.787  27.485  23.345  1.00  0.00     0.001 A 
ATOM     66  C   UNL A   1      48.746  26.398  25.278  1.00  0.00     0.001 A 
ATOM     67  C   UNL A   1      48.808  26.732  23.926  1.00  0.00     0.000 A 
ENDBRANCH  43  62
BRANCH  55  68
ATOM     68  C   UNL A   1      45.018  33.452  28.812  1.00  0.00    -0.014 A 
ATOM     69  C   UNL A   1      44.788  34.480  27.885  1.00  0.00     0.009 A 
ATOM     70  C   UNL A   1      45.893  33.683  29.885  1.00  0.00     0.009 A 
ATOM     71  C   UNL A   1      45.442  35.707  28.017  1.00  0.00     0.001 A 
ATOM     72  C   UNL A   1      46.528  34.918  30.026  1.00  0.00     0.001 A 
ATOM     73  C   UNL A   1      46.308  35.926  29.088  1.00  0.00     0.000 A 
ENDBRANCH  55  68
ENDBRANCH  29  30
ENDBRANCH  22  24
ENDBRANCH  21  22
ENDBRANCH  20  21
ENDBRANCH   1  20
TORSDOF 14
ENDMDL
MODEL 3
REMARK VINA RESULT:     -10.5      4.189      9.024
REMARK SMILES C[C@@H](C(=O)OCCOC(=O)c1ccc(-c2c3nc(c(-c4ccccc4)c4ccc([nH]4)c(-c4ccccc4)c4nc(c(-c5ccccc5)c5ccc2[nH]5)C=C4)C=C3)cc1)c1ccc(Cc2ccoc2)cc1F
REMARK SMILES IDX 6 1 5 2 3 3 4 4 2 5 1 6 59 7 60 8 70 9 61 10 69 11 71 12
REMARK SMILES IDX 62 13 63 14 64 15 65 16 68 17 66 18 67 19 7 20 8 21 9 22
REMARK SMILES IDX 10 23 11 24 12 25 58 26 13 27 57 28 14 29 15 30 16 31 51 32
REMARK SMILES IDX 17 33 56 34 50 35 52 36 18 37 55 38 49 39 48 40 19 42 41 43
REMARK SMILES IDX 26 44 40 45 27 46 30 47 39 48 53 49 28 50 29 51 38 53 54 54
REMARK SMILES IDX 31 55 20 56 21 57 25 58 22 59 24 60 23 61 42 62 43 63 47 64
REMARK SMILES IDX 44 65 46 66 45 67 32 68 33 69 37 70 34 71 36 72 35 73
REMARK H PARENT 52 41 30 52
REMARK Flexibility Score: inf
ROOT
ATOM      1  C   UNL A   1      31.840  28.698  26.688  1.00  0.00     0.274 C 
ENDROOT
BRANCH   1   2
ATOM      2  O   UNL A   1      32.492  28.358  25.444  1.00  0.00    -0.462 OA
BRANCH   2   3
ATOM      3  C   UNL A   1      33.032  27.110  25.348  1.00  0.00     0.313 C 
ATOM      4  O   UNL A   1      34.013  26.750  25.991  1.00  0.00    -0.252 OA
BRANCH   3   5
ATOM      5  C   UNL A   1      32.322  26.229  24.292  1.00  0.00     0.129 C 
ATOM      6  C   UNL A   1      33.300  25.767  23.204  1.00  0.00     0.025 C 
BRANCH   5   7
ATOM      7  C   UNL A   1      31.024  26.869  23.772  1.00  0.00     0.002 A 
ATOM      8  C   UNL A   1      29.783  26.372  24.213  1.00  0.00     0.008 A 
ATOM      9  C   UNL A   1      30.976  27.959  22.897  1.00  0.00     0.127 A 
ATOM     10  C   UNL A   1      28.570  26.998  23.876  1.00  0.00     0.004 A 
ATOM     11  C   UNL A   1      29.767  28.569  22.533  1.00  0.00     0.043 A 
ATOM     12  F   UNL A   1      32.097  28.502  22.405  1.00  0.00    -0.207 F 
ATOM     13  C   UNL A   1      28.537  28.121  23.039  1.00  0.00    -0.041 A 
BRANCH  13  14
ATOM     14  C   UNL A   1      27.315  28.998  22.832  1.00  0.00     0.074 C 
BRANCH  14  15
ATOM     15  C   UNL A   1      27.695  30.415  22.587  1.00  0.00    -0.005 A 
ATOM     16  C   UNL A   1      28.030  31.035  21.345  1.00  0.00     0.046 A 
ATOM     17  C   UNL A   1      27.654  31.451  23.501  1.00  0.00     0.198 A 
ATOM     18  C   UNL A   1      28.207  32.372  21.604  1.00  0.00     0.195 A 
ATOM     19  O   UNL A   1      27.975  32.632  22.915  1.00  0.00    -0.472 OA
ENDBRANCH  14  15
ENDBRANCH  13  14
ENDBRANCH   5   7
ENDBRANCH   3   5
ENDBRANCH   2   3
ENDBRANCH   1   2
BRANCH   1  20
ATOM     20  C   UNL A   1      31.633  30.207  26.781  1.00  0.00     0.275 C 
BRANCH  20  21
ATOM     21  O   UNL A   1      32.849  30.864  26.388  1.00  0.00    -0.458 OA
BRANCH  21  22
ATOM     22  C   UNL A   1      33.292  31.846  27.206  1.00  0.00     0.338 C 
ATOM     23  O   UNL A   1      32.753  32.903  27.470  1.00  0.00    -0.246 OA
BRANCH  22  24
ATOM     24  C   UNL A   1      34.578  31.419  27.779  1.00  0.00     0.060 A 
ATOM     25  C   UNL A   1      34.768  30.074  28.081  1.00  0.00     0.016 A 
ATOM     26  C   UNL A   1      35.562  32.355  28.094  1.00  0.00     0.016 A 
ATOM     27  C   UNL A   1      35.917  29.669  28.748  1.00  0.00     0.010 A 
ATOM     28  C   UNL A   1      36.744  31.932  28.717  1.00  0.00     0.010 A 
ATOM     29  C   UNL A   1      36.919  30.586  29.084  1.00  0.00    -0.014 A 
BRANCH  29  30
ATOM     30  C   UNL A   1      38.088  30.138  29.891  1.00  0.00     0.031 A 
ATOM     31  C   UNL A   1      39.204  29.368  29.233  1.00  0.00     0.074 A 
ATOM     32  C   UNL A   1      38.214  30.488  31.188  1.00  0.00     0.049 A 
ATOM     33  N   UNL A   1      40.248  28.795  29.778  1.00  0.00    -0.248 NA
ATOM     34  C   UNL A   1      39.142  29.231  27.768  1.00  0.00     0.031 C 
ATOM     35  C   UNL A   1      37.274  31.322  31.940  1.00  0.00     0.029 A 
ATOM     36  N   UNL A   1      39.208  30.210  32.093  1.00  0.00    -0.354 N 
ATOM     37  C   UNL A   1      40.930  28.179  28.737  1.00  0.00     0.074 A 
ATOM     38  C   UNL A   1      40.192  28.461  27.524  1.00  0.00     0.031 C 
ATOM     39  C   UNL A   1      37.765  31.531  33.173  1.00  0.00     0.029 A 
ATOM     40  C   UNL A   1      39.005  30.778  33.327  1.00  0.00     0.049 A 
ATOM     41  H   UNL A   1      39.994  29.657  31.878  1.00  0.00     0.167 HD
ATOM     42  C   UNL A   1      42.060  27.435  28.783  1.00  0.00     0.031 A 
ATOM     43  C   UNL A   1      39.715  30.677  34.468  1.00  0.00     0.031 A 
ATOM     44  C   UNL A   1      42.821  27.176  29.975  1.00  0.00     0.049 A 
ATOM     45  C   UNL A   1      40.923  29.783  34.513  1.00  0.00     0.074 A 
ATOM     46  C   UNL A   1      43.963  26.406  30.121  1.00  0.00     0.029 A 
ATOM     47  N   UNL A   1      42.527  27.694  31.225  1.00  0.00    -0.354 N 
ATOM     48  N   UNL A   1      41.499  29.121  33.540  1.00  0.00    -0.248 NA
ATOM     49  C   UNL A   1      41.558  29.597  35.827  1.00  0.00     0.031 C 
ATOM     50  C   UNL A   1      44.339  26.429  31.468  1.00  0.00     0.029 A 
ATOM     51  C   UNL A   1      43.456  27.249  32.150  1.00  0.00     0.049 A 
ATOM     52  H   UNL A   1      41.771  28.292  31.426  1.00  0.00     0.167 HD
ATOM     53  C   UNL A   1      42.563  28.445  34.123  1.00  0.00     0.074 A 
ATOM     54  C   UNL A   1      42.570  28.796  35.527  1.00  0.00     0.031 C 
ATOM     55  C   UNL A   1      43.450  27.599  33.545  1.00  0.00     0.031 A 
BRANCH  42  56
ATOM     56  C   UNL A   1      42.511  26.789  27.505  1.00  0.00    -0.014 A 
ATOM     57  C   UNL A   1      42.043  25.527  27.112  1.00  0.00     0.009 A 
ATOM     58  C   UNL A   1      43.402  27.479  26.666  1.00  0.00     0.009 A 
ATOM     59  C   UNL A   1      42.481  24.957  25.914  1.00  0.00     0.001 A 
ATOM     60  C   UNL A   1      43.820  26.916  25.461  1.00  0.00     0.001 A 
ATOM     61  C   UNL A   1      43.366  25.653  25.089  1.00  0.00     0.000 A 
ENDBRANCH  42  56
BRANCH  43  62
ATOM     62  C   UNL A   1      39.268  31.389  35.693  1.00  0.00    -0.014 A 
ATOM     63  C   UNL A   1      38.216  30.878  36.470  1.00  0.00     0.009 A 
ATOM     64  C   UNL A   1      39.868  32.600  36.074  1.00  0.00     0.009 A 
ATOM     65  C   UNL A   1      37.763  31.577  37.592  1.00  0.00     0.001 A 
ATOM     66  C   UNL A   1      39.434  33.280  37.213  1.00  0.00     0.001 A 
ATOM     67  C   UNL A   1      38.376  32.773  37.966  1.00  0.00     0.000 A 
ENDBRANCH  43  62
BRANCH  55  68
ATOM     68  C   UNL A   1      44.510  27.007  34.428  1.00  0.00    -0.014 A 
ATOM     69  C   UNL A   1      45.727  27.672  34.640  1.00  0.00     0.009 A 
ATOM     70  C   UNL A   1      44.273  25.789  35.084  1.00  0.00     0.009 A 
ATOM     71  C   UNL A   1      46.698  27.113  35.473  1.00  0.00     0.001 A 
ATOM     72  C   UNL A   1      45.237  25.245  35.933  1.00  0.00     0.001 A 
ATOM     73  C   UNL A   1      46.451  25.903  36.122  1.00  0.00     0.000 A 
ENDBRANCH  55  68
ENDBRANCH  29  30
ENDBRANCH  22  24
ENDBRANCH  21  22
ENDBRANCH  20  21
ENDBRANCH   1  20
TORSDOF 14
ENDMDL
