MODEL 1
REMARK VINA RESULT:      -9.0      0.000      0.000
REMARK SMILES CC(C)[C@H](C(=O)OCCOC(=O)c1ccc(-c2c3nc(c(-c4ccccc4)c4ccc([nH]4)c(-c4ccccc4)c4nc(c(-c5ccccc5)c5ccc2[nH]5)C=C4)C=C3)cc1)[C@H](C)[C@@H](C)O
REMARK SMILES IDX 8 1 7 2 5 3 6 4 4 5 2 6 1 7 3 8 61 9 62 10 63 11 64 12 65 13
REMARK SMILES IDX 9 15 10 16 11 17 12 18 13 19 14 20 60 21 15 22 59 23 16 24
REMARK SMILES IDX 17 25 18 26 53 27 19 28 58 29 52 30 54 31 20 32 57 33 51 34
REMARK SMILES IDX 50 35 21 37 43 38 28 39 42 40 29 41 32 42 41 43 55 44 30 45
REMARK SMILES IDX 31 46 40 48 56 49 33 50 22 51 23 52 27 53 24 54 26 55 25 56
REMARK SMILES IDX 44 57 45 58 49 59 46 60 48 61 47 62 34 63 35 64 39 65 36 66
REMARK SMILES IDX 38 67 37 68
REMARK H PARENT 65 14 54 36 32 47
REMARK Flexibility Score: inf
ROOT
ATOM      1  C   UNL A   1      32.273  31.560  27.123  1.00  0.00     0.274 C 
ENDROOT
BRANCH   1   2
ATOM      2  O   UNL A   1      31.616  31.067  25.943  1.00  0.00    -0.462 OA
BRANCH   2   3
ATOM      3  C   UNL A   1      31.576  29.733  25.774  1.00  0.00     0.309 C 
ATOM      4  O   UNL A   1      31.559  28.971  26.731  1.00  0.00    -0.252 OA
BRANCH   3   5
ATOM      5  C   UNL A   1      31.662  29.303  24.288  1.00  0.00     0.107 C 
BRANCH   5   6
ATOM      6  C   UNL A   1      32.906  28.322  24.046  1.00  0.00    -0.003 C 
ATOM      7  C   UNL A   1      33.765  28.833  22.879  1.00  0.00     0.008 C 
ATOM      8  C   UNL A   1      33.874  27.987  25.195  1.00  0.00     0.008 C 
ENDBRANCH   5   6
BRANCH   5   9
ATOM      9  C   UNL A   1      30.320  28.711  23.613  1.00  0.00     0.029 C 
ATOM     10  C   UNL A   1      30.468  27.220  23.227  1.00  0.00     0.011 C 
BRANCH   9  11
ATOM     11  C   UNL A   1      29.725  29.468  22.369  1.00  0.00     0.115 C 
ATOM     12  C   UNL A   1      28.981  30.768  22.700  1.00  0.00     0.038 C 
BRANCH  11  13
ATOM     13  O   UNL A   1      30.730  29.910  21.461  1.00  0.00    -0.393 OA
ATOM     14  H   UNL A   1      31.575  29.997  21.929  1.00  0.00     0.210 HD
ENDBRANCH  11  13
ENDBRANCH   9  11
ENDBRANCH   5   9
ENDBRANCH   3   5
ENDBRANCH   2   3
ENDBRANCH   1   2
BRANCH   1  15
ATOM     15  C   UNL A   1      32.543  33.063  26.998  1.00  0.00     0.275 C 
BRANCH  15  16
ATOM     16  O   UNL A   1      32.159  33.793  28.186  1.00  0.00    -0.458 OA
BRANCH  16  17
ATOM     17  C   UNL A   1      33.057  34.697  28.651  1.00  0.00     0.338 C 
ATOM     18  O   UNL A   1      32.861  35.884  28.857  1.00  0.00    -0.246 OA
BRANCH  17  19
ATOM     19  C   UNL A   1      34.317  34.013  29.029  1.00  0.00     0.060 A 
ATOM     20  C   UNL A   1      34.292  33.127  30.112  1.00  0.00     0.016 A 
ATOM     21  C   UNL A   1      35.520  34.246  28.363  1.00  0.00     0.016 A 
ATOM     22  C   UNL A   1      35.426  32.409  30.481  1.00  0.00     0.010 A 
ATOM     23  C   UNL A   1      36.679  33.569  28.768  1.00  0.00     0.010 A 
ATOM     24  C   UNL A   1      36.632  32.635  29.819  1.00  0.00    -0.014 A 
BRANCH  24  25
ATOM     25  C   UNL A   1      37.852  31.963  30.317  1.00  0.00     0.031 A 
ATOM     26  C   UNL A   1      38.622  32.593  31.439  1.00  0.00     0.074 A 
ATOM     27  C   UNL A   1      38.233  30.773  29.819  1.00  0.00     0.049 A 
ATOM     28  N   UNL A   1      39.725  32.191  32.015  1.00  0.00    -0.248 NA
ATOM     29  C   UNL A   1      38.064  33.835  31.997  1.00  0.00     0.031 C 
ATOM     30  C   UNL A   1      37.510  30.007  28.805  1.00  0.00     0.029 A 
ATOM     31  N   UNL A   1      39.329  30.000  30.109  1.00  0.00    -0.354 N 
ATOM     32  C   UNL A   1      39.993  33.128  33.004  1.00  0.00     0.074 A 
ATOM     33  C   UNL A   1      38.947  34.126  32.940  1.00  0.00     0.031 C 
ATOM     34  C   UNL A   1      38.195  28.880  28.541  1.00  0.00     0.029 A 
ATOM     35  C   UNL A   1      39.420  28.866  29.339  1.00  0.00     0.049 A 
ATOM     36  H   UNL A   1      39.986  30.234  30.803  1.00  0.00     0.167 HD
ATOM     37  C   UNL A   1      41.025  33.160  33.879  1.00  0.00     0.031 A 
ATOM     38  C   UNL A   1      40.397  27.940  29.267  1.00  0.00     0.031 A 
ATOM     39  C   UNL A   1      42.093  32.196  33.908  1.00  0.00     0.049 A 
ATOM     40  C   UNL A   1      41.608  28.080  30.155  1.00  0.00     0.074 A 
ATOM     41  C   UNL A   1      43.201  32.161  34.735  1.00  0.00     0.029 A 
ATOM     42  N   UNL A   1      42.195  31.107  33.056  1.00  0.00    -0.354 N 
ATOM     43  N   UNL A   1      41.858  28.969  31.086  1.00  0.00    -0.248 NA
ATOM     44  C   UNL A   1      42.675  27.081  29.981  1.00  0.00     0.031 C 
ATOM     45  C   UNL A   1      44.008  31.090  34.340  1.00  0.00     0.029 A 
ATOM     46  C   UNL A   1      43.365  30.413  33.315  1.00  0.00     0.049 A 
ATOM     47  H   UNL A   1      41.533  30.864  32.368  1.00  0.00     0.167 HD
ATOM     48  C   UNL A   1      43.088  28.617  31.630  1.00  0.00     0.074 A 
ATOM     49  C   UNL A   1      43.527  27.426  30.936  1.00  0.00     0.031 C 
ATOM     50  C   UNL A   1      43.789  29.225  32.619  1.00  0.00     0.031 A 
BRANCH  37  51
ATOM     51  C   UNL A   1      41.078  34.319  34.833  1.00  0.00    -0.014 A 
ATOM     52  C   UNL A   1      41.725  35.518  34.496  1.00  0.00     0.009 A 
ATOM     53  C   UNL A   1      40.456  34.211  36.087  1.00  0.00     0.009 A 
ATOM     54  C   UNL A   1      41.780  36.572  35.411  1.00  0.00     0.001 A 
ATOM     55  C   UNL A   1      40.487  35.277  36.989  1.00  0.00     0.001 A 
ATOM     56  C   UNL A   1      41.157  36.452  36.653  1.00  0.00     0.000 A 
ENDBRANCH  37  51
BRANCH  38  57
ATOM     57  C   UNL A   1      40.309  26.823  28.288  1.00  0.00    -0.014 A 
ATOM     58  C   UNL A   1      40.814  26.964  26.986  1.00  0.00     0.009 A 
ATOM     59  C   UNL A   1      39.667  25.624  28.636  1.00  0.00     0.009 A 
ATOM     60  C   UNL A   1      40.646  25.942  26.046  1.00  0.00     0.001 A 
ATOM     61  C   UNL A   1      39.530  24.592  27.706  1.00  0.00     0.001 A 
ATOM     62  C   UNL A   1      40.008  24.757  26.408  1.00  0.00     0.000 A 
ENDBRANCH  38  57
BRANCH  50  63
ATOM     63  C   UNL A   1      45.085  28.588  33.045  1.00  0.00    -0.014 A 
ATOM     64  C   UNL A   1      46.312  28.961  32.475  1.00  0.00     0.009 A 
ATOM     65  C   UNL A   1      45.078  27.632  34.074  1.00  0.00     0.009 A 
ATOM     66  C   UNL A   1      47.500  28.365  32.902  1.00  0.00     0.001 A 
ATOM     67  C   UNL A   1      46.271  27.062  34.523  1.00  0.00     0.001 A 
ATOM     68  C   UNL A   1      47.479  27.422  33.930  1.00  0.00     0.000 A 
ENDBRANCH  50  63
ENDBRANCH  24  25
ENDBRANCH  17  19
ENDBRANCH  16  17
ENDBRANCH  15  16
ENDBRANCH   1  15
TORSDOF 15
ENDMDL
MODEL 2
REMARK VINA RESULT:      -9.0      2.872      6.126
REMARK SMILES CC(C)[C@H](C(=O)OCCOC(=O)c1ccc(-c2c3nc(c(-c4ccccc4)c4ccc([nH]4)c(-c4ccccc4)c4nc(c(-c5ccccc5)c5ccc2[nH]5)C=C4)C=C3)cc1)[C@H](C)[C@@H](C)O
REMARK SMILES IDX 8 1 7 2 5 3 6 4 4 5 2 6 1 7 3 8 61 9 62 10 63 11 64 12 65 13
REMARK SMILES IDX 9 15 10 16 11 17 12 18 13 19 14 20 60 21 15 22 59 23 16 24
REMARK SMILES IDX 17 25 18 26 53 27 19 28 58 29 52 30 54 31 20 32 57 33 51 34
REMARK SMILES IDX 50 35 21 37 43 38 28 39 42 40 29 41 32 42 41 43 55 44 30 45
REMARK SMILES IDX 31 46 40 48 56 49 33 50 22 51 23 52 27 53 24 54 26 55 25 56
REMARK SMILES IDX 44 57 45 58 49 59 46 60 48 61 47 62 34 63 35 64 39 65 36 66
REMARK SMILES IDX 38 67 37 68
REMARK H PARENT 65 14 54 36 32 47
REMARK Flexibility Score: inf
ROOT
ATOM      1  C   UNL A   1      35.362  33.487  29.639  1.00  0.00     0.274 C 
ENDROOT
BRANCH   1   2
ATOM      2  O   UNL A   1      34.958  32.600  30.697  1.00  0.00    -0.462 OA
BRANCH   2   3
ATOM      3  C   UNL A   1      34.503  33.164  31.830  1.00  0.00     0.309 C 
ATOM      4  O   UNL A   1      33.679  32.597  32.536  1.00  0.00    -0.252 OA
BRANCH   3   5
ATOM      5  C   UNL A   1      35.043  34.597  32.060  1.00  0.00     0.107 C 
BRANCH   5   6
ATOM      6  C   UNL A   1      33.841  35.635  32.279  1.00  0.00    -0.003 C 
ATOM      7  C   UNL A   1      34.259  36.728  33.274  1.00  0.00     0.008 C 
ATOM      8  C   UNL A   1      33.198  36.353  31.078  1.00  0.00     0.008 C 
ENDBRANCH   5   6
BRANCH   5   9
ATOM      9  C   UNL A   1      36.181  34.786  33.189  1.00  0.00     0.029 C 
ATOM     10  C   UNL A   1      37.604  34.825  32.583  1.00  0.00     0.011 C 
BRANCH   9  11
ATOM     11  C   UNL A   1      36.202  33.772  34.391  1.00  0.00     0.115 C 
ATOM     12  C   UNL A   1      37.327  34.000  35.408  1.00  0.00     0.038 C 
BRANCH  11  13
ATOM     13  O   UNL A   1      35.033  33.854  35.200  1.00  0.00    -0.393 OA
ATOM     14  H   UNL A   1      35.204  33.440  36.060  1.00  0.00     0.210 HD
ENDBRANCH  11  13
ENDBRANCH   9  11
ENDBRANCH   5   9
ENDBRANCH   3   5
ENDBRANCH   2   3
ENDBRANCH   1   2
BRANCH   1  15
ATOM     15  C   UNL A   1      34.950  32.919  28.276  1.00  0.00     0.275 C 
BRANCH  15  16
ATOM     16  O   UNL A   1      34.069  31.778  28.399  1.00  0.00    -0.458 OA
BRANCH  16  17
ATOM     17  C   UNL A   1      34.366  30.705  27.623  1.00  0.00     0.338 C 
ATOM     18  O   UNL A   1      33.717  30.283  26.680  1.00  0.00    -0.246 OA
BRANCH  17  19
ATOM     19  C   UNL A   1      35.701  30.173  27.983  1.00  0.00     0.060 A 
ATOM     20  C   UNL A   1      35.889  29.668  29.275  1.00  0.00     0.016 A 
ATOM     21  C   UNL A   1      36.774  30.187  27.092  1.00  0.00     0.016 A 
ATOM     22  C   UNL A   1      37.101  29.101  29.658  1.00  0.00     0.010 A 
ATOM     23  C   UNL A   1      38.015  29.669  27.492  1.00  0.00     0.010 A 
ATOM     24  C   UNL A   1      38.177  29.109  28.772  1.00  0.00    -0.014 A 
BRANCH  24  25
ATOM     25  C   UNL A   1      39.492  28.626  29.248  1.00  0.00     0.031 A 
ATOM     26  C   UNL A   1      40.261  29.460  30.229  1.00  0.00     0.074 A 
ATOM     27  C   UNL A   1      39.965  27.427  28.860  1.00  0.00     0.049 A 
ATOM     28  N   UNL A   1      41.436  29.241  30.760  1.00  0.00    -0.248 NA
ATOM     29  C   UNL A   1      39.611  30.700  30.683  1.00  0.00     0.031 C 
ATOM     30  C   UNL A   1      39.263  26.477  27.999  1.00  0.00     0.029 A 
ATOM     31  N   UNL A   1      41.153  26.807  29.152  1.00  0.00    -0.354 N 
ATOM     32  C   UNL A   1      41.666  30.313  31.612  1.00  0.00     0.074 A 
ATOM     33  C   UNL A   1      40.517  31.188  31.516  1.00  0.00     0.031 C 
ATOM     34  C   UNL A   1      40.046  25.400  27.813  1.00  0.00     0.029 A 
ATOM     35  C   UNL A   1      41.315  25.602  28.511  1.00  0.00     0.049 A 
ATOM     36  H   UNL A   1      41.826  27.187  29.762  1.00  0.00     0.167 HD
ATOM     37  C   UNL A   1      42.744  30.552  32.396  1.00  0.00     0.031 A 
ATOM     38  C   UNL A   1      42.379  24.776  28.469  1.00  0.00     0.031 A 
ATOM     39  C   UNL A   1      43.908  29.708  32.452  1.00  0.00     0.049 A 
ATOM     40  C   UNL A   1      43.623  25.140  29.240  1.00  0.00     0.074 A 
ATOM     41  C   UNL A   1      45.064  29.883  33.190  1.00  0.00     0.029 A 
ATOM     42  N   UNL A   1      44.070  28.539  31.723  1.00  0.00    -0.354 N 
ATOM     43  N   UNL A   1      43.836  26.157  30.042  1.00  0.00    -0.248 NA
ATOM     44  C   UNL A   1      44.777  24.238  29.099  1.00  0.00     0.031 C 
ATOM     45  C   UNL A   1      45.954  28.857  32.858  1.00  0.00     0.029 A 
ATOM     46  C   UNL A   1      45.322  28.001  31.969  1.00  0.00     0.049 A 
ATOM     47  H   UNL A   1      43.394  28.151  31.122  1.00  0.00     0.167 HD
ATOM     48  C   UNL A   1      45.129  25.996  30.526  1.00  0.00     0.074 A 
ATOM     49  C   UNL A   1      45.647  24.778  29.940  1.00  0.00     0.031 C 
ATOM     50  C   UNL A   1      45.824  26.785  31.382  1.00  0.00     0.031 A 
BRANCH  37  51
ATOM     51  C   UNL A   1      42.734  31.817  33.205  1.00  0.00    -0.014 A 
ATOM     52  C   UNL A   1      43.252  33.018  32.696  1.00  0.00     0.009 A 
ATOM     53  C   UNL A   1      42.182  31.809  34.496  1.00  0.00     0.009 A 
ATOM     54  C   UNL A   1      43.253  34.175  33.478  1.00  0.00     0.001 A 
ATOM     55  C   UNL A   1      42.157  32.973  35.265  1.00  0.00     0.001 A 
ATOM     56  C   UNL A   1      42.702  34.153  34.759  1.00  0.00     0.000 A 
ENDBRANCH  37  51
BRANCH  38  57
ATOM     57  C   UNL A   1      42.347  23.545  27.634  1.00  0.00    -0.014 A 
ATOM     58  C   UNL A   1      41.936  22.317  28.177  1.00  0.00     0.009 A 
ATOM     59  C   UNL A   1      42.784  23.580  26.300  1.00  0.00     0.009 A 
ATOM     60  C   UNL A   1      41.995  21.149  27.411  1.00  0.00     0.001 A 
ATOM     61  C   UNL A   1      42.811  22.418  25.528  1.00  0.00     0.001 A 
ATOM     62  C   UNL A   1      42.428  21.201  26.087  1.00  0.00     0.000 A 
ENDBRANCH  38  57
BRANCH  50  63
ATOM     63  C   UNL A   1      47.206  26.335  31.777  1.00  0.00    -0.014 A 
ATOM     64  C   UNL A   1      48.342  26.719  31.049  1.00  0.00     0.009 A 
ATOM     65  C   UNL A   1      47.373  25.552  32.931  1.00  0.00     0.009 A 
ATOM     66  C   UNL A   1      49.613  26.300  31.448  1.00  0.00     0.001 A 
ATOM     67  C   UNL A   1      48.647  25.163  33.348  1.00  0.00     0.001 A 
ATOM     68  C   UNL A   1      49.765  25.529  32.601  1.00  0.00     0.000 A 
ENDBRANCH  50  63
ENDBRANCH  24  25
ENDBRANCH  17  19
ENDBRANCH  16  17
ENDBRANCH  15  16
ENDBRANCH   1  15
TORSDOF 15
ENDMDL
MODEL 3
REMARK VINA RESULT:      -8.9      4.704      9.381
REMARK SMILES CC(C)[C@H](C(=O)OCCOC(=O)c1ccc(-c2c3nc(c(-c4ccccc4)c4ccc([nH]4)c(-c4ccccc4)c4nc(c(-c5ccccc5)c5ccc2[nH]5)C=C4)C=C3)cc1)[C@H](C)[C@@H](C)O
REMARK SMILES IDX 8 1 7 2 5 3 6 4 4 5 2 6 1 7 3 8 61 9 62 10 63 11 64 12 65 13
REMARK SMILES IDX 9 15 10 16 11 17 12 18 13 19 14 20 60 21 15 22 59 23 16 24
REMARK SMILES IDX 17 25 18 26 53 27 19 28 58 29 52 30 54 31 20 32 57 33 51 34
REMARK SMILES IDX 50 35 21 37 43 38 28 39 42 40 29 41 32 42 41 43 55 44 30 45
REMARK SMILES IDX 31 46 40 48 56 49 33 50 22 51 23 52 27 53 24 54 26 55 25 56
REMARK SMILES IDX 44 57 45 58 49 59 46 60 48 61 47 62 34 63 35 64 39 65 36 66
REMARK SMILES IDX 38 67 37 68
REMARK H PARENT 65 14 54 36 32 47
REMARK Flexibility Score: inf
ROOT
ATOM      1  C   UNL A   1      38.013  21.040  25.427  1.00  0.00     0.274 C 
ENDROOT
BRANCH   1   2
ATOM      2  O   UNL A   1      36.798  20.875  24.675  1.00  0.00    -0.462 OA
BRANCH   2   3
ATOM      3  C   UNL A   1      36.309  21.961  24.051  1.00  0.00     0.309 C 
ATOM      4  O   UNL A   1      37.015  22.650  23.328  1.00  0.00    -0.252 OA
BRANCH   3   5
ATOM      5  C   UNL A   1      34.841  22.276  24.433  1.00  0.00     0.107 C 
BRANCH   5   6
ATOM      6  C   UNL A   1      34.776  23.306  25.659  1.00  0.00    -0.003 C 
ATOM      7  C   UNL A   1      34.232  22.605  26.913  1.00  0.00     0.008 C 
ATOM      8  C   UNL A   1      36.031  24.083  26.097  1.00  0.00     0.008 C 
ENDBRANCH   5   6
BRANCH   5   9
ATOM      9  C   UNL A   1      33.851  22.732  23.243  1.00  0.00     0.029 C 
ATOM     10  C   UNL A   1      33.838  24.267  23.048  1.00  0.00     0.011 C 
BRANCH   9  11
ATOM     11  C   UNL A   1      32.356  22.246  23.301  1.00  0.00     0.115 C 
ATOM     12  C   UNL A   1      31.343  23.320  23.718  1.00  0.00     0.038 C 
BRANCH  11  13
ATOM     13  O   UNL A   1      31.862  21.833  22.030  1.00  0.00    -0.393 OA
ATOM     14  H   UNL A   1      31.259  21.082  22.145  1.00  0.00     0.210 HD
ENDBRANCH  11  13
ENDBRANCH   9  11
ENDBRANCH   5   9
ENDBRANCH   3   5
ENDBRANCH   2   3
ENDBRANCH   1   2
BRANCH   1  15
ATOM     15  C   UNL A   1      39.025  19.949  25.058  1.00  0.00     0.275 C 
BRANCH  15  16
ATOM     16  O   UNL A   1      39.747  19.455  26.209  1.00  0.00    -0.458 OA
BRANCH  16  17
ATOM     17  C   UNL A   1      41.096  19.591  26.175  1.00  0.00     0.338 C 
ATOM     18  O   UNL A   1      41.902  18.779  25.749  1.00  0.00    -0.246 OA
BRANCH  17  19
ATOM     19  C   UNL A   1      41.480  20.957  26.603  1.00  0.00     0.060 A 
ATOM     20  C   UNL A   1      41.185  21.349  27.914  1.00  0.00     0.016 A 
ATOM     21  C   UNL A   1      42.093  21.863  25.739  1.00  0.00     0.016 A 
ATOM     22  C   UNL A   1      41.570  22.597  28.395  1.00  0.00     0.010 A 
ATOM     23  C   UNL A   1      42.431  23.144  26.203  1.00  0.00     0.010 A 
ATOM     24  C   UNL A   1      42.185  23.508  27.539  1.00  0.00    -0.014 A 
BRANCH  24  25
ATOM     25  C   UNL A   1      42.461  24.875  28.034  1.00  0.00     0.031 A 
ATOM     26  C   UNL A   1      43.869  25.247  28.394  1.00  0.00     0.074 A 
ATOM     27  C   UNL A   1      41.479  25.792  28.101  1.00  0.00     0.049 A 
ATOM     28  N   UNL A   1      44.332  26.375  28.865  1.00  0.00    -0.248 NA
ATOM     29  C   UNL A   1      44.893  24.213  28.177  1.00  0.00     0.031 C 
ATOM     30  C   UNL A   1      40.095  25.586  27.678  1.00  0.00     0.029 A 
ATOM     31  N   UNL A   1      41.506  27.088  28.551  1.00  0.00    -0.354 N 
ATOM     32  C   UNL A   1      45.701  26.189  29.001  1.00  0.00     0.074 A 
ATOM     33  C   UNL A   1      45.991  24.836  28.576  1.00  0.00     0.031 C 
ATOM     34  C   UNL A   1      39.398  26.712  27.909  1.00  0.00     0.029 A 
ATOM     35  C   UNL A   1      40.277  27.702  28.530  1.00  0.00     0.049 A 
ATOM     36  H   UNL A   1      42.327  27.536  28.859  1.00  0.00     0.167 HD
ATOM     37  C   UNL A   1      46.632  27.064  29.449  1.00  0.00     0.031 A 
ATOM     38  C   UNL A   1      39.903  28.913  28.988  1.00  0.00     0.031 A 
ATOM     39  C   UNL A   1      46.336  28.391  29.920  1.00  0.00     0.049 A 
ATOM     40  C   UNL A   1      40.937  29.813  29.616  1.00  0.00     0.074 A 
ATOM     41  C   UNL A   1      47.206  29.340  30.425  1.00  0.00     0.029 A 
ATOM     42  N   UNL A   1      45.067  28.948  29.961  1.00  0.00    -0.354 N 
ATOM     43  N   UNL A   1      42.230  29.631  29.745  1.00  0.00    -0.248 NA
ATOM     44  C   UNL A   1      40.456  31.092  30.164  1.00  0.00     0.031 C 
ATOM     45  C   UNL A   1      46.455  30.446  30.835  1.00  0.00     0.029 A 
ATOM     46  C   UNL A   1      45.126  30.215  30.516  1.00  0.00     0.049 A 
ATOM     47  H   UNL A   1      44.246  28.506  29.643  1.00  0.00     0.167 HD
ATOM     48  C   UNL A   1      42.719  30.781  30.352  1.00  0.00     0.074 A 
ATOM     49  C   UNL A   1      41.588  31.662  30.554  1.00  0.00     0.031 C 
ATOM     50  C   UNL A   1      43.993  31.083  30.708  1.00  0.00     0.031 A 
BRANCH  37  51
ATOM     51  C   UNL A   1      48.052  26.579  29.513  1.00  0.00    -0.014 A 
ATOM     52  C   UNL A   1      48.559  25.940  30.657  1.00  0.00     0.009 A 
ATOM     53  C   UNL A   1      48.893  26.752  28.403  1.00  0.00     0.009 A 
ATOM     54  C   UNL A   1      49.890  25.521  30.698  1.00  0.00     0.001 A 
ATOM     55  C   UNL A   1      50.215  26.306  28.437  1.00  0.00     0.001 A 
ATOM     56  C   UNL A   1      50.715  25.699  29.588  1.00  0.00     0.000 A 
ENDBRANCH  37  51
BRANCH  38  57
ATOM     57  C   UNL A   1      38.479  29.339  28.922  1.00  0.00    -0.014 A 
ATOM     58  C   UNL A   1      37.643  29.235  30.046  1.00  0.00     0.009 A 
ATOM     59  C   UNL A   1      37.931  29.800  27.715  1.00  0.00     0.009 A 
ATOM     60  C   UNL A   1      36.285  29.552  29.951  1.00  0.00     0.001 A 
ATOM     61  C   UNL A   1      36.581  30.147  27.631  1.00  0.00     0.001 A 
ATOM     62  C   UNL A   1      35.757  30.011  28.745  1.00  0.00     0.000 A 
ENDBRANCH  38  57
BRANCH  50  63
ATOM     63  C   UNL A   1      44.243  32.440  31.310  1.00  0.00    -0.014 A 
ATOM     64  C   UNL A   1      44.509  33.563  30.513  1.00  0.00     0.009 A 
ATOM     65  C   UNL A   1      44.158  32.603  32.703  1.00  0.00     0.009 A 
ATOM     66  C   UNL A   1      44.720  34.813  31.098  1.00  0.00     0.001 A 
ATOM     67  C   UNL A   1      44.335  33.860  33.284  1.00  0.00     0.001 A 
ATOM     68  C   UNL A   1      44.626  34.962  32.482  1.00  0.00     0.000 A 
ENDBRANCH  50  63
ENDBRANCH  24  25
ENDBRANCH  17  19
ENDBRANCH  16  17
ENDBRANCH  15  16
ENDBRANCH   1  15
TORSDOF 15
ENDMDL
