MODEL 1
REMARK VINA RESULT:     -11.7      0.000      0.000
REMARK SMILES Cc1cc(Br)cc2c1O[C@H](C(F)(F)F)C(C(=O)OCCOC(=O)c1ccc(-c3c4nc(c(-c5ccccc5)c5ccc([nH]5)c(-c5ccccc5)c5nc(c(-c6ccccc6)c6ccc3[nH]6)C=C5)C=C4)cc1)=C2
REMARK SMILES IDX 20 1 19 2 18 3 16 4 17 5 15 6 1 7 2 8 3 9 8 10 4 11 7 12
REMARK SMILES IDX 9 13 5 14 6 15 72 16 10 17 11 18 12 19 13 20 14 21 21 22
REMARK SMILES IDX 22 23 23 24 24 25 25 26 71 27 26 28 70 29 27 30 28 31 29 32
REMARK SMILES IDX 64 33 30 34 69 35 63 36 65 37 31 38 68 39 62 40 61 41 32 43
REMARK SMILES IDX 54 44 39 45 53 46 40 47 43 48 52 49 66 50 41 51 42 52 51 54
REMARK SMILES IDX 67 55 44 56 33 57 34 58 38 59 35 60 37 61 36 62 55 63 56 64
REMARK SMILES IDX 60 65 57 66 59 67 58 68 45 69 46 70 50 71 47 72 49 73 48 74
REMARK H PARENT 65 42 43 53
REMARK Flexibility Score: inf
ROOT
ATOM      1  C   UNL A   1      35.961  20.802  25.376  1.00  0.00     0.275 C 
ENDROOT
BRANCH   1   2
ATOM      2  C   UNL A   1      34.706  21.463  24.801  1.00  0.00     0.275 C 
BRANCH   2   3
ATOM      3  O   UNL A   1      34.818  22.903  24.802  1.00  0.00    -0.459 OA
BRANCH   3   4
ATOM      4  C   UNL A   1      34.718  23.493  23.589  1.00  0.00     0.338 C 
ATOM      5  O   UNL A   1      35.249  23.122  22.553  1.00  0.00    -0.246 OA
BRANCH   4   6
ATOM      6  C   UNL A   1      33.843  24.677  23.652  1.00  0.00     0.087 C 
ATOM      7  C   UNL A   1      29.797  27.833  23.590  1.00  0.00     0.048 C 
ATOM      8  C   UNL A   1      31.120  27.790  24.296  1.00  0.00    -0.007 A 
ATOM      9  C   UNL A   1      31.442  28.786  25.234  1.00  0.00     0.023 A 
ATOM     10  C   UNL A   1      32.053  26.779  24.019  1.00  0.00     0.130 A 
ATOM     11  C   UNL A   1      32.672  28.766  25.887  1.00  0.00     0.019 A 
ATOM     12  C   UNL A   1      33.276  26.761  24.695  1.00  0.00     0.019 A 
ATOM     13  O   UNL A   1      31.721  25.851  23.068  1.00  0.00    -0.475 OA
ATOM     14  Br  UNL A   1      33.090  30.104  27.157  1.00  0.00    -0.051 Br
ATOM     15  C   UNL A   1      33.591  27.759  25.623  1.00  0.00     0.027 A 
ATOM     16  C   UNL A   1      34.203  25.672  24.467  1.00  0.00     0.027 C 
ATOM     17  C   UNL A   1      32.525  24.644  22.937  1.00  0.00     0.316 C 
BRANCH  17  18
ATOM     18  C   UNL A   1      31.682  23.435  23.375  1.00  0.00     0.430 C 
ATOM     19  F   UNL A   1      31.774  23.225  24.709  1.00  0.00    -0.167 F 
ATOM     20  F   UNL A   1      30.368  23.623  23.104  1.00  0.00    -0.167 F 
ATOM     21  F   UNL A   1      32.065  22.295  22.755  1.00  0.00    -0.167 F 
ENDBRANCH  17  18
ENDBRANCH   4   6
ENDBRANCH   3   4
ENDBRANCH   2   3
ENDBRANCH   1   2
BRANCH   1  22
ATOM     22  O   UNL A   1      37.148  21.418  24.842  1.00  0.00    -0.458 OA
BRANCH  22  23
ATOM     23  C   UNL A   1      38.298  21.059  25.451  1.00  0.00     0.338 C 
ATOM     24  O   UNL A   1      38.885  19.992  25.364  1.00  0.00    -0.246 OA
BRANCH  23  25
ATOM     25  C   UNL A   1      38.858  22.189  26.207  1.00  0.00     0.060 A 
ATOM     26  C   UNL A   1      38.309  23.447  26.009  1.00  0.00     0.016 A 
ATOM     27  C   UNL A   1      40.058  22.054  26.899  1.00  0.00     0.016 A 
ATOM     28  C   UNL A   1      39.047  24.583  26.319  1.00  0.00     0.010 A 
ATOM     29  C   UNL A   1      40.715  23.200  27.366  1.00  0.00     0.010 A 
ATOM     30  C   UNL A   1      40.253  24.485  27.025  1.00  0.00    -0.014 A 
BRANCH  30  31
ATOM     31  C   UNL A   1      41.029  25.712  27.375  1.00  0.00     0.031 A 
ATOM     32  C   UNL A   1      40.467  26.724  28.346  1.00  0.00     0.074 A 
ATOM     33  C   UNL A   1      42.256  25.921  26.848  1.00  0.00     0.049 A 
ATOM     34  N   UNL A   1      40.891  27.933  28.618  1.00  0.00    -0.248 NA
ATOM     35  C   UNL A   1      39.264  26.333  29.101  1.00  0.00     0.031 C 
ATOM     36  C   UNL A   1      42.968  25.005  25.953  1.00  0.00     0.029 A 
ATOM     37  N   UNL A   1      43.132  26.968  27.003  1.00  0.00    -0.354 N 
ATOM     38  C   UNL A   1      39.977  28.465  29.522  1.00  0.00     0.074 A 
ATOM     39  C   UNL A   1      38.970  27.452  29.747  1.00  0.00     0.031 C 
ATOM     40  C   UNL A   1      44.189  25.494  25.697  1.00  0.00     0.029 A 
ATOM     41  C   UNL A   1      44.302  26.815  26.297  1.00  0.00     0.049 A 
ATOM     42  H   UNL A   1      42.941  27.753  27.566  1.00  0.00     0.167 HD
ATOM     43  C   UNL A   1      39.978  29.686  30.110  1.00  0.00     0.031 A 
ATOM     44  C   UNL A   1      45.332  27.658  26.096  1.00  0.00     0.031 A 
ATOM     45  C   UNL A   1      41.009  30.674  29.918  1.00  0.00     0.049 A 
ATOM     46  C   UNL A   1      45.272  29.033  26.691  1.00  0.00     0.074 A 
ATOM     47  C   UNL A   1      41.099  31.941  30.468  1.00  0.00     0.029 A 
ATOM     48  N   UNL A   1      42.138  30.497  29.135  1.00  0.00    -0.354 N 
ATOM     49  N   UNL A   1      44.360  29.551  27.476  1.00  0.00    -0.248 NA
ATOM     50  C   UNL A   1      46.370  29.947  26.352  1.00  0.00     0.031 C 
ATOM     51  C   UNL A   1      42.255  32.551  29.974  1.00  0.00     0.029 A 
ATOM     52  C   UNL A   1      42.919  31.640  29.168  1.00  0.00     0.049 A 
ATOM     53  H   UNL A   1      42.353  29.680  28.629  1.00  0.00     0.167 HD
ATOM     54  C   UNL A   1      44.780  30.849  27.735  1.00  0.00     0.074 A 
ATOM     55  C   UNL A   1      46.040  31.029  27.045  1.00  0.00     0.031 C 
ATOM     56  C   UNL A   1      44.169  31.806  28.475  1.00  0.00     0.031 A 
BRANCH  43  57
ATOM     57  C   UNL A   1      38.814  30.048  30.994  1.00  0.00    -0.014 A 
ATOM     58  C   UNL A   1      38.862  29.869  32.384  1.00  0.00     0.009 A 
ATOM     59  C   UNL A   1      37.677  30.648  30.427  1.00  0.00     0.009 A 
ATOM     60  C   UNL A   1      37.786  30.261  33.185  1.00  0.00     0.001 A 
ATOM     61  C   UNL A   1      36.616  31.067  31.232  1.00  0.00     0.001 A 
ATOM     62  C   UNL A   1      36.668  30.867  32.611  1.00  0.00     0.000 A 
ENDBRANCH  43  57
BRANCH  44  63
ATOM     63  C   UNL A   1      46.477  27.239  25.244  1.00  0.00    -0.014 A 
ATOM     64  C   UNL A   1      46.677  27.819  23.982  1.00  0.00     0.009 A 
ATOM     65  C   UNL A   1      47.395  26.277  25.698  1.00  0.00     0.009 A 
ATOM     66  C   UNL A   1      47.766  27.440  23.193  1.00  0.00     0.001 A 
ATOM     67  C   UNL A   1      48.503  25.927  24.924  1.00  0.00     0.001 A 
ATOM     68  C   UNL A   1      48.683  26.504  23.669  1.00  0.00     0.000 A 
ENDBRANCH  44  63
BRANCH  56  69
ATOM     69  C   UNL A   1      44.868  33.130  28.596  1.00  0.00    -0.014 A 
ATOM     70  C   UNL A   1      44.588  34.183  27.713  1.00  0.00     0.009 A 
ATOM     71  C   UNL A   1      45.778  33.341  29.644  1.00  0.00     0.009 A 
ATOM     72  C   UNL A   1      45.225  35.416  27.863  1.00  0.00     0.001 A 
ATOM     73  C   UNL A   1      46.390  34.583  29.809  1.00  0.00     0.001 A 
ATOM     74  C   UNL A   1      46.119  35.617  28.914  1.00  0.00     0.000 A 
ENDBRANCH  56  69
ENDBRANCH  30  31
ENDBRANCH  23  25
ENDBRANCH  22  23
ENDBRANCH   1  22
TORSDOF 12
ENDMDL
MODEL 2
REMARK VINA RESULT:     -11.6      3.787      8.676
REMARK SMILES Cc1cc(Br)cc2c1O[C@H](C(F)(F)F)C(C(=O)OCCOC(=O)c1ccc(-c3c4nc(c(-c5ccccc5)c5ccc([nH]5)c(-c5ccccc5)c5nc(c(-c6ccccc6)c6ccc3[nH]6)C=C5)C=C4)cc1)=C2
REMARK SMILES IDX 20 1 19 2 18 3 16 4 17 5 15 6 1 7 2 8 3 9 8 10 4 11 7 12
REMARK SMILES IDX 9 13 5 14 6 15 72 16 10 17 11 18 12 19 13 20 14 21 21 22
REMARK SMILES IDX 22 23 23 24 24 25 25 26 71 27 26 28 70 29 27 30 28 31 29 32
REMARK SMILES IDX 64 33 30 34 69 35 63 36 65 37 31 38 68 39 62 40 61 41 32 43
REMARK SMILES IDX 54 44 39 45 53 46 40 47 43 48 52 49 66 50 41 51 42 52 51 54
REMARK SMILES IDX 67 55 44 56 33 57 34 58 38 59 35 60 37 61 36 62 55 63 56 64
REMARK SMILES IDX 60 65 57 66 59 67 58 68 45 69 46 70 50 71 47 72 49 73 48 74
REMARK H PARENT 65 42 43 53
REMARK Flexibility Score: inf
ROOT
ATOM      1  C   UNL A   1      31.770  30.077  25.369  1.00  0.00     0.275 C 
ENDROOT
BRANCH   1   2
ATOM      2  C   UNL A   1      31.607  28.661  24.812  1.00  0.00     0.275 C 
BRANCH   2   3
ATOM      3  O   UNL A   1      32.349  27.697  25.592  1.00  0.00    -0.459 OA
BRANCH   3   4
ATOM      4  C   UNL A   1      31.600  26.777  26.241  1.00  0.00     0.338 C 
ATOM      5  O   UNL A   1      30.654  26.999  26.983  1.00  0.00    -0.246 OA
BRANCH   4   6
ATOM      6  C   UNL A   1      32.059  25.411  25.927  1.00  0.00     0.087 C 
ATOM      7  C   UNL A   1      32.621  20.746  23.866  1.00  0.00     0.048 C 
ATOM      8  C   UNL A   1      33.522  21.751  24.522  1.00  0.00    -0.007 A 
ATOM      9  C   UNL A   1      34.899  21.488  24.627  1.00  0.00     0.023 A 
ATOM     10  C   UNL A   1      33.007  22.944  25.052  1.00  0.00     0.130 A 
ATOM     11  C   UNL A   1      35.745  22.405  25.245  1.00  0.00     0.019 A 
ATOM     12  C   UNL A   1      33.870  23.864  25.653  1.00  0.00     0.019 A 
ATOM     13  O   UNL A   1      31.654  23.145  24.968  1.00  0.00    -0.475 OA
ATOM     14  Br  UNL A   1      37.598  22.048  25.370  1.00  0.00    -0.051 Br
ATOM     15  C   UNL A   1      35.239  23.593  25.759  1.00  0.00     0.027 A 
ATOM     16  C   UNL A   1      33.349  25.129  26.126  1.00  0.00     0.027 C 
ATOM     17  C   UNL A   1      31.111  24.464  25.255  1.00  0.00     0.316 C 
BRANCH  17  18
ATOM     18  C   UNL A   1      30.551  25.063  23.954  1.00  0.00     0.430 C 
ATOM     19  F   UNL A   1      31.507  25.729  23.264  1.00  0.00    -0.167 F 
ATOM     20  F   UNL A   1      30.079  24.099  23.127  1.00  0.00    -0.167 F 
ATOM     21  F   UNL A   1      29.538  25.930  24.186  1.00  0.00    -0.167 F 
ENDBRANCH  17  18
ENDBRANCH   4   6
ENDBRANCH   3   4
ENDBRANCH   2   3
ENDBRANCH   1   2
BRANCH   1  22
ATOM     22  O   UNL A   1      32.308  30.039  26.704  1.00  0.00    -0.458 OA
BRANCH  22  23
ATOM     23  C   UNL A   1      32.912  31.178  27.107  1.00  0.00     0.338 C 
ATOM     24  O   UNL A   1      32.404  32.278  27.251  1.00  0.00    -0.246 OA
BRANCH  23  25
ATOM     25  C   UNL A   1      34.314  30.922  27.466  1.00  0.00     0.060 A 
ATOM     26  C   UNL A   1      34.711  29.607  27.662  1.00  0.00     0.016 A 
ATOM     27  C   UNL A   1      35.150  31.965  27.850  1.00  0.00     0.016 A 
ATOM     28  C   UNL A   1      35.844  29.328  28.417  1.00  0.00     0.010 A 
ATOM     29  C   UNL A   1      36.379  31.675  28.458  1.00  0.00     0.010 A 
ATOM     30  C   UNL A   1      36.714  30.354  28.810  1.00  0.00    -0.014 A 
BRANCH  30  31
ATOM     31  C   UNL A   1      37.941  30.045  29.604  1.00  0.00     0.031 A 
ATOM     32  C   UNL A   1      39.070  29.251  28.989  1.00  0.00     0.074 A 
ATOM     33  C   UNL A   1      38.070  30.494  30.871  1.00  0.00     0.049 A 
ATOM     34  N   UNL A   1      40.115  28.714  29.570  1.00  0.00    -0.248 NA
ATOM     35  C   UNL A   1      39.014  29.017  27.536  1.00  0.00     0.031 C 
ATOM     36  C   UNL A   1      37.102  31.335  31.581  1.00  0.00     0.029 A 
ATOM     37  N   UNL A   1      39.080  30.321  31.786  1.00  0.00    -0.354 N 
ATOM     38  C   UNL A   1      40.800  28.031  28.570  1.00  0.00     0.074 A 
ATOM     39  C   UNL A   1      40.050  28.212  27.347  1.00  0.00     0.031 C 
ATOM     40  C   UNL A   1      37.594  31.658  32.785  1.00  0.00     0.029 A 
ATOM     41  C   UNL A   1      38.846  30.944  32.989  1.00  0.00     0.049 A 
ATOM     42  H   UNL A   1      39.894  29.799  31.598  1.00  0.00     0.167 HD
ATOM     43  C   UNL A   1      41.949  27.318  28.664  1.00  0.00     0.031 A 
ATOM     44  C   UNL A   1      39.522  30.908  34.151  1.00  0.00     0.031 A 
ATOM     45  C   UNL A   1      42.716  27.179  29.875  1.00  0.00     0.049 A 
ATOM     46  C   UNL A   1      40.747  30.048  34.254  1.00  0.00     0.074 A 
ATOM     47  C   UNL A   1      43.892  26.477  30.072  1.00  0.00     0.029 A 
ATOM     48  N   UNL A   1      42.398  27.773  31.086  1.00  0.00    -0.354 N 
ATOM     49  N   UNL A   1      41.336  29.341  33.322  1.00  0.00    -0.248 NA
ATOM     50  C   UNL A   1      41.383  29.961  35.574  1.00  0.00     0.031 C 
ATOM     51  C   UNL A   1      44.256  26.601  31.416  1.00  0.00     0.029 A 
ATOM     52  C   UNL A   1      43.342  27.433  32.040  1.00  0.00     0.049 A 
ATOM     53  H   UNL A   1      41.616  28.349  31.244  1.00  0.00     0.167 HD
ATOM     54  C   UNL A   1      42.420  28.733  33.939  1.00  0.00     0.074 A 
ATOM     55  C   UNL A   1      42.421  29.175  35.318  1.00  0.00     0.031 C 
ATOM     56  C   UNL A   1      43.330  27.879  33.409  1.00  0.00     0.031 A 
BRANCH  43  57
ATOM     57  C   UNL A   1      42.438  26.599  27.436  1.00  0.00    -0.014 A 
ATOM     58  C   UNL A   1      43.361  27.185  26.558  1.00  0.00     0.009 A 
ATOM     59  C   UNL A   1      42.022  25.278  27.197  1.00  0.00     0.009 A 
ATOM     60  C   UNL A   1      43.837  26.474  25.452  1.00  0.00     0.001 A 
ATOM     61  C   UNL A   1      42.521  24.559  26.109  1.00  0.00     0.001 A 
ATOM     62  C   UNL A   1      43.424  25.160  25.234  1.00  0.00     0.000 A 
ENDBRANCH  43  57
BRANCH  44  63
ATOM     63  C   UNL A   1      39.017  31.668  35.327  1.00  0.00    -0.014 A 
ATOM     64  C   UNL A   1      38.155  31.059  36.252  1.00  0.00     0.009 A 
ATOM     65  C   UNL A   1      39.416  32.996  35.548  1.00  0.00     0.009 A 
ATOM     66  C   UNL A   1      37.700  31.767  37.367  1.00  0.00     0.001 A 
ATOM     67  C   UNL A   1      38.989  33.689  36.682  1.00  0.00     0.001 A 
ATOM     68  C   UNL A   1      38.125  33.076  37.587  1.00  0.00     0.000 A 
ENDBRANCH  44  63
BRANCH  56  69
ATOM     69  C   UNL A   1      44.418  27.385  34.318  1.00  0.00    -0.014 A 
ATOM     70  C   UNL A   1      45.610  28.106  34.483  1.00  0.00     0.009 A 
ATOM     71  C   UNL A   1      44.221  26.211  35.061  1.00  0.00     0.009 A 
ATOM     72  C   UNL A   1      46.595  27.645  35.357  1.00  0.00     0.001 A 
ATOM     73  C   UNL A   1      45.196  25.769  35.957  1.00  0.00     0.001 A 
ATOM     74  C   UNL A   1      46.385  26.483  36.099  1.00  0.00     0.000 A 
ENDBRANCH  56  69
ENDBRANCH  30  31
ENDBRANCH  23  25
ENDBRANCH  22  23
ENDBRANCH   1  22
TORSDOF 12
ENDMDL
MODEL 3
REMARK VINA RESULT:     -11.4      4.743      9.390
REMARK SMILES Cc1cc(Br)cc2c1O[C@H](C(F)(F)F)C(C(=O)OCCOC(=O)c1ccc(-c3c4nc(c(-c5ccccc5)c5ccc([nH]5)c(-c5ccccc5)c5nc(c(-c6ccccc6)c6ccc3[nH]6)C=C5)C=C4)cc1)=C2
REMARK SMILES IDX 20 1 19 2 18 3 16 4 17 5 15 6 1 7 2 8 3 9 8 10 4 11 7 12
REMARK SMILES IDX 9 13 5 14 6 15 72 16 10 17 11 18 12 19 13 20 14 21 21 22
REMARK SMILES IDX 22 23 23 24 24 25 25 26 71 27 26 28 70 29 27 30 28 31 29 32
REMARK SMILES IDX 64 33 30 34 69 35 63 36 65 37 31 38 68 39 62 40 61 41 32 43
REMARK SMILES IDX 54 44 39 45 53 46 40 47 43 48 52 49 66 50 41 51 42 52 51 54
REMARK SMILES IDX 67 55 44 56 33 57 34 58 38 59 35 60 37 61 36 62 55 63 56 64
REMARK SMILES IDX 60 65 57 66 59 67 58 68 45 69 46 70 50 71 47 72 49 73 48 74
REMARK H PARENT 65 42 43 53
REMARK Flexibility Score: inf
ROOT
ATOM      1  C   UNL A   1      40.696  19.755  26.096  1.00  0.00     0.275 C 
ENDROOT
BRANCH   1   2
ATOM      2  C   UNL A   1      42.220  19.876  26.156  1.00  0.00     0.275 C 
BRANCH   2   3
ATOM      3  O   UNL A   1      42.660  21.205  25.799  1.00  0.00    -0.459 OA
BRANCH   3   4
ATOM      4  C   UNL A   1      43.945  21.300  25.387  1.00  0.00     0.338 C 
ATOM      5  O   UNL A   1      44.437  20.758  24.408  1.00  0.00    -0.246 OA
BRANCH   4   6
ATOM      6  C   UNL A   1      44.719  22.183  26.278  1.00  0.00     0.087 C 
ATOM      7  C   UNL A   1      48.111  25.533  28.176  1.00  0.00     0.048 C 
ATOM      8  C   UNL A   1      46.701  25.130  28.493  1.00  0.00    -0.007 A 
ATOM      9  C   UNL A   1      46.003  25.786  29.522  1.00  0.00     0.023 A 
ATOM     10  C   UNL A   1      46.071  24.092  27.788  1.00  0.00     0.130 A 
ATOM     11  C   UNL A   1      44.698  25.414  29.835  1.00  0.00     0.019 A 
ATOM     12  C   UNL A   1      44.756  23.741  28.100  1.00  0.00     0.019 A 
ATOM     13  O   UNL A   1      46.798  23.448  26.821  1.00  0.00    -0.475 OA
ATOM     14  Br  UNL A   1      43.764  26.311  31.213  1.00  0.00    -0.051 Br
ATOM     15  C   UNL A   1      44.070  24.395  29.130  1.00  0.00     0.027 A 
ATOM     16  C   UNL A   1      44.081  22.726  27.319  1.00  0.00     0.027 C 
ATOM     17  C   UNL A   1      46.117  22.560  25.891  1.00  0.00     0.316 C 
BRANCH  17  18
ATOM     18  C   UNL A   1      46.160  23.185  24.486  1.00  0.00     0.430 C 
ATOM     19  F   UNL A   1      44.918  23.492  24.044  1.00  0.00    -0.167 F 
ATOM     20  F   UNL A   1      46.869  24.339  24.478  1.00  0.00    -0.167 F 
ATOM     21  F   UNL A   1      46.723  22.357  23.577  1.00  0.00    -0.167 F 
ENDBRANCH  17  18
ENDBRANCH   4   6
ENDBRANCH   3   4
ENDBRANCH   2   3
ENDBRANCH   1   2
BRANCH   1  22
ATOM     22  O   UNL A   1      40.078  20.669  27.022  1.00  0.00    -0.458 OA
BRANCH  22  23
ATOM     23  C   UNL A   1      39.299  21.614  26.453  1.00  0.00     0.338 C 
ATOM     24  O   UNL A   1      38.362  21.446  25.690  1.00  0.00    -0.246 OA
BRANCH  23  25
ATOM     25  C   UNL A   1      39.658  22.950  26.952  1.00  0.00     0.060 A 
ATOM     26  C   UNL A   1      39.251  24.056  26.219  1.00  0.00     0.016 A 
ATOM     27  C   UNL A   1      40.587  23.098  27.977  1.00  0.00     0.016 A 
ATOM     28  C   UNL A   1      39.913  25.268  26.367  1.00  0.00     0.010 A 
ATOM     29  C   UNL A   1      41.127  24.365  28.239  1.00  0.00     0.010 A 
ATOM     30  C   UNL A   1      40.847  25.455  27.395  1.00  0.00    -0.014 A 
BRANCH  30  31
ATOM     31  C   UNL A   1      41.538  26.769  27.561  1.00  0.00     0.031 A 
ATOM     32  C   UNL A   1      42.848  27.040  26.858  1.00  0.00     0.074 A 
ATOM     33  C   UNL A   1      40.989  27.742  28.320  1.00  0.00     0.049 A 
ATOM     34  N   UNL A   1      43.692  28.027  27.034  1.00  0.00    -0.248 NA
ATOM     35  C   UNL A   1      43.273  26.071  25.834  1.00  0.00     0.031 C 
ATOM     36  C   UNL A   1      39.695  27.663  29.005  1.00  0.00     0.029 A 
ATOM     37  N   UNL A   1      41.443  29.001  28.632  1.00  0.00    -0.354 N 
ATOM     38  C   UNL A   1      44.768  27.763  26.193  1.00  0.00     0.074 A 
ATOM     39  C   UNL A   1      44.478  26.521  25.513  1.00  0.00     0.031 C 
ATOM     40  C   UNL A   1      39.431  28.838  29.593  1.00  0.00     0.029 A 
ATOM     41  C   UNL A   1      40.588  29.709  29.443  1.00  0.00     0.049 A 
ATOM     42  H   UNL A   1      42.299  29.361  28.306  1.00  0.00     0.167 HD
ATOM     43  C   UNL A   1      45.896  28.492  26.006  1.00  0.00     0.031 A 
ATOM     44  C   UNL A   1      40.729  30.900  30.053  1.00  0.00     0.031 A 
ATOM     45  C   UNL A   1      46.160  29.752  26.651  1.00  0.00     0.049 A 
ATOM     46  C   UNL A   1      42.018  31.650  29.895  1.00  0.00     0.074 A 
ATOM     47  C   UNL A   1      47.274  30.565  26.528  1.00  0.00     0.029 A 
ATOM     48  N   UNL A   1      45.291  30.393  27.520  1.00  0.00    -0.354 N 
ATOM     49  N   UNL A   1      43.061  31.347  29.162  1.00  0.00    -0.248 NA
ATOM     50  C   UNL A   1      42.159  32.890  30.668  1.00  0.00     0.031 C 
ATOM     51  C   UNL A   1      47.102  31.671  27.365  1.00  0.00     0.029 A 
ATOM     52  C   UNL A   1      45.855  31.579  27.959  1.00  0.00     0.049 A 
ATOM     53  H   UNL A   1      44.407  30.054  27.787  1.00  0.00     0.167 HD
ATOM     54  C   UNL A   1      43.979  32.366  29.376  1.00  0.00     0.074 A 
ATOM     55  C   UNL A   1      43.359  33.307  30.286  1.00  0.00     0.031 C 
ATOM     56  C   UNL A   1      45.227  32.504  28.867  1.00  0.00     0.031 A 
BRANCH  43  57
ATOM     57  C   UNL A   1      46.955  27.935  25.091  1.00  0.00    -0.014 A 
ATOM     58  C   UNL A   1      46.901  28.122  23.703  1.00  0.00     0.009 A 
ATOM     59  C   UNL A   1      48.066  27.275  25.643  1.00  0.00     0.009 A 
ATOM     60  C   UNL A   1      47.925  27.638  22.883  1.00  0.00     0.001 A 
ATOM     61  C   UNL A   1      49.103  26.819  24.826  1.00  0.00     0.001 A 
ATOM     62  C   UNL A   1      49.028  26.995  23.445  1.00  0.00     0.000 A 
ENDBRANCH  43  57
BRANCH  44  63
ATOM     63  C   UNL A   1      39.636  31.424  30.917  1.00  0.00    -0.014 A 
ATOM     64  C   UNL A   1      39.603  31.121  32.286  1.00  0.00     0.009 A 
ATOM     65  C   UNL A   1      38.637  32.256  30.385  1.00  0.00     0.009 A 
ATOM     66  C   UNL A   1      38.589  31.632  33.100  1.00  0.00     0.001 A 
ATOM     67  C   UNL A   1      37.646  32.795  31.207  1.00  0.00     0.001 A 
ATOM     68  C   UNL A   1      37.619  32.477  32.562  1.00  0.00     0.000 A 
ENDBRANCH  44  63
BRANCH  56  69
ATOM     69  C   UNL A   1      45.999  33.730  29.263  1.00  0.00    -0.014 A 
ATOM     70  C   UNL A   1      46.856  33.721  30.374  1.00  0.00     0.009 A 
ATOM     71  C   UNL A   1      45.908  34.891  28.480  1.00  0.00     0.009 A 
ATOM     72  C   UNL A   1      47.588  34.862  30.706  1.00  0.00     0.001 A 
ATOM     73  C   UNL A   1      46.664  36.019  28.798  1.00  0.00     0.001 A 
ATOM     74  C   UNL A   1      47.498  36.006  29.915  1.00  0.00     0.000 A 
ENDBRANCH  56  69
ENDBRANCH  30  31
ENDBRANCH  23  25
ENDBRANCH  22  23
ENDBRANCH   1  22
TORSDOF 12
ENDMDL
