MODEL 1
REMARK VINA RESULT:     -12.9      0.000      0.000
REMARK SMILES CC[C@@](C)(NC(=O)Nc1c(C)cccc1Cl)C(=O)OCCOC(=O)c1ccc(-c2c3nc(c(-c4ccccc4)c4ccc([nH]4)c(-c4ccccc4)c4nc(c(-c5ccccc5)c5ccc2[nH]5)C=C4)C=C3)cc1
REMARK SMILES IDX 20 1 19 2 17 3 18 4 3 5 4 6 2 7 1 8 5 9 6 10 7 12 8 13 9 15
REMARK SMILES IDX 10 16 15 17 11 18 12 19 14 20 16 21 13 22 21 23 22 24 23 25
REMARK SMILES IDX 24 26 25 27 26 28 72 29 27 30 71 31 28 32 29 33 30 34 65 35
REMARK SMILES IDX 31 36 70 37 64 38 66 39 32 40 69 41 63 42 62 43 33 45 55 46
REMARK SMILES IDX 40 47 54 48 41 49 44 50 53 51 67 52 42 53 43 54 52 56 68 57
REMARK SMILES IDX 45 58 34 59 35 60 39 61 36 62 38 63 37 64 56 65 57 66 61 67
REMARK SMILES IDX 58 68 60 69 59 70 46 71 47 72 51 73 48 74 50 75 49 76
REMARK H PARENT 5 11 8 14 66 44 44 55
REMARK Flexibility Score: inf
ROOT
ATOM      1  C   UNL A   1      36.094  22.967  22.935  1.00  0.00     0.274 C 
ENDROOT
BRANCH   1   2
ATOM      2  O   UNL A   1      34.474  23.483  22.764  1.00  0.00    -0.460 OA
BRANCH   2   3
ATOM      3  C   UNL A   1      33.153  23.333  23.443  1.00  0.00     0.331 C 
ATOM      4  O   UNL A   1      32.912  22.298  24.077  1.00  0.00    -0.249 OA
BRANCH   3   5
ATOM      5  C   UNL A   1      31.801  24.467  23.167  1.00  0.00     0.136 C 
ATOM      6  C   UNL A   1      30.461  23.746  23.406  1.00  0.00     0.047 C 
BRANCH   5   7
ATOM      7  C   UNL A   1      31.425  26.014  23.545  1.00  0.00     0.037 C 
ATOM      8  C   UNL A   1      30.051  26.511  23.968  1.00  0.00     0.007 C 
ENDBRANCH   5   7
BRANCH   5   9
ATOM      9  N   UNL A   1      32.060  24.586  21.778  1.00  0.00    -0.322 N 
ATOM     10  C   UNL A   1      32.998  25.490  21.460  1.00  0.00     0.320 C 
ATOM     11  H   UNL A   1      31.589  24.046  21.101  1.00  0.00     0.166 HD
ATOM     12  O   UNL A   1      33.303  25.688  20.301  1.00  0.00    -0.248 OA
ATOM     13  N   UNL A   1      33.605  26.198  22.479  1.00  0.00    -0.306 N 
ATOM     14  H   UNL A   1      34.382  26.647  22.076  1.00  0.00     0.171 HD
BRANCH  13  15
ATOM     15  C   UNL A   1      33.603  26.582  23.918  1.00  0.00     0.064 A 
ATOM     16  C   UNL A   1      33.883  26.073  25.266  1.00  0.00    -0.026 A 
ATOM     17  C   UNL A   1      33.550  27.940  23.868  1.00  0.00     0.064 A 
ATOM     18  C   UNL A   1      34.495  24.800  25.850  1.00  0.00     0.046 C 
ATOM     19  C   UNL A   1      33.842  26.936  26.417  1.00  0.00     0.005 A 
ATOM     20  C   UNL A   1      33.919  28.749  25.013  1.00  0.00     0.023 A 
ATOM     21  Cl  UNL A   1      33.257  28.538  21.950  1.00  0.00    -0.082 Cl
ATOM     22  C   UNL A   1      33.960  28.279  26.292  1.00  0.00     0.002 A 
ENDBRANCH  13  15
ENDBRANCH   5   9
ENDBRANCH   3   5
ENDBRANCH   2   3
ENDBRANCH   1   2
BRANCH   1  23
ATOM     23  C   UNL A   1      37.068  22.057  24.199  1.00  0.00     0.275 C 
BRANCH  23  24
ATOM     24  O   UNL A   1      37.723  22.573  25.588  1.00  0.00    -0.458 OA
BRANCH  24  25
ATOM     25  C   UNL A   1      39.044  22.731  26.157  1.00  0.00     0.338 C 
ATOM     26  O   UNL A   1      39.875  21.835  26.045  1.00  0.00    -0.246 OA
BRANCH  25  27
ATOM     27  C   UNL A   1      39.535  24.210  26.937  1.00  0.00     0.060 A 
ATOM     28  C   UNL A   1      39.196  24.632  28.244  1.00  0.00     0.016 A 
ATOM     29  C   UNL A   1      40.216  25.272  26.336  1.00  0.00     0.016 A 
ATOM     30  C   UNL A   1      39.247  25.845  28.895  1.00  0.00     0.010 A 
ATOM     31  C   UNL A   1      40.460  26.549  27.044  1.00  0.00     0.010 A 
ATOM     32  C   UNL A   1      39.982  26.822  28.346  1.00  0.00    -0.014 A 
BRANCH  32  33
ATOM     33  C   UNL A   1      40.063  28.008  29.232  1.00  0.00     0.031 A 
ATOM     34  C   UNL A   1      41.225  28.127  30.160  1.00  0.00     0.074 A 
ATOM     35  C   UNL A   1      39.310  29.119  29.020  1.00  0.00     0.049 A 
ATOM     36  N   UNL A   1      41.351  28.877  31.217  1.00  0.00    -0.248 NA
ATOM     37  C   UNL A   1      42.408  27.308  29.845  1.00  0.00     0.031 C 
ATOM     38  C   UNL A   1      38.390  29.359  27.892  1.00  0.00     0.029 A 
ATOM     39  N   UNL A   1      39.196  30.272  29.761  1.00  0.00    -0.354 N 
ATOM     40  C   UNL A   1      42.572  28.528  31.770  1.00  0.00     0.074 A 
ATOM     41  C   UNL A   1      43.186  27.558  30.890  1.00  0.00     0.031 C 
ATOM     42  C   UNL A   1      37.756  30.531  28.070  1.00  0.00     0.029 A 
ATOM     43  C   UNL A   1      38.144  31.069  29.363  1.00  0.00     0.049 A 
ATOM     44  H   UNL A   1      39.804  30.505  30.501  1.00  0.00     0.167 HD
ATOM     45  C   UNL A   1      43.080  28.950  32.948  1.00  0.00     0.031 A 
ATOM     46  C   UNL A   1      37.489  32.043  30.025  1.00  0.00     0.031 A 
ATOM     47  C   UNL A   1      42.434  29.935  33.774  1.00  0.00     0.049 A 
ATOM     48  C   UNL A   1      37.940  32.370  31.422  1.00  0.00     0.074 A 
ATOM     49  C   UNL A   1      42.794  30.388  35.029  1.00  0.00     0.029 A 
ATOM     50  N   UNL A   1      41.293  30.634  33.406  1.00  0.00    -0.354 N 
ATOM     51  N   UNL A   1      38.971  31.902  32.084  1.00  0.00    -0.248 NA
ATOM     52  C   UNL A   1      37.129  33.337  32.170  1.00  0.00     0.031 C 
ATOM     53  C   UNL A   1      41.838  31.322  35.443  1.00  0.00     0.029 A 
ATOM     54  C   UNL A   1      40.922  31.500  34.418  1.00  0.00     0.049 A 
ATOM     55  H   UNL A   1      40.817  30.529  32.551  1.00  0.00     0.167 HD
ATOM     56  C   UNL A   1      38.948  32.536  33.318  1.00  0.00     0.074 A 
ATOM     57  C   UNL A   1      37.812  33.436  33.302  1.00  0.00     0.031 C 
ATOM     58  C   UNL A   1      39.789  32.390  34.371  1.00  0.00     0.031 A 
BRANCH  45  59
ATOM     59  C   UNL A   1      44.301  28.249  33.463  1.00  0.00    -0.014 A 
ATOM     60  C   UNL A   1      44.227  27.092  34.250  1.00  0.00     0.009 A 
ATOM     61  C   UNL A   1      45.563  28.771  33.135  1.00  0.00     0.009 A 
ATOM     62  C   UNL A   1      45.396  26.486  34.718  1.00  0.00     0.001 A 
ATOM     63  C   UNL A   1      46.729  28.149  33.578  1.00  0.00     0.001 A 
ATOM     64  C   UNL A   1      46.644  27.010  34.376  1.00  0.00     0.000 A 
ENDBRANCH  45  59
BRANCH  46  65
ATOM     65  C   UNL A   1      36.253  32.659  29.460  1.00  0.00    -0.014 A 
ATOM     66  C   UNL A   1      35.025  31.982  29.501  1.00  0.00     0.009 A 
ATOM     67  C   UNL A   1      36.307  33.911  28.822  1.00  0.00     0.009 A 
ATOM     68  C   UNL A   1      33.889  32.532  28.899  1.00  0.00     0.001 A 
ATOM     69  C   UNL A   1      35.163  34.475  28.251  1.00  0.00     0.001 A 
ATOM     70  C   UNL A   1      33.957  33.780  28.280  1.00  0.00     0.000 A 
ENDBRANCH  46  65
BRANCH  58  71
ATOM     71  C   UNL A   1      39.544  33.270  35.563  1.00  0.00    -0.014 A 
ATOM     72  C   UNL A   1      40.110  34.550  35.658  1.00  0.00     0.009 A 
ATOM     73  C   UNL A   1      38.708  32.814  36.593  1.00  0.00     0.009 A 
ATOM     74  C   UNL A   1      39.874  35.341  36.783  1.00  0.00     0.001 A 
ATOM     75  C   UNL A   1      38.446  33.619  37.700  1.00  0.00     0.001 A 
ATOM     76  C   UNL A   1      39.038  34.878  37.799  1.00  0.00     0.000 A 
ENDBRANCH  58  71
ENDBRANCH  32  33
ENDBRANCH  25  27
ENDBRANCH  24  25
ENDBRANCH  23  24
ENDBRANCH   1  23
TORSDOF 14
ENDMDL
MODEL 2
REMARK VINA RESULT:     -12.8      4.343      8.764
REMARK SMILES CC[C@@](C)(NC(=O)Nc1c(C)cccc1Cl)C(=O)OCCOC(=O)c1ccc(-c2c3nc(c(-c4ccccc4)c4ccc([nH]4)c(-c4ccccc4)c4nc(c(-c5ccccc5)c5ccc2[nH]5)C=C4)C=C3)cc1
REMARK SMILES IDX 20 1 19 2 17 3 18 4 3 5 4 6 2 7 1 8 5 9 6 10 7 12 8 13 9 15
REMARK SMILES IDX 10 16 15 17 11 18 12 19 14 20 16 21 13 22 21 23 22 24 23 25
REMARK SMILES IDX 24 26 25 27 26 28 72 29 27 30 71 31 28 32 29 33 30 34 65 35
REMARK SMILES IDX 31 36 70 37 64 38 66 39 32 40 69 41 63 42 62 43 33 45 55 46
REMARK SMILES IDX 40 47 54 48 41 49 44 50 53 51 67 52 42 53 43 54 52 56 68 57
REMARK SMILES IDX 45 58 34 59 35 60 39 61 36 62 38 63 37 64 56 65 57 66 61 67
REMARK SMILES IDX 58 68 60 69 59 70 46 71 47 72 51 73 48 74 50 75 49 76
REMARK H PARENT 5 11 8 14 66 44 44 55
REMARK Flexibility Score: inf
ROOT
ATOM      1  C   UNL A   1      31.259  27.552  27.437  1.00  0.00     0.274 C 
ENDROOT
BRANCH   1   2
ATOM      2  O   UNL A   1      31.167  26.141  26.477  1.00  0.00    -0.460 OA
BRANCH   2   3
ATOM      3  C   UNL A   1      31.156  25.741  25.039  1.00  0.00     0.331 C 
ATOM      4  O   UNL A   1      30.926  26.595  24.174  1.00  0.00    -0.249 OA
BRANCH   3   5
ATOM      5  C   UNL A   1      31.200  24.031  24.521  1.00  0.00     0.136 C 
ATOM      6  C   UNL A   1      30.549  23.892  23.132  1.00  0.00     0.047 C 
BRANCH   5   7
ATOM      7  C   UNL A   1      32.275  22.798  24.517  1.00  0.00     0.037 C 
ATOM      8  C   UNL A   1      32.298  21.651  23.518  1.00  0.00     0.007 C 
ENDBRANCH   5   7
BRANCH   5   9
ATOM      9  N   UNL A   1      30.305  23.603  25.534  1.00  0.00    -0.322 N 
ATOM     10  C   UNL A   1      30.877  23.380  26.726  1.00  0.00     0.320 C 
ATOM     11  H   UNL A   1      29.341  23.481  25.375  1.00  0.00     0.166 HD
ATOM     12  O   UNL A   1      30.214  23.002  27.672  1.00  0.00    -0.248 OA
ATOM     13  N   UNL A   1      32.237  23.581  26.855  1.00  0.00    -0.306 N 
ATOM     14  H   UNL A   1      32.427  23.565  27.820  1.00  0.00     0.171 HD
BRANCH  13  15
ATOM     15  C   UNL A   1      33.544  23.811  26.177  1.00  0.00     0.064 A 
ATOM     16  C   UNL A   1      34.319  24.816  25.442  1.00  0.00    -0.026 A 
ATOM     17  C   UNL A   1      34.312  22.795  26.653  1.00  0.00     0.064 A 
ATOM     18  C   UNL A   1      34.155  26.299  25.111  1.00  0.00     0.046 C 
ATOM     19  C   UNL A   1      35.690  24.581  25.070  1.00  0.00     0.005 A 
ATOM     20  C   UNL A   1      35.759  22.846  26.569  1.00  0.00     0.023 A 
ATOM     21  Cl  UNL A   1      33.161  21.519  27.732  1.00  0.00    -0.082 Cl
ATOM     22  C   UNL A   1      36.441  23.654  25.709  1.00  0.00     0.002 A 
ENDBRANCH  13  15
ENDBRANCH   5   9
ENDBRANCH   3   5
ENDBRANCH   2   3
ENDBRANCH   1   2
BRANCH   1  23
ATOM     23  C   UNL A   1      31.883  29.265  27.217  1.00  0.00     0.275 C 
BRANCH  23  24
ATOM     24  O   UNL A   1      33.392  29.810  26.996  1.00  0.00    -0.458 OA
BRANCH  24  25
ATOM     25  C   UNL A   1      34.316  30.709  27.654  1.00  0.00     0.338 C 
ATOM     26  O   UNL A   1      33.965  31.850  27.941  1.00  0.00    -0.246 OA
BRANCH  25  27
ATOM     27  C   UNL A   1      35.908  30.195  28.140  1.00  0.00     0.060 A 
ATOM     28  C   UNL A   1      37.053  30.090  27.315  1.00  0.00     0.016 A 
ATOM     29  C   UNL A   1      36.260  29.666  29.384  1.00  0.00     0.016 A 
ATOM     30  C   UNL A   1      38.266  29.453  27.450  1.00  0.00     0.010 A 
ATOM     31  C   UNL A   1      37.609  29.121  29.652  1.00  0.00     0.010 A 
ATOM     32  C   UNL A   1      38.625  29.034  28.671  1.00  0.00    -0.014 A 
BRANCH  32  33
ATOM     33  C   UNL A   1      40.011  28.510  28.685  1.00  0.00     0.031 A 
ATOM     34  C   UNL A   1      41.114  29.418  29.112  1.00  0.00     0.074 A 
ATOM     35  C   UNL A   1      40.277  27.178  28.628  1.00  0.00     0.049 A 
ATOM     36  N   UNL A   1      42.395  29.297  28.909  1.00  0.00    -0.248 NA
ATOM     37  C   UNL A   1      40.725  30.611  29.885  1.00  0.00     0.031 C 
ATOM     38  C   UNL A   1      39.292  26.080  28.624  1.00  0.00     0.029 A 
ATOM     39  N   UNL A   1      41.480  26.513  28.560  1.00  0.00    -0.354 N 
ATOM     40  C   UNL A   1      42.956  30.459  29.414  1.00  0.00     0.074 A 
ATOM     41  C   UNL A   1      41.888  31.237  30.004  1.00  0.00     0.031 C 
ATOM     42  C   UNL A   1      39.928  24.906  28.470  1.00  0.00     0.029 A 
ATOM     43  C   UNL A   1      41.341  25.174  28.263  1.00  0.00     0.049 A 
ATOM     44  H   UNL A   1      42.352  26.949  28.708  1.00  0.00     0.167 HD
ATOM     45  C   UNL A   1      44.247  30.845  29.318  1.00  0.00     0.031 A 
ATOM     46  C   UNL A   1      42.231  24.296  27.760  1.00  0.00     0.031 A 
ATOM     47  C   UNL A   1      45.272  30.019  28.738  1.00  0.00     0.049 A 
ATOM     48  C   UNL A   1      43.621  24.792  27.469  1.00  0.00     0.074 A 
ATOM     49  C   UNL A   1      46.600  30.321  28.499  1.00  0.00     0.029 A 
ATOM     50  N   UNL A   1      45.076  28.709  28.322  1.00  0.00    -0.354 N 
ATOM     51  N   UNL A   1      44.147  25.966  27.727  1.00  0.00    -0.248 NA
ATOM     52  C   UNL A   1      44.531  23.856  26.799  1.00  0.00     0.031 C 
ATOM     53  C   UNL A   1      47.193  29.211  27.887  1.00  0.00     0.029 A 
ATOM     54  C   UNL A   1      46.252  28.196  27.807  1.00  0.00     0.049 A 
ATOM     55  H   UNL A   1      44.226  28.219  28.382  1.00  0.00     0.167 HD
ATOM     56  C   UNL A   1      45.457  25.902  27.274  1.00  0.00     0.074 A 
ATOM     57  C   UNL A   1      45.649  24.567  26.745  1.00  0.00     0.031 C 
ATOM     58  C   UNL A   1      46.416  26.859  27.294  1.00  0.00     0.031 A 
BRANCH  45  59
ATOM     59  C   UNL A   1      44.577  32.252  29.715  1.00  0.00    -0.014 A 
ATOM     60  C   UNL A   1      45.042  32.582  30.994  1.00  0.00     0.009 A 
ATOM     61  C   UNL A   1      44.419  33.273  28.762  1.00  0.00     0.009 A 
ATOM     62  C   UNL A   1      45.321  33.913  31.318  1.00  0.00     0.001 A 
ATOM     63  C   UNL A   1      44.724  34.595  29.078  1.00  0.00     0.001 A 
ATOM     64  C   UNL A   1      45.169  34.916  30.359  1.00  0.00     0.000 A 
ENDBRANCH  45  59
BRANCH  46  65
ATOM     65  C   UNL A   1      41.809  22.926  27.348  1.00  0.00    -0.014 A 
ATOM     66  C   UNL A   1      40.982  22.730  26.233  1.00  0.00     0.009 A 
ATOM     67  C   UNL A   1      42.189  21.803  28.106  1.00  0.00     0.009 A 
ATOM     68  C   UNL A   1      40.527  21.450  25.900  1.00  0.00     0.001 A 
ATOM     69  C   UNL A   1      41.762  20.521  27.752  1.00  0.00     0.001 A 
ATOM     70  C   UNL A   1      40.922  20.346  26.656  1.00  0.00     0.000 A 
ENDBRANCH  46  65
BRANCH  58  71
ATOM     71  C   UNL A   1      47.774  26.470  26.783  1.00  0.00    -0.014 A 
ATOM     72  C   UNL A   1      48.724  25.862  27.618  1.00  0.00     0.009 A 
ATOM     73  C   UNL A   1      48.091  26.693  25.435  1.00  0.00     0.009 A 
ATOM     74  C   UNL A   1      49.981  25.522  27.118  1.00  0.00     0.001 A 
ATOM     75  C   UNL A   1      49.335  26.321  24.930  1.00  0.00     0.001 A 
ATOM     76  C   UNL A   1      50.284  25.746  25.775  1.00  0.00     0.000 A 
ENDBRANCH  58  71
ENDBRANCH  32  33
ENDBRANCH  25  27
ENDBRANCH  24  25
ENDBRANCH  23  24
ENDBRANCH   1  23
TORSDOF 14
ENDMDL
MODEL 3
REMARK VINA RESULT:     -12.8      4.206      8.750
REMARK SMILES CC[C@@](C)(NC(=O)Nc1c(C)cccc1Cl)C(=O)OCCOC(=O)c1ccc(-c2c3nc(c(-c4ccccc4)c4ccc([nH]4)c(-c4ccccc4)c4nc(c(-c5ccccc5)c5ccc2[nH]5)C=C4)C=C3)cc1
REMARK SMILES IDX 20 1 19 2 17 3 18 4 3 5 4 6 2 7 1 8 5 9 6 10 7 12 8 13 9 15
REMARK SMILES IDX 10 16 15 17 11 18 12 19 14 20 16 21 13 22 21 23 22 24 23 25
REMARK SMILES IDX 24 26 25 27 26 28 72 29 27 30 71 31 28 32 29 33 30 34 65 35
REMARK SMILES IDX 31 36 70 37 64 38 66 39 32 40 69 41 63 42 62 43 33 45 55 46
REMARK SMILES IDX 40 47 54 48 41 49 44 50 53 51 67 52 42 53 43 54 52 56 68 57
REMARK SMILES IDX 45 58 34 59 35 60 39 61 36 62 38 63 37 64 56 65 57 66 61 67
REMARK SMILES IDX 58 68 60 69 59 70 46 71 47 72 51 73 48 74 50 75 49 76
REMARK H PARENT 5 11 8 14 66 44 44 55
REMARK Flexibility Score: inf
ROOT
ATOM      1  C   UNL A   1      31.227  30.047  24.986  1.00  0.00     0.274 C 
ENDROOT
BRANCH   1   2
ATOM      2  O   UNL A   1      30.769  28.974  23.737  1.00  0.00    -0.460 OA
BRANCH   2   3
ATOM      3  C   UNL A   1      31.381  27.969  22.818  1.00  0.00     0.331 C 
ATOM      4  O   UNL A   1      30.712  27.519  21.879  1.00  0.00    -0.249 OA
BRANCH   3   5
ATOM      5  C   UNL A   1      32.952  27.189  23.161  1.00  0.00     0.136 C 
ATOM      6  C   UNL A   1      33.919  28.217  23.777  1.00  0.00     0.047 C 
BRANCH   5   7
ATOM      7  C   UNL A   1      33.487  25.787  23.812  1.00  0.00     0.037 C 
ATOM      8  C   UNL A   1      34.357  25.666  25.054  1.00  0.00     0.007 C 
ENDBRANCH   5   7
BRANCH   5   9
ATOM      9  N   UNL A   1      33.254  26.981  21.791  1.00  0.00    -0.322 N 
ATOM     10  C   UNL A   1      32.740  25.857  21.270  1.00  0.00     0.320 C 
ATOM     11  H   UNL A   1      33.797  27.612  21.265  1.00  0.00     0.166 HD
ATOM     12  O   UNL A   1      32.937  25.565  20.107  1.00  0.00    -0.248 OA
ATOM     13  N   UNL A   1      31.989  25.034  22.086  1.00  0.00    -0.306 N 
ATOM     14  H   UNL A   1      31.543  24.390  21.491  1.00  0.00     0.171 HD
BRANCH  13  15
ATOM     15  C   UNL A   1      31.556  24.691  23.470  1.00  0.00     0.064 A 
ATOM     16  C   UNL A   1      30.648  25.100  24.547  1.00  0.00    -0.026 A 
ATOM     17  C   UNL A   1      32.021  23.423  23.625  1.00  0.00     0.064 A 
ATOM     18  C   UNL A   1      29.515  26.115  24.697  1.00  0.00     0.046 C 
ATOM     19  C   UNL A   1      30.499  24.312  25.742  1.00  0.00     0.005 A 
ATOM     20  C   UNL A   1      31.499  22.553  24.662  1.00  0.00     0.023 A 
ATOM     21  Cl  UNL A   1      33.184  22.925  22.038  1.00  0.00    -0.082 Cl
ATOM     22  C   UNL A   1      30.838  23.002  25.766  1.00  0.00     0.002 A 
ENDBRANCH  13  15
ENDBRANCH   5   9
ENDBRANCH   3   5
ENDBRANCH   2   3
ENDBRANCH   1   2
BRANCH   1  23
ATOM     23  C   UNL A   1      31.820  29.889  26.717  1.00  0.00     0.275 C 
BRANCH  23  24
ATOM     24  O   UNL A   1      33.327  29.839  27.308  1.00  0.00    -0.458 OA
BRANCH  24  25
ATOM     25  C   UNL A   1      34.298  30.765  27.850  1.00  0.00     0.338 C 
ATOM     26  O   UNL A   1      33.981  31.929  28.074  1.00  0.00    -0.246 OA
BRANCH  25  27
ATOM     27  C   UNL A   1      35.908  30.257  28.284  1.00  0.00     0.060 A 
ATOM     28  C   UNL A   1      37.030  30.171  27.426  1.00  0.00     0.016 A 
ATOM     29  C   UNL A   1      36.298  29.715  29.512  1.00  0.00     0.016 A 
ATOM     30  C   UNL A   1      38.251  29.543  27.519  1.00  0.00     0.010 A 
ATOM     31  C   UNL A   1      37.659  29.177  29.734  1.00  0.00     0.010 A 
ATOM     32  C   UNL A   1      38.647  29.112  28.725  1.00  0.00    -0.014 A 
BRANCH  32  33
ATOM     33  C   UNL A   1      40.037  28.598  28.693  1.00  0.00     0.031 A 
ATOM     34  C   UNL A   1      41.148  29.523  29.057  1.00  0.00     0.074 A 
ATOM     35  C   UNL A   1      40.312  27.268  28.652  1.00  0.00     0.049 A 
ATOM     36  N   UNL A   1      42.421  29.408  28.805  1.00  0.00    -0.248 NA
ATOM     37  C   UNL A   1      40.781  30.728  29.821  1.00  0.00     0.031 C 
ATOM     38  C   UNL A   1      39.337  26.162  28.709  1.00  0.00     0.029 A 
ATOM     39  N   UNL A   1      41.517  26.611  28.548  1.00  0.00    -0.354 N 
ATOM     40  C   UNL A   1      42.992  30.584  29.264  1.00  0.00     0.074 A 
ATOM     41  C   UNL A   1      41.943  31.365  29.881  1.00  0.00     0.031 C 
ATOM     42  C   UNL A   1      39.976  24.990  28.553  1.00  0.00     0.029 A 
ATOM     43  C   UNL A   1      41.377  25.265  28.283  1.00  0.00     0.049 A 
ATOM     44  H   UNL A   1      42.390  27.056  28.652  1.00  0.00     0.167 HD
ATOM     45  C   UNL A   1      44.275  30.977  29.108  1.00  0.00     0.031 A 
ATOM     46  C   UNL A   1      42.253  24.384  27.762  1.00  0.00     0.031 A 
ATOM     47  C   UNL A   1      45.283  30.148  28.504  1.00  0.00     0.049 A 
ATOM     48  C   UNL A   1      43.626  24.884  27.406  1.00  0.00     0.074 A 
ATOM     49  C   UNL A   1      46.597  30.455  28.205  1.00  0.00     0.029 A 
ATOM     50  N   UNL A   1      45.082  28.829  28.121  1.00  0.00    -0.354 N 
ATOM     51  N   UNL A   1      44.152  26.067  27.619  1.00  0.00    -0.248 NA
ATOM     52  C   UNL A   1      44.517  23.942  26.718  1.00  0.00     0.031 C 
ATOM     53  C   UNL A   1      47.175  29.338  27.592  1.00  0.00     0.029 A 
ATOM     54  C   UNL A   1      46.240  28.314  27.570  1.00  0.00     0.049 A 
ATOM     55  H   UNL A   1      44.239  28.333  28.226  1.00  0.00     0.167 HD
ATOM     56  C   UNL A   1      45.444  26.004  27.115  1.00  0.00     0.074 A 
ATOM     57  C   UNL A   1      45.625  24.660  26.604  1.00  0.00     0.031 C 
ATOM     58  C   UNL A   1      46.394  26.969  27.077  1.00  0.00     0.031 A 
BRANCH  45  59
ATOM     59  C   UNL A   1      44.609  32.395  29.464  1.00  0.00    -0.014 A 
ATOM     60  C   UNL A   1      45.125  32.754  30.715  1.00  0.00     0.009 A 
ATOM     61  C   UNL A   1      44.401  33.395  28.499  1.00  0.00     0.009 A 
ATOM     62  C   UNL A   1      45.405  34.093  31.001  1.00  0.00     0.001 A 
ATOM     63  C   UNL A   1      44.708  34.726  28.776  1.00  0.00     0.001 A 
ATOM     64  C   UNL A   1      45.203  35.075  30.030  1.00  0.00     0.000 A 
ENDBRANCH  45  59
BRANCH  46  65
ATOM     65  C   UNL A   1      41.827  23.002  27.394  1.00  0.00    -0.014 A 
ATOM     66  C   UNL A   1      42.388  21.882  28.024  1.00  0.00     0.009 A 
ATOM     67  C   UNL A   1      40.890  22.794  26.366  1.00  0.00     0.009 A 
ATOM     68  C   UNL A   1      42.040  20.589  27.618  1.00  0.00     0.001 A 
ATOM     69  C   UNL A   1      40.518  21.503  25.985  1.00  0.00     0.001 A 
ATOM     70  C   UNL A   1      41.102  20.401  26.603  1.00  0.00     0.000 A 
ENDBRANCH  46  65
BRANCH  58  71
ATOM     71  C   UNL A   1      47.734  26.579  26.520  1.00  0.00    -0.014 A 
ATOM     72  C   UNL A   1      48.053  26.780  25.168  1.00  0.00     0.009 A 
ATOM     73  C   UNL A   1      48.699  26.027  27.376  1.00  0.00     0.009 A 
ATOM     74  C   UNL A   1      49.302  26.398  24.678  1.00  0.00     0.001 A 
ATOM     75  C   UNL A   1      49.958  25.677  26.890  1.00  0.00     0.001 A 
ATOM     76  C   UNL A   1      50.254  25.853  25.539  1.00  0.00     0.000 A 
ENDBRANCH  58  71
ENDBRANCH  32  33
ENDBRANCH  25  27
ENDBRANCH  24  25
ENDBRANCH  23  24
ENDBRANCH   1  23
TORSDOF 14
ENDMDL
