MODEL 1
REMARK VINA RESULT:     -11.0      0.000      0.000
REMARK SMILES C[NH+]1CCN(c2nc3c(cc2F)c(=O)c(C(=O)OCCOC(=O)c2ccc(-c4c5nc(c(-c6ccccc6)c6ccc([nH]6)c(-c6ccccc6)c6nc(c(-c7ccccc7)c7ccc4[nH]7)C=C6)C=C5)cc2)cn3-c2ccc(F)cc2F)CC1
REMARK SMILES IDX 20 1 19 2 18 3 16 4 17 5 15 6 6 7 7 8 11 9 8 10 10 11 12 12
REMARK SMILES IDX 9 13 73 14 13 15 72 16 14 17 5 18 1 19 2 20 3 21 83 22 4 24
REMARK SMILES IDX 82 25 74 26 75 27 80 28 76 29 79 30 81 31 77 32 78 33 21 34
REMARK SMILES IDX 22 35 23 36 24 37 25 38 71 39 26 40 70 41 27 42 28 43 29 44
REMARK SMILES IDX 64 45 30 46 69 47 63 48 65 49 31 50 68 51 62 52 61 53 32 55
REMARK SMILES IDX 54 56 39 57 53 58 40 59 43 60 52 61 66 62 41 63 42 64 51 66
REMARK SMILES IDX 67 67 44 68 33 69 34 70 38 71 35 72 37 73 36 74 55 75 56 76
REMARK SMILES IDX 60 77 57 78 59 79 58 80 45 81 46 82 50 83 47 84 49 85 48 86
REMARK H PARENT 2 23 65 54 43 65
REMARK Flexibility Score: inf
ROOT
ATOM      1  C   UNL A   1      45.334  20.589  24.776  1.00  0.00     0.275 C 
ENDROOT
BRANCH   1   2
ATOM      2  C   UNL A   1      44.175  19.891  25.482  1.00  0.00     0.275 C 
BRANCH   2   3
ATOM      3  O   UNL A   1      43.212  20.862  25.934  1.00  0.00    -0.458 OA
BRANCH   3   4
ATOM      4  C   UNL A   1      42.190  20.399  26.688  1.00  0.00     0.343 C 
ATOM      5  O   UNL A   1      42.268  19.545  27.562  1.00  0.00    -0.246 OA
BRANCH   4   6
ATOM      6  C   UNL A   1      40.946  21.129  26.398  1.00  0.00     0.124 A 
ATOM      7  C   UNL A   1      36.242  22.845  25.663  1.00  0.00     0.167 A 
ATOM      8  N   UNL A   1      37.401  23.432  26.046  1.00  0.00    -0.209 NA
ATOM      9  C   UNL A   1      36.206  21.504  25.261  1.00  0.00     0.166 A 
ATOM     10  C   UNL A   1      38.534  22.680  26.107  1.00  0.00     0.151 A 
ATOM     11  C   UNL A   1      37.359  20.747  25.248  1.00  0.00     0.059 A 
ATOM     12  F   UNL A   1      35.057  20.935  24.861  1.00  0.00    -0.203 F 
ATOM     13  C   UNL A   1      38.535  21.339  25.691  1.00  0.00     0.069 A 
ATOM     14  N   UNL A   1      39.745  23.243  26.627  1.00  0.00    -0.297 N 
ATOM     15  C   UNL A   1      39.763  20.519  25.765  1.00  0.00     0.205 A 
ATOM     16  C   UNL A   1      40.845  22.410  26.777  1.00  0.00     0.113 A 
ATOM     17  O   UNL A   1      39.747  19.358  25.376  1.00  0.00    -0.288 OA
BRANCH   7  18
ATOM     18  N   UNL A   1      35.085  23.584  25.675  1.00  0.00    -0.343 N 
ATOM     19  C   UNL A   1      31.138  24.694  24.769  1.00  0.00     0.332 C 
ATOM     20  N   UNL A   1      32.459  24.737  25.397  1.00  0.00    -0.334 N 
ATOM     21  C   UNL A   1      33.516  24.914  24.367  1.00  0.00     0.283 C 
ATOM     22  C   UNL A   1      32.690  23.484  26.156  1.00  0.00     0.283 C 
ATOM     23  H   UNL A   1      32.496  25.530  26.036  1.00  0.00     0.347 HD
ATOM     24  C   UNL A   1      34.962  24.831  24.934  1.00  0.00     0.179 C 
ATOM     25  C   UNL A   1      34.111  23.387  26.743  1.00  0.00     0.179 C 
ENDBRANCH   7  18
BRANCH  14  26
ATOM     26  C   UNL A   1      39.839  24.602  27.057  1.00  0.00     0.083 A 
ATOM     27  C   UNL A   1      39.269  25.009  28.275  1.00  0.00     0.033 A 
ATOM     28  C   UNL A   1      40.538  25.562  26.300  1.00  0.00     0.150 A 
ATOM     29  C   UNL A   1      39.403  26.327  28.716  1.00  0.00     0.041 A 
ATOM     30  C   UNL A   1      40.660  26.881  26.725  1.00  0.00     0.080 A 
ATOM     31  F   UNL A   1      41.101  25.214  25.132  1.00  0.00    -0.205 F 
ATOM     32  C   UNL A   1      40.093  27.250  27.935  1.00  0.00     0.126 A 
ATOM     33  F   UNL A   1      40.210  28.514  28.360  1.00  0.00    -0.207 F 
ENDBRANCH  14  26
ENDBRANCH   4   6
ENDBRANCH   3   4
ENDBRANCH   2   3
ENDBRANCH   1   2
BRANCH   1  34
ATOM     34  O   UNL A   1      45.935  21.552  25.660  1.00  0.00    -0.458 OA
BRANCH  34  35
ATOM     35  C   UNL A   1      46.054  22.805  25.165  1.00  0.00     0.338 C 
ATOM     36  O   UNL A   1      46.346  23.138  24.032  1.00  0.00    -0.246 OA
BRANCH  35  37
ATOM     37  C   UNL A   1      45.727  23.776  26.219  1.00  0.00     0.060 A 
ATOM     38  C   UNL A   1      44.396  24.125  26.435  1.00  0.00     0.016 A 
ATOM     39  C   UNL A   1      46.750  24.440  26.893  1.00  0.00     0.016 A 
ATOM     40  C   UNL A   1      44.082  25.209  27.247  1.00  0.00     0.010 A 
ATOM     41  C   UNL A   1      46.427  25.469  27.782  1.00  0.00     0.010 A 
ATOM     42  C   UNL A   1      45.094  25.892  27.935  1.00  0.00    -0.014 A 
BRANCH  42  43
ATOM     43  C   UNL A   1      44.769  27.073  28.774  1.00  0.00     0.031 A 
ATOM     44  C   UNL A   1      44.436  26.892  30.230  1.00  0.00     0.074 A 
ATOM     45  C   UNL A   1      44.801  28.315  28.251  1.00  0.00     0.049 A 
ATOM     46  N   UNL A   1      43.963  27.765  31.082  1.00  0.00    -0.248 NA
ATOM     47  C   UNL A   1      44.667  25.555  30.806  1.00  0.00     0.031 C 
ATOM     48  C   UNL A   1      45.188  28.650  26.879  1.00  0.00     0.029 A 
ATOM     49  N   UNL A   1      44.516  29.530  28.822  1.00  0.00    -0.354 N 
ATOM     50  C   UNL A   1      43.796  27.077  32.276  1.00  0.00     0.074 A 
ATOM     51  C   UNL A   1      44.225  25.714  32.046  1.00  0.00     0.031 C 
ATOM     52  C   UNL A   1      45.163  29.984  26.730  1.00  0.00     0.029 A 
ATOM     53  C   UNL A   1      44.679  30.591  27.965  1.00  0.00     0.049 A 
ATOM     54  H   UNL A   1      44.223  29.631  29.756  1.00  0.00     0.167 HD
ATOM     55  C   UNL A   1      43.324  27.539  33.457  1.00  0.00     0.031 A 
ATOM     56  C   UNL A   1      44.434  31.903  28.138  1.00  0.00     0.031 A 
ATOM     57  C   UNL A   1      42.924  28.899  33.697  1.00  0.00     0.049 A 
ATOM     58  C   UNL A   1      43.849  32.382  29.433  1.00  0.00     0.074 A 
ATOM     59  C   UNL A   1      42.389  29.449  34.849  1.00  0.00     0.029 A 
ATOM     60  N   UNL A   1      43.043  29.927  32.779  1.00  0.00    -0.354 N 
ATOM     61  N   UNL A   1      43.579  31.695  30.516  1.00  0.00    -0.248 NA
ATOM     62  C   UNL A   1      43.509  33.809  29.522  1.00  0.00     0.031 C 
ATOM     63  C   UNL A   1      42.166  30.810  34.621  1.00  0.00     0.029 A 
ATOM     64  C   UNL A   1      42.595  31.110  33.339  1.00  0.00     0.049 A 
ATOM     65  H   UNL A   1      43.394  29.833  31.863  1.00  0.00     0.167 HD
ATOM     66  C   UNL A   1      43.044  32.605  31.416  1.00  0.00     0.074 A 
ATOM     67  C   UNL A   1      43.036  33.896  30.758  1.00  0.00     0.031 C 
ATOM     68  C   UNL A   1      42.595  32.385  32.674  1.00  0.00     0.031 A 
BRANCH  55  69
ATOM     69  C   UNL A   1      43.182  26.560  34.583  1.00  0.00    -0.014 A 
ATOM     70  C   UNL A   1      41.965  25.906  34.825  1.00  0.00     0.009 A 
ATOM     71  C   UNL A   1      44.303  26.232  35.362  1.00  0.00     0.009 A 
ATOM     72  C   UNL A   1      41.872  24.949  35.837  1.00  0.00     0.001 A 
ATOM     73  C   UNL A   1      44.210  25.261  36.361  1.00  0.00     0.001 A 
ATOM     74  C   UNL A   1      42.994  24.623  36.598  1.00  0.00     0.000 A 
ENDBRANCH  55  69
BRANCH  56  75
ATOM     75  C   UNL A   1      44.716  32.852  27.033  1.00  0.00    -0.014 A 
ATOM     76  C   UNL A   1      45.927  33.559  27.001  1.00  0.00     0.009 A 
ATOM     77  C   UNL A   1      43.797  33.026  25.987  1.00  0.00     0.009 A 
ATOM     78  C   UNL A   1      46.211  34.423  25.943  1.00  0.00     0.001 A 
ATOM     79  C   UNL A   1      44.093  33.876  24.920  1.00  0.00     0.001 A 
ATOM     80  C   UNL A   1      45.297  34.575  24.900  1.00  0.00     0.000 A 
ENDBRANCH  56  75
BRANCH  68  81
ATOM     81  C   UNL A   1      42.076  33.563  33.441  1.00  0.00    -0.014 A 
ATOM     82  C   UNL A   1      40.714  33.893  33.415  1.00  0.00     0.009 A 
ATOM     83  C   UNL A   1      42.946  34.293  34.266  1.00  0.00     0.009 A 
ATOM     84  C   UNL A   1      40.231  34.944  34.199  1.00  0.00     0.001 A 
ATOM     85  C   UNL A   1      42.458  35.332  35.059  1.00  0.00     0.001 A 
ATOM     86  C   UNL A   1      41.102  35.658  35.023  1.00  0.00     0.000 A 
ENDBRANCH  68  81
ENDBRANCH  42  43
ENDBRANCH  35  37
ENDBRANCH  34  35
ENDBRANCH   1  34
TORSDOF 13
ENDMDL
MODEL 2
REMARK VINA RESULT:     -10.9      5.502     10.624
REMARK SMILES C[NH+]1CCN(c2nc3c(cc2F)c(=O)c(C(=O)OCCOC(=O)c2ccc(-c4c5nc(c(-c6ccccc6)c6ccc([nH]6)c(-c6ccccc6)c6nc(c(-c7ccccc7)c7ccc4[nH]7)C=C6)C=C5)cc2)cn3-c2ccc(F)cc2F)CC1
REMARK SMILES IDX 20 1 19 2 18 3 16 4 17 5 15 6 6 7 7 8 11 9 8 10 10 11 12 12
REMARK SMILES IDX 9 13 73 14 13 15 72 16 14 17 5 18 1 19 2 20 3 21 83 22 4 24
REMARK SMILES IDX 82 25 74 26 75 27 80 28 76 29 79 30 81 31 77 32 78 33 21 34
REMARK SMILES IDX 22 35 23 36 24 37 25 38 71 39 26 40 70 41 27 42 28 43 29 44
REMARK SMILES IDX 64 45 30 46 69 47 63 48 65 49 31 50 68 51 62 52 61 53 32 55
REMARK SMILES IDX 54 56 39 57 53 58 40 59 43 60 52 61 66 62 41 63 42 64 51 66
REMARK SMILES IDX 67 67 44 68 33 69 34 70 38 71 35 72 37 73 36 74 55 75 56 76
REMARK SMILES IDX 60 77 57 78 59 79 58 80 45 81 46 82 50 83 47 84 49 85 48 86
REMARK H PARENT 2 23 65 54 43 65
REMARK Flexibility Score: inf
ROOT
ATOM      1  C   UNL A   1      33.607  35.081  32.024  1.00  0.00     0.275 C 
ENDROOT
BRANCH   1   2
ATOM      2  C   UNL A   1      33.517  35.715  30.639  1.00  0.00     0.275 C 
BRANCH   2   3
ATOM      3  O   UNL A   1      33.103  34.734  29.670  1.00  0.00    -0.458 OA
BRANCH   3   4
ATOM      4  C   UNL A   1      33.954  34.493  28.648  1.00  0.00     0.343 C 
ATOM      5  O   UNL A   1      34.763  35.284  28.181  1.00  0.00    -0.246 OA
BRANCH   4   6
ATOM      6  C   UNL A   1      33.863  33.093  28.204  1.00  0.00     0.124 A 
ATOM      7  C   UNL A   1      33.137  28.638  25.913  1.00  0.00     0.167 A 
ATOM      8  N   UNL A   1      34.092  29.115  26.746  1.00  0.00    -0.209 NA
ATOM      9  C   UNL A   1      31.998  29.394  25.607  1.00  0.00     0.166 A 
ATOM     10  C   UNL A   1      33.971  30.379  27.236  1.00  0.00     0.151 A 
ATOM     11  C   UNL A   1      31.825  30.649  26.152  1.00  0.00     0.059 A 
ATOM     12  F   UNL A   1      31.045  28.906  24.798  1.00  0.00    -0.203 F 
ATOM     13  C   UNL A   1      32.831  31.154  26.965  1.00  0.00     0.069 A 
ATOM     14  N   UNL A   1      35.026  30.953  28.019  1.00  0.00    -0.297 N 
ATOM     15  C   UNL A   1      32.703  32.530  27.489  1.00  0.00     0.205 A 
ATOM     16  C   UNL A   1      34.912  32.283  28.401  1.00  0.00     0.113 A 
ATOM     17  O   UNL A   1      31.691  33.180  27.259  1.00  0.00    -0.288 OA
BRANCH   7  18
ATOM     18  N   UNL A   1      33.298  27.393  25.359  1.00  0.00    -0.343 N 
ATOM     19  C   UNL A   1      32.319  23.869  23.297  1.00  0.00     0.332 C 
ATOM     20  N   UNL A   1      33.133  24.849  24.015  1.00  0.00    -0.334 N 
ATOM     21  C   UNL A   1      32.603  25.057  25.388  1.00  0.00     0.283 C 
ATOM     22  C   UNL A   1      33.140  26.131  23.270  1.00  0.00     0.283 C 
ATOM     23  H   UNL A   1      34.087  24.497  24.089  1.00  0.00     0.347 HD
ATOM     24  C   UNL A   1      33.326  26.187  26.175  1.00  0.00     0.179 C 
ATOM     25  C   UNL A   1      33.867  27.263  24.022  1.00  0.00     0.179 C 
ENDBRANCH   7  18
BRANCH  14  26
ATOM     26  C   UNL A   1      36.213  30.233  28.357  1.00  0.00     0.083 A 
ATOM     27  C   UNL A   1      37.220  30.024  27.401  1.00  0.00     0.033 A 
ATOM     28  C   UNL A   1      36.427  29.748  29.661  1.00  0.00     0.150 A 
ATOM     29  C   UNL A   1      38.400  29.361  27.747  1.00  0.00     0.041 A 
ATOM     30  C   UNL A   1      37.592  29.072  30.008  1.00  0.00     0.080 A 
ATOM     31  F   UNL A   1      35.490  29.930  30.606  1.00  0.00    -0.205 F 
ATOM     32  C   UNL A   1      38.572  28.888  29.044  1.00  0.00     0.126 A 
ATOM     33  F   UNL A   1      39.701  28.246  29.366  1.00  0.00    -0.207 F 
ENDBRANCH  14  26
ENDBRANCH   4   6
ENDBRANCH   3   4
ENDBRANCH   2   3
ENDBRANCH   1   2
BRANCH   1  34
ATOM     34  O   UNL A   1      34.779  34.249  32.105  1.00  0.00    -0.458 OA
BRANCH  34  35
ATOM     35  C   UNL A   1      35.707  34.634  33.009  1.00  0.00     0.338 C 
ATOM     36  O   UNL A   1      35.543  35.301  34.013  1.00  0.00    -0.246 OA
BRANCH  35  37
ATOM     37  C   UNL A   1      37.014  34.081  32.628  1.00  0.00     0.060 A 
ATOM     38  C   UNL A   1      37.084  33.145  31.599  1.00  0.00     0.016 A 
ATOM     39  C   UNL A   1      38.145  34.386  33.384  1.00  0.00     0.016 A 
ATOM     40  C   UNL A   1      38.257  32.430  31.384  1.00  0.00     0.010 A 
ATOM     41  C   UNL A   1      39.349  33.733  33.105  1.00  0.00     0.010 A 
ATOM     42  C   UNL A   1      39.407  32.719  32.131  1.00  0.00    -0.014 A 
BRANCH  42  43
ATOM     43  C   UNL A   1      40.652  31.935  31.932  1.00  0.00     0.031 A 
ATOM     44  C   UNL A   1      41.646  32.357  30.885  1.00  0.00     0.074 A 
ATOM     45  C   UNL A   1      40.916  30.863  32.704  1.00  0.00     0.049 A 
ATOM     46  N   UNL A   1      42.699  31.718  30.443  1.00  0.00    -0.248 NA
ATOM     47  C   UNL A   1      41.433  33.672  30.254  1.00  0.00     0.031 C 
ATOM     48  C   UNL A   1      40.086  30.386  33.812  1.00  0.00     0.029 A 
ATOM     49  N   UNL A   1      41.973  29.987  32.681  1.00  0.00    -0.354 N 
ATOM     50  C   UNL A   1      43.244  32.526  29.454  1.00  0.00     0.074 A 
ATOM     51  C   UNL A   1      42.414  33.707  29.362  1.00  0.00     0.031 C 
ATOM     52  C   UNL A   1      40.689  29.336  34.392  1.00  0.00     0.029 A 
ATOM     53  C   UNL A   1      41.902  29.015  33.647  1.00  0.00     0.049 A 
ATOM     54  H   UNL A   1      42.712  30.051  32.033  1.00  0.00     0.167 HD
ATOM     55  C   UNL A   1      44.337  32.299  28.688  1.00  0.00     0.031 A 
ATOM     56  C   UNL A   1      42.701  27.959  33.889  1.00  0.00     0.031 A 
ATOM     57  C   UNL A   1      45.180  31.140  28.797  1.00  0.00     0.049 A 
ATOM     58  C   UNL A   1      43.869  27.692  32.987  1.00  0.00     0.074 A 
ATOM     59  C   UNL A   1      46.283  30.803  28.031  1.00  0.00     0.029 A 
ATOM     60  N   UNL A   1      45.031  30.145  29.746  1.00  0.00    -0.354 N 
ATOM     61  N   UNL A   1      44.301  28.401  31.974  1.00  0.00    -0.248 NA
ATOM     62  C   UNL A   1      44.640  26.468  33.242  1.00  0.00     0.031 C 
ATOM     63  C   UNL A   1      46.792  29.590  28.507  1.00  0.00     0.029 A 
ATOM     64  C   UNL A   1      46.024  29.194  29.589  1.00  0.00     0.049 A 
ATOM     65  H   UNL A   1      44.324  30.116  30.432  1.00  0.00     0.167 HD
ATOM     66  C   UNL A   1      45.398  27.714  31.473  1.00  0.00     0.074 A 
ATOM     67  C   UNL A   1      45.572  26.537  32.300  1.00  0.00     0.031 C 
ATOM     68  C   UNL A   1      46.186  28.031  30.419  1.00  0.00     0.031 A 
BRANCH  55  69
ATOM     69  C   UNL A   1      44.675  33.313  27.638  1.00  0.00    -0.014 A 
ATOM     70  C   UNL A   1      45.568  34.361  27.903  1.00  0.00     0.009 A 
ATOM     71  C   UNL A   1      44.151  33.172  26.343  1.00  0.00     0.009 A 
ATOM     72  C   UNL A   1      45.921  35.257  26.892  1.00  0.00     0.001 A 
ATOM     73  C   UNL A   1      44.520  34.058  25.330  1.00  0.00     0.001 A 
ATOM     74  C   UNL A   1      45.403  35.101  25.607  1.00  0.00     0.000 A 
ENDBRANCH  55  69
BRANCH  56  75
ATOM     75  C   UNL A   1      42.396  27.056  35.027  1.00  0.00    -0.014 A 
ATOM     76  C   UNL A   1      42.980  27.280  36.282  1.00  0.00     0.009 A 
ATOM     77  C   UNL A   1      41.492  25.993  34.874  1.00  0.00     0.009 A 
ATOM     78  C   UNL A   1      42.665  26.455  37.363  1.00  0.00     0.001 A 
ATOM     79  C   UNL A   1      41.164  25.182  35.962  1.00  0.00     0.001 A 
ATOM     80  C   UNL A   1      41.753  25.412  37.204  1.00  0.00     0.000 A 
ENDBRANCH  56  75
BRANCH  68  81
ATOM     81  C   UNL A   1      47.325  27.112  30.103  1.00  0.00    -0.014 A 
ATOM     82  C   UNL A   1      47.204  26.133  29.106  1.00  0.00     0.009 A 
ATOM     83  C   UNL A   1      48.559  27.286  30.750  1.00  0.00     0.009 A 
ATOM     84  C   UNL A   1      48.301  25.338  28.766  1.00  0.00     0.001 A 
ATOM     85  C   UNL A   1      49.656  26.499  30.398  1.00  0.00     0.001 A 
ATOM     86  C   UNL A   1      49.525  25.525  29.408  1.00  0.00     0.000 A 
ENDBRANCH  68  81
ENDBRANCH  42  43
ENDBRANCH  35  37
ENDBRANCH  34  35
ENDBRANCH   1  34
TORSDOF 13
ENDMDL
MODEL 3
REMARK VINA RESULT:     -10.9      5.965     11.466
REMARK SMILES C[NH+]1CCN(c2nc3c(cc2F)c(=O)c(C(=O)OCCOC(=O)c2ccc(-c4c5nc(c(-c6ccccc6)c6ccc([nH]6)c(-c6ccccc6)c6nc(c(-c7ccccc7)c7ccc4[nH]7)C=C6)C=C5)cc2)cn3-c2ccc(F)cc2F)CC1
REMARK SMILES IDX 20 1 19 2 18 3 16 4 17 5 15 6 6 7 7 8 11 9 8 10 10 11 12 12
REMARK SMILES IDX 9 13 73 14 13 15 72 16 14 17 5 18 1 19 2 20 3 21 83 22 4 24
REMARK SMILES IDX 82 25 74 26 75 27 80 28 76 29 79 30 81 31 77 32 78 33 21 34
REMARK SMILES IDX 22 35 23 36 24 37 25 38 71 39 26 40 70 41 27 42 28 43 29 44
REMARK SMILES IDX 64 45 30 46 69 47 63 48 65 49 31 50 68 51 62 52 61 53 32 55
REMARK SMILES IDX 54 56 39 57 53 58 40 59 43 60 52 61 66 62 41 63 42 64 51 66
REMARK SMILES IDX 67 67 44 68 33 69 34 70 38 71 35 72 37 73 36 74 55 75 56 76
REMARK SMILES IDX 60 77 57 78 59 79 58 80 45 81 46 82 50 83 47 84 49 85 48 86
REMARK H PARENT 2 23 65 54 43 65
REMARK Flexibility Score: inf
ROOT
ATOM      1  C   UNL A   1      32.820  35.947  30.073  1.00  0.00     0.275 C 
ENDROOT
BRANCH   1   2
ATOM      2  C   UNL A   1      33.397  36.330  31.433  1.00  0.00     0.275 C 
BRANCH   2   3
ATOM      3  O   UNL A   1      34.056  35.197  32.030  1.00  0.00    -0.458 OA
BRANCH   3   4
ATOM      4  C   UNL A   1      34.440  35.327  33.319  1.00  0.00     0.343 C 
ATOM      5  O   UNL A   1      33.988  36.126  34.129  1.00  0.00    -0.246 OA
BRANCH   4   6
ATOM      6  C   UNL A   1      35.432  34.302  33.681  1.00  0.00     0.124 A 
ATOM      7  C   UNL A   1      38.885  30.615  34.000  1.00  0.00     0.167 A 
ATOM      8  N   UNL A   1      38.647  31.737  34.721  1.00  0.00    -0.209 NA
ATOM      9  C   UNL A   1      38.016  30.212  32.978  1.00  0.00     0.166 A 
ATOM     10  C   UNL A   1      37.582  32.519  34.395  1.00  0.00     0.151 A 
ATOM     11  C   UNL A   1      36.892  30.955  32.682  1.00  0.00     0.059 A 
ATOM     12  F   UNL A   1      38.246  29.087  32.282  1.00  0.00    -0.203 F 
ATOM     13  C   UNL A   1      36.680  32.132  33.389  1.00  0.00     0.069 A 
ATOM     14  N   UNL A   1      37.378  33.773  35.059  1.00  0.00    -0.297 N 
ATOM     15  C   UNL A   1      35.529  32.984  33.029  1.00  0.00     0.205 A 
ATOM     16  C   UNL A   1      36.347  34.591  34.617  1.00  0.00     0.113 A 
ATOM     17  O   UNL A   1      34.743  32.616  32.165  1.00  0.00    -0.288 OA
BRANCH   7  18
ATOM     18  N   UNL A   1      40.002  29.868  34.280  1.00  0.00    -0.343 N 
ATOM     19  C   UNL A   1      42.314  26.520  35.315  1.00  0.00     0.332 C 
ATOM     20  N   UNL A   1      42.000  27.888  34.905  1.00  0.00    -0.334 N 
ATOM     21  C   UNL A   1      41.208  28.576  35.957  1.00  0.00     0.283 C 
ATOM     22  C   UNL A   1      41.243  27.864  33.630  1.00  0.00     0.283 C 
ATOM     23  H   UNL A   1      42.871  28.402  34.770  1.00  0.00     0.347 HD
ATOM     24  C   UNL A   1      40.712  29.991  35.545  1.00  0.00     0.179 C 
ATOM     25  C   UNL A   1      40.756  29.258  33.190  1.00  0.00     0.179 C 
ENDBRANCH   7  18
BRANCH  14  26
ATOM     26  C   UNL A   1      38.234  34.239  36.103  1.00  0.00     0.083 A 
ATOM     27  C   UNL A   1      39.256  35.163  35.832  1.00  0.00     0.033 A 
ATOM     28  C   UNL A   1      38.056  33.820  37.435  1.00  0.00     0.150 A 
ATOM     29  C   UNL A   1      40.061  35.654  36.863  1.00  0.00     0.041 A 
ATOM     30  C   UNL A   1      38.866  34.290  38.464  1.00  0.00     0.080 A 
ATOM     31  F   UNL A   1      37.089  32.940  37.738  1.00  0.00    -0.205 F 
ATOM     32  C   UNL A   1      39.861  35.209  38.167  1.00  0.00     0.126 A 
ATOM     33  F   UNL A   1      40.643  35.676  39.148  1.00  0.00    -0.207 F 
ENDBRANCH  14  26
ENDBRANCH   4   6
ENDBRANCH   3   4
ENDBRANCH   2   3
ENDBRANCH   1   2
BRANCH   1  34
ATOM     34  O   UNL A   1      32.767  34.514  29.951  1.00  0.00    -0.458 OA
BRANCH  34  35
ATOM     35  C   UNL A   1      33.083  34.019  28.733  1.00  0.00     0.338 C 
ATOM     36  O   UNL A   1      32.401  34.015  27.726  1.00  0.00    -0.246 OA
BRANCH  35  37
ATOM     37  C   UNL A   1      34.453  33.488  28.767  1.00  0.00     0.060 A 
ATOM     38  C   UNL A   1      34.652  32.132  29.014  1.00  0.00     0.016 A 
ATOM     39  C   UNL A   1      35.539  34.360  28.693  1.00  0.00     0.016 A 
ATOM     40  C   UNL A   1      35.928  31.653  29.292  1.00  0.00     0.010 A 
ATOM     41  C   UNL A   1      36.830  33.860  28.881  1.00  0.00     0.010 A 
ATOM     42  C   UNL A   1      37.034  32.511  29.224  1.00  0.00    -0.014 A 
BRANCH  42  43
ATOM     43  C   UNL A   1      38.394  32.015  29.556  1.00  0.00     0.031 A 
ATOM     44  C   UNL A   1      38.837  30.660  29.077  1.00  0.00     0.074 A 
ATOM     45  C   UNL A   1      39.250  32.783  30.258  1.00  0.00     0.049 A 
ATOM     46  N   UNL A   1      39.907  29.980  29.401  1.00  0.00    -0.248 NA
ATOM     47  C   UNL A   1      37.965  29.978  28.104  1.00  0.00     0.031 C 
ATOM     48  C   UNL A   1      38.989  34.149  30.716  1.00  0.00     0.029 A 
ATOM     49  N   UNL A   1      40.525  32.524  30.697  1.00  0.00    -0.354 N 
ATOM     50  C   UNL A   1      39.816  28.779  28.712  1.00  0.00     0.074 A 
ATOM     51  C   UNL A   1      38.590  28.819  27.944  1.00  0.00     0.031 C 
ATOM     52  C   UNL A   1      40.086  34.624  31.327  1.00  0.00     0.029 A 
ATOM     53  C   UNL A   1      41.095  33.571  31.378  1.00  0.00     0.049 A 
ATOM     54  H   UNL A   1      40.987  31.669  30.537  1.00  0.00     0.167 HD
ATOM     55  C   UNL A   1      40.675  27.733  28.723  1.00  0.00     0.031 A 
ATOM     56  C   UNL A   1      42.281  33.667  32.006  1.00  0.00     0.031 A 
ATOM     57  C   UNL A   1      41.908  27.701  29.461  1.00  0.00     0.049 A 
ATOM     58  C   UNL A   1      43.188  32.473  32.060  1.00  0.00     0.074 A 
ATOM     59  C   UNL A   1      42.821  26.665  29.569  1.00  0.00     0.029 A 
ATOM     60  N   UNL A   1      42.414  28.760  30.194  1.00  0.00    -0.354 N 
ATOM     61  N   UNL A   1      43.030  31.297  31.505  1.00  0.00    -0.248 NA
ATOM     62  C   UNL A   1      44.421  32.610  32.848  1.00  0.00     0.031 C 
ATOM     63  C   UNL A   1      43.873  27.093  30.385  1.00  0.00     0.029 A 
ATOM     64  C   UNL A   1      43.628  28.406  30.754  1.00  0.00     0.049 A 
ATOM     65  H   UNL A   1      41.976  29.636  30.301  1.00  0.00     0.167 HD
ATOM     66  C   UNL A   1      44.144  30.555  31.871  1.00  0.00     0.074 A 
ATOM     67  C   UNL A   1      44.976  31.416  32.687  1.00  0.00     0.031 C 
ATOM     68  C   UNL A   1      44.445  29.272  31.561  1.00  0.00     0.031 A 
BRANCH  55  69
ATOM     69  C   UNL A   1      40.303  26.515  27.932  1.00  0.00    -0.014 A 
ATOM     70  C   UNL A   1      40.823  26.299  26.648  1.00  0.00     0.009 A 
ATOM     71  C   UNL A   1      39.481  25.536  28.512  1.00  0.00     0.009 A 
ATOM     72  C   UNL A   1      40.516  25.127  25.954  1.00  0.00     0.001 A 
ATOM     73  C   UNL A   1      39.191  24.358  27.823  1.00  0.00     0.001 A 
ATOM     74  C   UNL A   1      39.707  24.156  26.544  1.00  0.00     0.000 A 
ENDBRANCH  55  69
BRANCH  56  75
ATOM     75  C   UNL A   1      42.661  34.941  32.664  1.00  0.00    -0.014 A 
ATOM     76  C   UNL A   1      43.371  35.918  31.953  1.00  0.00     0.009 A 
ATOM     77  C   UNL A   1      42.280  35.203  33.990  1.00  0.00     0.009 A 
ATOM     78  C   UNL A   1      43.696  37.134  32.557  1.00  0.00     0.001 A 
ATOM     79  C   UNL A   1      42.590  36.427  34.585  1.00  0.00     0.001 A 
ATOM     80  C   UNL A   1      43.299  37.390  33.870  1.00  0.00     0.000 A 
ENDBRANCH  56  75
BRANCH  68  81
ATOM     81  C   UNL A   1      45.736  28.717  32.079  1.00  0.00    -0.014 A 
ATOM     82  C   UNL A   1      46.928  28.879  31.359  1.00  0.00     0.009 A 
ATOM     83  C   UNL A   1      45.772  28.104  33.341  1.00  0.00     0.009 A 
ATOM     84  C   UNL A   1      48.137  28.427  31.893  1.00  0.00     0.001 A 
ATOM     85  C   UNL A   1      46.984  27.668  33.878  1.00  0.00     0.001 A 
ATOM     86  C   UNL A   1      48.164  27.828  33.153  1.00  0.00     0.000 A 
ENDBRANCH  68  81
ENDBRANCH  42  43
ENDBRANCH  35  37
ENDBRANCH  34  35
ENDBRANCH   1  34
TORSDOF 13
ENDMDL
