MODEL 1
REMARK VINA RESULT:     -10.0      0.000      0.000
REMARK SMILES O=C(OCCOC(=O)C1CN(S(=O)(=O)c2ccc(F)cc2)C1)c1ccc(-c2c3nc(c(-c4ccccc4)c4ccc([nH]4)c(-c4ccccc4)c4nc(c(-c5ccccc5)c5ccc2[nH]5)C=C4)C=C3)cc1
REMARK SMILES IDX 4 1 3 2 2 3 1 4 23 5 24 6 70 7 25 8 69 9 26 10 27 11 28 12
REMARK SMILES IDX 63 13 29 14 68 15 62 16 64 17 30 18 67 19 61 20 60 21 31 23
REMARK SMILES IDX 53 24 38 25 52 26 39 27 42 28 51 29 65 30 40 31 41 32 50 34
REMARK SMILES IDX 66 35 43 36 32 37 33 38 37 39 34 40 36 41 35 42 54 43 55 44
REMARK SMILES IDX 59 45 56 46 58 47 57 48 44 49 45 50 49 51 46 52 48 53 47 54
REMARK SMILES IDX 5 55 6 56 7 57 8 58 9 59 10 60 22 61 11 62 12 63 13 64 14 65
REMARK SMILES IDX 15 66 16 67 21 68 17 69 20 70 18 71 19 72
REMARK H PARENT 64 22 42 33
REMARK Flexibility Score: inf
ROOT
ATOM      1  C   UNL A   1      33.249  36.805  28.965  1.00  0.00     0.275 C 
ENDROOT
BRANCH   1   2
ATOM      2  O   UNL A   1      32.562  35.568  28.703  1.00  0.00    -0.458 OA
BRANCH   2   3
ATOM      3  C   UNL A   1      33.042  34.358  28.336  1.00  0.00     0.338 C 
ATOM      4  O   UNL A   1      32.333  33.645  27.626  1.00  0.00    -0.246 OA
BRANCH   3   5
ATOM      5  C   UNL A   1      34.323  33.760  28.843  1.00  0.00     0.060 A 
ATOM      6  C   UNL A   1      34.487  32.985  29.993  1.00  0.00     0.016 A 
ATOM      7  C   UNL A   1      35.466  33.992  28.050  1.00  0.00     0.016 A 
ATOM      8  C   UNL A   1      35.715  32.379  30.291  1.00  0.00     0.010 A 
ATOM      9  C   UNL A   1      36.690  33.373  28.330  1.00  0.00     0.010 A 
ATOM     10  C   UNL A   1      36.818  32.547  29.450  1.00  0.00    -0.014 A 
BRANCH  10  11
ATOM     11  C   UNL A   1      38.121  31.934  29.795  1.00  0.00     0.031 A 
ATOM     12  C   UNL A   1      39.067  32.700  30.669  1.00  0.00     0.074 A 
ATOM     13  C   UNL A   1      38.450  30.708  29.343  1.00  0.00     0.049 A 
ATOM     14  N   UNL A   1      40.224  32.334  31.155  1.00  0.00    -0.248 NA
ATOM     15  C   UNL A   1      38.649  34.059  31.053  1.00  0.00     0.031 C 
ATOM     16  C   UNL A   1      37.616  29.860  28.493  1.00  0.00     0.029 A 
ATOM     17  N   UNL A   1      39.586  29.962  29.537  1.00  0.00    -0.354 N 
ATOM     18  C   UNL A   1      40.660  33.406  31.920  1.00  0.00     0.074 A 
ATOM     19  C   UNL A   1      39.678  34.459  31.781  1.00  0.00     0.031 C 
ATOM     20  C   UNL A   1      38.274  28.721  28.219  1.00  0.00     0.029 A 
ATOM     21  C   UNL A   1      39.574  28.755  28.880  1.00  0.00     0.049 A 
ATOM     22  H   UNL A   1      40.338  30.263  30.096  1.00  0.00     0.167 HD
ATOM     23  C   UNL A   1      41.764  33.500  32.696  1.00  0.00     0.031 A 
ATOM     24  C   UNL A   1      40.507  27.785  28.823  1.00  0.00     0.031 A 
ATOM     25  C   UNL A   1      42.761  32.474  32.800  1.00  0.00     0.049 A 
ATOM     26  C   UNL A   1      41.770  27.947  29.625  1.00  0.00     0.074 A 
ATOM     27  C   UNL A   1      43.919  32.463  33.554  1.00  0.00     0.029 A 
ATOM     28  N   UNL A   1      42.720  31.274  32.104  1.00  0.00    -0.354 N 
ATOM     29  N   UNL A   1      42.126  28.928  30.418  1.00  0.00    -0.248 NA
ATOM     30  C   UNL A   1      42.748  26.852  29.545  1.00  0.00     0.031 C 
ATOM     31  C   UNL A   1      44.600  31.269  33.285  1.00  0.00     0.029 A 
ATOM     32  C   UNL A   1      43.842  30.521  32.395  1.00  0.00     0.049 A 
ATOM     33  H   UNL A   1      41.997  30.999  31.493  1.00  0.00     0.167 HD
ATOM     34  C   UNL A   1      43.346  28.553  30.964  1.00  0.00     0.074 A 
ATOM     35  C   UNL A   1      43.667  27.251  30.415  1.00  0.00     0.031 C 
ATOM     36  C   UNL A   1      44.128  29.221  31.847  1.00  0.00     0.031 A 
BRANCH  23  37
ATOM     37  C   UNL A   1      41.925  34.775  33.469  1.00  0.00    -0.014 A 
ATOM     38  C   UNL A   1      42.761  35.800  32.992  1.00  0.00     0.009 A 
ATOM     39  C   UNL A   1      41.297  34.932  34.712  1.00  0.00     0.009 A 
ATOM     40  C   UNL A   1      43.007  36.931  33.771  1.00  0.00     0.001 A 
ATOM     41  C   UNL A   1      41.525  36.076  35.478  1.00  0.00     0.001 A 
ATOM     42  C   UNL A   1      42.391  37.067  35.014  1.00  0.00     0.000 A 
ENDBRANCH  23  37
BRANCH  24  43
ATOM     43  C   UNL A   1      40.278  26.564  28.007  1.00  0.00    -0.014 A 
ATOM     44  C   UNL A   1      39.508  25.502  28.508  1.00  0.00     0.009 A 
ATOM     45  C   UNL A   1      40.859  26.436  26.736  1.00  0.00     0.009 A 
ATOM     46  C   UNL A   1      39.356  24.325  27.770  1.00  0.00     0.001 A 
ATOM     47  C   UNL A   1      40.687  25.267  25.989  1.00  0.00     0.001 A 
ATOM     48  C   UNL A   1      39.944  24.209  26.511  1.00  0.00     0.000 A 
ENDBRANCH  24  43
BRANCH  36  49
ATOM     49  C   UNL A   1      45.380  28.535  32.309  1.00  0.00    -0.014 A 
ATOM     50  C   UNL A   1      46.603  28.732  31.651  1.00  0.00     0.009 A 
ATOM     51  C   UNL A   1      45.341  27.728  33.457  1.00  0.00     0.009 A 
ATOM     52  C   UNL A   1      47.762  28.112  32.124  1.00  0.00     0.001 A 
ATOM     53  C   UNL A   1      46.506  27.132  33.941  1.00  0.00     0.001 A 
ATOM     54  C   UNL A   1      47.714  27.320  33.271  1.00  0.00     0.000 A 
ENDBRANCH  36  49
ENDBRANCH  10  11
ENDBRANCH   3   5
ENDBRANCH   2   3
ENDBRANCH   1   2
BRANCH   1  55
ATOM     55  C   UNL A   1      33.286  37.198  30.442  1.00  0.00     0.274 C 
BRANCH  55  56
ATOM     56  O   UNL A   1      33.295  36.044  31.299  1.00  0.00    -0.462 OA
BRANCH  56  57
ATOM     57  C   UNL A   1      33.234  36.275  32.647  1.00  0.00     0.311 C 
ATOM     58  O   UNL A   1      32.342  36.939  33.175  1.00  0.00    -0.252 OA
BRANCH  57  59
ATOM     59  C   UNL A   1      34.371  35.616  33.427  1.00  0.00     0.129 C 
ATOM     60  C   UNL A   1      34.351  34.110  33.680  1.00  0.00     0.119 C 
ATOM     61  C   UNL A   1      35.685  35.333  32.682  1.00  0.00     0.119 C 
ATOM     62  N   UNL A   1      35.824  34.014  33.398  1.00  0.00    -0.196 NA
BRANCH  62  63
ATOM     63  S   UNL A   1      36.882  33.727  34.716  1.00  0.00     0.243 S 
ATOM     64  O   UNL A   1      37.860  34.796  34.725  1.00  0.00    -0.207 OA
ATOM     65  O   UNL A   1      36.046  33.458  35.865  1.00  0.00    -0.207 OA
BRANCH  63  66
ATOM     66  C   UNL A   1      37.744  32.229  34.320  1.00  0.00     0.082 A 
ATOM     67  C   UNL A   1      37.204  31.293  33.434  1.00  0.00     0.025 A 
ATOM     68  C   UNL A   1      39.017  32.033  34.874  1.00  0.00     0.025 A 
ATOM     69  C   UNL A   1      37.955  30.171  33.079  1.00  0.00     0.040 A 
ATOM     70  C   UNL A   1      39.764  30.911  34.511  1.00  0.00     0.040 A 
ATOM     71  C   UNL A   1      39.228  29.995  33.612  1.00  0.00     0.123 A 
ATOM     72  F   UNL A   1      39.952  28.930  33.247  1.00  0.00    -0.207 F 
ENDBRANCH  63  66
ENDBRANCH  62  63
ENDBRANCH  57  59
ENDBRANCH  56  57
ENDBRANCH  55  56
ENDBRANCH   1  55
TORSDOF 13
ENDMDL
MODEL 2
REMARK VINA RESULT:      -9.7      0.360      6.207
REMARK SMILES O=C(OCCOC(=O)C1CN(S(=O)(=O)c2ccc(F)cc2)C1)c1ccc(-c2c3nc(c(-c4ccccc4)c4ccc([nH]4)c(-c4ccccc4)c4nc(c(-c5ccccc5)c5ccc2[nH]5)C=C4)C=C3)cc1
REMARK SMILES IDX 4 1 3 2 2 3 1 4 23 5 24 6 70 7 25 8 69 9 26 10 27 11 28 12
REMARK SMILES IDX 63 13 29 14 68 15 62 16 64 17 30 18 67 19 61 20 60 21 31 23
REMARK SMILES IDX 53 24 38 25 52 26 39 27 42 28 51 29 65 30 40 31 41 32 50 34
REMARK SMILES IDX 66 35 43 36 32 37 33 38 37 39 34 40 36 41 35 42 54 43 55 44
REMARK SMILES IDX 59 45 56 46 58 47 57 48 44 49 45 50 49 51 46 52 48 53 47 54
REMARK SMILES IDX 5 55 6 56 7 57 8 58 9 59 10 60 22 61 11 62 12 63 13 64 14 65
REMARK SMILES IDX 15 66 16 67 21 68 17 69 20 70 18 71 19 72
REMARK H PARENT 64 22 42 33
REMARK Flexibility Score: inf
ROOT
ATOM      1  C   UNL A   1      33.054  36.475  28.897  1.00  0.00     0.275 C 
ENDROOT
BRANCH   1   2
ATOM      2  O   UNL A   1      32.508  35.150  28.775  1.00  0.00    -0.458 OA
BRANCH   2   3
ATOM      3  C   UNL A   1      33.032  34.031  28.222  1.00  0.00     0.338 C 
ATOM      4  O   UNL A   1      32.310  33.355  27.490  1.00  0.00    -0.246 OA
BRANCH   3   5
ATOM      5  C   UNL A   1      34.390  33.478  28.544  1.00  0.00     0.060 A 
ATOM      6  C   UNL A   1      35.542  33.578  27.759  1.00  0.00     0.016 A 
ATOM      7  C   UNL A   1      34.506  32.813  29.782  1.00  0.00     0.016 A 
ATOM      8  C   UNL A   1      36.782  33.126  28.230  1.00  0.00     0.010 A 
ATOM      9  C   UNL A   1      35.745  32.378  30.267  1.00  0.00     0.010 A 
ATOM     10  C   UNL A   1      36.898  32.547  29.496  1.00  0.00    -0.014 A 
BRANCH  10  11
ATOM     11  C   UNL A   1      38.206  32.038  29.967  1.00  0.00     0.031 A 
ATOM     12  C   UNL A   1      38.655  30.681  29.516  1.00  0.00     0.074 A 
ATOM     13  C   UNL A   1      38.986  32.780  30.777  1.00  0.00     0.049 A 
ATOM     14  N   UNL A   1      39.786  30.067  29.743  1.00  0.00    -0.248 NA
ATOM     15  C   UNL A   1      37.704  29.917  28.692  1.00  0.00     0.031 C 
ATOM     16  C   UNL A   1      38.667  34.116  31.281  1.00  0.00     0.029 A 
ATOM     17  N   UNL A   1      40.215  32.509  31.326  1.00  0.00    -0.354 N 
ATOM     18  C   UNL A   1      39.691  28.856  29.071  1.00  0.00     0.074 A 
ATOM     19  C   UNL A   1      38.371  28.795  28.484  1.00  0.00     0.031 C 
ATOM     20  C   UNL A   1      39.660  34.538  32.080  1.00  0.00     0.029 A 
ATOM     21  C   UNL A   1      40.691  33.507  32.141  1.00  0.00     0.049 A 
ATOM     22  H   UNL A   1      40.711  31.676  31.150  1.00  0.00     0.167 HD
ATOM     23  C   UNL A   1      40.629  27.892  28.926  1.00  0.00     0.031 A 
ATOM     24  C   UNL A   1      41.832  33.582  32.852  1.00  0.00     0.031 A 
ATOM     25  C   UNL A   1      41.922  27.931  29.545  1.00  0.00     0.049 A 
ATOM     26  C   UNL A   1      42.826  32.457  32.748  1.00  0.00     0.074 A 
ATOM     27  C   UNL A   1      42.949  27.009  29.468  1.00  0.00     0.029 A 
ATOM     28  N   UNL A   1      42.357  28.953  30.377  1.00  0.00    -0.354 N 
ATOM     29  N   UNL A   1      42.760  31.360  32.032  1.00  0.00    -0.248 NA
ATOM     30  C   UNL A   1      44.065  32.595  33.528  1.00  0.00     0.031 C 
ATOM     31  C   UNL A   1      43.994  27.455  30.286  1.00  0.00     0.029 A 
ATOM     32  C   UNL A   1      43.631  28.676  30.838  1.00  0.00     0.049 A 
ATOM     33  H   UNL A   1      41.836  29.756  30.606  1.00  0.00     0.167 HD
ATOM     34  C   UNL A   1      43.963  30.698  32.242  1.00  0.00     0.074 A 
ATOM     35  C   UNL A   1      44.740  31.518  33.148  1.00  0.00     0.031 C 
ATOM     36  C   UNL A   1      44.389  29.519  31.726  1.00  0.00     0.031 A 
BRANCH  23  37
ATOM     37  C   UNL A   1      40.249  26.721  28.070  1.00  0.00    -0.014 A 
ATOM     38  C   UNL A   1      39.490  25.663  28.601  1.00  0.00     0.009 A 
ATOM     39  C   UNL A   1      40.705  26.635  26.747  1.00  0.00     0.009 A 
ATOM     40  C   UNL A   1      39.243  24.519  27.841  1.00  0.00     0.001 A 
ATOM     41  C   UNL A   1      40.435  25.500  25.981  1.00  0.00     0.001 A 
ATOM     42  C   UNL A   1      39.719  24.437  26.532  1.00  0.00     0.000 A 
ENDBRANCH  23  37
BRANCH  24  43
ATOM     43  C   UNL A   1      42.117  34.769  33.701  1.00  0.00    -0.014 A 
ATOM     44  C   UNL A   1      42.820  35.867  33.181  1.00  0.00     0.009 A 
ATOM     45  C   UNL A   1      41.720  34.795  35.047  1.00  0.00     0.009 A 
ATOM     46  C   UNL A   1      43.152  36.950  34.001  1.00  0.00     0.001 A 
ATOM     47  C   UNL A   1      42.033  35.889  35.859  1.00  0.00     0.001 A 
ATOM     48  C   UNL A   1      42.757  36.960  35.338  1.00  0.00     0.000 A 
ENDBRANCH  24  43
BRANCH  36  49
ATOM     49  C   UNL A   1      45.775  29.073  32.089  1.00  0.00    -0.014 A 
ATOM     50  C   UNL A   1      45.995  28.145  33.118  1.00  0.00     0.009 A 
ATOM     51  C   UNL A   1      46.869  29.546  31.347  1.00  0.00     0.009 A 
ATOM     52  C   UNL A   1      47.291  27.717  33.411  1.00  0.00     0.001 A 
ATOM     53  C   UNL A   1      48.159  29.096  31.627  1.00  0.00     0.001 A 
ATOM     54  C   UNL A   1      48.370  28.186  32.661  1.00  0.00     0.000 A 
ENDBRANCH  36  49
ENDBRANCH  10  11
ENDBRANCH   3   5
ENDBRANCH   2   3
ENDBRANCH   1   2
BRANCH   1  55
ATOM     55  C   UNL A   1      33.210  36.956  30.340  1.00  0.00     0.274 C 
BRANCH  55  56
ATOM     56  O   UNL A   1      33.188  35.861  31.270  1.00  0.00    -0.462 OA
BRANCH  56  57
ATOM     57  C   UNL A   1      33.153  36.181  32.601  1.00  0.00     0.311 C 
ATOM     58  O   UNL A   1      32.283  36.896  33.097  1.00  0.00    -0.252 OA
BRANCH  57  59
ATOM     59  C   UNL A   1      34.291  35.552  33.406  1.00  0.00     0.129 C 
ATOM     60  C   UNL A   1      34.308  34.045  33.654  1.00  0.00     0.119 C 
ATOM     61  C   UNL A   1      35.629  35.309  32.691  1.00  0.00     0.119 C 
ATOM     62  N   UNL A   1      35.789  33.992  33.406  1.00  0.00    -0.196 NA
BRANCH  62  63
ATOM     63  S   UNL A   1      36.823  33.730  34.748  1.00  0.00     0.243 S 
ATOM     64  O   UNL A   1      37.785  34.815  34.769  1.00  0.00    -0.207 OA
ATOM     65  O   UNL A   1      35.968  33.457  35.882  1.00  0.00    -0.207 OA
BRANCH  63  66
ATOM     66  C   UNL A   1      37.716  32.244  34.381  1.00  0.00     0.082 A 
ATOM     67  C   UNL A   1      37.196  31.279  33.515  1.00  0.00     0.025 A 
ATOM     68  C   UNL A   1      38.993  32.085  34.938  1.00  0.00     0.025 A 
ATOM     69  C   UNL A   1      37.970  30.166  33.181  1.00  0.00     0.040 A 
ATOM     70  C   UNL A   1      39.764  30.972  34.596  1.00  0.00     0.040 A 
ATOM     71  C   UNL A   1      39.247  30.028  33.716  1.00  0.00     0.123 A 
ATOM     72  F   UNL A   1      39.992  28.971  33.371  1.00  0.00    -0.207 F 
ENDBRANCH  63  66
ENDBRANCH  62  63
ENDBRANCH  57  59
ENDBRANCH  56  57
ENDBRANCH  55  56
ENDBRANCH   1  55
TORSDOF 13
ENDMDL
MODEL 3
REMARK VINA RESULT:      -8.7      1.927      2.979
REMARK SMILES O=C(OCCOC(=O)C1CN(S(=O)(=O)c2ccc(F)cc2)C1)c1ccc(-c2c3nc(c(-c4ccccc4)c4ccc([nH]4)c(-c4ccccc4)c4nc(c(-c5ccccc5)c5ccc2[nH]5)C=C4)C=C3)cc1
REMARK SMILES IDX 4 1 3 2 2 3 1 4 23 5 24 6 70 7 25 8 69 9 26 10 27 11 28 12
REMARK SMILES IDX 63 13 29 14 68 15 62 16 64 17 30 18 67 19 61 20 60 21 31 23
REMARK SMILES IDX 53 24 38 25 52 26 39 27 42 28 51 29 65 30 40 31 41 32 50 34
REMARK SMILES IDX 66 35 43 36 32 37 33 38 37 39 34 40 36 41 35 42 54 43 55 44
REMARK SMILES IDX 59 45 56 46 58 47 57 48 44 49 45 50 49 51 46 52 48 53 47 54
REMARK SMILES IDX 5 55 6 56 7 57 8 58 9 59 10 60 22 61 11 62 12 63 13 64 14 65
REMARK SMILES IDX 15 66 16 67 21 68 17 69 20 70 18 71 19 72
REMARK H PARENT 64 22 42 33
REMARK Flexibility Score: inf
ROOT
ATOM      1  C   UNL A   1      34.396  33.223  28.167  1.00  0.00     0.275 C 
ENDROOT
BRANCH   1   2
ATOM      2  O   UNL A   1      33.733  31.980  27.875  1.00  0.00    -0.458 OA
BRANCH   2   3
ATOM      3  C   UNL A   1      34.231  30.727  27.752  1.00  0.00     0.338 C 
ATOM      4  O   UNL A   1      33.489  29.851  27.309  1.00  0.00    -0.246 OA
BRANCH   3   5
ATOM      5  C   UNL A   1      35.582  30.295  28.246  1.00  0.00     0.060 A 
ATOM      6  C   UNL A   1      35.889  29.798  29.515  1.00  0.00     0.016 A 
ATOM      7  C   UNL A   1      36.634  30.381  27.311  1.00  0.00     0.016 A 
ATOM      8  C   UNL A   1      37.169  29.309  29.812  1.00  0.00     0.010 A 
ATOM      9  C   UNL A   1      37.908  29.876  27.595  1.00  0.00     0.010 A 
ATOM     10  C   UNL A   1      38.180  29.321  28.848  1.00  0.00    -0.014 A 
BRANCH  10  11
ATOM     11  C   UNL A   1      39.539  28.839  29.185  1.00  0.00     0.031 A 
ATOM     12  C   UNL A   1      40.445  29.736  29.974  1.00  0.00     0.074 A 
ATOM     13  C   UNL A   1      39.954  27.616  28.803  1.00  0.00     0.049 A 
ATOM     14  N   UNL A   1      41.642  29.496  30.442  1.00  0.00    -0.248 NA
ATOM     15  C   UNL A   1      39.929  31.079  30.284  1.00  0.00     0.031 C 
ATOM     16  C   UNL A   1      39.167  26.648  28.038  1.00  0.00     0.029 A 
ATOM     17  N   UNL A   1      41.153  26.978  29.003  1.00  0.00    -0.354 N 
ATOM     18  C   UNL A   1      42.011  30.649  31.120  1.00  0.00     0.074 A 
ATOM     19  C   UNL A   1      40.943  31.608  30.948  1.00  0.00     0.031 C 
ATOM     20  C   UNL A   1      39.908  25.551  27.815  1.00  0.00     0.029 A 
ATOM     21  C   UNL A   1      41.220  25.732  28.426  1.00  0.00     0.049 A 
ATOM     22  H   UNL A   1      41.894  27.375  29.515  1.00  0.00     0.167 HD
ATOM     23  C   UNL A   1      43.127  30.882  31.849  1.00  0.00     0.031 A 
ATOM     24  C   UNL A   1      42.227  24.839  28.399  1.00  0.00     0.031 A 
ATOM     25  C   UNL A   1      44.207  29.949  31.983  1.00  0.00     0.049 A 
ATOM     26  C   UNL A   1      43.497  25.154  29.143  1.00  0.00     0.074 A 
ATOM     27  C   UNL A   1      45.385  30.081  32.695  1.00  0.00     0.029 A 
ATOM     28  N   UNL A   1      44.244  28.706  31.368  1.00  0.00    -0.354 N 
ATOM     29  N   UNL A   1      43.794  26.212  29.859  1.00  0.00    -0.248 NA
ATOM     30  C   UNL A   1      44.558  24.138  29.100  1.00  0.00     0.031 C 
ATOM     31  C   UNL A   1      46.153  28.930  32.479  1.00  0.00     0.029 A 
ATOM     32  C   UNL A   1      45.433  28.066  31.667  1.00  0.00     0.049 A 
ATOM     33  H   UNL A   1      43.529  28.333  30.802  1.00  0.00     0.167 HD
ATOM     34  C   UNL A   1      45.057  25.973  30.384  1.00  0.00     0.074 A 
ATOM     35  C   UNL A   1      45.468  24.667  29.908  1.00  0.00     0.031 C 
ATOM     36  C   UNL A   1      45.808  26.759  31.193  1.00  0.00     0.031 A 
BRANCH  23  37
ATOM     37  C   UNL A   1      43.206  32.215  32.532  1.00  0.00    -0.014 A 
ATOM     38  C   UNL A   1      43.755  33.327  31.869  1.00  0.00     0.009 A 
ATOM     39  C   UNL A   1      42.796  32.351  33.865  1.00  0.00     0.009 A 
ATOM     40  C   UNL A   1      43.942  34.533  32.547  1.00  0.00     0.001 A 
ATOM     41  C   UNL A   1      42.961  33.566  34.533  1.00  0.00     0.001 A 
ATOM     42  C   UNL A   1      43.547  34.650  33.879  1.00  0.00     0.000 A 
ENDBRANCH  23  37
BRANCH  24  43
ATOM     43  C   UNL A   1      42.075  23.551  27.672  1.00  0.00    -0.014 A 
ATOM     44  C   UNL A   1      41.571  22.415  28.325  1.00  0.00     0.009 A 
ATOM     45  C   UNL A   1      42.468  23.439  26.329  1.00  0.00     0.009 A 
ATOM     46  C   UNL A   1      41.499  21.188  27.662  1.00  0.00     0.001 A 
ATOM     47  C   UNL A   1      42.374  22.216  25.660  1.00  0.00     0.001 A 
ATOM     48  C   UNL A   1      41.899  21.089  26.329  1.00  0.00     0.000 A 
ENDBRANCH  24  43
BRANCH  36  49
ATOM     49  C   UNL A   1      47.126  26.208  31.654  1.00  0.00    -0.014 A 
ATOM     50  C   UNL A   1      48.299  26.412  30.914  1.00  0.00     0.009 A 
ATOM     51  C   UNL A   1      47.198  25.526  32.879  1.00  0.00     0.009 A 
ATOM     52  C   UNL A   1      49.519  25.923  31.383  1.00  0.00     0.001 A 
ATOM     53  C   UNL A   1      48.423  25.061  33.357  1.00  0.00     0.001 A 
ATOM     54  C   UNL A   1      49.582  25.254  32.607  1.00  0.00     0.000 A 
ENDBRANCH  36  49
ENDBRANCH  10  11
ENDBRANCH   3   5
ENDBRANCH   2   3
ENDBRANCH   1   2
BRANCH   1  55
ATOM     55  C   UNL A   1      33.444  34.387  28.446  1.00  0.00     0.274 C 
BRANCH  55  56
ATOM     56  O   UNL A   1      32.991  34.387  29.810  1.00  0.00    -0.462 OA
BRANCH  56  57
ATOM     57  C   UNL A   1      33.338  35.467  30.576  1.00  0.00     0.311 C 
ATOM     58  O   UNL A   1      32.883  36.596  30.392  1.00  0.00    -0.252 OA
BRANCH  57  59
ATOM     59  C   UNL A   1      34.332  35.127  31.687  1.00  0.00     0.129 C 
ATOM     60  C   UNL A   1      33.873  34.322  32.902  1.00  0.00     0.119 C 
ATOM     61  C   UNL A   1      35.301  33.959  31.453  1.00  0.00     0.119 C 
ATOM     62  N   UNL A   1      35.145  33.522  32.886  1.00  0.00    -0.196 NA
BRANCH  62  63
ATOM     63  S   UNL A   1      36.296  33.809  34.125  1.00  0.00     0.243 S 
ATOM     64  O   UNL A   1      37.058  34.981  33.741  1.00  0.00    -0.207 OA
ATOM     65  O   UNL A   1      35.576  33.753  35.377  1.00  0.00    -0.207 OA
BRANCH  63  66
ATOM     66  C   UNL A   1      37.402  32.425  34.080  1.00  0.00     0.082 A 
ATOM     67  C   UNL A   1      37.104  31.280  33.337  1.00  0.00     0.025 A 
ATOM     68  C   UNL A   1      38.621  32.531  34.767  1.00  0.00     0.025 A 
ATOM     69  C   UNL A   1      38.044  30.251  33.255  1.00  0.00     0.040 A 
ATOM     70  C   UNL A   1      39.556  31.499  34.677  1.00  0.00     0.040 A 
ATOM     71  C   UNL A   1      39.261  30.373  33.917  1.00  0.00     0.123 A 
ATOM     72  F   UNL A   1      40.167  29.392  33.813  1.00  0.00    -0.207 F 
ENDBRANCH  63  66
ENDBRANCH  62  63
ENDBRANCH  57  59
ENDBRANCH  56  57
ENDBRANCH  55  56
ENDBRANCH   1  55
TORSDOF 13
ENDMDL
