MODEL 1
REMARK VINA RESULT:     -11.6      0.000      0.000
REMARK SMILES O=C(OCCOC(=O)c1ccc2c(c1)[C@@H]1C=CC[C@@H]1[C@H](c1ccncc1)N2)c1ccc(-c2c3nc(c(-c4ccccc4)c4ccc([nH]4)c(-c4ccccc4)c4nc(c(-c5ccccc5)c5ccc2[nH]5)C=C4)C=C3)cc1
REMARK SMILES IDX 4 1 3 2 2 3 1 4 28 5 29 6 75 7 30 8 74 9 31 10 32 11 33 12
REMARK SMILES IDX 68 13 34 14 73 15 67 16 69 17 35 18 72 19 66 20 65 21 36 23
REMARK SMILES IDX 58 24 43 25 57 26 44 27 47 28 56 29 70 30 45 31 46 32 55 34
REMARK SMILES IDX 71 35 48 36 37 37 38 38 42 39 39 40 41 41 40 42 59 43 60 44
REMARK SMILES IDX 64 45 61 46 63 47 62 48 49 49 50 50 54 51 51 52 53 53 52 54
REMARK SMILES IDX 5 55 6 56 7 57 8 58 9 59 10 60 14 61 11 62 13 63 12 64 15 65
REMARK SMILES IDX 27 66 16 67 19 68 20 69 17 71 18 72 21 73 22 74 26 75 23 76
REMARK SMILES IDX 25 77 24 78
REMARK H PARENT 69 22 47 33 27 70
REMARK Flexibility Score: inf
ROOT
ATOM      1  C   UNL A   1      30.117  25.717  24.141  1.00  0.00     0.275 C 
ENDROOT
BRANCH   1   2
ATOM      2  O   UNL A   1      30.923  26.880  23.870  1.00  0.00    -0.458 OA
BRANCH   2   3
ATOM      3  C   UNL A   1      30.814  28.146  24.337  1.00  0.00     0.338 C 
ATOM      4  O   UNL A   1      29.874  28.848  23.966  1.00  0.00    -0.246 OA
BRANCH   3   5
ATOM      5  C   UNL A   1      31.860  28.783  25.189  1.00  0.00     0.060 A 
ATOM      6  C   UNL A   1      32.995  29.431  24.702  1.00  0.00     0.016 A 
ATOM      7  C   UNL A   1      31.679  28.719  26.581  1.00  0.00     0.016 A 
ATOM      8  C   UNL A   1      33.862  30.098  25.563  1.00  0.00     0.010 A 
ATOM      9  C   UNL A   1      32.541  29.395  27.452  1.00  0.00     0.010 A 
ATOM     10  C   UNL A   1      33.639  30.101  26.940  1.00  0.00    -0.014 A 
BRANCH  10  11
ATOM     11  C   UNL A   1      34.673  30.690  27.820  1.00  0.00     0.031 A 
ATOM     12  C   UNL A   1      35.945  29.920  28.021  1.00  0.00     0.074 A 
ATOM     13  C   UNL A   1      34.548  31.938  28.318  1.00  0.00     0.049 A 
ATOM     14  N   UNL A   1      36.973  30.221  28.767  1.00  0.00    -0.248 NA
ATOM     15  C   UNL A   1      36.116  28.691  27.223  1.00  0.00     0.031 C 
ATOM     16  C   UNL A   1      33.433  32.855  28.063  1.00  0.00     0.029 A 
ATOM     17  N   UNL A   1      35.328  32.625  29.223  1.00  0.00    -0.354 N 
ATOM     18  C   UNL A   1      37.952  29.298  28.427  1.00  0.00     0.074 A 
ATOM     19  C   UNL A   1      37.356  28.340  27.526  1.00  0.00     0.031 C 
ATOM     20  C   UNL A   1      33.517  33.900  28.908  1.00  0.00     0.029 A 
ATOM     21  C   UNL A   1      34.658  33.696  29.785  1.00  0.00     0.049 A 
ATOM     22  H   UNL A   1      36.256  32.381  29.444  1.00  0.00     0.167 HD
ATOM     23  C   UNL A   1      39.260  29.316  28.769  1.00  0.00     0.031 A 
ATOM     24  C   UNL A   1      34.869  34.307  30.968  1.00  0.00     0.031 A 
ATOM     25  C   UNL A   1      39.812  30.244  29.715  1.00  0.00     0.049 A 
ATOM     26  C   UNL A   1      36.156  34.014  31.675  1.00  0.00     0.074 A 
ATOM     27  C   UNL A   1      41.117  30.380  30.144  1.00  0.00     0.029 A 
ATOM     28  N   UNL A   1      39.059  31.183  30.406  1.00  0.00    -0.354 N 
ATOM     29  N   UNL A   1      37.091  33.155  31.356  1.00  0.00    -0.248 NA
ATOM     30  C   UNL A   1      36.458  34.842  32.847  1.00  0.00     0.031 C 
ATOM     31  C   UNL A   1      41.143  31.362  31.141  1.00  0.00     0.029 A 
ATOM     32  C   UNL A   1      39.865  31.880  31.287  1.00  0.00     0.049 A 
ATOM     33  H   UNL A   1      38.094  31.331  30.286  1.00  0.00     0.167 HD
ATOM     34  C   UNL A   1      38.152  33.430  32.203  1.00  0.00     0.074 A 
ATOM     35  C   UNL A   1      37.706  34.476  33.103  1.00  0.00     0.031 C 
ATOM     36  C   UNL A   1      39.407  32.917  32.175  1.00  0.00     0.031 A 
BRANCH  23  37
ATOM     37  C   UNL A   1      40.156  28.330  28.079  1.00  0.00    -0.014 A 
ATOM     38  C   UNL A   1      40.476  27.106  28.695  1.00  0.00     0.009 A 
ATOM     39  C   UNL A   1      40.685  28.610  26.813  1.00  0.00     0.009 A 
ATOM     40  C   UNL A   1      41.336  26.200  28.073  1.00  0.00     0.001 A 
ATOM     41  C   UNL A   1      41.527  27.690  26.182  1.00  0.00     0.001 A 
ATOM     42  C   UNL A   1      41.858  26.491  26.815  1.00  0.00     0.000 A 
ENDBRANCH  23  37
BRANCH  24  43
ATOM     43  C   UNL A   1      33.835  35.153  31.630  1.00  0.00    -0.014 A 
ATOM     44  C   UNL A   1      32.771  34.602  32.351  1.00  0.00     0.009 A 
ATOM     45  C   UNL A   1      33.851  36.545  31.430  1.00  0.00     0.009 A 
ATOM     46  C   UNL A   1      31.753  35.427  32.849  1.00  0.00     0.001 A 
ATOM     47  C   UNL A   1      32.858  37.372  31.959  1.00  0.00     0.001 A 
ATOM     48  C   UNL A   1      31.800  36.810  32.662  1.00  0.00     0.000 A 
ENDBRANCH  24  43
BRANCH  36  49
ATOM     49  C   UNL A   1      40.417  33.590  33.053  1.00  0.00    -0.014 A 
ATOM     50  C   UNL A   1      41.172  34.688  32.619  1.00  0.00     0.009 A 
ATOM     51  C   UNL A   1      40.616  33.090  34.351  1.00  0.00     0.009 A 
ATOM     52  C   UNL A   1      42.143  35.241  33.455  1.00  0.00     0.001 A 
ATOM     53  C   UNL A   1      41.557  33.671  35.198  1.00  0.00     0.001 A 
ATOM     54  C   UNL A   1      42.329  34.738  34.743  1.00  0.00     0.000 A 
ENDBRANCH  36  49
ENDBRANCH  10  11
ENDBRANCH   3   5
ENDBRANCH   2   3
ENDBRANCH   1   2
BRANCH   1  55
ATOM     55  C   UNL A   1      29.522  25.609  25.553  1.00  0.00     0.275 C 
BRANCH  55  56
ATOM     56  O   UNL A   1      30.479  25.367  26.601  1.00  0.00    -0.458 OA
BRANCH  56  57
ATOM     57  C   UNL A   1      30.636  24.057  26.922  1.00  0.00     0.338 C 
ATOM     58  O   UNL A   1      29.736  23.270  27.186  1.00  0.00    -0.246 OA
BRANCH  57  59
ATOM     59  C   UNL A   1      32.048  23.627  26.809  1.00  0.00     0.060 A 
ATOM     60  C   UNL A   1      32.516  22.675  27.717  1.00  0.00     0.018 A 
ATOM     61  C   UNL A   1      32.933  24.181  25.884  1.00  0.00     0.022 A 
ATOM     62  C   UNL A   1      33.861  22.281  27.704  1.00  0.00     0.027 A 
ATOM     63  C   UNL A   1      34.303  23.809  25.898  1.00  0.00    -0.017 A 
ATOM     64  C   UNL A   1      34.783  22.875  26.836  1.00  0.00     0.038 A 
ATOM     65  C   UNL A   1      35.262  24.433  24.913  1.00  0.00     0.049 C 
ATOM     66  N   UNL A   1      36.129  22.501  26.885  1.00  0.00    -0.378 N 
ATOM     67  C   UNL A   1      34.876  24.160  23.499  1.00  0.00    -0.023 C 
ATOM     68  C   UNL A   1      36.662  23.816  24.903  1.00  0.00     0.031 C 
ATOM     69  C   UNL A   1      37.125  23.382  26.284  1.00  0.00     0.114 C 
ATOM     70  H   UNL A   1      36.400  21.659  27.317  1.00  0.00     0.161 HD
ATOM     71  C   UNL A   1      35.580  23.156  22.961  1.00  0.00    -0.030 C 
ATOM     72  C   UNL A   1      36.627  22.666  23.880  1.00  0.00     0.034 C 
BRANCH  69  73
ATOM     73  C   UNL A   1      38.516  22.776  26.126  1.00  0.00    -0.022 A 
ATOM     74  C   UNL A   1      38.612  21.405  25.815  1.00  0.00     0.026 A 
ATOM     75  C   UNL A   1      39.696  23.446  26.458  1.00  0.00     0.026 A 
ATOM     76  C   UNL A   1      39.841  20.772  25.895  1.00  0.00     0.111 A 
ATOM     77  C   UNL A   1      40.885  22.728  26.488  1.00  0.00     0.111 A 
ATOM     78  N   UNL A   1      40.983  21.407  26.221  1.00  0.00    -0.265 NA
ENDBRANCH  69  73
ENDBRANCH  57  59
ENDBRANCH  56  57
ENDBRANCH  55  56
ENDBRANCH   1  55
TORSDOF 12
ENDMDL
MODEL 2
REMARK VINA RESULT:     -11.4      6.459     10.881
REMARK SMILES O=C(OCCOC(=O)c1ccc2c(c1)[C@@H]1C=CC[C@@H]1[C@H](c1ccncc1)N2)c1ccc(-c2c3nc(c(-c4ccccc4)c4ccc([nH]4)c(-c4ccccc4)c4nc(c(-c5ccccc5)c5ccc2[nH]5)C=C4)C=C3)cc1
REMARK SMILES IDX 4 1 3 2 2 3 1 4 28 5 29 6 75 7 30 8 74 9 31 10 32 11 33 12
REMARK SMILES IDX 68 13 34 14 73 15 67 16 69 17 35 18 72 19 66 20 65 21 36 23
REMARK SMILES IDX 58 24 43 25 57 26 44 27 47 28 56 29 70 30 45 31 46 32 55 34
REMARK SMILES IDX 71 35 48 36 37 37 38 38 42 39 39 40 41 41 40 42 59 43 60 44
REMARK SMILES IDX 64 45 61 46 63 47 62 48 49 49 50 50 54 51 51 52 53 53 52 54
REMARK SMILES IDX 5 55 6 56 7 57 8 58 9 59 10 60 14 61 11 62 13 63 12 64 15 65
REMARK SMILES IDX 27 66 16 67 19 68 20 69 17 71 18 72 21 73 22 74 26 75 23 76
REMARK SMILES IDX 25 77 24 78
REMARK H PARENT 69 22 47 33 27 70
REMARK Flexibility Score: inf
ROOT
ATOM      1  C   UNL A   1      42.911  18.810  25.875  1.00  0.00     0.275 C 
ENDROOT
BRANCH   1   2
ATOM      2  O   UNL A   1      43.633  18.936  24.635  1.00  0.00    -0.458 OA
BRANCH   2   3
ATOM      3  C   UNL A   1      44.748  19.645  24.341  1.00  0.00     0.338 C 
ATOM      4  O   UNL A   1      45.731  19.064  23.884  1.00  0.00    -0.246 OA
BRANCH   3   5
ATOM      5  C   UNL A   1      44.890  21.094  24.668  1.00  0.00     0.060 A 
ATOM      6  C   UNL A   1      44.528  22.140  23.819  1.00  0.00     0.016 A 
ATOM      7  C   UNL A   1      45.430  21.417  25.925  1.00  0.00     0.016 A 
ATOM      8  C   UNL A   1      44.586  23.463  24.248  1.00  0.00     0.010 A 
ATOM      9  C   UNL A   1      45.484  22.744  26.366  1.00  0.00     0.010 A 
ATOM     10  C   UNL A   1      45.049  23.778  25.525  1.00  0.00    -0.014 A 
BRANCH  10  11
ATOM     11  C   UNL A   1      45.239  25.205  25.873  1.00  0.00     0.031 A 
ATOM     12  C   UNL A   1      46.636  25.683  26.136  1.00  0.00     0.074 A 
ATOM     13  C   UNL A   1      44.217  26.085  25.823  1.00  0.00     0.049 A 
ATOM     14  N   UNL A   1      47.040  26.874  26.485  1.00  0.00    -0.248 NA
ATOM     15  C   UNL A   1      47.728  24.718  25.902  1.00  0.00     0.031 C 
ATOM     16  C   UNL A   1      42.841  25.778  25.422  1.00  0.00     0.029 A 
ATOM     17  N   UNL A   1      44.155  27.409  26.199  1.00  0.00    -0.354 N 
ATOM     18  C   UNL A   1      48.424  26.834  26.383  1.00  0.00     0.074 A 
ATOM     19  C   UNL A   1      48.801  25.472  26.088  1.00  0.00     0.031 C 
ATOM     20  C   UNL A   1      42.048  26.824  25.726  1.00  0.00     0.029 A 
ATOM     21  C   UNL A   1      42.854  27.841  26.380  1.00  0.00     0.049 A 
ATOM     22  H   UNL A   1      44.946  27.982  26.325  1.00  0.00     0.167 HD
ATOM     23  C   UNL A   1      49.288  27.873  26.437  1.00  0.00     0.031 A 
ATOM     24  C   UNL A   1      42.391  28.853  27.141  1.00  0.00     0.031 A 
ATOM     25  C   UNL A   1      48.892  29.206  26.793  1.00  0.00     0.049 A 
ATOM     26  C   UNL A   1      43.389  29.844  27.654  1.00  0.00     0.074 A 
ATOM     27  C   UNL A   1      49.659  30.351  26.876  1.00  0.00     0.029 A 
ATOM     28  N   UNL A   1      47.600  29.557  27.159  1.00  0.00    -0.354 N 
ATOM     29  N   UNL A   1      44.695  29.821  27.552  1.00  0.00    -0.248 NA
ATOM     30  C   UNL A   1      42.846  31.043  28.298  1.00  0.00     0.031 C 
ATOM     31  C   UNL A   1      48.842  31.384  27.352  1.00  0.00     0.029 A 
ATOM     32  C   UNL A   1      47.553  30.895  27.504  1.00  0.00     0.049 A 
ATOM     33  H   UNL A   1      46.831  28.944  27.170  1.00  0.00     0.167 HD
ATOM     34  C   UNL A   1      45.123  31.061  27.995  1.00  0.00     0.074 A 
ATOM     35  C   UNL A   1      43.942  31.773  28.446  1.00  0.00     0.031 C 
ATOM     36  C   UNL A   1      46.372  31.587  27.951  1.00  0.00     0.031 A 
BRANCH  23  37
ATOM     37  C   UNL A   1      50.714  27.590  26.065  1.00  0.00    -0.014 A 
ATOM     38  C   UNL A   1      51.151  27.764  24.739  1.00  0.00     0.009 A 
ATOM     39  C   UNL A   1      51.630  27.152  27.029  1.00  0.00     0.009 A 
ATOM     40  C   UNL A   1      52.468  27.471  24.380  1.00  0.00     0.001 A 
ATOM     41  C   UNL A   1      52.954  26.882  26.672  1.00  0.00     0.001 A 
ATOM     42  C   UNL A   1      53.369  27.033  25.348  1.00  0.00     0.000 A 
ENDBRANCH  23  37
BRANCH  24  43
ATOM     43  C   UNL A   1      40.966  28.946  27.572  1.00  0.00    -0.014 A 
ATOM     44  C   UNL A   1      40.547  28.559  28.848  1.00  0.00     0.009 A 
ATOM     45  C   UNL A   1      39.986  29.319  26.636  1.00  0.00     0.009 A 
ATOM     46  C   UNL A   1      39.182  28.542  29.169  1.00  0.00     0.001 A 
ATOM     47  C   UNL A   1      38.629  29.340  26.966  1.00  0.00     0.001 A 
ATOM     48  C   UNL A   1      38.226  28.941  28.234  1.00  0.00     0.000 A 
ENDBRANCH  24  43
BRANCH  36  49
ATOM     49  C   UNL A   1      46.487  33.047  28.266  1.00  0.00    -0.014 A 
ATOM     50  C   UNL A   1      46.424  34.034  27.273  1.00  0.00     0.009 A 
ATOM     51  C   UNL A   1      46.678  33.431  29.605  1.00  0.00     0.009 A 
ATOM     52  C   UNL A   1      46.597  35.377  27.613  1.00  0.00     0.001 A 
ATOM     53  C   UNL A   1      46.809  34.775  29.945  1.00  0.00     0.001 A 
ATOM     54  C   UNL A   1      46.782  35.745  28.946  1.00  0.00     0.000 A 
ENDBRANCH  36  49
ENDBRANCH  10  11
ENDBRANCH   3   5
ENDBRANCH   2   3
ENDBRANCH   1   2
BRANCH   1  55
ATOM     55  C   UNL A   1      41.541  19.501  25.944  1.00  0.00     0.275 C 
BRANCH  55  56
ATOM     56  O   UNL A   1      41.326  20.317  27.111  1.00  0.00    -0.458 OA
BRANCH  56  57
ATOM     57  C   UNL A   1      40.587  21.433  26.884  1.00  0.00     0.338 C 
ATOM     58  O   UNL A   1      39.547  21.485  26.239  1.00  0.00    -0.246 OA
BRANCH  57  59
ATOM     59  C   UNL A   1      41.121  22.605  27.613  1.00  0.00     0.060 A 
ATOM     60  C   UNL A   1      40.329  23.754  27.670  1.00  0.00     0.018 A 
ATOM     61  C   UNL A   1      42.395  22.625  28.179  1.00  0.00     0.022 A 
ATOM     62  C   UNL A   1      40.809  24.918  28.286  1.00  0.00     0.027 A 
ATOM     63  C   UNL A   1      42.894  23.816  28.769  1.00  0.00    -0.017 A 
ATOM     64  C   UNL A   1      42.110  24.987  28.796  1.00  0.00     0.038 A 
ATOM     65  C   UNL A   1      44.285  23.840  29.355  1.00  0.00     0.049 C 
ATOM     66  N   UNL A   1      42.580  26.179  29.353  1.00  0.00    -0.378 N 
ATOM     67  C   UNL A   1      44.449  22.851  30.458  1.00  0.00    -0.023 C 
ATOM     68  C   UNL A   1      44.635  25.116  30.123  1.00  0.00     0.031 C 
ATOM     69  C   UNL A   1      44.019  26.362  29.507  1.00  0.00     0.114 C 
ATOM     70  H   UNL A   1      41.952  26.881  29.638  1.00  0.00     0.161 HD
ATOM     71  C   UNL A   1      44.345  23.413  31.669  1.00  0.00    -0.030 C 
ATOM     72  C   UNL A   1      44.208  24.881  31.582  1.00  0.00     0.034 C 
BRANCH  69  73
ATOM     73  C   UNL A   1      44.433  27.547  30.375  1.00  0.00    -0.022 A 
ATOM     74  C   UNL A   1      43.418  28.312  30.982  1.00  0.00     0.026 A 
ATOM     75  C   UNL A   1      45.740  28.036  30.447  1.00  0.00     0.026 A 
ATOM     76  C   UNL A   1      43.738  29.521  31.577  1.00  0.00     0.111 A 
ATOM     77  C   UNL A   1      45.963  29.249  31.087  1.00  0.00     0.111 A 
ATOM     78  N   UNL A   1      44.993  30.005  31.646  1.00  0.00    -0.265 NA
ENDBRANCH  69  73
ENDBRANCH  57  59
ENDBRANCH  56  57
ENDBRANCH  55  56
ENDBRANCH   1  55
TORSDOF 12
ENDMDL
MODEL 3
REMARK VINA RESULT:     -11.4      4.691     10.323
REMARK SMILES O=C(OCCOC(=O)c1ccc2c(c1)[C@@H]1C=CC[C@@H]1[C@H](c1ccncc1)N2)c1ccc(-c2c3nc(c(-c4ccccc4)c4ccc([nH]4)c(-c4ccccc4)c4nc(c(-c5ccccc5)c5ccc2[nH]5)C=C4)C=C3)cc1
REMARK SMILES IDX 4 1 3 2 2 3 1 4 28 5 29 6 75 7 30 8 74 9 31 10 32 11 33 12
REMARK SMILES IDX 68 13 34 14 73 15 67 16 69 17 35 18 72 19 66 20 65 21 36 23
REMARK SMILES IDX 58 24 43 25 57 26 44 27 47 28 56 29 70 30 45 31 46 32 55 34
REMARK SMILES IDX 71 35 48 36 37 37 38 38 42 39 39 40 41 41 40 42 59 43 60 44
REMARK SMILES IDX 64 45 61 46 63 47 62 48 49 49 50 50 54 51 51 52 53 53 52 54
REMARK SMILES IDX 5 55 6 56 7 57 8 58 9 59 10 60 14 61 11 62 13 63 12 64 15 65
REMARK SMILES IDX 27 66 16 67 19 68 20 69 17 71 18 72 21 73 22 74 26 75 23 76
REMARK SMILES IDX 25 77 24 78
REMARK H PARENT 69 22 47 33 27 70
REMARK Flexibility Score: inf
ROOT
ATOM      1  C   UNL A   1      38.883  19.815  24.995  1.00  0.00     0.275 C 
ENDROOT
BRANCH   1   2
ATOM      2  O   UNL A   1      39.869  19.258  25.887  1.00  0.00    -0.458 OA
BRANCH   2   3
ATOM      3  C   UNL A   1      41.187  19.538  26.016  1.00  0.00     0.338 C 
ATOM      4  O   UNL A   1      42.009  18.627  25.924  1.00  0.00    -0.246 OA
BRANCH   3   5
ATOM      5  C   UNL A   1      41.690  20.890  26.397  1.00  0.00     0.060 A 
ATOM      6  C   UNL A   1      42.232  21.816  25.506  1.00  0.00     0.016 A 
ATOM      7  C   UNL A   1      41.607  21.245  27.754  1.00  0.00     0.016 A 
ATOM      8  C   UNL A   1      42.570  23.099  25.926  1.00  0.00     0.010 A 
ATOM      9  C   UNL A   1      41.938  22.536  28.182  1.00  0.00     0.010 A 
ATOM     10  C   UNL A   1      42.415  23.477  27.260  1.00  0.00    -0.014 A 
BRANCH  10  11
ATOM     11  C   UNL A   1      42.936  24.797  27.682  1.00  0.00     0.031 A 
ATOM     12  C   UNL A   1      41.954  25.920  27.843  1.00  0.00     0.074 A 
ATOM     13  C   UNL A   1      44.224  24.963  28.048  1.00  0.00     0.049 A 
ATOM     14  N   UNL A   1      42.181  27.163  28.172  1.00  0.00    -0.248 NA
ATOM     15  C   UNL A   1      40.525  25.586  27.689  1.00  0.00     0.031 C 
ATOM     16  C   UNL A   1      45.244  23.911  28.093  1.00  0.00     0.029 A 
ATOM     17  N   UNL A   1      44.926  26.105  28.368  1.00  0.00    -0.354 N 
ATOM     18  C   UNL A   1      40.927  27.716  28.391  1.00  0.00     0.074 A 
ATOM     19  C   UNL A   1      39.942  26.729  28.016  1.00  0.00     0.031 C 
ATOM     20  C   UNL A   1      46.456  24.477  28.259  1.00  0.00     0.029 A 
ATOM     21  C   UNL A   1      46.293  25.920  28.283  1.00  0.00     0.049 A 
ATOM     22  H   UNL A   1      44.502  26.955  28.628  1.00  0.00     0.167 HD
ATOM     23  C   UNL A   1      40.637  28.912  28.950  1.00  0.00     0.031 A 
ATOM     24  C   UNL A   1      47.265  26.832  28.073  1.00  0.00     0.031 A 
ATOM     25  C   UNL A   1      41.634  29.899  29.256  1.00  0.00     0.049 A 
ATOM     26  C   UNL A   1      46.900  28.276  28.227  1.00  0.00     0.074 A 
ATOM     27  C   UNL A   1      41.481  31.145  29.831  1.00  0.00     0.029 A 
ATOM     28  N   UNL A   1      42.984  29.747  28.972  1.00  0.00    -0.354 N 
ATOM     29  N   UNL A   1      45.723  28.807  28.445  1.00  0.00    -0.248 NA
ATOM     30  C   UNL A   1      48.009  29.234  28.202  1.00  0.00     0.031 C 
ATOM     31  C   UNL A   1      42.733  31.772  29.840  1.00  0.00     0.029 A 
ATOM     32  C   UNL A   1      43.674  30.891  29.327  1.00  0.00     0.049 A 
ATOM     33  H   UNL A   1      43.390  28.943  28.577  1.00  0.00     0.167 HD
ATOM     34  C   UNL A   1      45.964  30.143  28.720  1.00  0.00     0.074 A 
ATOM     35  C   UNL A   1      47.389  30.352  28.553  1.00  0.00     0.031 C 
ATOM     36  C   UNL A   1      45.090  31.084  29.154  1.00  0.00     0.031 A 
BRANCH  23  37
ATOM     37  C   UNL A   1      39.198  29.174  29.288  1.00  0.00    -0.014 A 
ATOM     38  C   UNL A   1      38.684  28.807  30.546  1.00  0.00     0.009 A 
ATOM     39  C   UNL A   1      38.347  29.786  28.360  1.00  0.00     0.009 A 
ATOM     40  C   UNL A   1      37.339  29.017  30.853  1.00  0.00     0.001 A 
ATOM     41  C   UNL A   1      37.006  30.017  28.679  1.00  0.00     0.001 A 
ATOM     42  C   UNL A   1      36.501  29.625  29.920  1.00  0.00     0.000 A 
ENDBRANCH  23  37
BRANCH  24  43
ATOM     43  C   UNL A   1      48.625  26.458  27.591  1.00  0.00    -0.014 A 
ATOM     44  C   UNL A   1      48.940  26.384  26.231  1.00  0.00     0.009 A 
ATOM     45  C   UNL A   1      49.598  26.049  28.521  1.00  0.00     0.009 A 
ATOM     46  C   UNL A   1      50.193  25.906  25.821  1.00  0.00     0.001 A 
ATOM     47  C   UNL A   1      50.859  25.609  28.115  1.00  0.00     0.001 A 
ATOM     48  C   UNL A   1      51.154  25.529  26.759  1.00  0.00     0.000 A 
ENDBRANCH  24  43
BRANCH  36  49
ATOM     49  C   UNL A   1      45.687  32.380  29.613  1.00  0.00    -0.014 A 
ATOM     50  C   UNL A   1      45.784  33.498  28.773  1.00  0.00     0.009 A 
ATOM     51  C   UNL A   1      46.175  32.464  30.928  1.00  0.00     0.009 A 
ATOM     52  C   UNL A   1      46.402  34.662  29.231  1.00  0.00     0.001 A 
ATOM     53  C   UNL A   1      46.754  33.642  31.394  1.00  0.00     0.001 A 
ATOM     54  C   UNL A   1      46.879  34.734  30.540  1.00  0.00     0.000 A 
ENDBRANCH  36  49
ENDBRANCH  10  11
ENDBRANCH   3   5
ENDBRANCH   2   3
ENDBRANCH   1   2
BRANCH   1  55
ATOM     55  C   UNL A   1      38.191  21.104  25.461  1.00  0.00     0.275 C 
BRANCH  55  56
ATOM     56  O   UNL A   1      37.290  21.693  24.504  1.00  0.00    -0.458 OA
BRANCH  56  57
ATOM     57  C   UNL A   1      35.978  21.425  24.733  1.00  0.00     0.338 C 
ATOM     58  O   UNL A   1      35.514  20.341  25.060  1.00  0.00    -0.246 OA
BRANCH  57  59
ATOM     59  C   UNL A   1      35.145  22.647  24.655  1.00  0.00     0.060 A 
ATOM     60  C   UNL A   1      35.338  23.632  25.626  1.00  0.00     0.018 A 
ATOM     61  C   UNL A   1      34.144  22.817  23.699  1.00  0.00     0.022 A 
ATOM     62  C   UNL A   1      34.532  24.778  25.646  1.00  0.00     0.027 A 
ATOM     63  C   UNL A   1      33.304  23.961  23.744  1.00  0.00    -0.017 A 
ATOM     64  C   UNL A   1      33.474  24.938  24.745  1.00  0.00     0.038 A 
ATOM     65  C   UNL A   1      32.203  24.126  22.724  1.00  0.00     0.049 C 
ATOM     66  N   UNL A   1      32.652  26.066  24.825  1.00  0.00    -0.378 N 
ATOM     67  C   UNL A   1      32.729  24.176  21.330  1.00  0.00    -0.023 C 
ATOM     68  C   UNL A   1      31.492  25.480  22.762  1.00  0.00     0.031 C 
ATOM     69  C   UNL A   1      31.348  26.031  24.171  1.00  0.00     0.114 C 
ATOM     70  H   UNL A   1      32.948  26.868  25.313  1.00  0.00     0.161 HD
ATOM     71  C   UNL A   1      32.822  25.427  20.864  1.00  0.00    -0.030 C 
ATOM     72  C   UNL A   1      32.274  26.411  21.818  1.00  0.00     0.034 C 
BRANCH  69  73
ATOM     73  C   UNL A   1      30.644  27.380  24.060  1.00  0.00    -0.022 A 
ATOM     74  C   UNL A   1      29.439  27.442  23.331  1.00  0.00     0.026 A 
ATOM     75  C   UNL A   1      31.214  28.588  24.468  1.00  0.00     0.026 A 
ATOM     76  C   UNL A   1      28.900  28.677  23.011  1.00  0.00     0.111 A 
ATOM     77  C   UNL A   1      30.583  29.776  24.117  1.00  0.00     0.111 A 
ATOM     78  N   UNL A   1      29.445  29.847  23.393  1.00  0.00    -0.265 NA
ENDBRANCH  69  73
ENDBRANCH  57  59
ENDBRANCH  56  57
ENDBRANCH  55  56
ENDBRANCH   1  55
TORSDOF 12
ENDMDL
