MODEL 1
REMARK VINA RESULT:     -11.7      0.000      0.000
REMARK SMILES COc1ccc(NC2=[NH+]C(=O)/C(=C\c3ccccc3C(=O)OCCOC(=O)c3ccc(-c4c5nc(c(-c6ccccc6)c6ccc([nH]6)c(-c6ccccc6)c6nc(c(-c7ccccc7)c7ccc4[nH]7)C=C6)C=C5)cc3)S2)cc1
REMARK SMILES IDX 23 1 22 2 20 3 21 4 19 5 14 6 15 7 16 8 18 9 17 10 13 11
REMARK SMILES IDX 7 12 8 13 9 15 76 16 10 17 12 19 11 20 6 21 3 22 4 23 78 24
REMARK SMILES IDX 5 25 77 26 2 27 1 28 24 29 25 30 26 31 27 32 28 33 29 34
REMARK SMILES IDX 75 35 30 36 74 37 31 38 32 39 33 40 68 41 34 42 73 43 67 44
REMARK SMILES IDX 69 45 35 46 72 47 66 48 65 49 36 51 58 52 43 53 57 54 44 55
REMARK SMILES IDX 47 56 56 57 70 58 45 59 46 60 55 62 71 63 48 64 37 65 38 66
REMARK SMILES IDX 42 67 39 68 41 69 40 70 59 71 60 72 64 73 61 74 63 75 62 76
REMARK SMILES IDX 49 77 50 78 54 79 51 80 53 81 52 82
REMARK H PARENT 7 14 9 18 69 50 47 61
REMARK Flexibility Score: inf
ROOT
ATOM      1  C   UNL A   1      37.748  21.509  24.989  1.00  0.00     0.275 C 
ENDROOT
BRANCH   1   2
ATOM      2  O   UNL A   1      36.417  21.280  24.477  1.00  0.00    -0.458 OA
BRANCH   2   3
ATOM      3  C   UNL A   1      35.451  21.007  25.393  1.00  0.00     0.338 C 
ATOM      4  O   UNL A   1      35.255  21.635  26.422  1.00  0.00    -0.246 OA
BRANCH   3   5
ATOM      5  C   UNL A   1      34.561  19.893  24.948  1.00  0.00     0.067 A 
ATOM      6  C   UNL A   1      33.155  19.974  24.873  1.00  0.00    -0.010 A 
ATOM      7  C   UNL A   1      32.434  18.838  24.465  1.00  0.00     0.009 A 
ATOM      8  C   UNL A   1      33.088  17.646  24.132  1.00  0.00     0.001 A 
ATOM      9  C   UNL A   1      35.205  18.703  24.556  1.00  0.00     0.016 A 
ATOM     10  C   UNL A   1      34.474  17.578  24.179  1.00  0.00     0.001 A 
BRANCH   6  11
ATOM     11  C   UNL A   1      32.372  21.166  25.242  1.00  0.00     0.033 C 
ATOM     12  N   UNL A   1      31.504  25.614  23.043  1.00  0.00    -0.235 N 
ATOM     13  C   UNL A   1      31.620  24.289  23.332  1.00  0.00     0.322 C 
ATOM     14  H   UNL A   1      31.055  25.808  22.189  1.00  0.00     0.313 HD
ATOM     15  N   UNL A   1      31.896  23.415  22.416  1.00  0.00    -0.199 N 
ATOM     16  S   UNL A   1      31.338  23.640  24.935  1.00  0.00     0.006 SA
ATOM     17  C   UNL A   1      32.022  22.136  22.909  1.00  0.00     0.346 C 
ATOM     18  H   UNL A   1      32.005  23.642  21.465  1.00  0.00     0.316 HD
ATOM     19  C   UNL A   1      31.932  22.114  24.401  1.00  0.00     0.110 C 
ATOM     20  O   UNL A   1      32.198  21.141  22.221  1.00  0.00    -0.240 OA
BRANCH  12  21
ATOM     21  C   UNL A   1      31.917  26.751  23.759  1.00  0.00     0.125 A 
ATOM     22  C   UNL A   1      32.898  28.957  25.234  1.00  0.00     0.119 A 
ATOM     23  C   UNL A   1      31.564  28.904  24.840  1.00  0.00     0.051 A 
ATOM     24  C   UNL A   1      33.749  27.908  24.898  1.00  0.00     0.051 A 
ATOM     25  C   UNL A   1      31.084  27.823  24.090  1.00  0.00     0.055 A 
ATOM     26  C   UNL A   1      33.261  26.822  24.161  1.00  0.00     0.055 A 
BRANCH  22  27
ATOM     27  O   UNL A   1      33.254  30.037  25.991  1.00  0.00    -0.497 OA
ATOM     28  C   UNL A   1      32.309  30.400  26.994  1.00  0.00     0.278 C 
ENDBRANCH  22  27
ENDBRANCH  12  21
ENDBRANCH   6  11
ENDBRANCH   3   5
ENDBRANCH   2   3
ENDBRANCH   1   2
BRANCH   1  29
ATOM     29  C   UNL A   1      38.584  20.230  24.999  1.00  0.00     0.275 C 
BRANCH  29  30
ATOM     30  O   UNL A   1      39.271  20.103  26.256  1.00  0.00    -0.458 OA
BRANCH  30  31
ATOM     31  C   UNL A   1      40.601  19.890  26.151  1.00  0.00     0.338 C 
ATOM     32  O   UNL A   1      41.171  18.949  25.628  1.00  0.00    -0.246 OA
BRANCH  31  33
ATOM     33  C   UNL A   1      41.314  21.086  26.609  1.00  0.00     0.060 A 
ATOM     34  C   UNL A   1      41.272  21.343  27.972  1.00  0.00     0.016 A 
ATOM     35  C   UNL A   1      41.861  22.017  25.734  1.00  0.00     0.016 A 
ATOM     36  C   UNL A   1      41.693  22.563  28.476  1.00  0.00     0.010 A 
ATOM     37  C   UNL A   1      42.362  23.221  26.250  1.00  0.00     0.010 A 
ATOM     38  C   UNL A   1      42.250  23.521  27.623  1.00  0.00    -0.014 A 
BRANCH  38  39
ATOM     39  C   UNL A   1      42.636  24.846  28.182  1.00  0.00     0.031 A 
ATOM     40  C   UNL A   1      41.586  25.894  28.441  1.00  0.00     0.074 A 
ATOM     41  C   UNL A   1      43.918  25.083  28.529  1.00  0.00     0.049 A 
ATOM     42  N   UNL A   1      41.735  27.133  28.840  1.00  0.00    -0.248 NA
ATOM     43  C   UNL A   1      40.186  25.503  28.213  1.00  0.00     0.031 C 
ATOM     44  C   UNL A   1      45.025  24.132  28.393  1.00  0.00     0.029 A 
ATOM     45  N   UNL A   1      44.502  26.189  29.094  1.00  0.00    -0.354 N 
ATOM     46  C   UNL A   1      40.458  27.682  28.854  1.00  0.00     0.074 A 
ATOM     47  C   UNL A   1      39.549  26.648  28.413  1.00  0.00     0.031 C 
ATOM     48  C   UNL A   1      46.137  24.673  28.911  1.00  0.00     0.029 A 
ATOM     49  C   UNL A   1      45.849  26.040  29.325  1.00  0.00     0.049 A 
ATOM     50  H   UNL A   1      44.005  27.010  29.312  1.00  0.00     0.167 HD
ATOM     51  C   UNL A   1      40.080  28.938  29.200  1.00  0.00     0.031 A 
ATOM     52  C   UNL A   1      46.763  26.915  29.783  1.00  0.00     0.031 A 
ATOM     53  C   UNL A   1      40.987  29.955  29.668  1.00  0.00     0.049 A 
ATOM     54  C   UNL A   1      46.324  28.312  30.114  1.00  0.00     0.074 A 
ATOM     55  C   UNL A   1      40.704  31.256  30.046  1.00  0.00     0.029 A 
ATOM     56  N   UNL A   1      42.352  29.779  29.834  1.00  0.00    -0.354 N 
ATOM     57  N   UNL A   1      45.123  28.834  30.072  1.00  0.00    -0.248 NA
ATOM     58  C   UNL A   1      47.374  29.243  30.548  1.00  0.00     0.031 C 
ATOM     59  C   UNL A   1      41.908  31.883  30.388  1.00  0.00     0.029 A 
ATOM     60  C   UNL A   1      42.930  30.953  30.290  1.00  0.00     0.049 A 
ATOM     61  H   UNL A   1      42.840  28.943  29.654  1.00  0.00     0.167 HD
ATOM     62  C   UNL A   1      45.268  30.149  30.489  1.00  0.00     0.074 A 
ATOM     63  C   UNL A   1      46.669  30.333  30.811  1.00  0.00     0.031 C 
ATOM     64  C   UNL A   1      44.329  31.122  30.593  1.00  0.00     0.031 A 
BRANCH  51  65
ATOM     65  C   UNL A   1      38.627  29.297  29.032  1.00  0.00    -0.014 A 
ATOM     66  C   UNL A   1      38.100  29.698  27.794  1.00  0.00     0.009 A 
ATOM     67  C   UNL A   1      37.764  29.208  30.136  1.00  0.00     0.009 A 
ATOM     68  C   UNL A   1      36.750  30.040  27.676  1.00  0.00     0.001 A 
ATOM     69  C   UNL A   1      36.409  29.518  30.009  1.00  0.00     0.001 A 
ATOM     70  C   UNL A   1      35.905  29.944  28.781  1.00  0.00     0.000 A 
ENDBRANCH  51  65
BRANCH  52  71
ATOM     71  C   UNL A   1      48.190  26.512  29.902  1.00  0.00    -0.014 A 
ATOM     72  C   UNL A   1      48.673  25.913  31.074  1.00  0.00     0.009 A 
ATOM     73  C   UNL A   1      49.083  26.733  28.839  1.00  0.00     0.009 A 
ATOM     74  C   UNL A   1      50.023  25.564  31.188  1.00  0.00     0.001 A 
ATOM     75  C   UNL A   1      50.421  26.349  28.940  1.00  0.00     0.001 A 
ATOM     76  C   UNL A   1      50.892  25.774  30.119  1.00  0.00     0.000 A 
ENDBRANCH  52  71
BRANCH  64  77
ATOM     77  C   UNL A   1      44.792  32.454  31.114  1.00  0.00    -0.014 A 
ATOM     78  C   UNL A   1      45.277  33.450  30.252  1.00  0.00     0.009 A 
ATOM     79  C   UNL A   1      44.753  32.709  32.493  1.00  0.00     0.009 A 
ATOM     80  C   UNL A   1      45.768  34.652  30.767  1.00  0.00     0.001 A 
ATOM     81  C   UNL A   1      45.210  33.924  33.002  1.00  0.00     0.001 A 
ATOM     82  C   UNL A   1      45.732  34.888  32.140  1.00  0.00     0.000 A 
ENDBRANCH  64  77
ENDBRANCH  38  39
ENDBRANCH  31  33
ENDBRANCH  30  31
ENDBRANCH  29  30
ENDBRANCH   1  29
TORSDOF 14
ENDMDL
MODEL 2
REMARK VINA RESULT:     -11.7      0.326      5.829
REMARK SMILES COc1ccc(NC2=[NH+]C(=O)/C(=C\c3ccccc3C(=O)OCCOC(=O)c3ccc(-c4c5nc(c(-c6ccccc6)c6ccc([nH]6)c(-c6ccccc6)c6nc(c(-c7ccccc7)c7ccc4[nH]7)C=C6)C=C5)cc3)S2)cc1
REMARK SMILES IDX 23 1 22 2 20 3 21 4 19 5 14 6 15 7 16 8 18 9 17 10 13 11
REMARK SMILES IDX 7 12 8 13 9 15 76 16 10 17 12 19 11 20 6 21 3 22 4 23 78 24
REMARK SMILES IDX 5 25 77 26 2 27 1 28 24 29 25 30 26 31 27 32 28 33 29 34
REMARK SMILES IDX 75 35 30 36 74 37 31 38 32 39 33 40 68 41 34 42 73 43 67 44
REMARK SMILES IDX 69 45 35 46 72 47 66 48 65 49 36 51 58 52 43 53 57 54 44 55
REMARK SMILES IDX 47 56 56 57 70 58 45 59 46 60 55 62 71 63 48 64 37 65 38 66
REMARK SMILES IDX 42 67 39 68 41 69 40 70 59 71 60 72 64 73 61 74 63 75 62 76
REMARK SMILES IDX 49 77 50 78 54 79 51 80 53 81 52 82
REMARK H PARENT 7 14 9 18 69 50 47 61
REMARK Flexibility Score: inf
ROOT
ATOM      1  C   UNL A   1      37.878  21.319  25.157  1.00  0.00     0.275 C 
ENDROOT
BRANCH   1   2
ATOM      2  O   UNL A   1      36.573  21.184  24.554  1.00  0.00    -0.458 OA
BRANCH   2   3
ATOM      3  C   UNL A   1      35.528  20.989  25.401  1.00  0.00     0.338 C 
ATOM      4  O   UNL A   1      35.269  21.680  26.375  1.00  0.00    -0.246 OA
BRANCH   3   5
ATOM      5  C   UNL A   1      34.643  19.875  24.946  1.00  0.00     0.067 A 
ATOM      6  C   UNL A   1      33.237  19.951  24.870  1.00  0.00    -0.010 A 
ATOM      7  C   UNL A   1      32.522  18.815  24.452  1.00  0.00     0.009 A 
ATOM      8  C   UNL A   1      33.181  17.629  24.110  1.00  0.00     0.001 A 
ATOM      9  C   UNL A   1      35.293  18.691  24.545  1.00  0.00     0.016 A 
ATOM     10  C   UNL A   1      34.568  17.566  24.157  1.00  0.00     0.001 A 
BRANCH   6  11
ATOM     11  C   UNL A   1      32.449  21.136  25.248  1.00  0.00     0.033 C 
ATOM     12  N   UNL A   1      31.493  25.564  23.046  1.00  0.00    -0.235 N 
ATOM     13  C   UNL A   1      31.629  24.242  23.339  1.00  0.00     0.322 C 
ATOM     14  H   UNL A   1      31.026  25.750  22.200  1.00  0.00     0.313 HD
ATOM     15  N   UNL A   1      31.897  23.367  22.422  1.00  0.00    -0.199 N 
ATOM     16  S   UNL A   1      31.383  23.598  24.950  1.00  0.00     0.006 SA
ATOM     17  C   UNL A   1      32.045  22.092  22.918  1.00  0.00     0.346 C 
ATOM     18  H   UNL A   1      31.985  23.590  21.468  1.00  0.00     0.316 HD
ATOM     19  C   UNL A   1      31.983  22.075  24.412  1.00  0.00     0.110 C 
ATOM     20  O   UNL A   1      32.219  21.095  22.231  1.00  0.00    -0.240 OA
BRANCH  12  21
ATOM     21  C   UNL A   1      31.908  26.709  23.749  1.00  0.00     0.125 A 
ATOM     22  C   UNL A   1      32.899  28.938  25.182  1.00  0.00     0.119 A 
ATOM     23  C   UNL A   1      31.539  28.817  24.910  1.00  0.00     0.051 A 
ATOM     24  C   UNL A   1      33.771  27.946  24.744  1.00  0.00     0.051 A 
ATOM     25  C   UNL A   1      31.052  27.726  24.181  1.00  0.00     0.055 A 
ATOM     26  C   UNL A   1      33.277  26.848  24.029  1.00  0.00     0.055 A 
BRANCH  22  27
ATOM     27  O   UNL A   1      33.263  30.022  25.930  1.00  0.00    -0.497 OA
ATOM     28  C   UNL A   1      32.434  30.272  27.061  1.00  0.00     0.278 C 
ENDBRANCH  22  27
ENDBRANCH  12  21
ENDBRANCH   6  11
ENDBRANCH   3   5
ENDBRANCH   2   3
ENDBRANCH   1   2
BRANCH   1  29
ATOM     29  C   UNL A   1      38.664  20.009  25.119  1.00  0.00     0.275 C 
BRANCH  29  30
ATOM     30  O   UNL A   1      39.415  19.852  26.335  1.00  0.00    -0.458 OA
BRANCH  30  31
ATOM     31  C   UNL A   1      40.751  19.749  26.161  1.00  0.00     0.338 C 
ATOM     32  O   UNL A   1      41.367  18.864  25.593  1.00  0.00    -0.246 OA
BRANCH  31  33
ATOM     33  C   UNL A   1      41.389  20.991  26.607  1.00  0.00     0.060 A 
ATOM     34  C   UNL A   1      41.324  21.262  27.967  1.00  0.00     0.016 A 
ATOM     35  C   UNL A   1      41.883  21.942  25.722  1.00  0.00     0.016 A 
ATOM     36  C   UNL A   1      41.670  22.511  28.457  1.00  0.00     0.010 A 
ATOM     37  C   UNL A   1      42.309  23.180  26.226  1.00  0.00     0.010 A 
ATOM     38  C   UNL A   1      42.172  23.490  27.594  1.00  0.00    -0.014 A 
BRANCH  38  39
ATOM     39  C   UNL A   1      42.475  24.842  28.138  1.00  0.00     0.031 A 
ATOM     40  C   UNL A   1      43.894  25.225  28.468  1.00  0.00     0.074 A 
ATOM     41  C   UNL A   1      41.490  25.754  28.267  1.00  0.00     0.049 A 
ATOM     42  N   UNL A   1      44.347  26.318  29.030  1.00  0.00    -0.248 NA
ATOM     43  C   UNL A   1      44.942  24.248  28.131  1.00  0.00     0.031 C 
ATOM     44  C   UNL A   1      40.081  25.537  27.922  1.00  0.00     0.029 A 
ATOM     45  N   UNL A   1      41.526  27.057  28.696  1.00  0.00    -0.354 N 
ATOM     46  C   UNL A   1      45.718  26.135  29.166  1.00  0.00     0.074 A 
ATOM     47  C   UNL A   1      46.023  24.823  28.639  1.00  0.00     0.031 C 
ATOM     48  C   UNL A   1      39.404  26.680  28.100  1.00  0.00     0.029 A 
ATOM     49  C   UNL A   1      40.302  27.680  28.662  1.00  0.00     0.049 A 
ATOM     50  H   UNL A   1      42.350  27.503  28.999  1.00  0.00     0.167 HD
ATOM     51  C   UNL A   1      46.639  26.983  29.687  1.00  0.00     0.031 A 
ATOM     52  C   UNL A   1      39.930  28.907  29.072  1.00  0.00     0.031 A 
ATOM     53  C   UNL A   1      46.334  28.301  30.183  1.00  0.00     0.049 A 
ATOM     54  C   UNL A   1      40.960  29.808  29.687  1.00  0.00     0.074 A 
ATOM     55  C   UNL A   1      47.193  29.239  30.727  1.00  0.00     0.029 A 
ATOM     56  N   UNL A   1      45.070  28.872  30.181  1.00  0.00    -0.354 N 
ATOM     57  N   UNL A   1      42.244  29.601  29.858  1.00  0.00    -0.248 NA
ATOM     58  C   UNL A   1      40.486  31.110  30.174  1.00  0.00     0.031 C 
ATOM     59  C   UNL A   1      46.439  30.355  31.106  1.00  0.00     0.029 A 
ATOM     60  C   UNL A   1      45.122  30.142  30.733  1.00  0.00     0.049 A 
ATOM     61  H   UNL A   1      44.254  28.439  29.839  1.00  0.00     0.167 HD
ATOM     62  C   UNL A   1      42.734  30.753  30.458  1.00  0.00     0.074 A 
ATOM     63  C   UNL A   1      41.616  31.664  30.589  1.00  0.00     0.031 C 
ATOM     64  C   UNL A   1      43.996  31.031  30.868  1.00  0.00     0.031 A 
BRANCH  51  65
ATOM     65  C   UNL A   1      48.056  26.487  29.797  1.00  0.00    -0.014 A 
ATOM     66  C   UNL A   1      48.507  25.770  30.917  1.00  0.00     0.009 A 
ATOM     67  C   UNL A   1      48.953  26.727  28.743  1.00  0.00     0.009 A 
ATOM     68  C   UNL A   1      49.834  25.338  30.994  1.00  0.00     0.001 A 
ATOM     69  C   UNL A   1      50.269  26.266  28.808  1.00  0.00     0.001 A 
ATOM     70  C   UNL A   1      50.712  25.581  29.938  1.00  0.00     0.000 A 
ENDBRANCH  51  65
BRANCH  52  71
ATOM     71  C   UNL A   1      38.508  29.332  28.963  1.00  0.00    -0.014 A 
ATOM     72  C   UNL A   1      37.642  29.237  30.061  1.00  0.00     0.009 A 
ATOM     73  C   UNL A   1      38.007  29.832  27.748  1.00  0.00     0.009 A 
ATOM     74  C   UNL A   1      36.300  29.612  29.941  1.00  0.00     0.001 A 
ATOM     75  C   UNL A   1      36.676  30.242  27.641  1.00  0.00     0.001 A 
ATOM     76  C   UNL A   1      35.822  30.121  28.735  1.00  0.00     0.000 A 
ENDBRANCH  52  71
BRANCH  64  77
ATOM     77  C   UNL A   1      44.228  32.394  31.459  1.00  0.00    -0.014 A 
ATOM     78  C   UNL A   1      44.110  32.625  32.839  1.00  0.00     0.009 A 
ATOM     79  C   UNL A   1      44.557  33.466  30.616  1.00  0.00     0.009 A 
ATOM     80  C   UNL A   1      44.259  33.914  33.354  1.00  0.00     0.001 A 
ATOM     81  C   UNL A   1      44.743  34.746  31.138  1.00  0.00     0.001 A 
ATOM     82  C   UNL A   1      44.577  34.972  32.504  1.00  0.00     0.000 A 
ENDBRANCH  64  77
ENDBRANCH  38  39
ENDBRANCH  31  33
ENDBRANCH  30  31
ENDBRANCH  29  30
ENDBRANCH   1  29
TORSDOF 14
ENDMDL
MODEL 3
REMARK VINA RESULT:     -11.6      1.708      7.866
REMARK SMILES COc1ccc(NC2=[NH+]C(=O)/C(=C\c3ccccc3C(=O)OCCOC(=O)c3ccc(-c4c5nc(c(-c6ccccc6)c6ccc([nH]6)c(-c6ccccc6)c6nc(c(-c7ccccc7)c7ccc4[nH]7)C=C6)C=C5)cc3)S2)cc1
REMARK SMILES IDX 23 1 22 2 20 3 21 4 19 5 14 6 15 7 16 8 18 9 17 10 13 11
REMARK SMILES IDX 7 12 8 13 9 15 76 16 10 17 12 19 11 20 6 21 3 22 4 23 78 24
REMARK SMILES IDX 5 25 77 26 2 27 1 28 24 29 25 30 26 31 27 32 28 33 29 34
REMARK SMILES IDX 75 35 30 36 74 37 31 38 32 39 33 40 68 41 34 42 73 43 67 44
REMARK SMILES IDX 69 45 35 46 72 47 66 48 65 49 36 51 58 52 43 53 57 54 44 55
REMARK SMILES IDX 47 56 56 57 70 58 45 59 46 60 55 62 71 63 48 64 37 65 38 66
REMARK SMILES IDX 42 67 39 68 41 69 40 70 59 71 60 72 64 73 61 74 63 75 62 76
REMARK SMILES IDX 49 77 50 78 54 79 51 80 53 81 52 82
REMARK H PARENT 7 14 9 18 69 50 47 61
REMARK Flexibility Score: inf
ROOT
ATOM      1  C   UNL A   1      32.287  27.726  26.272  1.00  0.00     0.275 C 
ENDROOT
BRANCH   1   2
ATOM      2  O   UNL A   1      31.560  28.917  25.902  1.00  0.00    -0.458 OA
BRANCH   2   3
ATOM      3  C   UNL A   1      31.790  29.409  24.656  1.00  0.00     0.338 C 
ATOM      4  O   UNL A   1      32.891  29.630  24.176  1.00  0.00    -0.246 OA
BRANCH   3   5
ATOM      5  C   UNL A   1      30.526  29.559  23.874  1.00  0.00     0.067 A 
ATOM      6  C   UNL A   1      30.075  28.642  22.902  1.00  0.00    -0.010 A 
ATOM      7  C   UNL A   1      28.879  28.920  22.217  1.00  0.00     0.009 A 
ATOM      8  C   UNL A   1      28.139  30.076  22.489  1.00  0.00     0.001 A 
ATOM      9  C   UNL A   1      29.740  30.688  24.174  1.00  0.00     0.016 A 
ATOM     10  C   UNL A   1      28.571  30.962  23.468  1.00  0.00     0.001 A 
BRANCH   6  11
ATOM     11  C   UNL A   1      30.800  27.421  22.513  1.00  0.00     0.033 C 
ATOM     12  N   UNL A   1      32.068  23.177  24.911  1.00  0.00    -0.235 N 
ATOM     13  C   UNL A   1      31.405  24.235  24.370  1.00  0.00     0.322 C 
ATOM     14  H   UNL A   1      31.486  22.486  25.303  1.00  0.00     0.313 HD
ATOM     15  N   UNL A   1      30.351  24.736  24.933  1.00  0.00    -0.199 N 
ATOM     16  S   UNL A   1      31.866  24.962  22.844  1.00  0.00     0.006 SA
ATOM     17  C   UNL A   1      29.850  25.831  24.266  1.00  0.00     0.346 C 
ATOM     18  H   UNL A   1      29.948  24.370  25.753  1.00  0.00     0.316 HD
ATOM     19  C   UNL A   1      30.737  26.232  23.132  1.00  0.00     0.110 C 
ATOM     20  O   UNL A   1      28.818  26.413  24.565  1.00  0.00    -0.240 OA
BRANCH  12  21
ATOM     21  C   UNL A   1      33.444  22.904  25.004  1.00  0.00     0.125 A 
ATOM     22  C   UNL A   1      36.178  22.190  25.148  1.00  0.00     0.119 A 
ATOM     23  C   UNL A   1      35.737  23.413  25.646  1.00  0.00     0.051 A 
ATOM     24  C   UNL A   1      35.257  21.315  24.579  1.00  0.00     0.051 A 
ATOM     25  C   UNL A   1      34.388  23.775  25.554  1.00  0.00     0.055 A 
ATOM     26  C   UNL A   1      33.906  21.676  24.504  1.00  0.00     0.055 A 
BRANCH  22  27
ATOM     27  O   UNL A   1      37.506  21.920  25.320  1.00  0.00    -0.497 OA
ATOM     28  C   UNL A   1      38.216  22.885  26.091  1.00  0.00     0.278 C 
ENDBRANCH  22  27
ENDBRANCH  12  21
ENDBRANCH   6  11
ENDBRANCH   3   5
ENDBRANCH   2   3
ENDBRANCH   1   2
BRANCH   1  29
ATOM     29  C   UNL A   1      33.731  28.037  26.665  1.00  0.00     0.275 C 
BRANCH  29  30
ATOM     30  O   UNL A   1      33.752  28.901  27.813  1.00  0.00    -0.458 OA
BRANCH  30  31
ATOM     31  C   UNL A   1      34.427  30.057  27.635  1.00  0.00     0.338 C 
ATOM     32  O   UNL A   1      33.987  31.133  27.269  1.00  0.00    -0.246 OA
BRANCH  31  33
ATOM     33  C   UNL A   1      35.794  29.896  28.137  1.00  0.00     0.060 A 
ATOM     34  C   UNL A   1      36.815  30.085  27.215  1.00  0.00     0.016 A 
ATOM     35  C   UNL A   1      36.076  29.414  29.410  1.00  0.00     0.016 A 
ATOM     36  C   UNL A   1      38.117  29.719  27.514  1.00  0.00     0.010 A 
ATOM     37  C   UNL A   1      37.406  29.117  29.743  1.00  0.00     0.010 A 
ATOM     38  C   UNL A   1      38.434  29.232  28.786  1.00  0.00    -0.014 A 
BRANCH  38  39
ATOM     39  C   UNL A   1      39.829  28.787  29.059  1.00  0.00     0.031 A 
ATOM     40  C   UNL A   1      40.770  29.675  29.830  1.00  0.00     0.074 A 
ATOM     41  C   UNL A   1      40.230  27.556  28.682  1.00  0.00     0.049 A 
ATOM     42  N   UNL A   1      42.042  29.504  30.090  1.00  0.00    -0.248 NA
ATOM     43  C   UNL A   1      40.212  30.925  30.370  1.00  0.00     0.031 C 
ATOM     44  C   UNL A   1      39.400  26.568  27.986  1.00  0.00     0.029 A 
ATOM     45  N   UNL A   1      41.430  26.913  28.855  1.00  0.00    -0.354 N 
ATOM     46  C   UNL A   1      42.447  30.646  30.771  1.00  0.00     0.074 A 
ATOM     47  C   UNL A   1      41.291  31.508  30.874  1.00  0.00     0.031 C 
ATOM     48  C   UNL A   1      40.095  25.431  27.843  1.00  0.00     0.029 A 
ATOM     49  C   UNL A   1      41.447  25.637  28.346  1.00  0.00     0.049 A 
ATOM     50  H   UNL A   1      42.204  27.326  29.302  1.00  0.00     0.167 HD
ATOM     51  C   UNL A   1      43.674  30.949  31.263  1.00  0.00     0.031 A 
ATOM     52  C   UNL A   1      42.448  24.741  28.256  1.00  0.00     0.031 A 
ATOM     53  C   UNL A   1      44.814  30.073  31.185  1.00  0.00     0.049 A 
ATOM     54  C   UNL A   1      43.807  25.121  28.767  1.00  0.00     0.074 A 
ATOM     55  C   UNL A   1      46.099  30.284  31.654  1.00  0.00     0.029 A 
ATOM     56  N   UNL A   1      44.802  28.811  30.610  1.00  0.00    -0.354 N 
ATOM     57  N   UNL A   1      44.189  26.226  29.360  1.00  0.00    -0.248 NA
ATOM     58  C   UNL A   1      44.876  24.130  28.585  1.00  0.00     0.031 C 
ATOM     59  C   UNL A   1      46.878  29.172  31.313  1.00  0.00     0.029 A 
ATOM     60  C   UNL A   1      46.062  28.239  30.695  1.00  0.00     0.049 A 
ATOM     61  H   UNL A   1      44.015  28.383  30.201  1.00  0.00     0.167 HD
ATOM     62  C   UNL A   1      45.538  26.057  29.639  1.00  0.00     0.074 A 
ATOM     63  C   UNL A   1      45.897  24.731  29.178  1.00  0.00     0.031 C 
ATOM     64  C   UNL A   1      46.405  26.923  30.219  1.00  0.00     0.031 A 
BRANCH  51  65
ATOM     65  C   UNL A   1      43.857  32.310  31.881  1.00  0.00    -0.014 A 
ATOM     66  C   UNL A   1      43.667  32.534  33.254  1.00  0.00     0.009 A 
ATOM     67  C   UNL A   1      44.252  33.387  31.070  1.00  0.00     0.009 A 
ATOM     68  C   UNL A   1      43.830  33.814  33.792  1.00  0.00     0.001 A 
ATOM     69  C   UNL A   1      44.446  34.656  31.615  1.00  0.00     0.001 A 
ATOM     70  C   UNL A   1      44.225  34.872  32.974  1.00  0.00     0.000 A 
ENDBRANCH  51  65
BRANCH  52  71
ATOM     71  C   UNL A   1      42.214  23.421  27.609  1.00  0.00    -0.014 A 
ATOM     72  C   UNL A   1      42.572  23.201  26.271  1.00  0.00     0.009 A 
ATOM     73  C   UNL A   1      41.620  22.371  28.331  1.00  0.00     0.009 A 
ATOM     74  C   UNL A   1      42.322  21.967  25.664  1.00  0.00     0.001 A 
ATOM     75  C   UNL A   1      41.406  21.128  27.734  1.00  0.00     0.001 A 
ATOM     76  C   UNL A   1      41.747  20.930  26.398  1.00  0.00     0.000 A 
ENDBRANCH  52  71
BRANCH  64  77
ATOM     77  C   UNL A   1      47.813  26.435  30.419  1.00  0.00    -0.014 A 
ATOM     78  C   UNL A   1      48.776  26.539  29.403  1.00  0.00     0.009 A 
ATOM     79  C   UNL A   1      48.175  25.848  31.641  1.00  0.00     0.009 A 
ATOM     80  C   UNL A   1      50.057  26.014  29.587  1.00  0.00     0.001 A 
ATOM     81  C   UNL A   1      49.466  25.357  31.836  1.00  0.00     0.001 A 
ATOM     82  C   UNL A   1      50.400  25.425  30.803  1.00  0.00     0.000 A 
ENDBRANCH  64  77
ENDBRANCH  38  39
ENDBRANCH  31  33
ENDBRANCH  30  31
ENDBRANCH  29  30
ENDBRANCH   1  29
TORSDOF 14
ENDMDL
