MODEL 1
REMARK VINA RESULT:     -11.3      0.000      0.000
REMARK SMILES Cc1c(CC(=O)OCCOC(=O)c2ccc(-c3c4nc(c(-c5ccccc5)c5ccc([nH]5)c(-c5ccccc5)c5nc(c(-c6ccccc6)c6ccc3[nH]6)C=C5)C=C4)cc2)cc(-c2ccc(S(C)(=O)=O)cc2)n1-c1cccc(F)c1
REMARK SMILES IDX 8 1 7 2 5 3 6 4 4 5 3 6 1 7 2 8 73 9 61 10 62 11 74 12 75 13
REMARK SMILES IDX 80 14 76 15 78 16 77 17 79 18 63 19 64 20 72 21 65 22 71 23
REMARK SMILES IDX 66 24 67 25 68 26 69 27 70 28 9 29 10 30 11 31 12 32 13 33
REMARK SMILES IDX 14 34 60 35 15 36 59 37 16 38 17 39 18 40 53 41 19 42 58 43
REMARK SMILES IDX 52 44 54 45 20 46 57 47 51 48 50 49 21 51 43 52 28 53 42 54
REMARK SMILES IDX 29 55 32 56 41 57 55 58 30 59 31 60 40 62 56 63 33 64 22 65
REMARK SMILES IDX 23 66 27 67 24 68 26 69 25 70 44 71 45 72 49 73 46 74 48 75
REMARK SMILES IDX 47 76 34 77 35 78 39 79 36 80 38 81 37 82
REMARK H PARENT 54 50 32 61
REMARK Flexibility Score: inf
ROOT
ATOM      1  C   UNL A   1      34.283  33.526  28.908  1.00  0.00     0.274 C 
ENDROOT
BRANCH   1   2
ATOM      2  O   UNL A   1      35.414  32.974  28.180  1.00  0.00    -0.462 OA
BRANCH   2   3
ATOM      3  C   UNL A   1      35.377  31.644  27.893  1.00  0.00     0.310 C 
ATOM      4  O   UNL A   1      36.353  31.008  27.501  1.00  0.00    -0.252 OA
BRANCH   3   5
ATOM      5  C   UNL A   1      34.039  30.957  28.144  1.00  0.00     0.160 C 
BRANCH   5   6
ATOM      6  C   UNL A   1      33.559  29.908  27.174  1.00  0.00    -0.015 A 
ATOM      7  C   UNL A   1      31.514  31.117  26.131  1.00  0.00     0.065 C 
ATOM      8  C   UNL A   1      32.482  29.990  26.304  1.00  0.00     0.024 A 
ATOM      9  N   UNL A   1      32.357  28.782  25.629  1.00  0.00    -0.313 N 
ATOM     10  C   UNL A   1      34.025  28.560  27.093  1.00  0.00     0.033 A 
ATOM     11  C   UNL A   1      33.258  27.866  26.168  1.00  0.00     0.053 A 
BRANCH   9  12
ATOM     12  C   UNL A   1      31.443  28.532  24.573  1.00  0.00     0.049 A 
ATOM     13  C   UNL A   1      31.583  29.193  23.346  1.00  0.00     0.027 A 
ATOM     14  C   UNL A   1      30.381  27.652  24.794  1.00  0.00     0.065 A 
ATOM     15  C   UNL A   1      30.650  28.969  22.333  1.00  0.00     0.005 A 
ATOM     16  C   UNL A   1      29.450  27.460  23.782  1.00  0.00     0.125 A 
ATOM     17  C   UNL A   1      29.575  28.107  22.556  1.00  0.00     0.039 A 
ATOM     18  F   UNL A   1      28.402  26.654  23.997  1.00  0.00    -0.207 F 
ENDBRANCH   9  12
BRANCH  11  19
ATOM     19  C   UNL A   1      33.379  26.463  25.742  1.00  0.00    -0.001 A 
ATOM     20  C   UNL A   1      34.084  26.123  24.577  1.00  0.00     0.011 A 
ATOM     21  C   UNL A   1      32.751  25.447  26.475  1.00  0.00     0.011 A 
ATOM     22  C   UNL A   1      34.126  24.800  24.125  1.00  0.00     0.021 A 
ATOM     23  C   UNL A   1      32.786  24.120  26.030  1.00  0.00     0.021 A 
ATOM     24  C   UNL A   1      33.460  23.806  24.848  1.00  0.00     0.067 A 
BRANCH  24  25
ATOM     25  S   UNL A   1      33.532  22.127  24.266  1.00  0.00     0.175 S 
ATOM     26  C   UNL A   1      35.192  21.609  24.616  1.00  0.00     0.163 C 
ATOM     27  O   UNL A   1      32.630  21.354  25.076  1.00  0.00    -0.224 OA
ATOM     28  O   UNL A   1      33.394  22.163  22.810  1.00  0.00    -0.224 OA
ENDBRANCH  24  25
ENDBRANCH  11  19
ENDBRANCH   5   6
ENDBRANCH   3   5
ENDBRANCH   2   3
ENDBRANCH   1   2
BRANCH   1  29
ATOM     29  C   UNL A   1      34.648  33.756  30.397  1.00  0.00     0.275 C 
BRANCH  29  30
ATOM     30  O   UNL A   1      36.054  33.671  30.818  1.00  0.00    -0.458 OA
BRANCH  30  31
ATOM     31  C   UNL A   1      36.446  32.591  31.551  1.00  0.00     0.338 C 
ATOM     32  O   UNL A   1      36.117  32.412  32.716  1.00  0.00    -0.246 OA
BRANCH  31  33
ATOM     33  C   UNL A   1      37.292  31.576  30.779  1.00  0.00     0.060 A 
ATOM     34  C   UNL A   1      36.979  30.235  30.926  1.00  0.00     0.016 A 
ATOM     35  C   UNL A   1      38.470  31.838  30.046  1.00  0.00     0.016 A 
ATOM     36  C   UNL A   1      37.781  29.219  30.324  1.00  0.00     0.010 A 
ATOM     37  C   UNL A   1      39.335  30.777  29.499  1.00  0.00     0.010 A 
ATOM     38  C   UNL A   1      39.025  29.411  29.620  1.00  0.00    -0.014 A 
BRANCH  38  39
ATOM     39  C   UNL A   1      39.964  28.105  29.429  1.00  0.00     0.031 A 
ATOM     40  C   UNL A   1      41.060  28.316  30.418  1.00  0.00     0.074 A 
ATOM     41  C   UNL A   1      40.198  26.974  28.643  1.00  0.00     0.049 A 
ATOM     42  N   UNL A   1      41.818  29.369  30.321  1.00  0.00    -0.248 NA
ATOM     43  C   UNL A   1      41.108  27.631  31.711  1.00  0.00     0.031 C 
ATOM     44  C   UNL A   1      39.504  26.549  27.417  1.00  0.00     0.029 A 
ATOM     45  N   UNL A   1      41.140  25.896  28.766  1.00  0.00    -0.354 N 
ATOM     46  C   UNL A   1      42.618  29.369  31.436  1.00  0.00     0.074 A 
ATOM     47  C   UNL A   1      41.996  28.409  32.339  1.00  0.00     0.031 C 
ATOM     48  C   UNL A   1      39.907  25.309  27.009  1.00  0.00     0.029 A 
ATOM     49  C   UNL A   1      40.955  24.778  27.879  1.00  0.00     0.049 A 
ATOM     50  H   UNL A   1      41.874  25.921  29.421  1.00  0.00     0.167 HD
ATOM     51  C   UNL A   1      43.946  29.602  31.240  1.00  0.00     0.031 A 
ATOM     52  C   UNL A   1      41.611  23.554  27.790  1.00  0.00     0.031 A 
ATOM     53  C   UNL A   1      44.705  28.382  31.298  1.00  0.00     0.049 A 
ATOM     54  C   UNL A   1      42.934  23.716  28.406  1.00  0.00     0.074 A 
ATOM     55  C   UNL A   1      44.709  27.318  32.179  1.00  0.00     0.029 A 
ATOM     56  N   UNL A   1      45.224  27.916  30.108  1.00  0.00    -0.354 N 
ATOM     57  N   UNL A   1      43.915  24.258  27.751  1.00  0.00    -0.248 NA
ATOM     58  C   UNL A   1      43.282  23.154  29.705  1.00  0.00     0.031 C 
ATOM     59  C   UNL A   1      44.733  26.171  31.355  1.00  0.00     0.029 A 
ATOM     60  C   UNL A   1      45.117  26.539  30.072  1.00  0.00     0.049 A 
ATOM     61  H   UNL A   1      45.611  28.476  29.397  1.00  0.00     0.167 HD
ATOM     62  C   UNL A   1      44.794  24.583  28.738  1.00  0.00     0.074 A 
ATOM     63  C   UNL A   1      44.514  23.656  29.817  1.00  0.00     0.031 C 
ATOM     64  C   UNL A   1      45.191  25.879  28.790  1.00  0.00     0.031 A 
BRANCH  51  65
ATOM     65  C   UNL A   1      44.264  30.745  30.316  1.00  0.00    -0.014 A 
ATOM     66  C   UNL A   1      43.806  30.699  28.995  1.00  0.00     0.009 A 
ATOM     67  C   UNL A   1      45.117  31.804  30.689  1.00  0.00     0.009 A 
ATOM     68  C   UNL A   1      44.256  31.639  28.058  1.00  0.00     0.001 A 
ATOM     69  C   UNL A   1      45.597  32.713  29.748  1.00  0.00     0.001 A 
ATOM     70  C   UNL A   1      45.173  32.623  28.428  1.00  0.00     0.000 A 
ENDBRANCH  51  65
BRANCH  52  71
ATOM     71  C   UNL A   1      41.564  22.153  27.135  1.00  0.00    -0.014 A 
ATOM     72  C   UNL A   1      42.526  21.813  26.123  1.00  0.00     0.009 A 
ATOM     73  C   UNL A   1      40.945  21.052  27.739  1.00  0.00     0.009 A 
ATOM     74  C   UNL A   1      42.932  20.496  25.832  1.00  0.00     0.001 A 
ATOM     75  C   UNL A   1      41.326  19.719  27.420  1.00  0.00     0.001 A 
ATOM     76  C   UNL A   1      42.340  19.441  26.500  1.00  0.00     0.000 A 
ENDBRANCH  52  71
BRANCH  64  77
ATOM     77  C   UNL A   1      45.444  26.586  27.467  1.00  0.00    -0.014 A 
ATOM     78  C   UNL A   1      44.489  27.337  26.743  1.00  0.00     0.009 A 
ATOM     79  C   UNL A   1      46.710  26.441  26.885  1.00  0.00     0.009 A 
ATOM     80  C   UNL A   1      44.765  27.851  25.471  1.00  0.00     0.001 A 
ATOM     81  C   UNL A   1      47.005  26.998  25.635  1.00  0.00     0.001 A 
ATOM     82  C   UNL A   1      46.028  27.685  24.919  1.00  0.00     0.000 A 
ENDBRANCH  64  77
ENDBRANCH  38  39
ENDBRANCH  31  33
ENDBRANCH  30  31
ENDBRANCH  29  30
ENDBRANCH   1  29
TORSDOF 15
ENDMDL
MODEL 2
REMARK VINA RESULT:     -11.2      1.754      2.678
REMARK SMILES Cc1c(CC(=O)OCCOC(=O)c2ccc(-c3c4nc(c(-c5ccccc5)c5ccc([nH]5)c(-c5ccccc5)c5nc(c(-c6ccccc6)c6ccc3[nH]6)C=C5)C=C4)cc2)cc(-c2ccc(S(C)(=O)=O)cc2)n1-c1cccc(F)c1
REMARK SMILES IDX 8 1 7 2 5 3 6 4 4 5 3 6 1 7 2 8 73 9 61 10 62 11 74 12 75 13
REMARK SMILES IDX 80 14 76 15 78 16 77 17 79 18 63 19 64 20 72 21 65 22 71 23
REMARK SMILES IDX 66 24 67 25 68 26 69 27 70 28 9 29 10 30 11 31 12 32 13 33
REMARK SMILES IDX 14 34 60 35 15 36 59 37 16 38 17 39 18 40 53 41 19 42 58 43
REMARK SMILES IDX 52 44 54 45 20 46 57 47 51 48 50 49 21 51 43 52 28 53 42 54
REMARK SMILES IDX 29 55 32 56 41 57 55 58 30 59 31 60 40 62 56 63 33 64 22 65
REMARK SMILES IDX 23 66 27 67 24 68 26 69 25 70 44 71 45 72 49 73 46 74 48 75
REMARK SMILES IDX 47 76 34 77 35 78 39 79 36 80 38 81 37 82
REMARK H PARENT 54 50 32 61
REMARK Flexibility Score: inf
ROOT
ATOM      1  C   UNL A   1      34.333  34.650  28.437  1.00  0.00     0.274 C 
ENDROOT
BRANCH   1   2
ATOM      2  O   UNL A   1      33.900  33.448  27.744  1.00  0.00    -0.462 OA
BRANCH   2   3
ATOM      3  C   UNL A   1      34.743  32.380  27.768  1.00  0.00     0.310 C 
ATOM      4  O   UNL A   1      35.937  32.453  27.485  1.00  0.00    -0.252 OA
BRANCH   3   5
ATOM      5  C   UNL A   1      34.123  31.066  28.232  1.00  0.00     0.160 C 
BRANCH   5   6
ATOM      6  C   UNL A   1      33.637  30.079  27.202  1.00  0.00    -0.015 A 
ATOM      7  C   UNL A   1      31.372  31.154  26.536  1.00  0.00     0.065 C 
ATOM      8  C   UNL A   1      32.461  30.131  26.468  1.00  0.00     0.024 A 
ATOM      9  N   UNL A   1      32.378  28.996  25.672  1.00  0.00    -0.313 N 
ATOM     10  C   UNL A   1      34.223  28.808  26.911  1.00  0.00     0.033 A 
ATOM     11  C   UNL A   1      33.424  28.135  25.999  1.00  0.00     0.053 A 
BRANCH   9  12
ATOM     12  C   UNL A   1      31.375  28.757  24.699  1.00  0.00     0.049 A 
ATOM     13  C   UNL A   1      30.471  27.698  24.860  1.00  0.00     0.027 A 
ATOM     14  C   UNL A   1      31.332  29.564  23.559  1.00  0.00     0.065 A 
ATOM     15  C   UNL A   1      29.518  27.449  23.872  1.00  0.00     0.005 A 
ATOM     16  C   UNL A   1      30.392  29.285  22.577  1.00  0.00     0.125 A 
ATOM     17  C   UNL A   1      29.485  28.239  22.723  1.00  0.00     0.039 A 
ATOM     18  F   UNL A   1      30.370  30.024  21.459  1.00  0.00    -0.207 F 
ENDBRANCH   9  12
BRANCH  11  19
ATOM     19  C   UNL A   1      33.633  26.808  25.399  1.00  0.00    -0.001 A 
ATOM     20  C   UNL A   1      33.659  25.653  26.197  1.00  0.00     0.011 A 
ATOM     21  C   UNL A   1      33.856  26.684  24.021  1.00  0.00     0.011 A 
ATOM     22  C   UNL A   1      33.945  24.403  25.640  1.00  0.00     0.021 A 
ATOM     23  C   UNL A   1      34.143  25.436  23.454  1.00  0.00     0.021 A 
ATOM     24  C   UNL A   1      34.202  24.305  24.270  1.00  0.00     0.067 A 
BRANCH  24  25
ATOM     25  S   UNL A   1      34.553  22.706  23.574  1.00  0.00     0.175 S 
ATOM     26  C   UNL A   1      33.020  22.198  22.840  1.00  0.00     0.163 C 
ATOM     27  O   UNL A   1      35.521  22.897  22.528  1.00  0.00    -0.224 OA
ATOM     28  O   UNL A   1      34.817  21.794  24.687  1.00  0.00    -0.224 OA
ENDBRANCH  24  25
ENDBRANCH  11  19
ENDBRANCH   5   6
ENDBRANCH   3   5
ENDBRANCH   2   3
ENDBRANCH   1   2
BRANCH   1  29
ATOM     29  C   UNL A   1      33.853  34.637  29.911  1.00  0.00     0.275 C 
BRANCH  29  30
ATOM     30  O   UNL A   1      34.837  34.476  30.991  1.00  0.00    -0.458 OA
BRANCH  30  31
ATOM     31  C   UNL A   1      34.762  33.363  31.774  1.00  0.00     0.338 C 
ATOM     32  O   UNL A   1      33.755  33.038  32.390  1.00  0.00    -0.246 OA
BRANCH  31  33
ATOM     33  C   UNL A   1      36.029  32.505  31.777  1.00  0.00     0.060 A 
ATOM     34  C   UNL A   1      36.923  32.675  30.732  1.00  0.00     0.016 A 
ATOM     35  C   UNL A   1      36.326  31.434  32.648  1.00  0.00     0.016 A 
ATOM     36  C   UNL A   1      38.076  31.844  30.604  1.00  0.00     0.010 A 
ATOM     37  C   UNL A   1      37.476  30.531  32.458  1.00  0.00     0.010 A 
ATOM     38  C   UNL A   1      38.404  30.699  31.416  1.00  0.00    -0.014 A 
BRANCH  38  39
ATOM     39  C   UNL A   1      39.495  29.664  30.812  1.00  0.00     0.031 A 
ATOM     40  C   UNL A   1      40.611  29.717  31.800  1.00  0.00     0.074 A 
ATOM     41  C   UNL A   1      39.829  28.876  29.708  1.00  0.00     0.049 A 
ATOM     42  N   UNL A   1      41.215  30.848  32.025  1.00  0.00    -0.248 NA
ATOM     43  C   UNL A   1      40.827  28.682  32.813  1.00  0.00     0.031 C 
ATOM     44  C   UNL A   1      39.125  28.752  28.422  1.00  0.00     0.029 A 
ATOM     45  N   UNL A   1      40.912  27.961  29.473  1.00  0.00    -0.354 N 
ATOM     46  C   UNL A   1      42.073  30.620  33.072  1.00  0.00     0.074 A 
ATOM     47  C   UNL A   1      41.639  29.350  33.639  1.00  0.00     0.031 C 
ATOM     48  C   UNL A   1      39.664  27.770  27.640  1.00  0.00     0.029 A 
ATOM     49  C   UNL A   1      40.824  27.155  28.284  1.00  0.00     0.049 A 
ATOM     50  H   UNL A   1      41.674  27.889  30.092  1.00  0.00     0.167 HD
ATOM     51  C   UNL A   1      43.345  31.092  32.938  1.00  0.00     0.031 A 
ATOM     52  C   UNL A   1      41.630  26.126  27.806  1.00  0.00     0.031 A 
ATOM     53  C   UNL A   1      44.261  30.036  32.600  1.00  0.00     0.049 A 
ATOM     54  C   UNL A   1      42.954  26.280  28.422  1.00  0.00     0.074 A 
ATOM     55  C   UNL A   1      44.458  28.766  33.104  1.00  0.00     0.029 A 
ATOM     56  N   UNL A   1      44.765  30.039  31.316  1.00  0.00    -0.354 N 
ATOM     57  N   UNL A   1      43.814  27.133  27.954  1.00  0.00    -0.248 NA
ATOM     58  C   UNL A   1      43.451  25.402  29.474  1.00  0.00     0.031 C 
ATOM     59  C   UNL A   1      44.585  27.944  31.962  1.00  0.00     0.029 A 
ATOM     60  C   UNL A   1      44.839  28.739  30.853  1.00  0.00     0.049 A 
ATOM     61  H   UNL A   1      45.031  30.840  30.810  1.00  0.00     0.167 HD
ATOM     62  C   UNL A   1      44.699  27.263  28.979  1.00  0.00     0.074 A 
ATOM     63  C   UNL A   1      44.610  26.019  29.719  1.00  0.00     0.031 C 
ATOM     64  C   UNL A   1      44.923  28.523  29.428  1.00  0.00     0.031 A 
BRANCH  51  65
ATOM     65  C   UNL A   1      43.452  32.497  32.413  1.00  0.00    -0.014 A 
ATOM     66  C   UNL A   1      43.165  33.567  33.269  1.00  0.00     0.009 A 
ATOM     67  C   UNL A   1      43.703  32.780  31.055  1.00  0.00     0.009 A 
ATOM     68  C   UNL A   1      43.053  34.867  32.762  1.00  0.00     0.001 A 
ATOM     69  C   UNL A   1      43.549  34.067  30.544  1.00  0.00     0.001 A 
ATOM     70  C   UNL A   1      43.214  35.110  31.397  1.00  0.00     0.000 A 
ENDBRANCH  51  65
BRANCH  52  71
ATOM     71  C   UNL A   1      41.730  25.002  26.747  1.00  0.00    -0.014 A 
ATOM     72  C   UNL A   1      42.680  25.123  25.676  1.00  0.00     0.009 A 
ATOM     73  C   UNL A   1      41.282  23.697  26.979  1.00  0.00     0.009 A 
ATOM     74  C   UNL A   1      43.235  24.027  24.987  1.00  0.00     0.001 A 
ATOM     75  C   UNL A   1      41.813  22.591  26.259  1.00  0.00     0.001 A 
ATOM     76  C   UNL A   1      42.811  22.748  25.295  1.00  0.00     0.000 A 
ENDBRANCH  52  71
BRANCH  64  77
ATOM     77  C   UNL A   1      45.000  29.631  28.388  1.00  0.00    -0.014 A 
ATOM     78  C   UNL A   1      46.133  29.942  27.602  1.00  0.00     0.009 A 
ATOM     79  C   UNL A   1      43.874  30.451  28.228  1.00  0.00     0.009 A 
ATOM     80  C   UNL A   1      46.164  31.057  26.758  1.00  0.00     0.001 A 
ATOM     81  C   UNL A   1      43.884  31.537  27.345  1.00  0.00     0.001 A 
ATOM     82  C   UNL A   1      45.034  31.853  26.626  1.00  0.00     0.000 A 
ENDBRANCH  64  77
ENDBRANCH  38  39
ENDBRANCH  31  33
ENDBRANCH  30  31
ENDBRANCH  29  30
ENDBRANCH   1  29
TORSDOF 15
ENDMDL
MODEL 3
REMARK VINA RESULT:     -10.6      6.586     12.704
REMARK SMILES Cc1c(CC(=O)OCCOC(=O)c2ccc(-c3c4nc(c(-c5ccccc5)c5ccc([nH]5)c(-c5ccccc5)c5nc(c(-c6ccccc6)c6ccc3[nH]6)C=C5)C=C4)cc2)cc(-c2ccc(S(C)(=O)=O)cc2)n1-c1cccc(F)c1
REMARK SMILES IDX 8 1 7 2 5 3 6 4 4 5 3 6 1 7 2 8 73 9 61 10 62 11 74 12 75 13
REMARK SMILES IDX 80 14 76 15 78 16 77 17 79 18 63 19 64 20 72 21 65 22 71 23
REMARK SMILES IDX 66 24 67 25 68 26 69 27 70 28 9 29 10 30 11 31 12 32 13 33
REMARK SMILES IDX 14 34 60 35 15 36 59 37 16 38 17 39 18 40 53 41 19 42 58 43
REMARK SMILES IDX 52 44 54 45 20 46 57 47 51 48 50 49 21 51 43 52 28 53 42 54
REMARK SMILES IDX 29 55 32 56 41 57 55 58 30 59 31 60 40 62 56 63 33 64 22 65
REMARK SMILES IDX 23 66 27 67 24 68 26 69 25 70 44 71 45 72 49 73 46 74 48 75
REMARK SMILES IDX 47 76 34 77 35 78 39 79 36 80 38 81 37 82
REMARK H PARENT 54 50 32 61
REMARK Flexibility Score: inf
ROOT
ATOM      1  C   UNL A   1      52.563  25.507  35.622  1.00  0.00     0.274 C 
ENDROOT
BRANCH   1   2
ATOM      2  O   UNL A   1      52.378  24.118  35.236  1.00  0.00    -0.462 OA
BRANCH   2   3
ATOM      3  C   UNL A   1      52.159  23.865  33.917  1.00  0.00     0.310 C 
ATOM      4  O   UNL A   1      52.575  24.585  33.012  1.00  0.00    -0.252 OA
BRANCH   3   5
ATOM      5  C   UNL A   1      51.399  22.579  33.614  1.00  0.00     0.160 C 
BRANCH   5   6
ATOM      6  C   UNL A   1      50.026  22.381  34.203  1.00  0.00    -0.015 A 
ATOM      7  C   UNL A   1      50.012  19.808  34.538  1.00  0.00     0.065 C 
ATOM      8  C   UNL A   1      49.443  21.189  34.609  1.00  0.00     0.024 A 
ATOM      9  N   UNL A   1      48.149  21.447  35.042  1.00  0.00    -0.313 N 
ATOM     10  C   UNL A   1      48.998  23.370  34.295  1.00  0.00     0.033 A 
ATOM     11  C   UNL A   1      47.839  22.779  34.776  1.00  0.00     0.053 A 
BRANCH   9  12
ATOM     12  C   UNL A   1      47.286  20.494  35.641  1.00  0.00     0.049 A 
ATOM     13  C   UNL A   1      46.381  19.768  34.856  1.00  0.00     0.027 A 
ATOM     14  C   UNL A   1      47.324  20.325  37.027  1.00  0.00     0.065 A 
ATOM     15  C   UNL A   1      45.508  18.866  35.466  1.00  0.00     0.005 A 
ATOM     16  C   UNL A   1      46.432  19.441  37.618  1.00  0.00     0.125 A 
ATOM     17  C   UNL A   1      45.528  18.709  36.852  1.00  0.00     0.039 A 
ATOM     18  F   UNL A   1      46.427  19.303  38.951  1.00  0.00    -0.207 F 
ENDBRANCH   9  12
BRANCH  11  19
ATOM     19  C   UNL A   1      46.535  23.405  35.049  1.00  0.00    -0.001 A 
ATOM     20  C   UNL A   1      46.313  24.118  36.238  1.00  0.00     0.011 A 
ATOM     21  C   UNL A   1      45.479  23.258  34.139  1.00  0.00     0.011 A 
ATOM     22  C   UNL A   1      45.050  24.638  36.536  1.00  0.00     0.021 A 
ATOM     23  C   UNL A   1      44.210  23.775  34.431  1.00  0.00     0.021 A 
ATOM     24  C   UNL A   1      43.999  24.448  35.636  1.00  0.00     0.067 A 
BRANCH  24  25
ATOM     25  S   UNL A   1      42.401  25.124  36.025  1.00  0.00     0.175 S 
ATOM     26  C   UNL A   1      42.232  26.514  34.935  1.00  0.00     0.163 C 
ATOM     27  O   UNL A   1      41.418  24.138  35.665  1.00  0.00    -0.224 OA
ATOM     28  O   UNL A   1      42.471  25.656  37.386  1.00  0.00    -0.224 OA
ENDBRANCH  24  25
ENDBRANCH  11  19
ENDBRANCH   5   6
ENDBRANCH   3   5
ENDBRANCH   2   3
ENDBRANCH   1   2
BRANCH   1  29
ATOM     29  C   UNL A   1      51.195  26.214  35.804  1.00  0.00     0.275 C 
BRANCH  29  30
ATOM     30  O   UNL A   1      50.808  27.290  34.880  1.00  0.00    -0.458 OA
BRANCH  30  31
ATOM     31  C   UNL A   1      49.561  27.826  34.997  1.00  0.00     0.338 C 
ATOM     32  O   UNL A   1      49.308  28.796  35.700  1.00  0.00    -0.246 OA
BRANCH  31  33
ATOM     33  C   UNL A   1      48.499  27.153  34.125  1.00  0.00     0.060 A 
ATOM     34  C   UNL A   1      48.911  26.598  32.925  1.00  0.00     0.016 A 
ATOM     35  C   UNL A   1      47.102  27.168  34.328  1.00  0.00     0.016 A 
ATOM     36  C   UNL A   1      47.969  26.043  32.006  1.00  0.00     0.010 A 
ATOM     37  C   UNL A   1      46.134  26.667  33.335  1.00  0.00     0.010 A 
ATOM     38  C   UNL A   1      46.532  26.082  32.121  1.00  0.00    -0.014 A 
BRANCH  38  39
ATOM     39  C   UNL A   1      45.685  25.802  30.768  1.00  0.00     0.031 A 
ATOM     40  C   UNL A   1      45.923  27.024  29.948  1.00  0.00     0.074 A 
ATOM     41  C   UNL A   1      44.759  24.952  30.158  1.00  0.00     0.049 A 
ATOM     42  N   UNL A   1      45.564  28.186  30.410  1.00  0.00    -0.248 NA
ATOM     43  C   UNL A   1      46.871  27.062  28.833  1.00  0.00     0.031 C 
ATOM     44  C   UNL A   1      44.076  23.779  30.727  1.00  0.00     0.029 A 
ATOM     45  N   UNL A   1      44.199  24.931  28.835  1.00  0.00    -0.354 N 
ATOM     46  C   UNL A   1      46.042  29.116  29.520  1.00  0.00     0.074 A 
ATOM     47  C   UNL A   1      47.002  28.387  28.702  1.00  0.00     0.031 C 
ATOM     48  C   UNL A   1      43.354  23.104  29.784  1.00  0.00     0.029 A 
ATOM     49  C   UNL A   1      43.423  23.771  28.485  1.00  0.00     0.049 A 
ATOM     50  H   UNL A   1      44.338  25.672  28.202  1.00  0.00     0.167 HD
ATOM     51  C   UNL A   1      45.179  30.097  29.132  1.00  0.00     0.031 A 
ATOM     52  C   UNL A   1      42.827  23.388  27.287  1.00  0.00     0.031 A 
ATOM     53  C   UNL A   1      44.648  29.838  27.821  1.00  0.00     0.049 A 
ATOM     54  C   UNL A   1      42.627  24.603  26.486  1.00  0.00     0.074 A 
ATOM     55  C   UNL A   1      45.231  29.457  26.629  1.00  0.00     0.029 A 
ATOM     56  N   UNL A   1      43.320  29.471  27.750  1.00  0.00    -0.354 N 
ATOM     57  N   UNL A   1      41.617  25.390  26.705  1.00  0.00    -0.248 NA
ATOM     58  C   UNL A   1      43.431  24.925  25.314  1.00  0.00     0.031 C 
ATOM     59  C   UNL A   1      44.388  28.440  26.127  1.00  0.00     0.029 A 
ATOM     60  C   UNL A   1      43.167  28.492  26.788  1.00  0.00     0.049 A 
ATOM     61  H   UNL A   1      42.594  29.848  28.299  1.00  0.00     0.167 HD
ATOM     62  C   UNL A   1      41.989  26.538  26.078  1.00  0.00     0.074 A 
ATOM     63  C   UNL A   1      42.910  26.123  25.038  1.00  0.00     0.031 C 
ATOM     64  C   UNL A   1      41.984  27.667  26.830  1.00  0.00     0.031 A 
BRANCH  51  65
ATOM     65  C   UNL A   1      44.393  30.732  30.246  1.00  0.00    -0.014 A 
ATOM     66  C   UNL A   1      45.055  31.565  31.156  1.00  0.00     0.009 A 
ATOM     67  C   UNL A   1      43.040  30.419  30.492  1.00  0.00     0.009 A 
ATOM     68  C   UNL A   1      44.404  32.002  32.316  1.00  0.00     0.001 A 
ATOM     69  C   UNL A   1      42.407  30.819  31.667  1.00  0.00     0.001 A 
ATOM     70  C   UNL A   1      43.093  31.604  32.584  1.00  0.00     0.000 A 
ENDBRANCH  51  65
BRANCH  52  71
ATOM     71  C   UNL A   1      42.128  22.218  26.553  1.00  0.00    -0.014 A 
ATOM     72  C   UNL A   1      42.913  21.113  26.078  1.00  0.00     0.009 A 
ATOM     73  C   UNL A   1      40.762  21.944  26.689  1.00  0.00     0.009 A 
ATOM     74  C   UNL A   1      42.407  19.813  25.884  1.00  0.00     0.001 A 
ATOM     75  C   UNL A   1      40.241  20.640  26.457  1.00  0.00     0.001 A 
ATOM     76  C   UNL A   1      41.063  19.571  26.093  1.00  0.00     0.000 A 
ENDBRANCH  52  71
BRANCH  64  77
ATOM     77  C   UNL A   1      40.847  27.835  27.828  1.00  0.00    -0.014 A 
ATOM     78  C   UNL A   1      40.788  27.245  29.111  1.00  0.00     0.009 A 
ATOM     79  C   UNL A   1      39.739  28.594  27.427  1.00  0.00     0.009 A 
ATOM     80  C   UNL A   1      39.650  27.347  29.919  1.00  0.00     0.001 A 
ATOM     81  C   UNL A   1      38.620  28.741  28.255  1.00  0.00     0.001 A 
ATOM     82  C   UNL A   1      38.566  28.101  29.491  1.00  0.00     0.000 A 
ENDBRANCH  64  77
ENDBRANCH  38  39
ENDBRANCH  31  33
ENDBRANCH  30  31
ENDBRANCH  29  30
ENDBRANCH   1  29
TORSDOF 15
ENDMDL
