MODEL 1
REMARK VINA RESULT:     -10.4      0.000      0.000
REMARK SMILES O=C(OCCOC(=O)c1cnc(-c2ccccc2Cl)nc1)c1ccc(-c2c3nc(c(-c4ccccc4)c4ccc([nH]4)c(-c4ccccc4)c4nc(c(-c5ccccc5)c5ccc2[nH]5)C=C4)C=C3)cc1
REMARK SMILES IDX 4 1 3 2 2 3 1 4 22 5 23 6 69 7 24 8 68 9 25 10 26 11 27 12
REMARK SMILES IDX 62 13 28 14 67 15 61 16 63 17 29 18 66 19 60 20 59 21 30 23
REMARK SMILES IDX 52 24 37 25 51 26 38 27 41 28 50 29 64 30 39 31 40 32 49 34
REMARK SMILES IDX 65 35 42 36 31 37 32 38 36 39 33 40 35 41 34 42 53 43 54 44
REMARK SMILES IDX 58 45 55 46 57 47 56 48 43 49 44 50 48 51 45 52 47 53 46 54
REMARK SMILES IDX 5 55 6 56 7 57 8 58 9 59 10 60 21 61 11 62 20 63 12 64 13 65
REMARK SMILES IDX 14 66 18 67 15 68 17 69 19 70 16 71
REMARK H PARENT 63 22 41 33
REMARK Flexibility Score: inf
ROOT
ATOM      1  C   UNL A   1      33.305  36.598  28.812  1.00  0.00     0.275 C 
ENDROOT
BRANCH   1   2
ATOM      2  O   UNL A   1      32.563  35.396  28.542  1.00  0.00    -0.458 OA
BRANCH   2   3
ATOM      3  C   UNL A   1      32.982  34.185  28.111  1.00  0.00     0.338 C 
ATOM      4  O   UNL A   1      32.180  33.457  27.529  1.00  0.00    -0.246 OA
BRANCH   3   5
ATOM      5  C   UNL A   1      34.325  33.609  28.436  1.00  0.00     0.060 A 
ATOM      6  C   UNL A   1      35.504  33.791  27.708  1.00  0.00     0.016 A 
ATOM      7  C   UNL A   1      34.388  32.807  29.588  1.00  0.00     0.016 A 
ATOM      8  C   UNL A   1      36.724  33.278  28.165  1.00  0.00     0.010 A 
ATOM      9  C   UNL A   1      35.604  32.295  30.044  1.00  0.00     0.010 A 
ATOM     10  C   UNL A   1      36.786  32.538  29.346  1.00  0.00    -0.014 A 
BRANCH  10  11
ATOM     11  C   UNL A   1      38.069  31.954  29.799  1.00  0.00     0.031 A 
ATOM     12  C   UNL A   1      38.900  32.698  30.800  1.00  0.00     0.074 A 
ATOM     13  C   UNL A   1      38.470  30.754  29.339  1.00  0.00     0.049 A 
ATOM     14  N   UNL A   1      39.989  32.310  31.413  1.00  0.00    -0.248 NA
ATOM     15  C   UNL A   1      38.439  34.044  31.181  1.00  0.00     0.031 C 
ATOM     16  C   UNL A   1      37.742  29.940  28.368  1.00  0.00     0.029 A 
ATOM     17  N   UNL A   1      39.584  30.006  29.621  1.00  0.00    -0.354 N 
ATOM     18  C   UNL A   1      40.312  33.342  32.283  1.00  0.00     0.074 A 
ATOM     19  C   UNL A   1      39.360  34.406  32.059  1.00  0.00     0.031 C 
ATOM     20  C   UNL A   1      38.436  28.818  28.114  1.00  0.00     0.029 A 
ATOM     21  C   UNL A   1      39.651  28.827  28.918  1.00  0.00     0.049 A 
ATOM     22  H   UNL A   1      40.272  30.288  30.268  1.00  0.00     0.167 HD
ATOM     23  C   UNL A   1      41.290  33.382  33.216  1.00  0.00     0.031 A 
ATOM     24  C   UNL A   1      40.583  27.856  28.934  1.00  0.00     0.031 A 
ATOM     25  C   UNL A   1      42.262  32.342  33.404  1.00  0.00     0.049 A 
ATOM     26  C   UNL A   1      41.722  27.971  29.909  1.00  0.00     0.074 A 
ATOM     27  C   UNL A   1      43.302  32.284  34.313  1.00  0.00     0.029 A 
ATOM     28  N   UNL A   1      42.318  31.180  32.650  1.00  0.00    -0.354 N 
ATOM     29  N   UNL A   1      41.963  28.915  30.788  1.00  0.00    -0.248 NA
ATOM     30  C   UNL A   1      42.693  26.870  29.925  1.00  0.00     0.031 C 
ATOM     31  C   UNL A   1      44.015  31.103  34.078  1.00  0.00     0.029 A 
ATOM     32  C   UNL A   1      43.389  30.405  33.058  1.00  0.00     0.049 A 
ATOM     33  H   UNL A   1      41.689  30.942  31.930  1.00  0.00     0.167 HD
ATOM     34  C   UNL A   1      43.088  28.503  31.488  1.00  0.00     0.074 A 
ATOM     35  C   UNL A   1      43.472  27.217  30.940  1.00  0.00     0.031 C 
ATOM     36  C   UNL A   1      43.744  29.127  32.496  1.00  0.00     0.031 A 
BRANCH  23  37
ATOM     37  C   UNL A   1      41.329  34.596  34.098  1.00  0.00    -0.014 A 
ATOM     38  C   UNL A   1      40.484  34.692  35.218  1.00  0.00     0.009 A 
ATOM     39  C   UNL A   1      42.195  35.658  33.806  1.00  0.00     0.009 A 
ATOM     40  C   UNL A   1      40.478  35.845  36.003  1.00  0.00     0.001 A 
ATOM     41  C   UNL A   1      42.203  36.801  34.608  1.00  0.00     0.001 A 
ATOM     42  C   UNL A   1      41.338  36.898  35.699  1.00  0.00     0.000 A 
ENDBRANCH  23  37
BRANCH  24  43
ATOM     43  C   UNL A   1      40.472  26.679  28.029  1.00  0.00    -0.014 A 
ATOM     44  C   UNL A   1      39.837  25.500  28.451  1.00  0.00     0.009 A 
ATOM     45  C   UNL A   1      41.042  26.716  26.747  1.00  0.00     0.009 A 
ATOM     46  C   UNL A   1      39.817  24.371  27.627  1.00  0.00     0.001 A 
ATOM     47  C   UNL A   1      40.997  25.594  25.915  1.00  0.00     0.001 A 
ATOM     48  C   UNL A   1      40.396  24.418  26.360  1.00  0.00     0.000 A 
ENDBRANCH  24  43
BRANCH  36  49
ATOM     49  C   UNL A   1      44.921  28.406  33.087  1.00  0.00    -0.014 A 
ATOM     50  C   UNL A   1      46.215  28.578  32.570  1.00  0.00     0.009 A 
ATOM     51  C   UNL A   1      44.733  27.565  34.194  1.00  0.00     0.009 A 
ATOM     52  C   UNL A   1      47.292  27.890  33.130  1.00  0.00     0.001 A 
ATOM     53  C   UNL A   1      45.817  26.904  34.771  1.00  0.00     0.001 A 
ATOM     54  C   UNL A   1      47.093  27.058  34.231  1.00  0.00     0.000 A 
ENDBRANCH  36  49
ENDBRANCH  10  11
ENDBRANCH   3   5
ENDBRANCH   2   3
ENDBRANCH   1   2
BRANCH   1  55
ATOM     55  C   UNL A   1      33.256  37.075  30.267  1.00  0.00     0.275 C 
BRANCH  55  56
ATOM     56  O   UNL A   1      32.543  36.192  31.149  1.00  0.00    -0.458 OA
BRANCH  56  57
ATOM     57  C   UNL A   1      32.828  36.343  32.469  1.00  0.00     0.341 C 
ATOM     58  O   UNL A   1      32.284  37.100  33.254  1.00  0.00    -0.246 OA
BRANCH  57  59
ATOM     59  C   UNL A   1      33.838  35.366  32.870  1.00  0.00     0.096 A 
ATOM     60  C   UNL A   1      33.585  34.024  32.985  1.00  0.00     0.131 A 
ATOM     61  C   UNL A   1      35.123  35.757  33.164  1.00  0.00     0.131 A 
ATOM     62  N   UNL A   1      34.510  33.127  33.400  1.00  0.00    -0.236 NA
ATOM     63  N   UNL A   1      36.081  34.906  33.605  1.00  0.00    -0.236 NA
ATOM     64  C   UNL A   1      35.730  33.612  33.733  1.00  0.00     0.160 A 
BRANCH  64  65
ATOM     65  C   UNL A   1      36.734  32.637  34.188  1.00  0.00     0.038 A 
ATOM     66  C   UNL A   1      37.035  31.538  33.353  1.00  0.00     0.013 A 
ATOM     67  C   UNL A   1      37.414  32.703  35.420  1.00  0.00     0.052 A 
ATOM     68  C   UNL A   1      37.953  30.551  33.727  1.00  0.00     0.001 A 
ATOM     69  C   UNL A   1      38.307  31.690  35.810  1.00  0.00     0.021 A 
ATOM     70  Cl  UNL A   1      37.225  33.999  36.549  1.00  0.00    -0.084 Cl
ATOM     71  C   UNL A   1      38.578  30.619  34.965  1.00  0.00     0.002 A 
ENDBRANCH  64  65
ENDBRANCH  57  59
ENDBRANCH  56  57
ENDBRANCH  55  56
ENDBRANCH   1  55
TORSDOF 12
ENDMDL
MODEL 2
REMARK VINA RESULT:     -10.0      0.931      6.294
REMARK SMILES O=C(OCCOC(=O)c1cnc(-c2ccccc2Cl)nc1)c1ccc(-c2c3nc(c(-c4ccccc4)c4ccc([nH]4)c(-c4ccccc4)c4nc(c(-c5ccccc5)c5ccc2[nH]5)C=C4)C=C3)cc1
REMARK SMILES IDX 4 1 3 2 2 3 1 4 22 5 23 6 69 7 24 8 68 9 25 10 26 11 27 12
REMARK SMILES IDX 62 13 28 14 67 15 61 16 63 17 29 18 66 19 60 20 59 21 30 23
REMARK SMILES IDX 52 24 37 25 51 26 38 27 41 28 50 29 64 30 39 31 40 32 49 34
REMARK SMILES IDX 65 35 42 36 31 37 32 38 36 39 33 40 35 41 34 42 53 43 54 44
REMARK SMILES IDX 58 45 55 46 57 47 56 48 43 49 44 50 48 51 45 52 47 53 46 54
REMARK SMILES IDX 5 55 6 56 7 57 8 58 9 59 10 60 21 61 11 62 20 63 12 64 13 65
REMARK SMILES IDX 14 66 18 67 15 68 17 69 19 70 16 71
REMARK H PARENT 63 22 41 33
REMARK Flexibility Score: inf
ROOT
ATOM      1  C   UNL A   1      33.180  36.466  28.747  1.00  0.00     0.275 C 
ENDROOT
BRANCH   1   2
ATOM      2  O   UNL A   1      32.533  35.228  28.404  1.00  0.00    -0.458 OA
BRANCH   2   3
ATOM      3  C   UNL A   1      33.057  34.015  28.116  1.00  0.00     0.338 C 
ATOM      4  O   UNL A   1      32.407  33.245  27.412  1.00  0.00    -0.246 OA
BRANCH   3   5
ATOM      5  C   UNL A   1      34.317  33.490  28.730  1.00  0.00     0.060 A 
ATOM      6  C   UNL A   1      34.426  32.812  29.947  1.00  0.00     0.016 A 
ATOM      7  C   UNL A   1      35.497  33.711  28.000  1.00  0.00     0.016 A 
ATOM      8  C   UNL A   1      35.650  32.282  30.375  1.00  0.00     0.010 A 
ATOM      9  C   UNL A   1      36.718  33.184  28.425  1.00  0.00     0.010 A 
ATOM     10  C   UNL A   1      36.804  32.451  29.608  1.00  0.00    -0.014 A 
BRANCH  10  11
ATOM     11  C   UNL A   1      38.105  31.935  30.089  1.00  0.00     0.031 A 
ATOM     12  C   UNL A   1      38.563  30.578  29.646  1.00  0.00     0.074 A 
ATOM     13  C   UNL A   1      38.882  32.688  30.890  1.00  0.00     0.049 A 
ATOM     14  N   UNL A   1      39.715  29.993  29.853  1.00  0.00    -0.248 NA
ATOM     15  C   UNL A   1      37.615  29.781  28.849  1.00  0.00     0.031 C 
ATOM     16  C   UNL A   1      38.541  34.022  31.379  1.00  0.00     0.029 A 
ATOM     17  N   UNL A   1      40.117  32.445  31.436  1.00  0.00    -0.354 N 
ATOM     18  C   UNL A   1      39.645  28.785  29.173  1.00  0.00     0.074 A 
ATOM     19  C   UNL A   1      38.313  28.681  28.620  1.00  0.00     0.031 C 
ATOM     20  C   UNL A   1      39.526  34.473  32.173  1.00  0.00     0.029 A 
ATOM     21  C   UNL A   1      40.578  33.465  32.234  1.00  0.00     0.049 A 
ATOM     22  H   UNL A   1      40.625  31.619  31.271  1.00  0.00     0.167 HD
ATOM     23  C   UNL A   1      40.618  27.864  28.988  1.00  0.00     0.031 A 
ATOM     24  C   UNL A   1      41.728  33.579  32.924  1.00  0.00     0.031 A 
ATOM     25  C   UNL A   1      41.925  27.950  29.576  1.00  0.00     0.049 A 
ATOM     26  C   UNL A   1      42.756  32.490  32.787  1.00  0.00     0.074 A 
ATOM     27  C   UNL A   1      42.984  27.069  29.463  1.00  0.00     0.029 A 
ATOM     28  N   UNL A   1      42.342  28.980  30.406  1.00  0.00    -0.354 N 
ATOM     29  N   UNL A   1      42.707  31.395  32.067  1.00  0.00    -0.248 NA
ATOM     30  C   UNL A   1      44.014  32.672  33.523  1.00  0.00     0.031 C 
ATOM     31  C   UNL A   1      44.029  27.545  30.262  1.00  0.00     0.029 A 
ATOM     32  C   UNL A   1      43.638  28.747  30.831  1.00  0.00     0.049 A 
ATOM     33  H   UNL A   1      41.796  29.761  30.656  1.00  0.00     0.167 HD
ATOM     34  C   UNL A   1      43.939  30.778  32.230  1.00  0.00     0.074 A 
ATOM     35  C   UNL A   1      44.719  31.630  33.105  1.00  0.00     0.031 C 
ATOM     36  C   UNL A   1      44.390  29.615  31.700  1.00  0.00     0.031 A 
BRANCH  23  37
ATOM     37  C   UNL A   1      40.283  26.700  28.103  1.00  0.00    -0.014 A 
ATOM     38  C   UNL A   1      39.531  25.620  28.598  1.00  0.00     0.009 A 
ATOM     39  C   UNL A   1      40.734  26.664  26.777  1.00  0.00     0.009 A 
ATOM     40  C   UNL A   1      39.270  24.510  27.793  1.00  0.00     0.001 A 
ATOM     41  C   UNL A   1      40.451  25.561  25.967  1.00  0.00     0.001 A 
ATOM     42  C   UNL A   1      39.729  24.483  26.478  1.00  0.00     0.000 A 
ENDBRANCH  23  37
BRANCH  24  43
ATOM     43  C   UNL A   1      41.988  34.769  33.780  1.00  0.00    -0.014 A 
ATOM     44  C   UNL A   1      41.509  34.829  35.099  1.00  0.00     0.009 A 
ATOM     45  C   UNL A   1      42.681  35.874  33.263  1.00  0.00     0.009 A 
ATOM     46  C   UNL A   1      41.681  35.986  35.863  1.00  0.00     0.001 A 
ATOM     47  C   UNL A   1      42.874  37.020  34.039  1.00  0.00     0.001 A 
ATOM     48  C   UNL A   1      42.362  37.081  35.334  1.00  0.00     0.000 A 
ENDBRANCH  24  43
BRANCH  36  49
ATOM     49  C   UNL A   1      45.800  29.222  32.032  1.00  0.00    -0.014 A 
ATOM     50  C   UNL A   1      46.090  28.423  33.149  1.00  0.00     0.009 A 
ATOM     51  C   UNL A   1      46.849  29.635  31.196  1.00  0.00     0.009 A 
ATOM     52  C   UNL A   1      47.409  28.077  33.442  1.00  0.00     0.001 A 
ATOM     53  C   UNL A   1      48.163  29.262  31.475  1.00  0.00     0.001 A 
ATOM     54  C   UNL A   1      48.443  28.493  32.604  1.00  0.00     0.000 A 
ENDBRANCH  36  49
ENDBRANCH  10  11
ENDBRANCH   3   5
ENDBRANCH   2   3
ENDBRANCH   1   2
BRANCH   1  55
ATOM     55  C   UNL A   1      33.163  36.814  30.238  1.00  0.00     0.275 C 
BRANCH  55  56
ATOM     56  O   UNL A   1      32.582  35.794  31.071  1.00  0.00    -0.458 OA
BRANCH  56  57
ATOM     57  C   UNL A   1      32.687  36.014  32.407  1.00  0.00     0.341 C 
ATOM     58  O   UNL A   1      31.935  36.674  33.103  1.00  0.00    -0.246 OA
BRANCH  57  59
ATOM     59  C   UNL A   1      33.801  35.239  32.948  1.00  0.00     0.096 A 
ATOM     60  C   UNL A   1      33.696  33.923  33.318  1.00  0.00     0.131 A 
ATOM     61  C   UNL A   1      35.041  35.808  33.122  1.00  0.00     0.131 A 
ATOM     62  N   UNL A   1      34.717  33.220  33.860  1.00  0.00    -0.236 NA
ATOM     63  N   UNL A   1      36.091  35.158  33.680  1.00  0.00    -0.236 NA
ATOM     64  C   UNL A   1      35.882  33.882  34.057  1.00  0.00     0.160 A 
BRANCH  64  65
ATOM     65  C   UNL A   1      36.992  33.118  34.651  1.00  0.00     0.038 A 
ATOM     66  C   UNL A   1      37.714  33.695  35.719  1.00  0.00     0.013 A 
ATOM     67  C   UNL A   1      37.409  31.845  34.217  1.00  0.00     0.052 A 
ATOM     68  C   UNL A   1      38.801  33.048  36.316  1.00  0.00     0.001 A 
ATOM     69  C   UNL A   1      38.525  31.213  34.791  1.00  0.00     0.021 A 
ATOM     70  Cl  UNL A   1      36.617  30.952  32.966  1.00  0.00    -0.084 Cl
ATOM     71  C   UNL A   1      39.217  31.812  35.840  1.00  0.00     0.002 A 
ENDBRANCH  64  65
ENDBRANCH  57  59
ENDBRANCH  56  57
ENDBRANCH  55  56
ENDBRANCH   1  55
TORSDOF 12
ENDMDL
MODEL 3
REMARK VINA RESULT:      -8.9      1.883      2.905
REMARK SMILES O=C(OCCOC(=O)c1cnc(-c2ccccc2Cl)nc1)c1ccc(-c2c3nc(c(-c4ccccc4)c4ccc([nH]4)c(-c4ccccc4)c4nc(c(-c5ccccc5)c5ccc2[nH]5)C=C4)C=C3)cc1
REMARK SMILES IDX 4 1 3 2 2 3 1 4 22 5 23 6 69 7 24 8 68 9 25 10 26 11 27 12
REMARK SMILES IDX 62 13 28 14 67 15 61 16 63 17 29 18 66 19 60 20 59 21 30 23
REMARK SMILES IDX 52 24 37 25 51 26 38 27 41 28 50 29 64 30 39 31 40 32 49 34
REMARK SMILES IDX 65 35 42 36 31 37 32 38 36 39 33 40 35 41 34 42 53 43 54 44
REMARK SMILES IDX 58 45 55 46 57 47 56 48 43 49 44 50 48 51 45 52 47 53 46 54
REMARK SMILES IDX 5 55 6 56 7 57 8 58 9 59 10 60 21 61 11 62 20 63 12 64 13 65
REMARK SMILES IDX 14 66 18 67 15 68 17 69 19 70 16 71
REMARK H PARENT 63 22 41 33
REMARK Flexibility Score: inf
ROOT
ATOM      1  C   UNL A   1      33.332  34.171  28.039  1.00  0.00     0.275 C 
ENDROOT
BRANCH   1   2
ATOM      2  O   UNL A   1      34.430  33.346  28.465  1.00  0.00    -0.458 OA
BRANCH   2   3
ATOM      3  C   UNL A   1      34.653  32.024  28.291  1.00  0.00     0.338 C 
ATOM      4  O   UNL A   1      33.754  31.332  27.816  1.00  0.00    -0.246 OA
BRANCH   3   5
ATOM      5  C   UNL A   1      35.876  31.318  28.787  1.00  0.00     0.060 A 
ATOM      6  C   UNL A   1      35.938  30.009  29.273  1.00  0.00     0.016 A 
ATOM      7  C   UNL A   1      37.069  32.059  28.757  1.00  0.00     0.016 A 
ATOM      8  C   UNL A   1      37.162  29.423  29.621  1.00  0.00     0.010 A 
ATOM      9  C   UNL A   1      38.289  31.476  29.104  1.00  0.00     0.010 A 
ATOM     10  C   UNL A   1      38.350  30.148  29.525  1.00  0.00    -0.014 A 
BRANCH  10  11
ATOM     11  C   UNL A   1      39.634  29.542  29.943  1.00  0.00     0.031 A 
ATOM     12  C   UNL A   1      40.388  30.141  31.092  1.00  0.00     0.074 A 
ATOM     13  C   UNL A   1      40.105  28.446  29.317  1.00  0.00     0.049 A 
ATOM     14  N   UNL A   1      41.463  29.696  31.689  1.00  0.00    -0.248 NA
ATOM     15  C   UNL A   1      39.856  31.391  31.659  1.00  0.00     0.031 C 
ATOM     16  C   UNL A   1      39.455  27.776  28.193  1.00  0.00     0.029 A 
ATOM     17  N   UNL A   1      41.235  27.700  29.533  1.00  0.00    -0.354 N 
ATOM     18  C   UNL A   1      41.705  30.584  32.728  1.00  0.00     0.074 A 
ATOM     19  C   UNL A   1      40.720  31.637  32.630  1.00  0.00     0.031 C 
ATOM     20  C   UNL A   1      40.205  26.735  27.798  1.00  0.00     0.029 A 
ATOM     21  C   UNL A   1      41.382  26.654  28.655  1.00  0.00     0.049 A 
ATOM     22  H   UNL A   1      41.881  27.896  30.250  1.00  0.00     0.167 HD
ATOM     23  C   UNL A   1      42.637  30.505  33.705  1.00  0.00     0.031 A 
ATOM     24  C   UNL A   1      42.352  25.724  28.562  1.00  0.00     0.031 A 
ATOM     25  C   UNL A   1      43.642  29.481  33.773  1.00  0.00     0.049 A 
ATOM     26  C   UNL A   1      43.440  25.718  29.599  1.00  0.00     0.074 A 
ATOM     27  C   UNL A   1      44.641  29.311  34.712  1.00  0.00     0.029 A 
ATOM     28  N   UNL A   1      43.779  28.458  32.846  1.00  0.00    -0.354 N 
ATOM     29  N   UNL A   1      43.602  26.514  30.629  1.00  0.00    -0.248 NA
ATOM     30  C   UNL A   1      44.454  24.662  29.488  1.00  0.00     0.031 C 
ATOM     31  C   UNL A   1      45.412  28.208  34.328  1.00  0.00     0.029 A 
ATOM     32  C   UNL A   1      44.861  27.664  33.179  1.00  0.00     0.049 A 
ATOM     33  H   UNL A   1      43.194  28.320  32.066  1.00  0.00     0.167 HD
ATOM     34  C   UNL A   1      44.711  26.033  31.311  1.00  0.00     0.074 A 
ATOM     35  C   UNL A   1      45.171  24.866  30.584  1.00  0.00     0.031 C 
ATOM     36  C   UNL A   1      45.294  26.507  32.438  1.00  0.00     0.031 A 
BRANCH  23  37
ATOM     37  C   UNL A   1      42.586  31.560  34.771  1.00  0.00    -0.014 A 
ATOM     38  C   UNL A   1      41.919  31.317  35.984  1.00  0.00     0.009 A 
ATOM     39  C   UNL A   1      43.186  32.808  34.562  1.00  0.00     0.009 A 
ATOM     40  C   UNL A   1      41.820  32.318  36.951  1.00  0.00     0.001 A 
ATOM     41  C   UNL A   1      43.106  33.800  35.542  1.00  0.00     0.001 A 
ATOM     42  C   UNL A   1      42.416  33.558  36.730  1.00  0.00     0.000 A 
ENDBRANCH  23  37
BRANCH  24  43
ATOM     43  C   UNL A   1      42.330  24.706  27.475  1.00  0.00    -0.014 A 
ATOM     44  C   UNL A   1      41.648  23.490  27.638  1.00  0.00     0.009 A 
ATOM     45  C   UNL A   1      43.032  24.932  26.281  1.00  0.00     0.009 A 
ATOM     46  C   UNL A   1      41.708  22.505  26.649  1.00  0.00     0.001 A 
ATOM     47  C   UNL A   1      43.068  23.956  25.282  1.00  0.00     0.001 A 
ATOM     48  C   UNL A   1      42.418  22.737  25.472  1.00  0.00     0.000 A 
ENDBRANCH  24  43
BRANCH  36  49
ATOM     49  C   UNL A   1      46.472  25.739  32.965  1.00  0.00    -0.014 A 
ATOM     50  C   UNL A   1      47.781  26.049  32.565  1.00  0.00     0.009 A 
ATOM     51  C   UNL A   1      46.267  24.710  33.896  1.00  0.00     0.009 A 
ATOM     52  C   UNL A   1      48.860  25.316  33.062  1.00  0.00     0.001 A 
ATOM     53  C   UNL A   1      47.350  24.000  34.414  1.00  0.00     0.001 A 
ATOM     54  C   UNL A   1      48.644  24.296  33.988  1.00  0.00     0.000 A 
ENDBRANCH  36  49
ENDBRANCH  10  11
ENDBRANCH   3   5
ENDBRANCH   2   3
ENDBRANCH   1   2
BRANCH   1  55
ATOM     55  C   UNL A   1      33.110  35.435  28.874  1.00  0.00     0.275 C 
BRANCH  55  56
ATOM     56  O   UNL A   1      32.512  35.190  30.159  1.00  0.00    -0.458 OA
BRANCH  56  57
ATOM     57  C   UNL A   1      32.908  36.033  31.148  1.00  0.00     0.341 C 
ATOM     58  O   UNL A   1      32.522  37.174  31.337  1.00  0.00    -0.246 OA
BRANCH  57  59
ATOM     59  C   UNL A   1      33.814  35.336  32.058  1.00  0.00     0.096 A 
ATOM     60  C   UNL A   1      34.947  35.906  32.578  1.00  0.00     0.131 A 
ATOM     61  C   UNL A   1      33.569  34.039  32.444  1.00  0.00     0.131 A 
ATOM     62  N   UNL A   1      35.807  35.243  33.386  1.00  0.00    -0.236 NA
ATOM     63  N   UNL A   1      34.407  33.322  33.232  1.00  0.00    -0.236 NA
ATOM     64  C   UNL A   1      35.521  33.947  33.658  1.00  0.00     0.160 A 
BRANCH  64  65
ATOM     65  C   UNL A   1      36.460  33.226  34.533  1.00  0.00     0.038 A 
ATOM     66  C   UNL A   1      36.807  33.805  35.774  1.00  0.00     0.013 A 
ATOM     67  C   UNL A   1      37.065  31.994  34.216  1.00  0.00     0.052 A 
ATOM     68  C   UNL A   1      37.716  33.200  36.648  1.00  0.00     0.001 A 
ATOM     69  C   UNL A   1      38.007  31.407  35.077  1.00  0.00     0.021 A 
ATOM     70  Cl  UNL A   1      36.723  31.103  32.774  1.00  0.00    -0.084 Cl
ATOM     71  C   UNL A   1      38.329  32.006  36.290  1.00  0.00     0.002 A 
ENDBRANCH  64  65
ENDBRANCH  57  59
ENDBRANCH  56  57
ENDBRANCH  55  56
ENDBRANCH   1  55
TORSDOF 12
ENDMDL
