MODEL 1
REMARK VINA RESULT:      -9.4      0.000      0.000
REMARK SMILES Cc1csc(CSCC[C@H]([NH3+])C(=O)OCCOC(=O)c2ccc(-c3c4nc(c(-c5ccccc5)c5ccc([nH]5)c(-c5ccccc5)c5nc(c(-c6ccccc6)c6ccc3[nH]6)C=C5)C=C4)cc2)n1
REMARK SMILES IDX 14 1 12 2 13 3 10 4 9 5 8 6 7 7 6 8 5 9 1 10 2 11 3 12 68 13
REMARK SMILES IDX 4 14 11 15 15 19 16 20 17 21 18 22 19 23 20 24 21 25 67 26
REMARK SMILES IDX 22 27 66 28 23 29 24 30 25 31 60 32 26 33 65 34 59 35 61 36
REMARK SMILES IDX 27 37 64 38 58 39 57 40 28 42 50 43 35 44 49 45 36 46 39 47
REMARK SMILES IDX 48 48 62 49 37 50 38 51 47 53 63 54 40 55 29 56 30 57 34 58
REMARK SMILES IDX 31 59 33 60 32 61 51 62 52 63 56 64 53 65 55 66 54 67 41 68
REMARK SMILES IDX 42 69 46 70 43 71 45 72 44 73
REMARK H PARENT 11 16 11 17 11 18 61 41 39 52
REMARK Flexibility Score: inf
ROOT
ATOM      1  O   UNL A   1      43.304  20.448  25.229  1.00  0.00    -0.458 OA
ENDROOT
BRANCH   1   2
ATOM      2  C   UNL A   1      42.687  19.384  25.817  1.00  0.00     0.364 C 
ATOM      3  O   UNL A   1      42.877  18.215  25.504  1.00  0.00    -0.245 OA
BRANCH   2   4
ATOM      4  C   UNL A   1      41.706  19.821  26.920  1.00  0.00     0.292 C 
BRANCH   4   5
ATOM      5  C   UNL A   1      40.420  20.467  26.382  1.00  0.00     0.088 C 
BRANCH   5   6
ATOM      6  C   UNL A   1      40.062  21.891  26.823  1.00  0.00     0.077 C 
BRANCH   6   7
ATOM      7  S   UNL A   1      38.566  22.657  26.107  1.00  0.00    -0.154 SA
BRANCH   7   8
ATOM      8  C   UNL A   1      37.776  21.329  25.157  1.00  0.00     0.137 C 
BRANCH   8   9
ATOM      9  C   UNL A   1      36.386  21.567  24.633  1.00  0.00     0.103 A 
ATOM     10  C   UNL A   1      34.058  23.837  23.074  1.00  0.00     0.067 C 
ATOM     11  C   UNL A   1      34.655  22.695  23.804  1.00  0.00     0.049 A 
ATOM     12  C   UNL A   1      33.973  21.620  24.331  1.00  0.00     0.090 A 
ATOM     13  N   UNL A   1      36.026  22.666  23.998  1.00  0.00    -0.246 NA
ATOM     14  S   UNL A   1      35.075  20.505  24.984  1.00  0.00    -0.126 S 
ENDBRANCH   8   9
ENDBRANCH   7   8
ENDBRANCH   6   7
ENDBRANCH   5   6
ENDBRANCH   4   5
BRANCH   4  15
ATOM     15  N   UNL A   1      42.344  20.606  28.001  1.00  0.00    -0.346 N 
ATOM     16  H   UNL A   1      42.047  21.580  27.935  1.00  0.00     0.345 HD
ATOM     17  H   UNL A   1      43.358  20.553  27.907  1.00  0.00     0.345 HD
ATOM     18  H   UNL A   1      42.066  20.226  28.906  1.00  0.00     0.345 HD
ENDBRANCH   4  15
ENDBRANCH   2   4
ENDBRANCH   1   2
BRANCH   1  19
ATOM     19  C   UNL A   1      44.740  20.422  25.065  1.00  0.00     0.274 C 
BRANCH  19  20
ATOM     20  C   UNL A   1      45.322  21.801  25.384  1.00  0.00     0.275 C 
BRANCH  20  21
ATOM     21  O   UNL A   1      44.250  22.748  25.496  1.00  0.00    -0.458 OA
BRANCH  21  22
ATOM     22  C   UNL A   1      44.638  24.043  25.422  1.00  0.00     0.338 C 
ATOM     23  O   UNL A   1      45.322  24.565  24.554  1.00  0.00    -0.246 OA
BRANCH  22  24
ATOM     24  C   UNL A   1      43.865  24.806  26.412  1.00  0.00     0.060 A 
ATOM     25  C   UNL A   1      44.130  26.175  26.500  1.00  0.00     0.016 A 
ATOM     26  C   UNL A   1      42.889  24.214  27.216  1.00  0.00     0.016 A 
ATOM     27  C   UNL A   1      43.429  26.963  27.399  1.00  0.00     0.010 A 
ATOM     28  C   UNL A   1      42.196  25.001  28.135  1.00  0.00     0.010 A 
ATOM     29  C   UNL A   1      42.485  26.373  28.244  1.00  0.00    -0.014 A 
BRANCH  29  30
ATOM     30  C   UNL A   1      41.933  27.182  29.346  1.00  0.00     0.031 A 
ATOM     31  C   UNL A   1      42.698  27.246  30.636  1.00  0.00     0.074 A 
ATOM     32  C   UNL A   1      40.821  27.911  29.155  1.00  0.00     0.049 A 
ATOM     33  N   UNL A   1      42.429  27.916  31.726  1.00  0.00    -0.248 NA
ATOM     34  C   UNL A   1      43.935  26.449  30.708  1.00  0.00     0.031 C 
ATOM     35  C   UNL A   1      40.047  27.965  27.912  1.00  0.00     0.029 A 
ATOM     36  N   UNL A   1      40.162  28.764  29.999  1.00  0.00    -0.354 N 
ATOM     37  C   UNL A   1      43.449  27.606  32.616  1.00  0.00     0.074 A 
ATOM     38  C   UNL A   1      44.330  26.672  31.952  1.00  0.00     0.031 C 
ATOM     39  C   UNL A   1      39.027  28.825  28.072  1.00  0.00     0.029 A 
ATOM     40  C   UNL A   1      39.054  29.346  29.435  1.00  0.00     0.049 A 
ATOM     41  H   UNL A   1      40.455  28.942  30.922  1.00  0.00     0.167 HD
ATOM     42  C   UNL A   1      43.631  28.064  33.876  1.00  0.00     0.031 A 
ATOM     43  C   UNL A   1      38.161  30.197  29.973  1.00  0.00     0.031 A 
ATOM     44  C   UNL A   1      42.744  28.996  34.520  1.00  0.00     0.049 A 
ATOM     45  C   UNL A   1      38.357  30.634  31.400  1.00  0.00     0.074 A 
ATOM     46  C   UNL A   1      42.837  29.538  35.789  1.00  0.00     0.029 A 
ATOM     47  N   UNL A   1      41.597  29.517  33.942  1.00  0.00    -0.354 N 
ATOM     48  N   UNL A   1      39.332  30.348  32.231  1.00  0.00    -0.248 NA
ATOM     49  C   UNL A   1      37.329  31.522  31.959  1.00  0.00     0.031 C 
ATOM     50  C   UNL A   1      41.709  30.337  36.002  1.00  0.00     0.029 A 
ATOM     51  C   UNL A   1      40.953  30.351  34.839  1.00  0.00     0.049 A 
ATOM     52  H   UNL A   1      41.287  29.323  33.027  1.00  0.00     0.167 HD
ATOM     53  C   UNL A   1      39.051  31.045  33.399  1.00  0.00     0.074 A 
ATOM     54  C   UNL A   1      37.832  31.789  33.155  1.00  0.00     0.031 C 
ATOM     55  C   UNL A   1      39.734  31.071  34.570  1.00  0.00     0.031 A 
BRANCH  42  56
ATOM     56  C   UNL A   1      44.798  27.520  34.653  1.00  0.00    -0.014 A 
ATOM     57  C   UNL A   1      46.032  28.187  34.699  1.00  0.00     0.009 A 
ATOM     58  C   UNL A   1      44.646  26.326  35.375  1.00  0.00     0.009 A 
ATOM     59  C   UNL A   1      47.098  27.652  35.427  1.00  0.00     0.001 A 
ATOM     60  C   UNL A   1      45.702  25.810  36.128  1.00  0.00     0.001 A 
ATOM     61  C   UNL A   1      46.930  26.469  36.146  1.00  0.00     0.000 A 
ENDBRANCH  42  56
BRANCH  43  62
ATOM     62  C   UNL A   1      36.996  30.675  29.181  1.00  0.00    -0.014 A 
ATOM     63  C   UNL A   1      35.960  29.798  28.826  1.00  0.00     0.009 A 
ATOM     64  C   UNL A   1      36.935  32.005  28.736  1.00  0.00     0.009 A 
ATOM     65  C   UNL A   1      34.911  30.232  28.010  1.00  0.00     0.001 A 
ATOM     66  C   UNL A   1      35.868  32.447  27.952  1.00  0.00     0.001 A 
ATOM     67  C   UNL A   1      34.865  31.556  27.577  1.00  0.00     0.000 A 
ENDBRANCH  43  62
BRANCH  55  68
ATOM     68  C   UNL A   1      39.190  31.964  35.650  1.00  0.00    -0.014 A 
ATOM     69  C   UNL A   1      38.279  31.487  36.607  1.00  0.00     0.009 A 
ATOM     70  C   UNL A   1      39.595  33.307  35.707  1.00  0.00     0.009 A 
ATOM     71  C   UNL A   1      37.740  32.353  37.560  1.00  0.00     0.001 A 
ATOM     72  C   UNL A   1      39.086  34.159  36.686  1.00  0.00     0.001 A 
ATOM     73  C   UNL A   1      38.145  33.687  37.600  1.00  0.00     0.000 A 
ENDBRANCH  55  68
ENDBRANCH  29  30
ENDBRANCH  22  24
ENDBRANCH  21  22
ENDBRANCH  20  21
ENDBRANCH  19  20
ENDBRANCH   1  19
TORSDOF 17
ENDMDL
MODEL 2
REMARK VINA RESULT:      -9.1      3.744      5.502
REMARK SMILES Cc1csc(CSCC[C@H]([NH3+])C(=O)OCCOC(=O)c2ccc(-c3c4nc(c(-c5ccccc5)c5ccc([nH]5)c(-c5ccccc5)c5nc(c(-c6ccccc6)c6ccc3[nH]6)C=C5)C=C4)cc2)n1
REMARK SMILES IDX 14 1 12 2 13 3 10 4 9 5 8 6 7 7 6 8 5 9 1 10 2 11 3 12 68 13
REMARK SMILES IDX 4 14 11 15 15 19 16 20 17 21 18 22 19 23 20 24 21 25 67 26
REMARK SMILES IDX 22 27 66 28 23 29 24 30 25 31 60 32 26 33 65 34 59 35 61 36
REMARK SMILES IDX 27 37 64 38 58 39 57 40 28 42 50 43 35 44 49 45 36 46 39 47
REMARK SMILES IDX 48 48 62 49 37 50 38 51 47 53 63 54 40 55 29 56 30 57 34 58
REMARK SMILES IDX 31 59 33 60 32 61 51 62 52 63 56 64 53 65 55 66 54 67 41 68
REMARK SMILES IDX 42 69 46 70 43 71 45 72 44 73
REMARK H PARENT 11 16 11 17 11 18 61 41 39 52
REMARK Flexibility Score: inf
ROOT
ATOM      1  O   UNL A   1      37.658  21.556  25.602  1.00  0.00    -0.458 OA
ENDROOT
BRANCH   1   2
ATOM      2  C   UNL A   1      37.149  22.806  25.420  1.00  0.00     0.364 C 
ATOM      3  O   UNL A   1      37.390  23.764  26.145  1.00  0.00    -0.245 OA
BRANCH   2   4
ATOM      4  C   UNL A   1      36.218  22.879  24.196  1.00  0.00     0.292 C 
BRANCH   4   5
ATOM      5  C   UNL A   1      35.108  21.817  24.198  1.00  0.00     0.088 C 
BRANCH   5   6
ATOM      6  C   UNL A   1      33.685  22.227  23.808  1.00  0.00     0.077 C 
BRANCH   6   7
ATOM      7  S   UNL A   1      32.321  21.084  24.222  1.00  0.00    -0.154 SA
BRANCH   7   8
ATOM      8  C   UNL A   1      32.997  20.007  25.515  1.00  0.00     0.137 C 
BRANCH   8   9
ATOM      9  C   UNL A   1      33.186  18.549  25.193  1.00  0.00     0.103 A 
ATOM     10  C   UNL A   1      32.189  15.137  25.796  1.00  0.00     0.067 C 
ATOM     11  C   UNL A   1      32.933  16.345  25.370  1.00  0.00     0.049 A 
ATOM     12  C   UNL A   1      34.126  16.365  24.681  1.00  0.00     0.090 A 
ATOM     13  N   UNL A   1      32.415  17.593  25.674  1.00  0.00    -0.246 NA
ATOM     14  S   UNL A   1      34.550  17.969  24.315  1.00  0.00    -0.126 S 
ENDBRANCH   8   9
ENDBRANCH   7   8
ENDBRANCH   6   7
ENDBRANCH   5   6
ENDBRANCH   4   5
BRANCH   4  15
ATOM     15  N   UNL A   1      36.942  22.962  22.907  1.00  0.00    -0.346 N 
ATOM     16  H   UNL A   1      36.742  22.130  22.351  1.00  0.00     0.345 HD
ATOM     17  H   UNL A   1      37.945  23.021  23.083  1.00  0.00     0.345 HD
ATOM     18  H   UNL A   1      36.637  23.792  22.398  1.00  0.00     0.345 HD
ENDBRANCH   4  15
ENDBRANCH   2   4
ENDBRANCH   1   2
BRANCH   1  19
ATOM     19  C   UNL A   1      39.058  21.410  25.930  1.00  0.00     0.274 C 
BRANCH  19  20
ATOM     20  C   UNL A   1      39.532  20.002  25.564  1.00  0.00     0.275 C 
BRANCH  20  21
ATOM     21  O   UNL A   1      40.569  19.605  26.472  1.00  0.00    -0.458 OA
BRANCH  21  22
ATOM     22  C   UNL A   1      41.824  19.860  26.034  1.00  0.00     0.338 C 
ATOM     23  O   UNL A   1      42.454  19.246  25.185  1.00  0.00    -0.246 OA
BRANCH  22  24
ATOM     24  C   UNL A   1      42.222  21.182  26.538  1.00  0.00     0.060 A 
ATOM     25  C   UNL A   1      42.147  21.380  27.919  1.00  0.00     0.016 A 
ATOM     26  C   UNL A   1      42.681  22.196  25.695  1.00  0.00     0.016 A 
ATOM     27  C   UNL A   1      42.521  22.595  28.470  1.00  0.00     0.010 A 
ATOM     28  C   UNL A   1      43.039  23.427  26.244  1.00  0.00     0.010 A 
ATOM     29  C   UNL A   1      42.935  23.634  27.631  1.00  0.00    -0.014 A 
BRANCH  29  30
ATOM     30  C   UNL A   1      43.095  24.979  28.214  1.00  0.00     0.031 A 
ATOM     31  C   UNL A   1      44.476  25.438  28.580  1.00  0.00     0.074 A 
ATOM     32  C   UNL A   1      42.034  25.796  28.322  1.00  0.00     0.049 A 
ATOM     33  N   UNL A   1      44.864  26.586  29.071  1.00  0.00    -0.248 NA
ATOM     34  C   UNL A   1      45.570  24.475  28.361  1.00  0.00     0.031 C 
ATOM     35  C   UNL A   1      40.663  25.461  27.928  1.00  0.00     0.029 A 
ATOM     36  N   UNL A   1      41.949  27.085  28.776  1.00  0.00    -0.354 N 
ATOM     37  C   UNL A   1      46.238  26.474  29.238  1.00  0.00     0.074 A 
ATOM     38  C   UNL A   1      46.617  25.144  28.820  1.00  0.00     0.031 C 
ATOM     39  C   UNL A   1      39.876  26.529  28.141  1.00  0.00     0.029 A 
ATOM     40  C   UNL A   1      40.678  27.602  28.722  1.00  0.00     0.049 A 
ATOM     41  H   UNL A   1      42.724  27.592  29.109  1.00  0.00     0.167 HD
ATOM     42  C   UNL A   1      47.105  27.405  29.700  1.00  0.00     0.031 A 
ATOM     43  C   UNL A   1      40.222  28.806  29.111  1.00  0.00     0.031 A 
ATOM     44  C   UNL A   1      46.712  28.726  30.111  1.00  0.00     0.049 A 
ATOM     45  C   UNL A   1      41.203  29.795  29.683  1.00  0.00     0.074 A 
ATOM     46  C   UNL A   1      47.506  29.755  30.583  1.00  0.00     0.029 A 
ATOM     47  N   UNL A   1      45.407  29.195  30.102  1.00  0.00    -0.354 N 
ATOM     48  N   UNL A   1      42.503  29.687  29.824  1.00  0.00    -0.248 NA
ATOM     49  C   UNL A   1      40.650  31.075  30.140  1.00  0.00     0.031 C 
ATOM     50  C   UNL A   1      46.671  30.825  30.922  1.00  0.00     0.029 A 
ATOM     51  C   UNL A   1      45.367  30.489  30.591  1.00  0.00     0.049 A 
ATOM     52  H   UNL A   1      44.624  28.683  29.792  1.00  0.00     0.167 HD
ATOM     53  C   UNL A   1      42.927  30.898  30.358  1.00  0.00     0.074 A 
ATOM     54  C   UNL A   1      41.749  31.731  30.484  1.00  0.00     0.031 C 
ATOM     55  C   UNL A   1      44.176  31.290  30.714  1.00  0.00     0.031 A 
BRANCH  42  56
ATOM     56  C   UNL A   1      48.549  27.005  29.838  1.00  0.00    -0.014 A 
ATOM     57  C   UNL A   1      49.035  26.373  30.993  1.00  0.00     0.009 A 
ATOM     58  C   UNL A   1      49.432  27.244  28.773  1.00  0.00     0.009 A 
ATOM     59  C   UNL A   1      50.383  26.018  31.089  1.00  0.00     0.001 A 
ATOM     60  C   UNL A   1      50.772  26.860  28.860  1.00  0.00     0.001 A 
ATOM     61  C   UNL A   1      51.248  26.254  30.021  1.00  0.00     0.000 A 
ENDBRANCH  42  56
BRANCH  43  62
ATOM     62  C   UNL A   1      38.777  29.144  28.998  1.00  0.00    -0.014 A 
ATOM     63  C   UNL A   1      38.243  29.619  27.791  1.00  0.00     0.009 A 
ATOM     64  C   UNL A   1      37.931  29.035  30.113  1.00  0.00     0.009 A 
ATOM     65  C   UNL A   1      36.905  30.016  27.714  1.00  0.00     0.001 A 
ATOM     66  C   UNL A   1      36.586  29.398  30.025  1.00  0.00     0.001 A 
ATOM     67  C   UNL A   1      36.077  29.902  28.830  1.00  0.00     0.000 A 
ENDBRANCH  43  62
BRANCH  55  68
ATOM     68  C   UNL A   1      44.320  32.693  31.234  1.00  0.00    -0.014 A 
ATOM     69  C   UNL A   1      44.222  32.982  32.604  1.00  0.00     0.009 A 
ATOM     70  C   UNL A   1      44.555  33.744  30.332  1.00  0.00     0.009 A 
ATOM     71  C   UNL A   1      44.296  34.302  33.054  1.00  0.00     0.001 A 
ATOM     72  C   UNL A   1      44.670  35.056  30.789  1.00  0.00     0.001 A 
ATOM     73  C   UNL A   1      44.522  35.336  32.147  1.00  0.00     0.000 A 
ENDBRANCH  55  68
ENDBRANCH  29  30
ENDBRANCH  22  24
ENDBRANCH  21  22
ENDBRANCH  20  21
ENDBRANCH  19  20
ENDBRANCH   1  19
TORSDOF 17
ENDMDL
MODEL 3
REMARK VINA RESULT:      -9.1      1.580      2.370
REMARK SMILES Cc1csc(CSCC[C@H]([NH3+])C(=O)OCCOC(=O)c2ccc(-c3c4nc(c(-c5ccccc5)c5ccc([nH]5)c(-c5ccccc5)c5nc(c(-c6ccccc6)c6ccc3[nH]6)C=C5)C=C4)cc2)n1
REMARK SMILES IDX 14 1 12 2 13 3 10 4 9 5 8 6 7 7 6 8 5 9 1 10 2 11 3 12 68 13
REMARK SMILES IDX 4 14 11 15 15 19 16 20 17 21 18 22 19 23 20 24 21 25 67 26
REMARK SMILES IDX 22 27 66 28 23 29 24 30 25 31 60 32 26 33 65 34 59 35 61 36
REMARK SMILES IDX 27 37 64 38 58 39 57 40 28 42 50 43 35 44 49 45 36 46 39 47
REMARK SMILES IDX 48 48 62 49 37 50 38 51 47 53 63 54 40 55 29 56 30 57 34 58
REMARK SMILES IDX 31 59 33 60 32 61 51 62 52 63 56 64 53 65 55 66 54 67 41 68
REMARK SMILES IDX 42 69 46 70 43 71 45 72 44 73
REMARK H PARENT 11 16 11 17 11 18 61 41 39 52
REMARK Flexibility Score: inf
ROOT
ATOM      1  O   UNL A   1      46.401  21.017  25.151  1.00  0.00    -0.458 OA
ENDROOT
BRANCH   1   2
ATOM      2  C   UNL A   1      46.177  19.684  24.983  1.00  0.00     0.364 C 
ATOM      3  O   UNL A   1      46.926  18.801  25.382  1.00  0.00    -0.245 OA
BRANCH   2   4
ATOM      4  C   UNL A   1      44.869  19.409  24.219  1.00  0.00     0.292 C 
BRANCH   4   5
ATOM      5  C   UNL A   1      43.818  18.652  25.046  1.00  0.00     0.088 C 
BRANCH   5   6
ATOM      6  C   UNL A   1      43.124  19.372  26.207  1.00  0.00     0.077 C 
BRANCH   6   7
ATOM      7  S   UNL A   1      41.310  19.577  26.124  1.00  0.00    -0.154 SA
BRANCH   7   8
ATOM      8  C   UNL A   1      40.949  20.952  27.250  1.00  0.00     0.137 C 
BRANCH   8   9
ATOM      9  C   UNL A   1      39.858  21.913  26.864  1.00  0.00     0.103 A 
ATOM     10  C   UNL A   1      36.893  22.539  24.910  1.00  0.00     0.067 C 
ATOM     11  C   UNL A   1      38.103  22.706  25.748  1.00  0.00     0.049 A 
ATOM     12  C   UNL A   1      38.594  23.895  26.239  1.00  0.00     0.090 A 
ATOM     13  N   UNL A   1      38.839  21.584  26.092  1.00  0.00    -0.246 NA
ATOM     14  S   UNL A   1      39.937  23.594  27.235  1.00  0.00    -0.126 S 
ENDBRANCH   8   9
ENDBRANCH   7   8
ENDBRANCH   6   7
ENDBRANCH   5   6
ENDBRANCH   4   5
BRANCH   4  15
ATOM     15  N   UNL A   1      45.080  18.829  22.874  1.00  0.00    -0.346 N 
ATOM     16  H   UNL A   1      44.189  18.500  22.502  1.00  0.00     0.345 HD
ATOM     17  H   UNL A   1      45.731  18.046  22.940  1.00  0.00     0.345 HD
ATOM     18  H   UNL A   1      45.466  19.541  22.254  1.00  0.00     0.345 HD
ENDBRANCH   4  15
ENDBRANCH   2   4
ENDBRANCH   1   2
BRANCH   1  19
ATOM     19  C   UNL A   1      45.372  21.956  24.763  1.00  0.00     0.274 C 
BRANCH  19  20
ATOM     20  C   UNL A   1      46.000  23.321  24.473  1.00  0.00     0.275 C 
BRANCH  20  21
ATOM     21  O   UNL A   1      45.018  24.345  24.690  1.00  0.00    -0.458 OA
BRANCH  21  22
ATOM     22  C   UNL A   1      45.533  25.556  25.005  1.00  0.00     0.338 C 
ATOM     23  O   UNL A   1      46.426  26.157  24.426  1.00  0.00    -0.246 OA
BRANCH  22  24
ATOM     24  C   UNL A   1      44.650  26.180  26.001  1.00  0.00     0.060 A 
ATOM     25  C   UNL A   1      45.073  27.396  26.546  1.00  0.00     0.016 A 
ATOM     26  C   UNL A   1      43.429  25.615  26.376  1.00  0.00     0.016 A 
ATOM     27  C   UNL A   1      44.286  28.052  27.478  1.00  0.00     0.010 A 
ATOM     28  C   UNL A   1      42.645  26.264  27.329  1.00  0.00     0.010 A 
ATOM     29  C   UNL A   1      43.086  27.471  27.899  1.00  0.00    -0.014 A 
BRANCH  29  30
ATOM     30  C   UNL A   1      42.393  28.065  29.058  1.00  0.00     0.031 A 
ATOM     31  C   UNL A   1      43.103  28.084  30.380  1.00  0.00     0.074 A 
ATOM     32  C   UNL A   1      41.196  28.651  28.897  1.00  0.00     0.049 A 
ATOM     33  N   UNL A   1      42.710  28.581  31.523  1.00  0.00    -0.248 NA
ATOM     34  C   UNL A   1      44.438  27.461  30.420  1.00  0.00     0.031 C 
ATOM     35  C   UNL A   1      40.459  28.742  27.634  1.00  0.00     0.029 A 
ATOM     36  N   UNL A   1      40.398  29.303  29.799  1.00  0.00    -0.354 N 
ATOM     37  C   UNL A   1      43.737  28.313  32.419  1.00  0.00     0.074 A 
ATOM     38  C   UNL A   1      44.760  27.591  31.698  1.00  0.00     0.031 C 
ATOM     39  C   UNL A   1      39.323  29.430  27.841  1.00  0.00     0.029 A 
ATOM     40  C   UNL A   1      39.236  29.789  29.253  1.00  0.00     0.049 A 
ATOM     41  H   UNL A   1      40.635  29.412  30.748  1.00  0.00     0.167 HD
ATOM     42  C   UNL A   1      43.814  28.643  33.729  1.00  0.00     0.031 A 
ATOM     43  C   UNL A   1      38.216  30.441  29.840  1.00  0.00     0.031 A 
ATOM     44  C   UNL A   1      42.787  29.364  34.431  1.00  0.00     0.049 A 
ATOM     45  C   UNL A   1      38.306  30.734  31.314  1.00  0.00     0.074 A 
ATOM     46  C   UNL A   1      42.764  29.764  35.755  1.00  0.00     0.029 A 
ATOM     47  N   UNL A   1      41.595  29.786  33.862  1.00  0.00    -0.354 N 
ATOM     48  N   UNL A   1      39.286  30.490  32.152  1.00  0.00    -0.248 NA
ATOM     49  C   UNL A   1      37.147  31.402  31.920  1.00  0.00     0.031 C 
ATOM     50  C   UNL A   1      41.529  30.371  36.003  1.00  0.00     0.029 A 
ATOM     51  C   UNL A   1      40.813  30.415  34.816  1.00  0.00     0.049 A 
ATOM     52  H   UNL A   1      41.342  29.658  32.918  1.00  0.00     0.167 HD
ATOM     53  C   UNL A   1      38.876  31.003  33.376  1.00  0.00     0.074 A 
ATOM     54  C   UNL A   1      37.571  31.596  33.160  1.00  0.00     0.031 C 
ATOM     55  C   UNL A   1      39.514  30.987  34.572  1.00  0.00     0.031 A 
BRANCH  42  56
ATOM     56  C   UNL A   1      45.024  28.179  34.494  1.00  0.00    -0.014 A 
ATOM     57  C   UNL A   1      45.053  26.938  35.149  1.00  0.00     0.009 A 
ATOM     58  C   UNL A   1      46.166  28.994  34.534  1.00  0.00     0.009 A 
ATOM     59  C   UNL A   1      46.191  26.538  35.854  1.00  0.00     0.001 A 
ATOM     60  C   UNL A   1      47.313  28.578  35.213  1.00  0.00     0.001 A 
ATOM     61  C   UNL A   1      47.322  27.354  35.879  1.00  0.00     0.000 A 
ENDBRANCH  42  56
BRANCH  43  62
ATOM     62  C   UNL A   1      37.019  30.843  29.054  1.00  0.00    -0.014 A 
ATOM     63  C   UNL A   1      36.834  32.176  28.658  1.00  0.00     0.009 A 
ATOM     64  C   UNL A   1      36.028  29.901  28.734  1.00  0.00     0.009 A 
ATOM     65  C   UNL A   1      35.667  32.564  27.994  1.00  0.00     0.001 A 
ATOM     66  C   UNL A   1      34.879  30.284  28.039  1.00  0.00     0.001 A 
ATOM     67  C   UNL A   1      34.693  31.618  27.683  1.00  0.00     0.000 A 
ENDBRANCH  43  62
BRANCH  55  68
ATOM     68  C   UNL A   1      38.816  31.666  35.718  1.00  0.00    -0.014 A 
ATOM     69  C   UNL A   1      38.112  30.933  36.687  1.00  0.00     0.009 A 
ATOM     70  C   UNL A   1      38.865  33.065  35.826  1.00  0.00     0.009 A 
ATOM     71  C   UNL A   1      37.421  31.593  37.705  1.00  0.00     0.001 A 
ATOM     72  C   UNL A   1      38.207  33.719  36.867  1.00  0.00     0.001 A 
ATOM     73  C   UNL A   1      37.471  32.984  37.795  1.00  0.00     0.000 A 
ENDBRANCH  55  68
ENDBRANCH  29  30
ENDBRANCH  22  24
ENDBRANCH  21  22
ENDBRANCH  20  21
ENDBRANCH  19  20
ENDBRANCH   1  19
TORSDOF 17
ENDMDL
