MODEL 1
REMARK VINA RESULT:     -14.7      0.000      0.000
REMARK SMILES Cc1ccc(C(=O)N2CCCC[C@@H]2C(=O)OCCOC(=O)c2ccc(-c3c4nc(c(-c5ccccc5)c5ccc([nH]5)c(-c5ccccc5)c5nc(c(-c6ccccc6)c6ccc3[nH]6)C=C5)C=C4)cc2)cc1S(=O)(=O)N1CCCCC1
REMARK SMILES IDX 17 1 16 2 14 3 15 4 13 5 8 6 9 7 10 8 12 9 11 10 6 11 7 12
REMARK SMILES IDX 5 13 1 14 2 15 3 16 71 17 4 18 70 19 72 20 73 21 74 22 75 23
REMARK SMILES IDX 76 24 80 25 77 26 79 27 78 28 18 29 19 30 20 31 21 32 22 33
REMARK SMILES IDX 23 34 69 35 24 36 68 37 25 38 26 39 27 40 62 41 28 42 67 43
REMARK SMILES IDX 61 44 63 45 29 46 66 47 60 48 59 49 30 51 52 52 37 53 51 54
REMARK SMILES IDX 38 55 41 56 50 57 64 58 39 59 40 60 49 62 65 63 42 64 31 65
REMARK SMILES IDX 32 66 36 67 33 68 35 69 34 70 53 71 54 72 58 73 55 74 57 75
REMARK SMILES IDX 56 76 43 77 44 78 48 79 45 80 47 81 46 82
REMARK H PARENT 63 50 41 61
REMARK Flexibility Score: inf
ROOT
ATOM      1  C   UNL A   1      34.367  29.204  27.629  1.00  0.00     0.274 C 
ENDROOT
BRANCH   1   2
ATOM      2  O   UNL A   1      33.024  28.046  27.495  1.00  0.00    -0.461 OA
BRANCH   2   3
ATOM      3  C   UNL A   1      31.779  27.286  26.305  1.00  0.00     0.328 C 
ATOM      4  O   UNL A   1      30.730  26.664  26.626  1.00  0.00    -0.250 OA
BRANCH   3   5
ATOM      5  C   UNL A   1      31.795  27.587  24.586  1.00  0.00     0.195 C 
ATOM      6  N   UNL A   1      32.884  26.849  24.065  1.00  0.00    -0.325 N 
ATOM      7  C   UNL A   1      33.295  26.977  22.635  1.00  0.00     0.121 C 
ATOM      8  C   UNL A   1      33.255  28.378  22.077  1.00  0.00     0.022 C 
ATOM      9  C   UNL A   1      31.584  28.937  23.822  1.00  0.00     0.037 C 
ATOM     10  C   UNL A   1      31.863  28.926  22.316  1.00  0.00     0.005 C 
BRANCH   6  11
ATOM     11  C   UNL A   1      33.042  25.592  24.632  1.00  0.00     0.254 C 
ATOM     12  O   UNL A   1      33.930  25.685  25.515  1.00  0.00    -0.269 OA
BRANCH  11  13
ATOM     13  C   UNL A   1      31.899  24.022  24.339  1.00  0.00     0.041 A 
ATOM     14  C   UNL A   1      34.853  21.937  27.233  1.00  0.00     0.046 C 
ATOM     15  C   UNL A   1      33.886  22.965  26.808  1.00  0.00    -0.031 A 
ATOM     16  C   UNL A   1      32.088  22.978  27.374  1.00  0.00     0.005 A 
ATOM     17  C   UNL A   1      34.476  23.218  25.150  1.00  0.00     0.086 A 
ATOM     18  C   UNL A   1      30.790  23.383  25.968  1.00  0.00     0.014 A 
ATOM     19  C   UNL A   1      33.538  23.731  24.013  1.00  0.00     0.035 A 
BRANCH  17  20
ATOM     20  S   UNL A   1      36.202  22.547  24.250  1.00  0.00     0.243 S 
ATOM     21  O   UNL A   1      36.132  21.098  24.355  1.00  0.00    -0.207 OA
ATOM     22  O   UNL A   1      36.255  23.202  22.961  1.00  0.00    -0.207 OA
BRANCH  20  23
ATOM     23  N   UNL A   1      37.827  23.011  25.196  1.00  0.00    -0.198 NA
ATOM     24  C   UNL A   1      38.422  21.762  25.767  1.00  0.00     0.102 C 
ATOM     25  C   UNL A   1      37.786  24.006  26.439  1.00  0.00     0.102 C 
ATOM     26  C   UNL A   1      39.654  22.049  26.667  1.00  0.00     0.017 C 
ATOM     27  C   UNL A   1      39.242  24.472  26.835  1.00  0.00     0.017 C 
ATOM     28  C   UNL A   1      40.286  23.428  26.508  1.00  0.00     0.003 C 
ENDBRANCH  20  23
ENDBRANCH  17  20
ENDBRANCH  11  13
ENDBRANCH   6  11
ENDBRANCH   3   5
ENDBRANCH   2   3
ENDBRANCH   1   2
BRANCH   1  29
ATOM     29  C   UNL A   1      34.224  30.832  27.338  1.00  0.00     0.275 C 
BRANCH  29  30
ATOM     30  O   UNL A   1      33.112  31.697  27.769  1.00  0.00    -0.458 OA
BRANCH  30  31
ATOM     31  C   UNL A   1      33.319  32.979  28.137  1.00  0.00     0.338 C 
ATOM     32  O   UNL A   1      32.756  33.984  27.753  1.00  0.00    -0.246 OA
BRANCH  31  33
ATOM     33  C   UNL A   1      34.612  32.938  28.722  1.00  0.00     0.060 A 
ATOM     34  C   UNL A   1      36.329  33.148  28.093  1.00  0.00     0.016 A 
ATOM     35  C   UNL A   1      34.333  32.778  30.522  1.00  0.00     0.016 A 
ATOM     36  C   UNL A   1      37.762  32.926  29.305  1.00  0.00     0.010 A 
ATOM     37  C   UNL A   1      35.730  32.811  31.591  1.00  0.00     0.010 A 
ATOM     38  C   UNL A   1      37.530  32.552  31.093  1.00  0.00    -0.014 A 
BRANCH  38  39
ATOM     39  C   UNL A   1      38.304  31.061  32.304  1.00  0.00     0.031 A 
ATOM     40  C   UNL A   1      38.343  29.662  31.200  1.00  0.00     0.074 A 
ATOM     41  C   UNL A   1      39.693  31.807  33.493  1.00  0.00     0.049 A 
ATOM     42  N   UNL A   1      39.188  28.638  31.240  1.00  0.00    -0.248 NA
ATOM     43  C   UNL A   1      37.690  29.730  29.890  1.00  0.00     0.031 C 
ATOM     44  C   UNL A   1      41.451  32.030  32.909  1.00  0.00     0.029 A 
ATOM     45  N   UNL A   1      40.033  33.076  34.187  1.00  0.00    -0.354 N 
ATOM     46  C   UNL A   1      39.593  28.421  29.929  1.00  0.00     0.074 A 
ATOM     47  C   UNL A   1      38.438  28.876  29.166  1.00  0.00     0.031 C 
ATOM     48  C   UNL A   1      42.201  32.916  33.528  1.00  0.00     0.029 A 
ATOM     49  C   UNL A   1      41.388  33.277  34.579  1.00  0.00     0.049 A 
ATOM     50  H   UNL A   1      39.345  33.756  34.370  1.00  0.00     0.167 HD
ATOM     51  C   UNL A   1      40.911  28.217  29.539  1.00  0.00     0.031 A 
ATOM     52  C   UNL A   1      41.782  33.061  35.846  1.00  0.00     0.031 A 
ATOM     53  C   UNL A   1      41.984  28.477  30.570  1.00  0.00     0.049 A 
ATOM     54  C   UNL A   1      42.516  31.461  35.847  1.00  0.00     0.074 A 
ATOM     55  C   UNL A   1      43.070  29.361  30.543  1.00  0.00     0.029 A 
ATOM     56  N   UNL A   1      41.968  27.992  31.888  1.00  0.00    -0.354 N 
ATOM     57  N   UNL A   1      43.003  30.785  34.771  1.00  0.00    -0.248 NA
ATOM     58  C   UNL A   1      42.769  30.555  36.994  1.00  0.00     0.031 C 
ATOM     59  C   UNL A   1      43.681  29.427  31.827  1.00  0.00     0.029 A 
ATOM     60  C   UNL A   1      42.986  28.604  32.684  1.00  0.00     0.049 A 
ATOM     61  H   UNL A   1      41.335  27.317  32.222  1.00  0.00     0.167 HD
ATOM     62  C   UNL A   1      43.235  29.399  35.041  1.00  0.00     0.074 A 
ATOM     63  C   UNL A   1      43.188  29.376  36.486  1.00  0.00     0.031 C 
ATOM     64  C   UNL A   1      43.148  28.310  34.137  1.00  0.00     0.031 A 
BRANCH  51  65
ATOM     65  C   UNL A   1      41.388  28.014  28.074  1.00  0.00    -0.014 A 
ATOM     66  C   UNL A   1      41.958  26.771  27.704  1.00  0.00     0.009 A 
ATOM     67  C   UNL A   1      41.278  28.931  27.014  1.00  0.00     0.009 A 
ATOM     68  C   UNL A   1      42.399  26.475  26.403  1.00  0.00     0.001 A 
ATOM     69  C   UNL A   1      41.700  28.640  25.701  1.00  0.00     0.001 A 
ATOM     70  C   UNL A   1      42.259  27.409  25.394  1.00  0.00     0.000 A 
ENDBRANCH  51  65
BRANCH  52  71
ATOM     71  C   UNL A   1      40.674  34.069  36.453  1.00  0.00    -0.014 A 
ATOM     72  C   UNL A   1      39.797  33.700  37.510  1.00  0.00     0.009 A 
ATOM     73  C   UNL A   1      40.905  35.453  36.558  1.00  0.00     0.009 A 
ATOM     74  C   UNL A   1      39.299  34.628  38.508  1.00  0.00     0.001 A 
ATOM     75  C   UNL A   1      40.427  36.405  37.501  1.00  0.00     0.001 A 
ATOM     76  C   UNL A   1      39.638  35.976  38.521  1.00  0.00     0.000 A 
ENDBRANCH  52  71
BRANCH  64  77
ATOM     77  C   UNL A   1      42.996  26.793  34.498  1.00  0.00    -0.014 A 
ATOM     78  C   UNL A   1      43.941  25.775  34.294  1.00  0.00     0.009 A 
ATOM     79  C   UNL A   1      41.839  26.380  35.218  1.00  0.00     0.009 A 
ATOM     80  C   UNL A   1      43.654  24.421  34.593  1.00  0.00     0.001 A 
ATOM     81  C   UNL A   1      41.577  25.051  35.584  1.00  0.00     0.001 A 
ATOM     82  C   UNL A   1      42.458  24.056  35.206  1.00  0.00     0.000 A 
ENDBRANCH  64  77
ENDBRANCH  38  39
ENDBRANCH  31  33
ENDBRANCH  30  31
ENDBRANCH  29  30
ENDBRANCH   1  29
TORSDOF 15
ENDMDL
MODEL 2
REMARK VINA RESULT:     -13.4     10.977     15.520
REMARK SMILES Cc1ccc(C(=O)N2CCCC[C@@H]2C(=O)OCCOC(=O)c2ccc(-c3c4nc(c(-c5ccccc5)c5ccc([nH]5)c(-c5ccccc5)c5nc(c(-c6ccccc6)c6ccc3[nH]6)C=C5)C=C4)cc2)cc1S(=O)(=O)N1CCCCC1
REMARK SMILES IDX 17 1 16 2 14 3 15 4 13 5 8 6 9 7 10 8 12 9 11 10 6 11 7 12
REMARK SMILES IDX 5 13 1 14 2 15 3 16 71 17 4 18 70 19 72 20 73 21 74 22 75 23
REMARK SMILES IDX 76 24 80 25 77 26 79 27 78 28 18 29 19 30 20 31 21 32 22 33
REMARK SMILES IDX 23 34 69 35 24 36 68 37 25 38 26 39 27 40 62 41 28 42 67 43
REMARK SMILES IDX 61 44 63 45 29 46 66 47 60 48 59 49 30 51 52 52 37 53 51 54
REMARK SMILES IDX 38 55 41 56 50 57 64 58 39 59 40 60 49 62 65 63 42 64 31 65
REMARK SMILES IDX 32 66 36 67 33 68 35 69 34 70 53 71 54 72 58 73 55 74 57 75
REMARK SMILES IDX 56 76 43 77 44 78 48 79 45 80 47 81 46 82
REMARK H PARENT 63 50 41 61
REMARK Flexibility Score: inf
ROOT
ATOM      1  C   UNL A   1      45.058  40.755  25.510  1.00  0.00     0.274 C 
ENDROOT
BRANCH   1   2
ATOM      2  O   UNL A   1      46.345  41.733  24.770  1.00  0.00    -0.461 OA
BRANCH   2   3
ATOM      3  C   UNL A   1      46.825  43.476  24.244  1.00  0.00     0.328 C 
ATOM      4  O   UNL A   1      46.809  44.503  24.975  1.00  0.00    -0.250 OA
BRANCH   3   5
ATOM      5  C   UNL A   1      47.612  43.833  22.727  1.00  0.00     0.195 C 
ATOM      6  N   UNL A   1      46.924  43.088  21.740  1.00  0.00    -0.325 N 
ATOM      7  C   UNL A   1      47.412  43.034  20.329  1.00  0.00     0.121 C 
ATOM      8  C   UNL A   1      48.908  42.922  20.169  1.00  0.00     0.022 C 
ATOM      9  C   UNL A   1      49.142  43.945  22.416  1.00  0.00     0.037 C 
ATOM     10  C   UNL A   1      49.537  44.064  20.941  1.00  0.00     0.005 C 
BRANCH   6  11
ATOM     11  C   UNL A   1      45.547  43.056  21.907  1.00  0.00     0.254 C 
ATOM     12  O   UNL A   1      45.175  41.868  21.745  1.00  0.00    -0.269 OA
BRANCH  11  13
ATOM     13  C   UNL A   1      44.413  44.515  22.572  1.00  0.00     0.041 A 
ATOM     14  C   UNL A   1      41.564  43.200  19.166  1.00  0.00     0.046 C 
ATOM     15  C   UNL A   1      42.384  43.022  20.378  1.00  0.00    -0.031 A 
ATOM     16  C   UNL A   1      41.647  42.942  22.111  1.00  0.00     0.005 A 
ATOM     17  C   UNL A   1      43.810  43.957  19.876  1.00  0.00     0.086 A 
ATOM     18  C   UNL A   1      42.631  43.953  23.466  1.00  0.00     0.014 A 
ATOM     19  C   UNL A   1      44.758  44.632  20.916  1.00  0.00     0.035 A 
BRANCH  17  20
ATOM     20  S   UNL A   1      44.296  44.726  18.029  1.00  0.00     0.243 S 
ATOM     21  O   UNL A   1      45.670  45.183  18.171  1.00  0.00    -0.207 OA
ATOM     22  O   UNL A   1      43.944  43.702  17.069  1.00  0.00    -0.207 OA
BRANCH  20  23
ATOM     23  N   UNL A   1      43.314  46.324  17.547  1.00  0.00    -0.198 NA
ATOM     24  C   UNL A   1      42.247  45.953  16.564  1.00  0.00     0.102 C 
ATOM     25  C   UNL A   1      44.053  47.550  16.848  1.00  0.00     0.102 C 
ATOM     26  C   UNL A   1      41.497  47.192  16.006  1.00  0.00     0.017 C 
ATOM     27  C   UNL A   1      43.133  48.833  16.842  1.00  0.00     0.017 C 
ATOM     28  C   UNL A   1      41.662  48.483  16.801  1.00  0.00     0.003 C 
ENDBRANCH  20  23
ENDBRANCH  17  20
ENDBRANCH  11  13
ENDBRANCH   6  11
ENDBRANCH   3   5
ENDBRANCH   2   3
ENDBRANCH   1   2
BRANCH   1  29
ATOM     29  C   UNL A   1      45.320  39.599  26.672  1.00  0.00     0.275 C 
BRANCH  29  30
ATOM     30  O   UNL A   1      44.636  38.298  26.772  1.00  0.00    -0.458 OA
BRANCH  30  31
ATOM     31  C   UNL A   1      43.321  38.214  27.064  1.00  0.00     0.338 C 
ATOM     32  O   UNL A   1      42.422  38.970  26.757  1.00  0.00    -0.246 OA
BRANCH  31  33
ATOM     33  C   UNL A   1      43.294  37.311  28.158  1.00  0.00     0.060 A 
ATOM     34  C   UNL A   1      43.966  37.328  29.872  1.00  0.00     0.016 A 
ATOM     35  C   UNL A   1      42.190  35.948  27.645  1.00  0.00     0.016 A 
ATOM     36  C   UNL A   1      43.704  35.801  30.954  1.00  0.00     0.010 A 
ATOM     37  C   UNL A   1      41.825  34.682  28.812  1.00  0.00     0.010 A 
ATOM     38  C   UNL A   1      42.774  34.311  30.397  1.00  0.00    -0.014 A 
BRANCH  38  39
ATOM     39  C   UNL A   1      43.276  32.302  30.369  1.00  0.00     0.031 A 
ATOM     40  C   UNL A   1      41.755  31.527  30.883  1.00  0.00     0.074 A 
ATOM     41  C   UNL A   1      44.464  31.922  28.838  1.00  0.00     0.049 A 
ATOM     42  N   UNL A   1      41.326  30.315  30.552  1.00  0.00    -0.248 NA
ATOM     43  C   UNL A   1      40.646  32.334  31.400  1.00  0.00     0.031 C 
ATOM     44  C   UNL A   1      43.778  31.616  27.130  1.00  0.00     0.029 A 
ATOM     45  N   UNL A   1      45.511  32.588  28.019  1.00  0.00    -0.354 N 
ATOM     46  C   UNL A   1      39.982  30.457  30.229  1.00  0.00     0.074 A 
ATOM     47  C   UNL A   1      39.580  31.587  31.056  1.00  0.00     0.031 C 
ATOM     48  C   UNL A   1      44.569  31.823  26.099  1.00  0.00     0.029 A 
ATOM     49  C   UNL A   1      45.774  32.062  26.721  1.00  0.00     0.049 A 
ATOM     50  H   UNL A   1      46.007  33.366  28.362  1.00  0.00     0.167 HD
ATOM     51  C   UNL A   1      39.381  29.899  29.107  1.00  0.00     0.031 A 
ATOM     52  C   UNL A   1      46.823  31.252  26.501  1.00  0.00     0.031 A 
ATOM     53  C   UNL A   1      40.293  29.299  28.062  1.00  0.00     0.049 A 
ATOM     54  C   UNL A   1      46.169  29.617  26.511  1.00  0.00     0.074 A 
ATOM     55  C   UNL A   1      40.441  29.610  26.705  1.00  0.00     0.029 A 
ATOM     56  N   UNL A   1      41.347  28.411  28.328  1.00  0.00    -0.354 N 
ATOM     57  N   UNL A   1      44.871  29.256  26.316  1.00  0.00    -0.248 NA
ATOM     58  C   UNL A   1      46.883  28.333  26.705  1.00  0.00     0.031 C 
ATOM     59  C   UNL A   1      41.577  28.942  26.169  1.00  0.00     0.029 A 
ATOM     60  C   UNL A   1      42.172  28.216  27.177  1.00  0.00     0.049 A 
ATOM     61  H   UNL A   1      41.500  27.978  29.199  1.00  0.00     0.167 HD
ATOM     62  C   UNL A   1      44.606  27.904  26.700  1.00  0.00     0.074 A 
ATOM     63  C   UNL A   1      45.944  27.366  26.804  1.00  0.00     0.031 C 
ATOM     64  C   UNL A   1      43.395  27.365  27.206  1.00  0.00     0.031 A 
BRANCH  51  65
ATOM     65  C   UNL A   1      37.891  30.081  28.708  1.00  0.00    -0.014 A 
ATOM     66  C   UNL A   1      37.390  31.392  28.506  1.00  0.00     0.009 A 
ATOM     67  C   UNL A   1      36.949  29.066  28.467  1.00  0.00     0.009 A 
ATOM     68  C   UNL A   1      36.067  31.667  28.121  1.00  0.00     0.001 A 
ATOM     69  C   UNL A   1      35.624  29.328  28.063  1.00  0.00     0.001 A 
ATOM     70  C   UNL A   1      35.183  30.631  27.887  1.00  0.00     0.000 A 
ENDBRANCH  51  65
BRANCH  52  71
ATOM     71  C   UNL A   1      47.881  32.317  27.101  1.00  0.00    -0.014 A 
ATOM     72  C   UNL A   1      49.154  31.933  27.605  1.00  0.00     0.009 A 
ATOM     73  C   UNL A   1      48.006  33.616  26.579  1.00  0.00     0.009 A 
ATOM     74  C   UNL A   1      50.339  32.766  27.526  1.00  0.00     0.001 A 
ATOM     75  C   UNL A   1      49.135  34.479  26.496  1.00  0.00     0.001 A 
ATOM     76  C   UNL A   1      50.336  34.029  26.945  1.00  0.00     0.000 A 
ENDBRANCH  52  71
BRANCH  64  77
ATOM     77  C   UNL A   1      43.217  26.023  27.997  1.00  0.00    -0.014 A 
ATOM     78  C   UNL A   1      43.825  25.669  29.213  1.00  0.00     0.009 A 
ATOM     79  C   UNL A   1      42.257  25.083  27.528  1.00  0.00     0.009 A 
ATOM     80  C   UNL A   1      43.645  24.389  29.790  1.00  0.00     0.001 A 
ATOM     81  C   UNL A   1      42.018  23.839  28.134  1.00  0.00     0.001 A 
ATOM     82  C   UNL A   1      42.768  23.463  29.231  1.00  0.00     0.000 A 
ENDBRANCH  64  77
ENDBRANCH  38  39
ENDBRANCH  31  33
ENDBRANCH  30  31
ENDBRANCH  29  30
ENDBRANCH   1  29
TORSDOF 15
ENDMDL
MODEL 3
REMARK VINA RESULT:     -13.2      7.001     13.986
REMARK SMILES Cc1ccc(C(=O)N2CCCC[C@@H]2C(=O)OCCOC(=O)c2ccc(-c3c4nc(c(-c5ccccc5)c5ccc([nH]5)c(-c5ccccc5)c5nc(c(-c6ccccc6)c6ccc3[nH]6)C=C5)C=C4)cc2)cc1S(=O)(=O)N1CCCCC1
REMARK SMILES IDX 17 1 16 2 14 3 15 4 13 5 8 6 9 7 10 8 12 9 11 10 6 11 7 12
REMARK SMILES IDX 5 13 1 14 2 15 3 16 71 17 4 18 70 19 72 20 73 21 74 22 75 23
REMARK SMILES IDX 76 24 80 25 77 26 79 27 78 28 18 29 19 30 20 31 21 32 22 33
REMARK SMILES IDX 23 34 69 35 24 36 68 37 25 38 26 39 27 40 62 41 28 42 67 43
REMARK SMILES IDX 61 44 63 45 29 46 66 47 60 48 59 49 30 51 52 52 37 53 51 54
REMARK SMILES IDX 38 55 41 56 50 57 64 58 39 59 40 60 49 62 65 63 42 64 31 65
REMARK SMILES IDX 32 66 36 67 33 68 35 69 34 70 53 71 54 72 58 73 55 74 57 75
REMARK SMILES IDX 56 76 43 77 44 78 48 79 45 80 47 81 46 82
REMARK H PARENT 63 50 41 61
REMARK Flexibility Score: inf
ROOT
ATOM      1  C   UNL A   1      45.120  37.132  35.340  1.00  0.00     0.274 C 
ENDROOT
BRANCH   1   2
ATOM      2  O   UNL A   1      44.304  38.693  35.094  1.00  0.00    -0.461 OA
BRANCH   2   3
ATOM      3  C   UNL A   1      44.565  40.556  35.025  1.00  0.00     0.328 C 
ATOM      4  O   UNL A   1      45.663  41.158  35.168  1.00  0.00    -0.250 OA
BRANCH   3   5
ATOM      5  C   UNL A   1      43.337  41.672  34.483  1.00  0.00     0.195 C 
ATOM      6  N   UNL A   1      43.499  41.789  33.082  1.00  0.00    -0.325 N 
ATOM      7  C   UNL A   1      42.707  42.777  32.289  1.00  0.00     0.121 C 
ATOM      8  C   UNL A   1      42.520  44.124  32.942  1.00  0.00     0.022 C 
ATOM      9  C   UNL A   1      42.877  43.020  35.134  1.00  0.00     0.037 C 
ATOM     10  C   UNL A   1      41.919  43.889  34.313  1.00  0.00     0.005 C 
BRANCH   6  11
ATOM     11  C   UNL A   1      43.794  40.594  32.442  1.00  0.00     0.254 C 
ATOM     12  O   UNL A   1      42.705  40.060  32.117  1.00  0.00    -0.269 OA
BRANCH  11  13
ATOM     13  C   UNL A   1      45.569  39.979  31.868  1.00  0.00     0.041 A 
ATOM     14  C   UNL A   1      44.976  43.022  28.428  1.00  0.00     0.046 C 
ATOM     15  C   UNL A   1      45.058  42.576  29.830  1.00  0.00    -0.031 A 
ATOM     16  C   UNL A   1      46.569  42.882  30.916  1.00  0.00     0.005 A 
ATOM     17  C   UNL A   1      44.152  41.055  29.682  1.00  0.00     0.086 A 
ATOM     18  C   UNL A   1      47.107  41.359  32.018  1.00  0.00     0.014 A 
ATOM     19  C   UNL A   1      44.390  39.858  30.654  1.00  0.00     0.035 A 
BRANCH  17  20
ATOM     20  S   UNL A   1      43.027  40.341  28.112  1.00  0.00     0.243 S 
ATOM     21  O   UNL A   1      43.645  39.071  27.764  1.00  0.00    -0.207 OA
ATOM     22  O   UNL A   1      41.649  40.407  28.551  1.00  0.00    -0.207 OA
BRANCH  20  23
ATOM     23  N   UNL A   1      43.162  41.392  26.491  1.00  0.00    -0.198 NA
ATOM     24  C   UNL A   1      41.985  41.080  25.619  1.00  0.00     0.102 C 
ATOM     25  C   UNL A   1      44.407  41.217  25.513  1.00  0.00     0.102 C 
ATOM     26  C   UNL A   1      42.077  41.767  24.230  1.00  0.00     0.017 C 
ATOM     27  C   UNL A   1      44.453  42.381  24.448  1.00  0.00     0.017 C 
ATOM     28  C   UNL A   1      43.076  42.915  24.121  1.00  0.00     0.003 C 
ENDBRANCH  20  23
ENDBRANCH  17  20
ENDBRANCH  11  13
ENDBRANCH   6  11
ENDBRANCH   3   5
ENDBRANCH   2   3
ENDBRANCH   1   2
BRANCH   1  29
ATOM     29  C   UNL A   1      45.179  36.332  36.793  1.00  0.00     0.275 C 
BRANCH  29  30
ATOM     30  O   UNL A   1      44.061  35.624  37.440  1.00  0.00    -0.458 OA
BRANCH  30  31
ATOM     31  C   UNL A   1      42.894  36.246  37.710  1.00  0.00     0.338 C 
ATOM     32  O   UNL A   1      42.636  37.033  38.598  1.00  0.00    -0.246 OA
BRANCH  31  33
ATOM     33  C   UNL A   1      41.943  35.454  37.015  1.00  0.00     0.060 A 
ATOM     34  C   UNL A   1      40.953  33.956  37.426  1.00  0.00     0.016 A 
ATOM     35  C   UNL A   1      41.633  36.326  35.439  1.00  0.00     0.016 A 
ATOM     36  C   UNL A   1      39.839  33.223  36.087  1.00  0.00     0.010 A 
ATOM     37  C   UNL A   1      40.404  35.683  34.355  1.00  0.00     0.010 A 
ATOM     38  C   UNL A   1      39.659  33.952  34.406  1.00  0.00    -0.014 A 
BRANCH  38  39
ATOM     39  C   UNL A   1      39.861  33.131  32.515  1.00  0.00     0.031 A 
ATOM     40  C   UNL A   1      41.313  32.113  32.700  1.00  0.00     0.074 A 
ATOM     41  C   UNL A   1      38.083  32.717  31.762  1.00  0.00     0.049 A 
ATOM     42  N   UNL A   1      41.596  31.000  32.035  1.00  0.00    -0.248 NA
ATOM     43  C   UNL A   1      42.138  32.207  33.908  1.00  0.00     0.031 C 
ATOM     44  C   UNL A   1      37.195  31.132  32.186  1.00  0.00     0.029 A 
ATOM     45  N   UNL A   1      36.683  33.215  31.814  1.00  0.00    -0.354 N 
ATOM     46  C   UNL A   1      42.057  30.093  32.982  1.00  0.00     0.074 A 
ATOM     47  C   UNL A   1      42.651  30.965  33.986  1.00  0.00     0.031 C 
ATOM     48  C   UNL A   1      35.886  31.101  32.055  1.00  0.00     0.029 A 
ATOM     49  C   UNL A   1      35.643  32.312  31.447  1.00  0.00     0.049 A 
ATOM     50  H   UNL A   1      36.481  34.137  32.092  1.00  0.00     0.167 HD
ATOM     51  C   UNL A   1      41.648  28.768  33.062  1.00  0.00     0.031 A 
ATOM     52  C   UNL A   1      35.087  32.358  30.225  1.00  0.00     0.031 A 
ATOM     53  C   UNL A   1      40.464  28.358  32.219  1.00  0.00     0.049 A 
ATOM     54  C   UNL A   1      35.871  31.082  29.299  1.00  0.00     0.074 A 
ATOM     55  C   UNL A   1      39.231  27.811  32.594  1.00  0.00     0.029 A 
ATOM     56  N   UNL A   1      40.308  28.652  30.854  1.00  0.00    -0.354 N 
ATOM     57  N   UNL A   1      36.534  30.003  29.796  1.00  0.00    -0.248 NA
ATOM     58  C   UNL A   1      35.949  30.915  27.828  1.00  0.00     0.031 C 
ATOM     59  C   UNL A   1      38.340  27.798  31.484  1.00  0.00     0.029 A 
ATOM     60  C   UNL A   1      38.986  28.349  30.400  1.00  0.00     0.049 A 
ATOM     61  H   UNL A   1      41.018  29.021  30.283  1.00  0.00     0.167 HD
ATOM     62  C   UNL A   1      37.326  29.333  28.811  1.00  0.00     0.074 A 
ATOM     63  C   UNL A   1      36.795  29.891  27.587  1.00  0.00     0.031 C 
ATOM     64  C   UNL A   1      38.539  28.623  29.005  1.00  0.00     0.031 A 
BRANCH  51  65
ATOM     65  C   UNL A   1      42.121  27.751  34.138  1.00  0.00    -0.014 A 
ATOM     66  C   UNL A   1      43.165  26.848  33.817  1.00  0.00     0.009 A 
ATOM     67  C   UNL A   1      41.655  27.639  35.459  1.00  0.00     0.009 A 
ATOM     68  C   UNL A   1      43.684  25.906  34.721  1.00  0.00     0.001 A 
ATOM     69  C   UNL A   1      42.179  26.711  36.382  1.00  0.00     0.001 A 
ATOM     70  C   UNL A   1      43.197  25.844  36.014  1.00  0.00     0.000 A 
ENDBRANCH  51  65
BRANCH  52  71
ATOM     71  C   UNL A   1      34.701  33.921  30.364  1.00  0.00    -0.014 A 
ATOM     72  C   UNL A   1      34.265  34.706  29.261  1.00  0.00     0.009 A 
ATOM     73  C   UNL A   1      34.085  34.436  31.519  1.00  0.00     0.009 A 
ATOM     74  C   UNL A   1      33.320  35.802  29.372  1.00  0.00     0.001 A 
ATOM     75  C   UNL A   1      33.173  35.515  31.683  1.00  0.00     0.001 A 
ATOM     76  C   UNL A   1      32.752  36.189  30.580  1.00  0.00     0.000 A 
ENDBRANCH  52  71
BRANCH  64  77
ATOM     77  C   UNL A   1      39.601  28.252  27.913  1.00  0.00    -0.014 A 
ATOM     78  C   UNL A   1      40.413  29.138  27.186  1.00  0.00     0.009 A 
ATOM     79  C   UNL A   1      39.887  26.876  27.686  1.00  0.00     0.009 A 
ATOM     80  C   UNL A   1      41.282  28.682  26.165  1.00  0.00     0.001 A 
ATOM     81  C   UNL A   1      40.800  26.414  26.726  1.00  0.00     0.001 A 
ATOM     82  C   UNL A   1      41.448  27.323  25.913  1.00  0.00     0.000 A 
ENDBRANCH  64  77
ENDBRANCH  38  39
ENDBRANCH  31  33
ENDBRANCH  30  31
ENDBRANCH  29  30
ENDBRANCH   1  29
TORSDOF 15
ENDMDL
