MODEL 1
REMARK VINA RESULT:     -10.8      0.000      0.000
REMARK SMILES Cc1sc(-c2ccco2)nc1C(=O)N[C@@H](C(=O)OCCOC(=O)c1ccc(-c2c3nc(c(-c4ccccc4)c4ccc([nH]4)c(-c4ccccc4)c4nc(c(-c5ccccc5)c5ccc2[nH]5)C=C4)C=C3)cc1)C(C)C
REMARK SMILES IDX 19 1 18 2 16 3 17 4 15 5 14 6 12 7 13 8 11 10 1 11 2 12 3 13
REMARK SMILES IDX 4 14 10 15 5 16 6 17 9 18 7 19 8 20 72 21 73 22 74 23 20 24
REMARK SMILES IDX 21 25 22 26 23 27 24 28 25 29 71 30 26 31 70 32 27 33 28 34
REMARK SMILES IDX 29 35 64 36 30 37 69 38 63 39 65 40 31 41 68 42 62 43 61 44
REMARK SMILES IDX 32 46 54 47 39 48 53 49 40 50 43 51 52 52 66 53 41 54 42 55
REMARK SMILES IDX 51 57 67 58 44 59 33 60 34 61 38 62 35 63 37 64 36 65 55 66
REMARK SMILES IDX 56 67 60 68 57 69 59 70 58 71 45 72 46 73 50 74 47 75 49 76
REMARK SMILES IDX 48 77
REMARK H PARENT 14 9 65 45 43 56
REMARK Flexibility Score: inf
ROOT
ATOM      1  C   UNL A   1      33.086  29.705  25.690  1.00  0.00     0.274 C 
ENDROOT
BRANCH   1   2
ATOM      2  O   UNL A   1      33.526  28.490  25.043  1.00  0.00    -0.461 OA
BRANCH   2   3
ATOM      3  C   UNL A   1      33.302  28.363  23.700  1.00  0.00     0.329 C 
ATOM      4  O   UNL A   1      33.977  28.907  22.835  1.00  0.00    -0.250 OA
BRANCH   3   5
ATOM      5  C   UNL A   1      32.078  27.452  23.391  1.00  0.00     0.195 C 
BRANCH   5   6
ATOM      6  N   UNL A   1      32.246  26.917  22.048  1.00  0.00    -0.337 N 
ATOM      7  C   UNL A   1      32.870  25.772  21.618  1.00  0.00     0.271 C 
ATOM      8  O   UNL A   1      33.126  25.725  20.412  1.00  0.00    -0.267 OA
ATOM      9  H   UNL A   1      31.849  27.465  21.332  1.00  0.00     0.164 HD
BRANCH   7  10
ATOM     10  C   UNL A   1      33.117  24.609  22.496  1.00  0.00     0.142 A 
ATOM     11  C   UNL A   1      30.772  23.736  23.398  1.00  0.00     0.059 C 
ATOM     12  C   UNL A   1      32.245  23.752  23.171  1.00  0.00     0.035 A 
ATOM     13  S   UNL A   1      33.145  22.478  23.919  1.00  0.00    -0.115 S 
ATOM     14  C   UNL A   1      34.585  23.334  23.620  1.00  0.00     0.160 A 
ATOM     15  N   UNL A   1      34.461  24.377  22.837  1.00  0.00    -0.227 NA
BRANCH  14  16
ATOM     16  C   UNL A   1      35.808  22.998  24.284  1.00  0.00     0.162 A 
ATOM     17  C   UNL A   1      36.540  23.797  25.146  1.00  0.00     0.053 A 
ATOM     18  O   UNL A   1      36.407  21.766  24.211  1.00  0.00    -0.462 OA
ATOM     19  C   UNL A   1      37.612  23.015  25.636  1.00  0.00     0.043 A 
ATOM     20  C   UNL A   1      37.499  21.793  25.017  1.00  0.00     0.196 A 
ENDBRANCH  14  16
ENDBRANCH   7  10
ENDBRANCH   5   6
BRANCH   5  21
ATOM     21  C   UNL A   1      30.714  28.144  23.605  1.00  0.00     0.017 C 
ATOM     22  C   UNL A   1      30.387  29.119  22.466  1.00  0.00     0.010 C 
ATOM     23  C   UNL A   1      29.583  27.101  23.667  1.00  0.00     0.010 C 
ENDBRANCH   5  21
ENDBRANCH   3   5
ENDBRANCH   2   3
ENDBRANCH   1   2
BRANCH   1  24
ATOM     24  C   UNL A   1      33.573  29.752  27.136  1.00  0.00     0.275 C 
BRANCH  24  25
ATOM     25  O   UNL A   1      34.238  31.007  27.341  1.00  0.00    -0.458 OA
BRANCH  25  26
ATOM     26  C   UNL A   1      34.862  31.170  28.524  1.00  0.00     0.338 C 
ATOM     27  O   UNL A   1      34.466  31.787  29.505  1.00  0.00    -0.246 OA
BRANCH  26  28
ATOM     28  C   UNL A   1      36.112  30.397  28.503  1.00  0.00     0.060 A 
ATOM     29  C   UNL A   1      36.552  29.801  29.684  1.00  0.00     0.016 A 
ATOM     30  C   UNL A   1      36.909  30.353  27.362  1.00  0.00     0.016 A 
ATOM     31  C   UNL A   1      37.819  29.240  29.761  1.00  0.00     0.010 A 
ATOM     32  C   UNL A   1      38.145  29.700  27.415  1.00  0.00     0.010 A 
ATOM     33  C   UNL A   1      38.630  29.170  28.625  1.00  0.00    -0.014 A 
BRANCH  33  34
ATOM     34  C   UNL A   1      40.009  28.621  28.729  1.00  0.00     0.031 A 
ATOM     35  C   UNL A   1      41.126  29.511  29.199  1.00  0.00     0.074 A 
ATOM     36  C   UNL A   1      40.266  27.326  28.458  1.00  0.00     0.049 A 
ATOM     37  N   UNL A   1      42.418  29.310  29.152  1.00  0.00    -0.248 NA
ATOM     38  C   UNL A   1      40.738  30.800  29.794  1.00  0.00     0.031 C 
ATOM     39  C   UNL A   1      39.274  26.313  28.091  1.00  0.00     0.029 A 
ATOM     40  N   UNL A   1      41.454  26.637  28.464  1.00  0.00    -0.354 N 
ATOM     41  C   UNL A   1      42.997  30.476  29.638  1.00  0.00     0.074 A 
ATOM     42  C   UNL A   1      41.917  31.371  29.994  1.00  0.00     0.031 C 
ATOM     43  C   UNL A   1      39.887  25.127  27.951  1.00  0.00     0.029 A 
ATOM     44  C   UNL A   1      41.323  25.314  28.115  1.00  0.00     0.049 A 
ATOM     45  H   UNL A   1      42.317  27.050  28.697  1.00  0.00     0.167 HD
ATOM     46  C   UNL A   1      44.311  30.777  29.762  1.00  0.00     0.031 A 
ATOM     47  C   UNL A   1      42.257  24.368  27.896  1.00  0.00     0.031 A 
ATOM     48  C   UNL A   1      45.382  29.868  29.458  1.00  0.00     0.049 A 
ATOM     49  C   UNL A   1      43.709  24.738  27.987  1.00  0.00     0.074 A 
ATOM     50  C   UNL A   1      46.746  30.086  29.525  1.00  0.00     0.029 A 
ATOM     51  N   UNL A   1      45.204  28.556  29.052  1.00  0.00    -0.354 N 
ATOM     52  N   UNL A   1      44.250  25.881  28.333  1.00  0.00    -0.248 NA
ATOM     53  C   UNL A   1      44.680  23.694  27.625  1.00  0.00     0.031 C 
ATOM     54  C   UNL A   1      47.396  28.909  29.133  1.00  0.00     0.029 A 
ATOM     55  C   UNL A   1      46.433  27.952  28.857  1.00  0.00     0.049 A 
ATOM     56  H   UNL A   1      44.332  28.117  28.920  1.00  0.00     0.167 HD
ATOM     57  C   UNL A   1      45.621  25.696  28.228  1.00  0.00     0.074 A 
ATOM     58  C   UNL A   1      45.831  24.324  27.813  1.00  0.00     0.031 C 
ATOM     59  C   UNL A   1      46.619  26.587  28.443  1.00  0.00     0.031 A 
BRANCH  46  60
ATOM     60  C   UNL A   1      44.657  32.174  30.187  1.00  0.00    -0.014 A 
ATOM     61  C   UNL A   1      44.879  32.502  31.533  1.00  0.00     0.009 A 
ATOM     62  C   UNL A   1      44.780  33.175  29.211  1.00  0.00     0.009 A 
ATOM     63  C   UNL A   1      45.187  33.815  31.893  1.00  0.00     0.001 A 
ATOM     64  C   UNL A   1      45.110  34.481  29.572  1.00  0.00     0.001 A 
ATOM     65  C   UNL A   1      45.305  34.802  30.913  1.00  0.00     0.000 A 
ENDBRANCH  46  60
BRANCH  47  66
ATOM     66  C   UNL A   1      41.847  23.001  27.483  1.00  0.00    -0.014 A 
ATOM     67  C   UNL A   1      41.503  22.729  26.152  1.00  0.00     0.009 A 
ATOM     68  C   UNL A   1      41.793  21.960  28.425  1.00  0.00     0.009 A 
ATOM     69  C   UNL A   1      41.103  21.444  25.774  1.00  0.00     0.001 A 
ATOM     70  C   UNL A   1      41.421  20.672  28.039  1.00  0.00     0.001 A 
ATOM     71  C   UNL A   1      41.069  20.417  26.716  1.00  0.00     0.000 A 
ENDBRANCH  47  66
BRANCH  59  72
ATOM     72  C   UNL A   1      48.022  26.095  28.253  1.00  0.00    -0.014 A 
ATOM     73  C   UNL A   1      48.761  25.588  29.332  1.00  0.00     0.009 A 
ATOM     74  C   UNL A   1      48.599  26.112  26.974  1.00  0.00     0.009 A 
ATOM     75  C   UNL A   1      50.065  25.128  29.138  1.00  0.00     0.001 A 
ATOM     76  C   UNL A   1      49.895  25.632  26.780  1.00  0.00     0.001 A 
ATOM     77  C   UNL A   1      50.628  25.148  27.862  1.00  0.00     0.000 A 
ENDBRANCH  59  72
ENDBRANCH  33  34
ENDBRANCH  26  28
ENDBRANCH  25  26
ENDBRANCH  24  25
ENDBRANCH   1  24
TORSDOF 15
ENDMDL
MODEL 2
REMARK VINA RESULT:     -10.6      2.413      7.086
REMARK SMILES Cc1sc(-c2ccco2)nc1C(=O)N[C@@H](C(=O)OCCOC(=O)c1ccc(-c2c3nc(c(-c4ccccc4)c4ccc([nH]4)c(-c4ccccc4)c4nc(c(-c5ccccc5)c5ccc2[nH]5)C=C4)C=C3)cc1)C(C)C
REMARK SMILES IDX 19 1 18 2 16 3 17 4 15 5 14 6 12 7 13 8 11 10 1 11 2 12 3 13
REMARK SMILES IDX 4 14 10 15 5 16 6 17 9 18 7 19 8 20 72 21 73 22 74 23 20 24
REMARK SMILES IDX 21 25 22 26 23 27 24 28 25 29 71 30 26 31 70 32 27 33 28 34
REMARK SMILES IDX 29 35 64 36 30 37 69 38 63 39 65 40 31 41 68 42 62 43 61 44
REMARK SMILES IDX 32 46 54 47 39 48 53 49 40 50 43 51 52 52 66 53 41 54 42 55
REMARK SMILES IDX 51 57 67 58 44 59 33 60 34 61 38 62 35 63 37 64 36 65 55 66
REMARK SMILES IDX 56 67 60 68 57 69 59 70 58 71 45 72 46 73 50 74 47 75 49 76
REMARK SMILES IDX 48 77
REMARK H PARENT 14 9 65 45 43 56
REMARK Flexibility Score: inf
ROOT
ATOM      1  C   UNL A   1      35.131  21.657  26.475  1.00  0.00     0.274 C 
ENDROOT
BRANCH   1   2
ATOM      2  O   UNL A   1      34.628  22.972  26.145  1.00  0.00    -0.461 OA
BRANCH   2   3
ATOM      3  C   UNL A   1      33.315  23.241  26.416  1.00  0.00     0.329 C 
ATOM      4  O   UNL A   1      32.687  22.744  27.343  1.00  0.00    -0.250 OA
BRANCH   3   5
ATOM      5  C   UNL A   1      32.699  24.248  25.400  1.00  0.00     0.195 C 
BRANCH   5   6
ATOM      6  N   UNL A   1      31.297  24.432  25.747  1.00  0.00    -0.337 N 
ATOM      7  C   UNL A   1      30.603  25.573  26.067  1.00  0.00     0.271 C 
ATOM      8  O   UNL A   1      29.510  25.396  26.612  1.00  0.00    -0.267 OA
ATOM      9  H   UNL A   1      30.761  23.606  25.754  1.00  0.00     0.164 HD
BRANCH   7  10
ATOM     10  C   UNL A   1      31.055  26.927  25.684  1.00  0.00     0.142 A 
ATOM     11  C   UNL A   1      30.521  27.282  23.102  1.00  0.00     0.059 C 
ATOM     12  C   UNL A   1      30.962  27.632  24.482  1.00  0.00     0.035 A 
ATOM     13  S   UNL A   1      31.546  29.245  24.708  1.00  0.00    -0.115 S 
ATOM     14  C   UNL A   1      32.195  28.788  26.213  1.00  0.00     0.160 A 
ATOM     15  N   UNL A   1      31.836  27.602  26.639  1.00  0.00    -0.227 NA
BRANCH  14  16
ATOM     16  C   UNL A   1      33.160  29.599  26.890  1.00  0.00     0.162 A 
ATOM     17  C   UNL A   1      34.462  29.256  27.219  1.00  0.00     0.053 A 
ATOM     18  O   UNL A   1      32.945  30.904  27.257  1.00  0.00    -0.462 OA
ATOM     19  C   UNL A   1      35.068  30.401  27.784  1.00  0.00     0.043 A 
ATOM     20  C   UNL A   1      34.095  31.371  27.806  1.00  0.00     0.196 A 
ENDBRANCH  14  16
ENDBRANCH   7  10
ENDBRANCH   5   6
BRANCH   5  21
ATOM     21  C   UNL A   1      32.913  23.854  23.922  1.00  0.00     0.017 C 
ATOM     22  C   UNL A   1      31.581  23.705  23.175  1.00  0.00     0.010 C 
ATOM     23  C   UNL A   1      33.742  24.928  23.193  1.00  0.00     0.010 C 
ENDBRANCH   5  21
ENDBRANCH   3   5
ENDBRANCH   2   3
ENDBRANCH   1   2
BRANCH   1  24
ATOM     24  C   UNL A   1      35.746  20.993  25.246  1.00  0.00     0.275 C 
BRANCH  24  25
ATOM     25  O   UNL A   1      36.944  21.707  24.908  1.00  0.00    -0.458 OA
BRANCH  25  26
ATOM     26  C   UNL A   1      38.093  21.237  25.435  1.00  0.00     0.338 C 
ATOM     27  O   UNL A   1      38.540  20.099  25.371  1.00  0.00    -0.246 OA
BRANCH  26  28
ATOM     28  C   UNL A   1      38.812  22.357  26.060  1.00  0.00     0.060 A 
ATOM     29  C   UNL A   1      38.268  23.636  25.972  1.00  0.00     0.016 A 
ATOM     30  C   UNL A   1      40.071  22.173  26.627  1.00  0.00     0.016 A 
ATOM     31  C   UNL A   1      39.006  24.745  26.363  1.00  0.00     0.010 A 
ATOM     32  C   UNL A   1      40.773  23.282  27.110  1.00  0.00     0.010 A 
ATOM     33  C   UNL A   1      40.264  24.584  26.949  1.00  0.00    -0.014 A 
BRANCH  33  34
ATOM     34  C   UNL A   1      41.073  25.779  27.312  1.00  0.00     0.031 A 
ATOM     35  C   UNL A   1      40.526  26.770  28.302  1.00  0.00     0.074 A 
ATOM     36  C   UNL A   1      42.308  25.965  26.806  1.00  0.00     0.049 A 
ATOM     37  N   UNL A   1      40.952  27.973  28.589  1.00  0.00    -0.248 NA
ATOM     38  C   UNL A   1      39.338  26.354  29.066  1.00  0.00     0.031 C 
ATOM     39  C   UNL A   1      43.017  25.043  25.916  1.00  0.00     0.029 A 
ATOM     40  N   UNL A   1      43.195  26.998  26.986  1.00  0.00    -0.354 N 
ATOM     41  C   UNL A   1      40.043  28.485  29.506  1.00  0.00     0.074 A 
ATOM     42  C   UNL A   1      39.053  27.456  29.744  1.00  0.00     0.031 C 
ATOM     43  C   UNL A   1      44.242  25.531  25.664  1.00  0.00     0.029 A 
ATOM     44  C   UNL A   1      44.368  26.842  26.287  1.00  0.00     0.049 A 
ATOM     45  H   UNL A   1      43.009  27.775  27.561  1.00  0.00     0.167 HD
ATOM     46  C   UNL A   1      40.027  29.708  30.085  1.00  0.00     0.031 A 
ATOM     47  C   UNL A   1      45.406  27.683  26.119  1.00  0.00     0.031 A 
ATOM     48  C   UNL A   1      41.039  30.710  29.888  1.00  0.00     0.049 A 
ATOM     49  C   UNL A   1      45.344  29.055  26.726  1.00  0.00     0.074 A 
ATOM     50  C   UNL A   1      41.100  31.990  30.410  1.00  0.00     0.029 A 
ATOM     51  N   UNL A   1      42.181  30.530  29.126  1.00  0.00    -0.354 N 
ATOM     52  N   UNL A   1      44.420  29.575  27.497  1.00  0.00    -0.248 NA
ATOM     53  C   UNL A   1      46.454  29.967  26.412  1.00  0.00     0.031 C 
ATOM     54  C   UNL A   1      42.271  32.596  29.938  1.00  0.00     0.029 A 
ATOM     55  C   UNL A   1      42.952  31.679  29.155  1.00  0.00     0.049 A 
ATOM     56  H   UNL A   1      42.410  29.708  28.635  1.00  0.00     0.167 HD
ATOM     57  C   UNL A   1      44.835  30.874  27.759  1.00  0.00     0.074 A 
ATOM     58  C   UNL A   1      46.105  31.054  27.087  1.00  0.00     0.031 C 
ATOM     59  C   UNL A   1      44.212  31.837  28.479  1.00  0.00     0.031 A 
BRANCH  46  60
ATOM     60  C   UNL A   1      38.839  30.049  30.937  1.00  0.00    -0.014 A 
ATOM     61  C   UNL A   1      37.659  30.569  30.385  1.00  0.00     0.009 A 
ATOM     62  C   UNL A   1      38.905  29.825  32.321  1.00  0.00     0.009 A 
ATOM     63  C   UNL A   1      36.578  30.886  31.210  1.00  0.00     0.001 A 
ATOM     64  C   UNL A   1      37.815  30.122  33.140  1.00  0.00     0.001 A 
ATOM     65  C   UNL A   1      36.656  30.660  32.585  1.00  0.00     0.000 A 
ENDBRANCH  46  60
BRANCH  47  66
ATOM     66  C   UNL A   1      46.557  27.283  25.267  1.00  0.00    -0.014 A 
ATOM     67  C   UNL A   1      47.506  26.364  25.735  1.00  0.00     0.009 A 
ATOM     68  C   UNL A   1      46.713  27.826  23.981  1.00  0.00     0.009 A 
ATOM     69  C   UNL A   1      48.595  26.005  24.935  1.00  0.00     0.001 A 
ATOM     70  C   UNL A   1      47.785  27.444  23.175  1.00  0.00     0.001 A 
ATOM     71  C   UNL A   1      48.729  26.539  23.655  1.00  0.00     0.000 A 
ENDBRANCH  47  66
BRANCH  59  72
ATOM     72  C   UNL A   1      44.909  33.159  28.593  1.00  0.00    -0.014 A 
ATOM     73  C   UNL A   1      44.600  34.214  27.721  1.00  0.00     0.009 A 
ATOM     74  C   UNL A   1      45.862  33.360  29.603  1.00  0.00     0.009 A 
ATOM     75  C   UNL A   1      45.253  35.441  27.843  1.00  0.00     0.001 A 
ATOM     76  C   UNL A   1      46.497  34.595  29.735  1.00  0.00     0.001 A 
ATOM     77  C   UNL A   1      46.198  35.631  28.852  1.00  0.00     0.000 A 
ENDBRANCH  59  72
ENDBRANCH  33  34
ENDBRANCH  26  28
ENDBRANCH  25  26
ENDBRANCH  24  25
ENDBRANCH   1  24
TORSDOF 15
ENDMDL
MODEL 3
REMARK VINA RESULT:     -10.5      3.909      6.976
REMARK SMILES Cc1sc(-c2ccco2)nc1C(=O)N[C@@H](C(=O)OCCOC(=O)c1ccc(-c2c3nc(c(-c4ccccc4)c4ccc([nH]4)c(-c4ccccc4)c4nc(c(-c5ccccc5)c5ccc2[nH]5)C=C4)C=C3)cc1)C(C)C
REMARK SMILES IDX 19 1 18 2 16 3 17 4 15 5 14 6 12 7 13 8 11 10 1 11 2 12 3 13
REMARK SMILES IDX 4 14 10 15 5 16 6 17 9 18 7 19 8 20 72 21 73 22 74 23 20 24
REMARK SMILES IDX 21 25 22 26 23 27 24 28 25 29 71 30 26 31 70 32 27 33 28 34
REMARK SMILES IDX 29 35 64 36 30 37 69 38 63 39 65 40 31 41 68 42 62 43 61 44
REMARK SMILES IDX 32 46 54 47 39 48 53 49 40 50 43 51 52 52 66 53 41 54 42 55
REMARK SMILES IDX 51 57 67 58 44 59 33 60 34 61 38 62 35 63 37 64 36 65 55 66
REMARK SMILES IDX 56 67 60 68 57 69 59 70 58 71 45 72 46 73 50 74 47 75 49 76
REMARK SMILES IDX 48 77
REMARK H PARENT 14 9 65 45 43 56
REMARK Flexibility Score: inf
ROOT
ATOM      1  C   UNL A   1      31.589  28.830  24.286  1.00  0.00     0.274 C 
ENDROOT
BRANCH   1   2
ATOM      2  O   UNL A   1      31.897  27.519  24.811  1.00  0.00    -0.461 OA
BRANCH   2   3
ATOM      3  C   UNL A   1      33.053  26.918  24.395  1.00  0.00     0.329 C 
ATOM      4  O   UNL A   1      33.996  27.516  23.892  1.00  0.00    -0.250 OA
BRANCH   3   5
ATOM      5  C   UNL A   1      33.032  25.378  24.623  1.00  0.00     0.195 C 
BRANCH   5   6
ATOM      6  N   UNL A   1      32.971  24.734  23.320  1.00  0.00    -0.337 N 
ATOM      7  C   UNL A   1      33.631  23.628  22.842  1.00  0.00     0.271 C 
ATOM      8  O   UNL A   1      33.620  23.490  21.616  1.00  0.00    -0.267 OA
ATOM      9  H   UNL A   1      32.357  25.159  22.677  1.00  0.00     0.164 HD
BRANCH   7  10
ATOM     10  C   UNL A   1      34.215  22.594  23.722  1.00  0.00     0.142 A 
ATOM     11  C   UNL A   1      36.724  23.289  24.269  1.00  0.00     0.059 C 
ATOM     12  C   UNL A   1      35.462  22.499  24.343  1.00  0.00     0.035 A 
ATOM     13  S   UNL A   1      35.491  21.113  25.378  1.00  0.00    -0.115 S 
ATOM     14  C   UNL A   1      34.047  20.563  24.664  1.00  0.00     0.160 A 
ATOM     15  N   UNL A   1      33.453  21.423  23.875  1.00  0.00    -0.227 NA
BRANCH  14  16
ATOM     16  C   UNL A   1      33.598  19.214  24.827  1.00  0.00     0.162 A 
ATOM     17  C   UNL A   1      34.087  18.085  24.189  1.00  0.00     0.053 A 
ATOM     18  O   UNL A   1      32.634  18.829  25.724  1.00  0.00    -0.462 OA
ATOM     19  C   UNL A   1      33.412  16.969  24.736  1.00  0.00     0.043 A 
ATOM     20  C   UNL A   1      32.521  17.478  25.649  1.00  0.00     0.196 A 
ENDBRANCH  14  16
ENDBRANCH   7  10
ENDBRANCH   5   6
BRANCH   5  21
ATOM     21  C   UNL A   1      31.925  24.905  25.590  1.00  0.00     0.017 C 
ATOM     22  C   UNL A   1      30.789  24.190  24.846  1.00  0.00     0.010 C 
ATOM     23  C   UNL A   1      32.498  23.922  26.627  1.00  0.00     0.010 C 
ENDBRANCH   5  21
ENDBRANCH   3   5
ENDBRANCH   2   3
ENDBRANCH   1   2
BRANCH   1  24
ATOM     24  C   UNL A   1      31.544  29.862  25.410  1.00  0.00     0.275 C 
BRANCH  24  25
ATOM     25  O   UNL A   1      32.892  30.260  25.702  1.00  0.00    -0.458 OA
BRANCH  25  26
ATOM     26  C   UNL A   1      33.059  31.088  26.753  1.00  0.00     0.338 C 
ATOM     27  O   UNL A   1      32.247  31.868  27.233  1.00  0.00    -0.246 OA
BRANCH  26  28
ATOM     28  C   UNL A   1      34.394  30.854  27.324  1.00  0.00     0.060 A 
ATOM     29  C   UNL A   1      34.772  29.550  27.633  1.00  0.00     0.016 A 
ATOM     30  C   UNL A   1      35.225  31.920  27.663  1.00  0.00     0.016 A 
ATOM     31  C   UNL A   1      35.929  29.304  28.358  1.00  0.00     0.010 A 
ATOM     32  C   UNL A   1      36.439  31.662  28.308  1.00  0.00     0.010 A 
ATOM     33  C   UNL A   1      36.787  30.354  28.696  1.00  0.00    -0.014 A 
BRANCH  33  34
ATOM     34  C   UNL A   1      37.995  30.090  29.523  1.00  0.00     0.031 A 
ATOM     35  C   UNL A   1      39.136  29.305  28.937  1.00  0.00     0.074 A 
ATOM     36  C   UNL A   1      38.107  30.585  30.772  1.00  0.00     0.049 A 
ATOM     37  N   UNL A   1      40.169  28.774  29.539  1.00  0.00    -0.248 NA
ATOM     38  C   UNL A   1      39.105  29.080  27.483  1.00  0.00     0.031 C 
ATOM     39  C   UNL A   1      37.134  31.450  31.442  1.00  0.00     0.029 A 
ATOM     40  N   UNL A   1      39.110  30.436  31.699  1.00  0.00    -0.354 N 
ATOM     41  C   UNL A   1      40.869  28.091  28.552  1.00  0.00     0.074 A 
ATOM     42  C   UNL A   1      40.154  28.289  27.309  1.00  0.00     0.031 C 
ATOM     43  C   UNL A   1      37.606  31.789  32.652  1.00  0.00     0.029 A 
ATOM     44  C   UNL A   1      38.862  31.086  32.884  1.00  0.00     0.049 A 
ATOM     45  H   UNL A   1      39.927  29.915  31.530  1.00  0.00     0.167 HD
ATOM     46  C   UNL A   1      41.996  27.351  28.675  1.00  0.00     0.031 A 
ATOM     47  C   UNL A   1      39.539  31.075  34.048  1.00  0.00     0.031 A 
ATOM     48  C   UNL A   1      42.733  27.199  29.899  1.00  0.00     0.049 A 
ATOM     49  C   UNL A   1      40.757  30.207  34.179  1.00  0.00     0.074 A 
ATOM     50  C   UNL A   1      43.873  26.450  30.133  1.00  0.00     0.029 A 
ATOM     51  N   UNL A   1      42.414  27.829  31.090  1.00  0.00    -0.354 N 
ATOM     52  N   UNL A   1      41.344  29.467  33.271  1.00  0.00    -0.248 NA
ATOM     53  C   UNL A   1      41.386  30.148  35.507  1.00  0.00     0.031 C 
ATOM     54  C   UNL A   1      44.229  26.608  31.478  1.00  0.00     0.029 A 
ATOM     55  C   UNL A   1      43.330  27.482  32.067  1.00  0.00     0.049 A 
ATOM     56  H   UNL A   1      41.648  28.433  31.223  1.00  0.00     0.167 HD
ATOM     57  C   UNL A   1      42.409  28.853  33.915  1.00  0.00     0.074 A 
ATOM     58  C   UNL A   1      42.403  29.327  35.284  1.00  0.00     0.031 C 
ATOM     59  C   UNL A   1      43.305  27.964  33.422  1.00  0.00     0.031 A 
BRANCH  46  60
ATOM     60  C   UNL A   1      42.460  26.601  27.461  1.00  0.00    -0.014 A 
ATOM     61  C   UNL A   1      43.388  27.149  26.564  1.00  0.00     0.009 A 
ATOM     62  C   UNL A   1      41.964  25.309  27.226  1.00  0.00     0.009 A 
ATOM     63  C   UNL A   1      43.788  26.426  25.439  1.00  0.00     0.001 A 
ATOM     64  C   UNL A   1      42.382  24.581  26.112  1.00  0.00     0.001 A 
ATOM     65  C   UNL A   1      43.287  25.142  25.215  1.00  0.00     0.000 A 
ENDBRANCH  46  60
BRANCH  47  66
ATOM     66  C   UNL A   1      39.029  31.846  35.212  1.00  0.00    -0.014 A 
ATOM     67  C   UNL A   1      38.219  31.232  36.177  1.00  0.00     0.009 A 
ATOM     68  C   UNL A   1      39.349  33.206  35.358  1.00  0.00     0.009 A 
ATOM     69  C   UNL A   1      37.730  31.968  37.260  1.00  0.00     0.001 A 
ATOM     70  C   UNL A   1      38.883  33.931  36.456  1.00  0.00     0.001 A 
ATOM     71  C   UNL A   1      38.068  33.313  37.401  1.00  0.00     0.000 A 
ENDBRANCH  47  66
BRANCH  59  72
ATOM     72  C   UNL A   1      44.359  27.468  34.364  1.00  0.00    -0.014 A 
ATOM     73  C   UNL A   1      44.164  26.299  35.115  1.00  0.00     0.009 A 
ATOM     74  C   UNL A   1      45.575  28.160  34.478  1.00  0.00     0.009 A 
ATOM     75  C   UNL A   1      45.158  25.846  35.983  1.00  0.00     0.001 A 
ATOM     76  C   UNL A   1      46.574  27.693  35.332  1.00  0.00     0.001 A 
ATOM     77  C   UNL A   1      46.363  26.541  36.088  1.00  0.00     0.000 A 
ENDBRANCH  59  72
ENDBRANCH  33  34
ENDBRANCH  26  28
ENDBRANCH  25  26
ENDBRANCH  24  25
ENDBRANCH   1  24
TORSDOF 15
ENDMDL
