MODEL 1
REMARK VINA RESULT:      -9.7      0.000      0.000
REMARK SMILES CC(C)(C)OC(=O)[C@H]1CC[C@]1([NH3+])C(=O)OCCOC(=O)c1ccc(-c2c3nc(c(-c4ccccc4)c4ccc([nH]4)c(-c4ccccc4)c4nc(c(-c5ccccc5)c5ccc2[nH]5)C=C4)C=C3)cc1
REMARK SMILES IDX 16 1 15 2 13 3 14 4 11 5 8 6 9 7 10 8 6 9 7 10 5 11 2 12
REMARK SMILES IDX 1 13 3 14 4 15 12 16 17 20 18 21 19 22 20 23 21 24 22 25
REMARK SMILES IDX 68 26 23 27 67 28 24 29 25 30 26 31 61 32 27 33 66 34 60 35
REMARK SMILES IDX 62 36 28 37 65 38 59 39 58 40 29 42 51 43 36 44 50 45 37 46
REMARK SMILES IDX 40 47 49 48 63 49 38 50 39 51 48 53 64 54 41 55 30 56 31 57
REMARK SMILES IDX 35 58 32 59 34 60 33 61 52 62 53 63 57 64 54 65 56 66 55 67
REMARK SMILES IDX 42 68 43 69 47 70 44 71 46 72 45 73
REMARK H PARENT 12 17 12 18 12 19 62 41 40 52
REMARK Flexibility Score: inf
ROOT
ATOM      1  C   UNL A   1      31.017  29.523  24.500  1.00  0.00     0.274 C 
ENDROOT
BRANCH   1   2
ATOM      2  O   UNL A   1      30.867  28.130  24.157  1.00  0.00    -0.457 OA
BRANCH   2   3
ATOM      3  C   UNL A   1      30.904  27.826  22.824  1.00  0.00     0.369 C 
ATOM      4  O   UNL A   1      30.089  28.261  22.008  1.00  0.00    -0.245 OA
BRANCH   3   5
ATOM      5  C   UNL A   1      32.088  26.839  22.457  1.00  0.00     0.206 C 
ATOM      6  C   UNL A   1      32.746  25.969  23.581  1.00  0.00     0.172 C 
ATOM      7  C   UNL A   1      33.804  27.110  23.704  1.00  0.00     0.030 C 
ATOM      8  C   UNL A   1      33.485  27.492  22.248  1.00  0.00     0.083 C 
BRANCH   6   9
ATOM      9  C   UNL A   1      33.396  24.580  23.385  1.00  0.00     0.316 C 
ATOM     10  O   UNL A   1      34.111  24.302  22.422  1.00  0.00    -0.252 OA
BRANCH   9  11
ATOM     11  O   UNL A   1      33.069  23.684  24.354  1.00  0.00    -0.460 OA
BRANCH  11  12
ATOM     12  C   UNL A   1      34.067  23.177  25.276  1.00  0.00     0.104 C 
ATOM     13  C   UNL A   1      33.271  22.819  26.539  1.00  0.00     0.056 C 
ATOM     14  C   UNL A   1      35.108  24.241  25.635  1.00  0.00     0.056 C 
ATOM     15  C   UNL A   1      34.708  21.901  24.719  1.00  0.00     0.056 C 
ENDBRANCH  11  12
ENDBRANCH   9  11
ENDBRANCH   6   9
BRANCH   5  16
ATOM     16  N   UNL A   1      31.782  26.079  21.231  1.00  0.00    -0.343 N 
ATOM     17  H   UNL A   1      31.922  25.084  21.404  1.00  0.00     0.345 HD
ATOM     18  H   UNL A   1      32.402  26.382  20.478  1.00  0.00     0.345 HD
ATOM     19  H   UNL A   1      30.812  26.244  20.960  1.00  0.00     0.345 HD
ENDBRANCH   5  16
ENDBRANCH   3   5
ENDBRANCH   2   3
ENDBRANCH   1   2
BRANCH   1  20
ATOM     20  C   UNL A   1      31.562  29.663  25.917  1.00  0.00     0.275 C 
BRANCH  20  21
ATOM     21  O   UNL A   1      32.863  30.273  25.863  1.00  0.00    -0.458 OA
BRANCH  21  22
ATOM     22  C   UNL A   1      33.143  31.153  26.847  1.00  0.00     0.338 C 
ATOM     23  O   UNL A   1      32.437  32.067  27.252  1.00  0.00    -0.246 OA
BRANCH  22  24
ATOM     24  C   UNL A   1      34.470  30.861  27.415  1.00  0.00     0.060 A 
ATOM     25  C   UNL A   1      34.840  29.547  27.701  1.00  0.00     0.016 A 
ATOM     26  C   UNL A   1      35.300  31.918  27.786  1.00  0.00     0.016 A 
ATOM     27  C   UNL A   1      35.984  29.294  28.454  1.00  0.00     0.010 A 
ATOM     28  C   UNL A   1      36.503  31.653  28.445  1.00  0.00     0.010 A 
ATOM     29  C   UNL A   1      36.841  30.341  28.823  1.00  0.00    -0.014 A 
BRANCH  29  30
ATOM     30  C   UNL A   1      38.068  30.084  29.627  1.00  0.00     0.031 A 
ATOM     31  C   UNL A   1      39.200  29.276  29.048  1.00  0.00     0.074 A 
ATOM     32  C   UNL A   1      38.178  30.563  30.882  1.00  0.00     0.049 A 
ATOM     33  N   UNL A   1      40.238  28.755  29.653  1.00  0.00    -0.248 NA
ATOM     34  C   UNL A   1      39.151  29.004  27.602  1.00  0.00     0.031 C 
ATOM     35  C   UNL A   1      37.194  31.403  31.567  1.00  0.00     0.029 A 
ATOM     36  N   UNL A   1      39.181  30.408  31.809  1.00  0.00    -0.354 N 
ATOM     37  C   UNL A   1      40.924  28.037  28.680  1.00  0.00     0.074 A 
ATOM     38  C   UNL A   1      40.194  28.200  27.441  1.00  0.00     0.031 C 
ATOM     39  C   UNL A   1      37.660  31.727  32.782  1.00  0.00     0.029 A 
ATOM     40  C   UNL A   1      38.929  31.042  33.000  1.00  0.00     0.049 A 
ATOM     41  H   UNL A   1      40.001  29.893  31.634  1.00  0.00     0.167 HD
ATOM     42  C   UNL A   1      42.053  27.301  28.809  1.00  0.00     0.031 A 
ATOM     43  C   UNL A   1      39.612  31.040  34.160  1.00  0.00     0.031 A 
ATOM     44  C   UNL A   1      42.813  27.179  30.024  1.00  0.00     0.049 A 
ATOM     45  C   UNL A   1      40.852  30.205  34.285  1.00  0.00     0.074 A 
ATOM     46  C   UNL A   1      43.972  26.456  30.250  1.00  0.00     0.029 A 
ATOM     47  N   UNL A   1      42.503  27.820  31.212  1.00  0.00    -0.354 N 
ATOM     48  N   UNL A   1      41.438  29.460  33.381  1.00  0.00    -0.248 NA
ATOM     49  C   UNL A   1      41.508  30.192  35.600  1.00  0.00     0.031 C 
ATOM     50  C   UNL A   1      44.352  26.642  31.584  1.00  0.00     0.029 A 
ATOM     51  C   UNL A   1      43.446  27.507  32.176  1.00  0.00     0.049 A 
ATOM     52  H   UNL A   1      41.728  28.411  31.351  1.00  0.00     0.167 HD
ATOM     53  C   UNL A   1      42.530  28.886  34.018  1.00  0.00     0.074 A 
ATOM     54  C   UNL A   1      42.539  29.389  35.376  1.00  0.00     0.031 C 
ATOM     55  C   UNL A   1      43.437  28.011  33.523  1.00  0.00     0.031 A 
BRANCH  42  56
ATOM     56  C   UNL A   1      42.514  26.526  27.608  1.00  0.00    -0.014 A 
ATOM     57  C   UNL A   1      42.039  25.235  27.340  1.00  0.00     0.009 A 
ATOM     58  C   UNL A   1      43.415  27.121  26.711  1.00  0.00     0.009 A 
ATOM     59  C   UNL A   1      42.477  24.544  26.207  1.00  0.00     0.001 A 
ATOM     60  C   UNL A   1      43.835  26.438  25.569  1.00  0.00     0.001 A 
ATOM     61  C   UNL A   1      43.371  25.147  25.322  1.00  0.00     0.000 A 
ENDBRANCH  42  56
BRANCH  43  62
ATOM     62  C   UNL A   1      39.099  31.814  35.317  1.00  0.00    -0.014 A 
ATOM     63  C   UNL A   1      39.408  33.175  35.453  1.00  0.00     0.009 A 
ATOM     64  C   UNL A   1      38.285  31.198  36.280  1.00  0.00     0.009 A 
ATOM     65  C   UNL A   1      38.918  33.903  36.539  1.00  0.00     0.001 A 
ATOM     66  C   UNL A   1      37.775  31.935  37.351  1.00  0.00     0.001 A 
ATOM     67  C   UNL A   1      38.097  33.285  37.482  1.00  0.00     0.000 A 
ENDBRANCH  43  62
BRANCH  55  68
ATOM     68  C   UNL A   1      44.522  27.559  34.454  1.00  0.00    -0.014 A 
ATOM     69  C   UNL A   1      44.365  26.403  35.233  1.00  0.00     0.009 A 
ATOM     70  C   UNL A   1      45.719  28.285  34.536  1.00  0.00     0.009 A 
ATOM     71  C   UNL A   1      45.382  25.996  36.098  1.00  0.00     0.001 A 
ATOM     72  C   UNL A   1      46.740  27.865  35.389  1.00  0.00     0.001 A 
ATOM     73  C   UNL A   1      46.568  26.726  36.175  1.00  0.00     0.000 A 
ENDBRANCH  55  68
ENDBRANCH  29  30
ENDBRANCH  22  24
ENDBRANCH  21  22
ENDBRANCH  20  21
ENDBRANCH   1  20
TORSDOF 15
ENDMDL
MODEL 2
REMARK VINA RESULT:      -9.7      4.108      8.981
REMARK SMILES CC(C)(C)OC(=O)[C@H]1CC[C@]1([NH3+])C(=O)OCCOC(=O)c1ccc(-c2c3nc(c(-c4ccccc4)c4ccc([nH]4)c(-c4ccccc4)c4nc(c(-c5ccccc5)c5ccc2[nH]5)C=C4)C=C3)cc1
REMARK SMILES IDX 16 1 15 2 13 3 14 4 11 5 8 6 9 7 10 8 6 9 7 10 5 11 2 12
REMARK SMILES IDX 1 13 3 14 4 15 12 16 17 20 18 21 19 22 20 23 21 24 22 25
REMARK SMILES IDX 68 26 23 27 67 28 24 29 25 30 26 31 61 32 27 33 66 34 60 35
REMARK SMILES IDX 62 36 28 37 65 38 59 39 58 40 29 42 51 43 36 44 50 45 37 46
REMARK SMILES IDX 40 47 49 48 63 49 38 50 39 51 48 53 64 54 41 55 30 56 31 57
REMARK SMILES IDX 35 58 32 59 34 60 33 61 52 62 53 63 57 64 54 65 56 66 55 67
REMARK SMILES IDX 42 68 43 69 47 70 44 71 46 72 45 73
REMARK H PARENT 12 17 12 18 12 19 62 41 40 52
REMARK Flexibility Score: inf
ROOT
ATOM      1  C   UNL A   1      33.458  34.711  28.768  1.00  0.00     0.274 C 
ENDROOT
BRANCH   1   2
ATOM      2  O   UNL A   1      33.341  34.211  30.116  1.00  0.00    -0.457 OA
BRANCH   2   3
ATOM      3  C   UNL A   1      33.723  35.065  31.115  1.00  0.00     0.369 C 
ATOM      4  O   UNL A   1      33.129  36.114  31.371  1.00  0.00    -0.245 OA
BRANCH   3   5
ATOM      5  C   UNL A   1      35.019  34.569  31.879  1.00  0.00     0.206 C 
ATOM      6  C   UNL A   1      34.896  33.435  32.954  1.00  0.00     0.172 C 
ATOM      7  C   UNL A   1      34.780  34.584  34.004  1.00  0.00     0.030 C 
ATOM      8  C   UNL A   1      35.537  35.492  33.019  1.00  0.00     0.083 C 
BRANCH   6   9
ATOM      9  C   UNL A   1      35.997  32.413  33.318  1.00  0.00     0.316 C 
ATOM     10  O   UNL A   1      36.458  31.604  32.513  1.00  0.00    -0.252 OA
BRANCH   9  11
ATOM     11  O   UNL A   1      36.378  32.466  34.623  1.00  0.00    -0.460 OA
BRANCH  11  12
ATOM     12  C   UNL A   1      37.754  32.734  34.994  1.00  0.00     0.104 C 
ATOM     13  C   UNL A   1      37.646  33.560  36.283  1.00  0.00     0.056 C 
ATOM     14  C   UNL A   1      38.480  33.568  33.934  1.00  0.00     0.056 C 
ATOM     15  C   UNL A   1      38.487  31.425  35.307  1.00  0.00     0.056 C 
ENDBRANCH  11  12
ENDBRANCH   9  11
ENDBRANCH   6   9
BRANCH   5  16
ATOM     16  N   UNL A   1      36.141  34.370  30.944  1.00  0.00    -0.343 N 
ATOM     17  H   UNL A   1      36.437  35.271  30.570  1.00  0.00     0.345 HD
ATOM     18  H   UNL A   1      35.843  33.766  30.176  1.00  0.00     0.345 HD
ATOM     19  H   UNL A   1      36.921  33.933  31.436  1.00  0.00     0.345 HD
ENDBRANCH   5  16
ENDBRANCH   3   5
ENDBRANCH   2   3
ENDBRANCH   1   2
BRANCH   1  20
ATOM     20  C   UNL A   1      34.199  33.705  27.894  1.00  0.00     0.275 C 
BRANCH  20  21
ATOM     21  O   UNL A   1      34.716  32.651  28.725  1.00  0.00    -0.458 OA
BRANCH  21  22
ATOM     22  C   UNL A   1      34.602  31.401  28.230  1.00  0.00     0.338 C 
ATOM     23  O   UNL A   1      33.656  30.926  27.617  1.00  0.00    -0.246 OA
BRANCH  22  24
ATOM     24  C   UNL A   1      35.825  30.635  28.524  1.00  0.00     0.060 A 
ATOM     25  C   UNL A   1      35.853  29.734  29.589  1.00  0.00     0.016 A 
ATOM     26  C   UNL A   1      36.991  30.914  27.814  1.00  0.00     0.016 A 
ATOM     27  C   UNL A   1      37.066  29.196  30.014  1.00  0.00     0.010 A 
ATOM     28  C   UNL A   1      38.186  30.287  28.173  1.00  0.00     0.010 A 
ATOM     29  C   UNL A   1      38.247  29.451  29.303  1.00  0.00    -0.014 A 
BRANCH  29  30
ATOM     30  C   UNL A   1      39.550  28.881  29.747  1.00  0.00     0.031 A 
ATOM     31  C   UNL A   1      40.376  29.594  30.786  1.00  0.00     0.074 A 
ATOM     32  C   UNL A   1      40.009  27.728  29.220  1.00  0.00     0.049 A 
ATOM     33  N   UNL A   1      41.621  29.389  31.135  1.00  0.00    -0.248 NA
ATOM     34  C   UNL A   1      39.721  30.692  31.516  1.00  0.00     0.031 C 
ATOM     35  C   UNL A   1      39.306  26.893  28.245  1.00  0.00     0.029 A 
ATOM     36  N   UNL A   1      41.188  27.057  29.441  1.00  0.00    -0.354 N 
ATOM     37  C   UNL A   1      41.920  30.374  32.070  1.00  0.00     0.074 A 
ATOM     38  C   UNL A   1      40.722  31.167  32.246  1.00  0.00     0.031 C 
ATOM     39  C   UNL A   1      40.043  25.803  27.986  1.00  0.00     0.029 A 
ATOM     40  C   UNL A   1      41.310  25.906  28.702  1.00  0.00     0.049 A 
ATOM     41  H   UNL A   1      41.877  27.371  30.069  1.00  0.00     0.167 HD
ATOM     42  C   UNL A   1      43.088  30.602  32.716  1.00  0.00     0.031 A 
ATOM     43  C   UNL A   1      42.339  25.049  28.572  1.00  0.00     0.031 A 
ATOM     44  C   UNL A   1      44.264  29.784  32.588  1.00  0.00     0.049 A 
ATOM     45  C   UNL A   1      43.628  25.329  29.285  1.00  0.00     0.074 A 
ATOM     46  C   UNL A   1      45.495  29.937  33.204  1.00  0.00     0.029 A 
ATOM     47  N   UNL A   1      44.347  28.643  31.806  1.00  0.00    -0.354 N 
ATOM     48  N   UNL A   1      43.924  26.315  30.096  1.00  0.00    -0.248 NA
ATOM     49  C   UNL A   1      44.734  24.392  29.041  1.00  0.00     0.031 C 
ATOM     50  C   UNL A   1      46.330  28.899  32.778  1.00  0.00     0.029 A 
ATOM     51  C   UNL A   1      45.607  28.083  31.922  1.00  0.00     0.049 A 
ATOM     52  H   UNL A   1      43.617  28.283  31.252  1.00  0.00     0.167 HD
ATOM     53  C   UNL A   1      45.250  26.119  30.457  1.00  0.00     0.074 A 
ATOM     54  C   UNL A   1      45.693  24.908  29.797  1.00  0.00     0.031 C 
ATOM     55  C   UNL A   1      46.033  26.882  31.256  1.00  0.00     0.031 A 
BRANCH  42  56
ATOM     56  C   UNL A   1      43.167  31.819  33.593  1.00  0.00    -0.014 A 
ATOM     57  C   UNL A   1      43.657  33.040  33.111  1.00  0.00     0.009 A 
ATOM     58  C   UNL A   1      42.704  31.743  34.916  1.00  0.00     0.009 A 
ATOM     59  C   UNL A   1      43.707  34.158  33.948  1.00  0.00     0.001 A 
ATOM     60  C   UNL A   1      42.735  32.866  35.743  1.00  0.00     0.001 A 
ATOM     61  C   UNL A   1      43.243  34.071  35.261  1.00  0.00     0.000 A 
ENDBRANCH  42  56
BRANCH  43  62
ATOM     62  C   UNL A   1      42.206  23.871  27.680  1.00  0.00    -0.014 A 
ATOM     63  C   UNL A   1      41.628  22.684  28.152  1.00  0.00     0.009 A 
ATOM     64  C   UNL A   1      42.642  23.935  26.347  1.00  0.00     0.009 A 
ATOM     65  C   UNL A   1      41.498  21.580  27.308  1.00  0.00     0.001 A 
ATOM     66  C   UNL A   1      42.487  22.838  25.498  1.00  0.00     0.001 A 
ATOM     67  C   UNL A   1      41.920  21.659  25.982  1.00  0.00     0.000 A 
ENDBRANCH  43  62
BRANCH  55  68
ATOM     68  C   UNL A   1      47.441  26.416  31.470  1.00  0.00    -0.014 A 
ATOM     69  C   UNL A   1      47.781  25.649  32.595  1.00  0.00     0.009 A 
ATOM     70  C   UNL A   1      48.431  26.728  30.527  1.00  0.00     0.009 A 
ATOM     71  C   UNL A   1      49.098  25.224  32.783  1.00  0.00     0.001 A 
ATOM     72  C   UNL A   1      49.742  26.287  30.710  1.00  0.00     0.001 A 
ATOM     73  C   UNL A   1      50.076  25.542  31.841  1.00  0.00     0.000 A 
ENDBRANCH  55  68
ENDBRANCH  29  30
ENDBRANCH  22  24
ENDBRANCH  21  22
ENDBRANCH  20  21
ENDBRANCH   1  20
TORSDOF 15
ENDMDL
MODEL 3
REMARK VINA RESULT:      -9.5      2.578      4.192
REMARK SMILES CC(C)(C)OC(=O)[C@H]1CC[C@]1([NH3+])C(=O)OCCOC(=O)c1ccc(-c2c3nc(c(-c4ccccc4)c4ccc([nH]4)c(-c4ccccc4)c4nc(c(-c5ccccc5)c5ccc2[nH]5)C=C4)C=C3)cc1
REMARK SMILES IDX 16 1 15 2 13 3 14 4 11 5 8 6 9 7 10 8 6 9 7 10 5 11 2 12
REMARK SMILES IDX 1 13 3 14 4 15 12 16 17 20 18 21 19 22 20 23 21 24 22 25
REMARK SMILES IDX 68 26 23 27 67 28 24 29 25 30 26 31 61 32 27 33 66 34 60 35
REMARK SMILES IDX 62 36 28 37 65 38 59 39 58 40 29 42 51 43 36 44 50 45 37 46
REMARK SMILES IDX 40 47 49 48 63 49 38 50 39 51 48 53 64 54 41 55 30 56 31 57
REMARK SMILES IDX 35 58 32 59 34 60 33 61 52 62 53 63 57 64 54 65 56 66 55 67
REMARK SMILES IDX 42 68 43 69 47 70 44 71 46 72 45 73
REMARK H PARENT 12 17 12 18 12 19 62 41 40 52
REMARK Flexibility Score: inf
ROOT
ATOM      1  C   UNL A   1      33.456  31.206  27.497  1.00  0.00     0.274 C 
ENDROOT
BRANCH   1   2
ATOM      2  O   UNL A   1      33.347  30.513  26.238  1.00  0.00    -0.457 OA
BRANCH   2   3
ATOM      3  C   UNL A   1      32.482  29.453  26.202  1.00  0.00     0.369 C 
ATOM      4  O   UNL A   1      32.005  28.935  27.213  1.00  0.00    -0.245 OA
BRANCH   3   5
ATOM      5  C   UNL A   1      32.188  28.955  24.727  1.00  0.00     0.206 C 
ATOM      6  C   UNL A   1      30.709  28.876  24.217  1.00  0.00     0.172 C 
ATOM      7  C   UNL A   1      30.743  27.380  24.661  1.00  0.00     0.030 C 
ATOM      8  C   UNL A   1      32.272  27.419  24.493  1.00  0.00     0.083 C 
BRANCH   6   9
ATOM      9  C   UNL A   1      30.248  29.046  22.751  1.00  0.00     0.316 C 
ATOM     10  O   UNL A   1      30.283  28.135  21.924  1.00  0.00    -0.252 OA
BRANCH   9  11
ATOM     11  O   UNL A   1      29.840  30.309  22.453  1.00  0.00    -0.460 OA
BRANCH  11  12
ATOM     12  C   UNL A   1      28.432  30.646  22.375  1.00  0.00     0.104 C 
ATOM     13  C   UNL A   1      28.311  31.960  23.158  1.00  0.00     0.056 C 
ATOM     14  C   UNL A   1      27.553  29.588  23.050  1.00  0.00     0.056 C 
ATOM     15  C   UNL A   1      28.023  30.898  20.920  1.00  0.00     0.056 C 
ENDBRANCH  11  12
ENDBRANCH   9  11
ENDBRANCH   6   9
BRANCH   5  16
ATOM     16  N   UNL A   1      33.107  29.586  23.762  1.00  0.00    -0.343 N 
ATOM     17  H   UNL A   1      33.756  30.197  24.259  1.00  0.00     0.345 HD
ATOM     18  H   UNL A   1      32.570  30.137  23.090  1.00  0.00     0.345 HD
ATOM     19  H   UNL A   1      33.631  28.864  23.267  1.00  0.00     0.345 HD
ENDBRANCH   5  16
ENDBRANCH   3   5
ENDBRANCH   2   3
ENDBRANCH   1   2
BRANCH   1  20
ATOM     20  C   UNL A   1      32.468  32.366  27.549  1.00  0.00     0.275 C 
BRANCH  20  21
ATOM     21  O   UNL A   1      33.200  33.603  27.625  1.00  0.00    -0.458 OA
BRANCH  21  22
ATOM     22  C   UNL A   1      33.343  34.128  28.860  1.00  0.00     0.338 C 
ATOM     23  O   UNL A   1      32.528  34.791  29.487  1.00  0.00    -0.246 OA
BRANCH  22  24
ATOM     24  C   UNL A   1      34.669  33.781  29.398  1.00  0.00     0.060 A 
ATOM     25  C   UNL A   1      35.827  34.218  28.755  1.00  0.00     0.016 A 
ATOM     26  C   UNL A   1      34.758  32.904  30.478  1.00  0.00     0.016 A 
ATOM     27  C   UNL A   1      37.066  33.694  29.119  1.00  0.00     0.010 A 
ATOM     28  C   UNL A   1      36.011  32.466  30.912  1.00  0.00     0.010 A 
ATOM     29  C   UNL A   1      37.178  32.824  30.213  1.00  0.00    -0.014 A 
BRANCH  29  30
ATOM     30  C   UNL A   1      38.497  32.257  30.612  1.00  0.00     0.031 A 
ATOM     31  C   UNL A   1      39.009  30.997  29.965  1.00  0.00     0.074 A 
ATOM     32  C   UNL A   1      39.243  32.859  31.560  1.00  0.00     0.049 A 
ATOM     33  N   UNL A   1      40.007  30.229  30.325  1.00  0.00    -0.248 NA
ATOM     34  C   UNL A   1      38.297  30.530  28.764  1.00  0.00     0.031 C 
ATOM     35  C   UNL A   1      38.911  34.110  32.244  1.00  0.00     0.029 A 
ATOM     36  N   UNL A   1      40.446  32.491  32.112  1.00  0.00    -0.354 N 
ATOM     37  C   UNL A   1      39.997  29.155  29.443  1.00  0.00     0.074 A 
ATOM     38  C   UNL A   1      38.905  29.376  28.520  1.00  0.00     0.031 C 
ATOM     39  C   UNL A   1      39.904  34.428  33.087  1.00  0.00     0.029 A 
ATOM     40  C   UNL A   1      40.897  33.360  33.074  1.00  0.00     0.049 A 
ATOM     41  H   UNL A   1      40.938  31.682  31.842  1.00  0.00     0.167 HD
ATOM     42  C   UNL A   1      40.817  28.078  29.411  1.00  0.00     0.031 A 
ATOM     43  C   UNL A   1      41.962  33.290  33.893  1.00  0.00     0.031 A 
ATOM     44  C   UNL A   1      41.938  27.880  30.290  1.00  0.00     0.049 A 
ATOM     45  C   UNL A   1      42.849  32.081  33.851  1.00  0.00     0.074 A 
ATOM     46  C   UNL A   1      42.827  26.819  30.332  1.00  0.00     0.029 A 
ATOM     47  N   UNL A   1      42.339  28.776  31.267  1.00  0.00    -0.354 N 
ATOM     48  N   UNL A   1      42.773  31.031  33.071  1.00  0.00    -0.248 NA
ATOM     49  C   UNL A   1      43.951  32.037  34.823  1.00  0.00     0.031 C 
ATOM     50  C   UNL A   1      43.755  27.064  31.350  1.00  0.00     0.029 A 
ATOM     51  C   UNL A   1      43.460  28.293  31.919  1.00  0.00     0.049 A 
ATOM     52  H   UNL A   1      41.893  29.631  31.468  1.00  0.00     0.167 HD
ATOM     53  C   UNL A   1      43.815  30.199  33.459  1.00  0.00     0.074 A 
ATOM     54  C   UNL A   1      44.522  30.878  34.525  1.00  0.00     0.031 C 
ATOM     55  C   UNL A   1      44.148  28.977  32.980  1.00  0.00     0.031 A 
BRANCH  42  56
ATOM     56  C   UNL A   1      40.504  27.000  28.414  1.00  0.00    -0.014 A 
ATOM     57  C   UNL A   1      39.619  25.955  28.716  1.00  0.00     0.009 A 
ATOM     58  C   UNL A   1      41.080  27.058  27.135  1.00  0.00     0.009 A 
ATOM     59  C   UNL A   1      39.338  24.973  27.762  1.00  0.00     0.001 A 
ATOM     60  C   UNL A   1      40.780  26.088  26.177  1.00  0.00     0.001 A 
ATOM     61  C   UNL A   1      39.915  25.042  26.494  1.00  0.00     0.000 A 
ENDBRANCH  42  56
BRANCH  43  62
ATOM     62  C   UNL A   1      42.213  34.380  34.868  1.00  0.00    -0.014 A 
ATOM     63  C   UNL A   1      42.988  35.491  34.506  1.00  0.00     0.009 A 
ATOM     64  C   UNL A   1      41.664  34.321  36.159  1.00  0.00     0.009 A 
ATOM     65  C   UNL A   1      43.215  36.519  35.423  1.00  0.00     0.001 A 
ATOM     66  C   UNL A   1      41.872  35.363  37.064  1.00  0.00     0.001 A 
ATOM     67  C   UNL A   1      42.653  36.458  36.697  1.00  0.00     0.000 A 
ENDBRANCH  43  62
BRANCH  55  68
ATOM     68  C   UNL A   1      45.339  28.309  33.598  1.00  0.00    -0.014 A 
ATOM     69  C   UNL A   1      46.630  28.531  33.095  1.00  0.00     0.009 A 
ATOM     70  C   UNL A   1      45.169  27.466  34.706  1.00  0.00     0.009 A 
ATOM     71  C   UNL A   1      47.729  27.899  33.679  1.00  0.00     0.001 A 
ATOM     72  C   UNL A   1      46.273  26.850  35.297  1.00  0.00     0.001 A 
ATOM     73  C   UNL A   1      47.550  27.061  34.779  1.00  0.00     0.000 A 
ENDBRANCH  55  68
ENDBRANCH  29  30
ENDBRANCH  22  24
ENDBRANCH  21  22
ENDBRANCH  20  21
ENDBRANCH   1  20
TORSDOF 15
ENDMDL
