MODEL 1
REMARK VINA RESULT:     -12.0      0.000      0.000
REMARK SMILES COc1ccc2c(c1)c(CC(=O)OCCOC(=O)c1ccc(-c3c4nc(c(-c5ccccc5)c5ccc([nH]5)c(-c5ccccc5)c5nc(c(-c6ccccc6)c6ccc3[nH]6)C=C5)C=C4)cc1)c(C)n2Cc1ccc(Br)cc1
REMARK SMILES IDX 14 1 13 2 11 3 12 4 10 5 9 6 3 7 4 8 8 9 5 10 7 11 6 12
REMARK SMILES IDX 69 13 67 14 68 15 2 16 1 17 70 18 71 19 72 20 77 21 73 22
REMARK SMILES IDX 76 23 74 24 75 25 15 26 16 27 17 28 18 29 19 30 20 31 66 32
REMARK SMILES IDX 21 33 65 34 22 35 23 36 24 37 59 38 25 39 64 40 58 41 60 42
REMARK SMILES IDX 26 43 63 44 57 45 56 46 27 48 49 49 34 50 48 51 35 52 38 53
REMARK SMILES IDX 47 54 61 55 36 56 37 57 46 59 62 60 39 61 28 62 29 63 33 64
REMARK SMILES IDX 30 65 32 66 31 67 50 68 51 69 55 70 52 71 54 72 53 73 40 74
REMARK SMILES IDX 41 75 45 76 42 77 44 78 43 79
REMARK H PARENT 60 47 38 58
REMARK Flexibility Score: inf
ROOT
ATOM      1  C   UNL A   1      38.720  34.554  33.366  1.00  0.00     0.274 C 
ENDROOT
BRANCH   1   2
ATOM      2  O   UNL A   1      37.345  34.819  33.721  1.00  0.00    -0.462 OA
BRANCH   2   3
ATOM      3  C   UNL A   1      36.668  33.767  34.238  1.00  0.00     0.310 C 
ATOM      4  O   UNL A   1      36.452  33.609  35.439  1.00  0.00    -0.252 OA
BRANCH   3   5
ATOM      5  C   UNL A   1      36.286  32.698  33.260  1.00  0.00     0.160 C 
BRANCH   5   6
ATOM      6  C   UNL A   1      35.674  32.985  31.922  1.00  0.00    -0.008 A 
ATOM      7  C   UNL A   1      33.037  35.713  31.221  1.00  0.00     0.119 A 
ATOM      8  C   UNL A   1      32.936  35.483  29.858  1.00  0.00     0.048 A 
ATOM      9  C   UNL A   1      34.007  35.042  31.981  1.00  0.00     0.057 A 
ATOM     10  C   UNL A   1      33.739  34.517  29.245  1.00  0.00     0.031 A 
ATOM     11  C   UNL A   1      34.754  33.977  31.426  1.00  0.00     0.007 A 
ATOM     12  C   UNL A   1      34.591  33.738  30.052  1.00  0.00     0.049 A 
ATOM     13  N   UNL A   1      35.420  32.678  29.740  1.00  0.00    -0.340 N 
ATOM     14  C   UNL A   1      35.759  32.035  30.907  1.00  0.00     0.020 A 
ATOM     15  C   UNL A   1      36.196  30.612  31.015  1.00  0.00     0.065 C 
BRANCH   7  16
ATOM     16  O   UNL A   1      32.255  36.634  31.871  1.00  0.00    -0.497 OA
ATOM     17  C   UNL A   1      31.269  36.041  32.721  1.00  0.00     0.278 C 
ENDBRANCH   7  16
BRANCH  13  18
ATOM     18  C   UNL A   1      35.854  32.290  28.401  1.00  0.00     0.157 C 
BRANCH  18  19
ATOM     19  C   UNL A   1      34.979  31.183  27.843  1.00  0.00    -0.028 A 
ATOM     20  C   UNL A   1      33.615  31.393  27.583  1.00  0.00     0.007 A 
ATOM     21  C   UNL A   1      35.509  29.908  27.602  1.00  0.00     0.007 A 
ATOM     22  C   UNL A   1      32.788  30.359  27.144  1.00  0.00     0.016 A 
ATOM     23  C   UNL A   1      34.691  28.875  27.128  1.00  0.00     0.016 A 
ATOM     24  C   UNL A   1      33.333  29.102  26.914  1.00  0.00     0.017 A 
ATOM     25  Br  UNL A   1      32.221  27.701  26.306  1.00  0.00    -0.051 Br
ENDBRANCH  18  19
ENDBRANCH  13  18
ENDBRANCH   5   6
ENDBRANCH   3   5
ENDBRANCH   2   3
ENDBRANCH   1   2
BRANCH   1  26
ATOM     26  C   UNL A   1      38.901  34.584  31.846  1.00  0.00     0.275 C 
BRANCH  26  27
ATOM     27  O   UNL A   1      40.304  34.658  31.552  1.00  0.00    -0.458 OA
BRANCH  27  28
ATOM     28  C   UNL A   1      40.784  33.807  30.612  1.00  0.00     0.338 C 
ATOM     29  O   UNL A   1      40.386  32.687  30.348  1.00  0.00    -0.246 OA
BRANCH  28  30
ATOM     30  C   UNL A   1      41.643  34.629  29.738  1.00  0.00     0.060 A 
ATOM     31  C   UNL A   1      42.793  35.232  30.247  1.00  0.00     0.016 A 
ATOM     32  C   UNL A   1      41.140  34.994  28.485  1.00  0.00     0.016 A 
ATOM     33  C   UNL A   1      43.344  36.309  29.564  1.00  0.00     0.010 A 
ATOM     34  C   UNL A   1      41.665  36.096  27.827  1.00  0.00     0.010 A 
ATOM     35  C   UNL A   1      42.727  36.788  28.399  1.00  0.00    -0.014 A 
BRANCH  35  36
ATOM     36  C   UNL A   1      43.385  37.851  27.660  1.00  0.00     0.031 A 
ATOM     37  C   UNL A   1      44.834  37.608  27.494  1.00  0.00     0.074 A 
ATOM     38  C   UNL A   1      42.859  38.952  27.095  1.00  0.00     0.049 A 
ATOM     39  N   UNL A   1      45.781  38.156  28.175  1.00  0.00    -0.248 NA
ATOM     40  C   UNL A   1      45.266  36.557  26.568  1.00  0.00     0.031 C 
ATOM     41  C   UNL A   1      41.473  39.312  26.810  1.00  0.00     0.029 A 
ATOM     42  N   UNL A   1      43.564  40.010  26.597  1.00  0.00    -0.354 N 
ATOM     43  C   UNL A   1      46.958  37.597  27.706  1.00  0.00     0.074 A 
ATOM     44  C   UNL A   1      46.579  36.539  26.800  1.00  0.00     0.031 C 
ATOM     45  C   UNL A   1      41.455  40.418  26.019  1.00  0.00     0.029 A 
ATOM     46  C   UNL A   1      42.811  40.934  25.899  1.00  0.00     0.049 A 
ATOM     47  H   UNL A   1      44.536  40.106  26.726  1.00  0.00     0.167 HD
ATOM     48  C   UNL A   1      48.170  38.140  27.992  1.00  0.00     0.031 A 
ATOM     49  C   UNL A   1      43.302  42.028  25.266  1.00  0.00     0.031 A 
ATOM     50  C   UNL A   1      48.089  39.124  29.040  1.00  0.00     0.049 A 
ATOM     51  C   UNL A   1      44.600  42.371  25.898  1.00  0.00     0.074 A 
ATOM     52  C   UNL A   1      47.725  39.085  30.372  1.00  0.00     0.029 A 
ATOM     53  N   UNL A   1      48.020  40.446  28.667  1.00  0.00    -0.354 N 
ATOM     54  N   UNL A   1      44.721  42.827  27.110  1.00  0.00    -0.248 NA
ATOM     55  C   UNL A   1      45.827  41.877  25.295  1.00  0.00     0.031 C 
ATOM     56  C   UNL A   1      47.012  40.298  30.597  1.00  0.00     0.029 A 
ATOM     57  C   UNL A   1      47.017  41.027  29.406  1.00  0.00     0.049 A 
ATOM     58  H   UNL A   1      48.584  40.892  27.996  1.00  0.00     0.167 HD
ATOM     59  C   UNL A   1      45.913  42.294  27.575  1.00  0.00     0.074 A 
ATOM     60  C   UNL A   1      46.605  41.826  26.378  1.00  0.00     0.031 C 
ATOM     61  C   UNL A   1      46.108  42.038  28.903  1.00  0.00     0.031 A 
BRANCH  48  62
ATOM     62  C   UNL A   1      49.380  37.970  27.127  1.00  0.00    -0.014 A 
ATOM     63  C   UNL A   1      50.695  38.077  27.620  1.00  0.00     0.009 A 
ATOM     64  C   UNL A   1      49.226  37.470  25.824  1.00  0.00     0.009 A 
ATOM     65  C   UNL A   1      51.804  37.729  26.848  1.00  0.00     0.001 A 
ATOM     66  C   UNL A   1      50.333  37.079  25.064  1.00  0.00     0.001 A 
ATOM     67  C   UNL A   1      51.621  37.211  25.575  1.00  0.00     0.000 A 
ENDBRANCH  48  62
BRANCH  49  68
ATOM     68  C   UNL A   1      42.919  42.608  23.962  1.00  0.00    -0.014 A 
ATOM     69  C   UNL A   1      41.880  42.027  23.216  1.00  0.00     0.009 A 
ATOM     70  C   UNL A   1      43.787  43.495  23.302  1.00  0.00     0.009 A 
ATOM     71  C   UNL A   1      41.754  42.270  21.844  1.00  0.00     0.001 A 
ATOM     72  C   UNL A   1      43.663  43.735  21.929  1.00  0.00     0.001 A 
ATOM     73  C   UNL A   1      42.659  43.107  21.196  1.00  0.00     0.000 A 
ENDBRANCH  49  68
BRANCH  61  74
ATOM     74  C   UNL A   1      45.126  42.618  29.898  1.00  0.00    -0.014 A 
ATOM     75  C   UNL A   1      44.010  41.844  30.260  1.00  0.00     0.009 A 
ATOM     76  C   UNL A   1      45.185  43.945  30.361  1.00  0.00     0.009 A 
ATOM     77  C   UNL A   1      42.988  42.377  31.050  1.00  0.00     0.001 A 
ATOM     78  C   UNL A   1      44.176  44.469  31.178  1.00  0.00     0.001 A 
ATOM     79  C   UNL A   1      43.073  43.687  31.513  1.00  0.00     0.000 A 
ENDBRANCH  61  74
ENDBRANCH  35  36
ENDBRANCH  28  30
ENDBRANCH  27  28
ENDBRANCH  26  27
ENDBRANCH   1  26
TORSDOF 15
ENDMDL
MODEL 2
REMARK VINA RESULT:     -12.0      7.472     12.459
REMARK SMILES COc1ccc2c(c1)c(CC(=O)OCCOC(=O)c1ccc(-c3c4nc(c(-c5ccccc5)c5ccc([nH]5)c(-c5ccccc5)c5nc(c(-c6ccccc6)c6ccc3[nH]6)C=C5)C=C4)cc1)c(C)n2Cc1ccc(Br)cc1
REMARK SMILES IDX 14 1 13 2 11 3 12 4 10 5 9 6 3 7 4 8 8 9 5 10 7 11 6 12
REMARK SMILES IDX 69 13 67 14 68 15 2 16 1 17 70 18 71 19 72 20 77 21 73 22
REMARK SMILES IDX 76 23 74 24 75 25 15 26 16 27 17 28 18 29 19 30 20 31 66 32
REMARK SMILES IDX 21 33 65 34 22 35 23 36 24 37 59 38 25 39 64 40 58 41 60 42
REMARK SMILES IDX 26 43 63 44 57 45 56 46 27 48 49 49 34 50 48 51 35 52 38 53
REMARK SMILES IDX 47 54 61 55 36 56 37 57 46 59 62 60 39 61 28 62 29 63 33 64
REMARK SMILES IDX 30 65 32 66 31 67 50 68 51 69 55 70 52 71 54 72 53 73 40 74
REMARK SMILES IDX 41 75 45 76 42 77 44 78 43 79
REMARK H PARENT 60 47 38 58
REMARK Flexibility Score: inf
ROOT
ATOM      1  C   UNL A   1      33.573  30.223  26.864  1.00  0.00     0.274 C 
ENDROOT
BRANCH   1   2
ATOM      2  O   UNL A   1      32.268  29.605  26.803  1.00  0.00    -0.462 OA
BRANCH   2   3
ATOM      3  C   UNL A   1      32.231  28.297  27.148  1.00  0.00     0.310 C 
ATOM      4  O   UNL A   1      31.405  27.811  27.920  1.00  0.00    -0.252 OA
BRANCH   3   5
ATOM      5  C   UNL A   1      33.357  27.457  26.629  1.00  0.00     0.160 C 
BRANCH   5   6
ATOM      6  C   UNL A   1      33.277  26.664  25.359  1.00  0.00    -0.008 A 
ATOM      7  C   UNL A   1      31.008  27.501  22.353  1.00  0.00     0.119 A 
ATOM      8  C   UNL A   1      31.427  26.454  21.547  1.00  0.00     0.048 A 
ATOM      9  C   UNL A   1      31.646  27.750  23.577  1.00  0.00     0.057 A 
ATOM     10  C   UNL A   1      32.430  25.584  21.987  1.00  0.00     0.031 A 
ATOM     11  C   UNL A   1      32.577  26.828  24.110  1.00  0.00     0.007 A 
ATOM     12  C   UNL A   1      32.944  25.751  23.287  1.00  0.00     0.049 A 
ATOM     13  N   UNL A   1      33.861  25.007  24.004  1.00  0.00    -0.340 N 
ATOM     14  C   UNL A   1      33.762  25.359  25.330  1.00  0.00     0.020 A 
ATOM     15  C   UNL A   1      34.170  24.504  26.483  1.00  0.00     0.065 C 
BRANCH   7  16
ATOM     16  O   UNL A   1      30.013  28.367  21.975  1.00  0.00    -0.497 OA
ATOM     17  C   UNL A   1      29.043  28.599  23.001  1.00  0.00     0.278 C 
ENDBRANCH   7  16
BRANCH  13  18
ATOM     18  C   UNL A   1      34.772  24.006  23.458  1.00  0.00     0.157 C 
BRANCH  18  19
ATOM     19  C   UNL A   1      34.314  22.603  23.807  1.00  0.00    -0.028 A 
ATOM     20  C   UNL A   1      33.039  22.140  23.442  1.00  0.00     0.007 A 
ATOM     21  C   UNL A   1      35.147  21.741  24.534  1.00  0.00     0.007 A 
ATOM     22  C   UNL A   1      32.583  20.879  23.827  1.00  0.00     0.016 A 
ATOM     23  C   UNL A   1      34.706  20.461  24.893  1.00  0.00     0.016 A 
ATOM     24  C   UNL A   1      33.423  20.042  24.549  1.00  0.00     0.017 A 
ATOM     25  Br  UNL A   1      32.815  18.328  25.062  1.00  0.00    -0.051 Br
ENDBRANCH  18  19
ENDBRANCH  13  18
ENDBRANCH   5   6
ENDBRANCH   3   5
ENDBRANCH   2   3
ENDBRANCH   1   2
BRANCH   1  26
ATOM     26  C   UNL A   1      33.507  31.549  27.627  1.00  0.00     0.275 C 
BRANCH  26  27
ATOM     27  O   UNL A   1      34.839  32.066  27.766  1.00  0.00    -0.458 OA
BRANCH  27  28
ATOM     28  C   UNL A   1      35.208  32.500  28.995  1.00  0.00     0.338 C 
ATOM     29  O   UNL A   1      34.595  33.246  29.737  1.00  0.00    -0.246 OA
BRANCH  28  30
ATOM     30  C   UNL A   1      36.321  31.623  29.405  1.00  0.00     0.060 A 
ATOM     31  C   UNL A   1      37.618  32.127  29.500  1.00  0.00     0.016 A 
ATOM     32  C   UNL A   1      36.087  30.244  29.436  1.00  0.00     0.016 A 
ATOM     33  C   UNL A   1      38.686  31.241  29.469  1.00  0.00     0.010 A 
ATOM     34  C   UNL A   1      37.154  29.363  29.363  1.00  0.00     0.010 A 
ATOM     35  C   UNL A   1      38.451  29.866  29.317  1.00  0.00    -0.014 A 
BRANCH  35  36
ATOM     36  C   UNL A   1      39.585  28.962  29.388  1.00  0.00     0.031 A 
ATOM     37  C   UNL A   1      39.926  28.595  30.779  1.00  0.00     0.074 A 
ATOM     38  C   UNL A   1      40.300  28.407  28.393  1.00  0.00     0.049 A 
ATOM     39  N   UNL A   1      40.891  29.082  31.480  1.00  0.00    -0.248 NA
ATOM     40  C   UNL A   1      39.030  27.690  31.504  1.00  0.00     0.031 C 
ATOM     41  C   UNL A   1      40.032  28.313  26.961  1.00  0.00     0.029 A 
ATOM     42  N   UNL A   1      41.479  27.735  28.534  1.00  0.00    -0.354 N 
ATOM     43  C   UNL A   1      40.798  28.480  32.724  1.00  0.00     0.074 A 
ATOM     44  C   UNL A   1      39.571  27.720  32.722  1.00  0.00     0.031 C 
ATOM     45  C   UNL A   1      40.927  27.458  26.397  1.00  0.00     0.029 A 
ATOM     46  C   UNL A   1      41.926  27.096  27.394  1.00  0.00     0.049 A 
ATOM     47  H   UNL A   1      41.974  27.707  29.386  1.00  0.00     0.167 HD
ATOM     48  C   UNL A   1      41.815  28.539  33.623  1.00  0.00     0.031 A 
ATOM     49  C   UNL A   1      43.034  26.321  27.312  1.00  0.00     0.031 A 
ATOM     50  C   UNL A   1      42.807  29.514  33.256  1.00  0.00     0.049 A 
ATOM     51  C   UNL A   1      43.948  26.721  28.410  1.00  0.00     0.074 A 
ATOM     52  C   UNL A   1      42.795  30.886  33.091  1.00  0.00     0.029 A 
ATOM     53  N   UNL A   1      43.930  29.065  32.603  1.00  0.00    -0.354 N 
ATOM     54  N   UNL A   1      44.564  27.866  28.463  1.00  0.00    -0.248 NA
ATOM     55  C   UNL A   1      43.917  25.974  29.657  1.00  0.00     0.031 C 
ATOM     56  C   UNL A   1      43.636  31.132  31.967  1.00  0.00     0.029 A 
ATOM     57  C   UNL A   1      44.148  29.905  31.537  1.00  0.00     0.049 A 
ATOM     58  H   UNL A   1      44.477  28.286  32.852  1.00  0.00     0.167 HD
ATOM     59  C   UNL A   1      44.620  28.179  29.812  1.00  0.00     0.074 A 
ATOM     60  C   UNL A   1      44.322  26.927  30.500  1.00  0.00     0.031 C 
ATOM     61  C   UNL A   1      44.635  29.476  30.241  1.00  0.00     0.031 A 
BRANCH  48  62
ATOM     62  C   UNL A   1      42.038  27.513  34.691  1.00  0.00    -0.014 A 
ATOM     63  C   UNL A   1      41.620  27.693  36.025  1.00  0.00     0.009 A 
ATOM     64  C   UNL A   1      42.478  26.231  34.328  1.00  0.00     0.009 A 
ATOM     65  C   UNL A   1      41.663  26.657  36.958  1.00  0.00     0.001 A 
ATOM     66  C   UNL A   1      42.480  25.178  35.250  1.00  0.00     0.001 A 
ATOM     67  C   UNL A   1      42.075  25.392  36.564  1.00  0.00     0.000 A 
ENDBRANCH  48  62
BRANCH  49  68
ATOM     68  C   UNL A   1      43.239  25.052  26.581  1.00  0.00    -0.014 A 
ATOM     69  C   UNL A   1      42.236  24.070  26.589  1.00  0.00     0.009 A 
ATOM     70  C   UNL A   1      44.532  24.671  26.180  1.00  0.00     0.009 A 
ATOM     71  C   UNL A   1      42.528  22.738  26.273  1.00  0.00     0.001 A 
ATOM     72  C   UNL A   1      44.824  23.338  25.869  1.00  0.00     0.001 A 
ATOM     73  C   UNL A   1      43.826  22.368  25.936  1.00  0.00     0.000 A 
ENDBRANCH  49  68
BRANCH  61  74
ATOM     74  C   UNL A   1      44.891  30.567  29.222  1.00  0.00    -0.014 A 
ATOM     75  C   UNL A   1      46.189  31.096  29.126  1.00  0.00     0.009 A 
ATOM     76  C   UNL A   1      43.871  31.187  28.478  1.00  0.00     0.009 A 
ATOM     77  C   UNL A   1      46.459  32.206  28.321  1.00  0.00     0.001 A 
ATOM     78  C   UNL A   1      44.147  32.280  27.648  1.00  0.00     0.001 A 
ATOM     79  C   UNL A   1      45.439  32.795  27.578  1.00  0.00     0.000 A 
ENDBRANCH  61  74
ENDBRANCH  35  36
ENDBRANCH  28  30
ENDBRANCH  27  28
ENDBRANCH  26  27
ENDBRANCH   1  26
TORSDOF 15
ENDMDL
MODEL 3
REMARK VINA RESULT:     -11.9      7.363     11.930
REMARK SMILES COc1ccc2c(c1)c(CC(=O)OCCOC(=O)c1ccc(-c3c4nc(c(-c5ccccc5)c5ccc([nH]5)c(-c5ccccc5)c5nc(c(-c6ccccc6)c6ccc3[nH]6)C=C5)C=C4)cc1)c(C)n2Cc1ccc(Br)cc1
REMARK SMILES IDX 14 1 13 2 11 3 12 4 10 5 9 6 3 7 4 8 8 9 5 10 7 11 6 12
REMARK SMILES IDX 69 13 67 14 68 15 2 16 1 17 70 18 71 19 72 20 77 21 73 22
REMARK SMILES IDX 76 23 74 24 75 25 15 26 16 27 17 28 18 29 19 30 20 31 66 32
REMARK SMILES IDX 21 33 65 34 22 35 23 36 24 37 59 38 25 39 64 40 58 41 60 42
REMARK SMILES IDX 26 43 63 44 57 45 56 46 27 48 49 49 34 50 48 51 35 52 38 53
REMARK SMILES IDX 47 54 61 55 36 56 37 57 46 59 62 60 39 61 28 62 29 63 33 64
REMARK SMILES IDX 30 65 32 66 31 67 50 68 51 69 55 70 52 71 54 72 53 73 40 74
REMARK SMILES IDX 41 75 45 76 42 77 44 78 43 79
REMARK H PARENT 60 47 38 58
REMARK Flexibility Score: inf
ROOT
ATOM      1  C   UNL A   1      33.016  33.432  27.806  1.00  0.00     0.274 C 
ENDROOT
BRANCH   1   2
ATOM      2  O   UNL A   1      33.349  32.049  27.550  1.00  0.00    -0.462 OA
BRANCH   2   3
ATOM      3  C   UNL A   1      32.484  31.385  26.750  1.00  0.00     0.310 C 
ATOM      4  O   UNL A   1      31.296  31.679  26.625  1.00  0.00    -0.252 OA
BRANCH   3   5
ATOM      5  C   UNL A   1      33.024  30.152  26.092  1.00  0.00     0.160 C 
BRANCH   5   6
ATOM      6  C   UNL A   1      32.158  29.026  25.611  1.00  0.00    -0.008 A 
ATOM      7  C   UNL A   1      29.878  29.144  22.502  1.00  0.00     0.119 A 
ATOM      8  C   UNL A   1      29.418  27.840  22.599  1.00  0.00     0.048 A 
ATOM      9  C   UNL A   1      30.889  29.602  23.360  1.00  0.00     0.057 A 
ATOM     10  C   UNL A   1      29.894  26.998  23.608  1.00  0.00     0.031 A 
ATOM     11  C   UNL A   1      31.308  28.826  24.466  1.00  0.00     0.007 A 
ATOM     12  C   UNL A   1      30.785  27.527  24.562  1.00  0.00     0.049 A 
ATOM     13  N   UNL A   1      31.343  26.965  25.694  1.00  0.00    -0.340 N 
ATOM     14  C   UNL A   1      31.851  27.977  26.474  1.00  0.00     0.020 A 
ATOM     15  C   UNL A   1      32.079  27.901  27.947  1.00  0.00     0.065 C 
BRANCH   7  16
ATOM     16  O   UNL A   1      29.425  30.014  21.542  1.00  0.00    -0.497 OA
ATOM     17  C   UNL A   1      28.024  30.285  21.639  1.00  0.00     0.278 C 
ENDBRANCH   7  16
BRANCH  13  18
ATOM     18  C   UNL A   1      31.378  25.543  26.021  1.00  0.00     0.157 C 
BRANCH  18  19
ATOM     19  C   UNL A   1      32.612  24.879  25.441  1.00  0.00    -0.028 A 
ATOM     20  C   UNL A   1      33.610  24.341  26.270  1.00  0.00     0.007 A 
ATOM     21  C   UNL A   1      32.800  24.813  24.053  1.00  0.00     0.007 A 
ATOM     22  C   UNL A   1      34.783  23.800  25.744  1.00  0.00     0.016 A 
ATOM     23  C   UNL A   1      33.960  24.239  23.518  1.00  0.00     0.016 A 
ATOM     24  C   UNL A   1      34.951  23.747  24.366  1.00  0.00     0.017 A 
ATOM     25  Br  UNL A   1      36.531  23.002  23.647  1.00  0.00    -0.051 Br
ENDBRANCH  18  19
ENDBRANCH  13  18
ENDBRANCH   5   6
ENDBRANCH   3   5
ENDBRANCH   2   3
ENDBRANCH   1   2
BRANCH   1  26
ATOM     26  C   UNL A   1      34.284  34.282  27.913  1.00  0.00     0.275 C 
BRANCH  26  27
ATOM     27  O   UNL A   1      35.353  33.454  28.397  1.00  0.00    -0.458 OA
BRANCH  27  28
ATOM     28  C   UNL A   1      35.675  33.564  29.709  1.00  0.00     0.338 C 
ATOM     29  O   UNL A   1      35.109  34.225  30.562  1.00  0.00    -0.246 OA
BRANCH  28  30
ATOM     30  C   UNL A   1      36.618  32.462  29.977  1.00  0.00     0.060 A 
ATOM     31  C   UNL A   1      37.919  32.736  30.398  1.00  0.00     0.016 A 
ATOM     32  C   UNL A   1      36.260  31.178  29.551  1.00  0.00     0.016 A 
ATOM     33  C   UNL A   1      38.893  31.759  30.242  1.00  0.00     0.010 A 
ATOM     34  C   UNL A   1      37.241  30.220  29.356  1.00  0.00     0.010 A 
ATOM     35  C   UNL A   1      38.566  30.532  29.645  1.00  0.00    -0.014 A 
BRANCH  35  36
ATOM     36  C   UNL A   1      39.586  29.500  29.588  1.00  0.00     0.031 A 
ATOM     37  C   UNL A   1      39.914  28.959  30.924  1.00  0.00     0.074 A 
ATOM     38  C   UNL A   1      40.207  28.970  28.519  1.00  0.00     0.049 A 
ATOM     39  N   UNL A   1      40.946  29.258  31.635  1.00  0.00    -0.248 NA
ATOM     40  C   UNL A   1      38.933  28.095  31.589  1.00  0.00     0.031 C 
ATOM     41  C   UNL A   1      39.898  29.051  27.095  1.00  0.00     0.029 A 
ATOM     42  N   UNL A   1      41.302  28.154  28.554  1.00  0.00    -0.354 N 
ATOM     43  C   UNL A   1      40.810  28.549  32.817  1.00  0.00     0.074 A 
ATOM     44  C   UNL A   1      39.502  27.940  32.784  1.00  0.00     0.031 C 
ATOM     45  C   UNL A   1      40.671  28.160  26.420  1.00  0.00     0.029 A 
ATOM     46  C   UNL A   1      41.643  27.586  27.342  1.00  0.00     0.049 A 
ATOM     47  H   UNL A   1      41.809  27.984  29.381  1.00  0.00     0.167 HD
ATOM     48  C   UNL A   1      41.847  28.399  33.682  1.00  0.00     0.031 A 
ATOM     49  C   UNL A   1      42.649  26.700  27.147  1.00  0.00     0.031 A 
ATOM     50  C   UNL A   1      42.939  29.285  33.377  1.00  0.00     0.049 A 
ATOM     51  C   UNL A   1      43.629  26.879  28.247  1.00  0.00     0.074 A 
ATOM     52  C   UNL A   1      43.086  30.658  33.347  1.00  0.00     0.029 A 
ATOM     53  N   UNL A   1      43.986  28.776  32.645  1.00  0.00    -0.354 N 
ATOM     54  N   UNL A   1      44.378  27.933  28.389  1.00  0.00    -0.248 NA
ATOM     55  C   UNL A   1      43.538  26.019  29.416  1.00  0.00     0.031 C 
ATOM     56  C   UNL A   1      43.925  30.916  32.223  1.00  0.00     0.029 A 
ATOM     57  C   UNL A   1      44.277  29.688  31.659  1.00  0.00     0.049 A 
ATOM     58  H   UNL A   1      44.442  27.918  32.799  1.00  0.00     0.167 HD
ATOM     59  C   UNL A   1      44.501  28.101  29.759  1.00  0.00     0.074 A 
ATOM     60  C   UNL A   1      44.073  26.829  30.332  1.00  0.00     0.031 C 
ATOM     61  C   UNL A   1      44.680  29.338  30.311  1.00  0.00     0.031 A 
BRANCH  48  62
ATOM     62  C   UNL A   1      41.971  27.252  34.637  1.00  0.00    -0.014 A 
ATOM     63  C   UNL A   1      42.429  25.978  34.248  1.00  0.00     0.009 A 
ATOM     64  C   UNL A   1      41.842  27.490  36.015  1.00  0.00     0.009 A 
ATOM     65  C   UNL A   1      42.719  24.981  35.180  1.00  0.00     0.001 A 
ATOM     66  C   UNL A   1      42.174  26.508  36.953  1.00  0.00     0.001 A 
ATOM     67  C   UNL A   1      42.610  25.253  36.535  1.00  0.00     0.000 A 
ENDBRANCH  48  62
BRANCH  49  68
ATOM     68  C   UNL A   1      42.686  25.496  26.290  1.00  0.00    -0.014 A 
ATOM     69  C   UNL A   1      41.883  24.387  26.606  1.00  0.00     0.009 A 
ATOM     70  C   UNL A   1      43.745  25.306  25.386  1.00  0.00     0.009 A 
ATOM     71  C   UNL A   1      42.170  23.118  26.091  1.00  0.00     0.001 A 
ATOM     72  C   UNL A   1      44.035  24.035  24.875  1.00  0.00     0.001 A 
ATOM     73  C   UNL A   1      43.260  22.939  25.243  1.00  0.00     0.000 A 
ENDBRANCH  49  68
BRANCH  61  74
ATOM     74  C   UNL A   1      45.041  30.489  29.395  1.00  0.00    -0.014 A 
ATOM     75  C   UNL A   1      46.372  30.937  29.382  1.00  0.00     0.009 A 
ATOM     76  C   UNL A   1      44.089  31.233  28.675  1.00  0.00     0.009 A 
ATOM     77  C   UNL A   1      46.740  32.088  28.680  1.00  0.00     0.001 A 
ATOM     78  C   UNL A   1      44.462  32.370  27.948  1.00  0.00     0.001 A 
ATOM     79  C   UNL A   1      45.786  32.801  27.959  1.00  0.00     0.000 A 
ENDBRANCH  61  74
ENDBRANCH  35  36
ENDBRANCH  28  30
ENDBRANCH  27  28
ENDBRANCH  26  27
ENDBRANCH   1  26
TORSDOF 15
ENDMDL
