MODEL 1
REMARK VINA RESULT:      -9.9      0.000      0.000
REMARK SMILES Cc1ccc([C@@](C)(O)[C@H](F)C(=O)OCCOC(=O)c2ccc(-c3c4nc(c(-c5ccccc5)c5ccc([nH]5)c(-c5ccccc5)c5nc(c(-c6ccccc6)c6ccc3[nH]6)C=C5)C=C4)cc2)cc1F
REMARK SMILES IDX 14 1 13 2 11 3 12 4 9 5 10 6 6 7 7 8 5 9 1 10 2 11 3 12
REMARK SMILES IDX 68 13 4 14 67 15 69 16 8 17 15 19 16 20 17 21 18 22 19 23
REMARK SMILES IDX 20 24 66 25 21 26 65 27 22 28 23 29 24 30 59 31 25 32 64 33
REMARK SMILES IDX 58 34 60 35 26 36 63 37 57 38 56 39 27 41 49 42 34 43 48 44
REMARK SMILES IDX 35 45 38 46 47 47 61 48 36 49 37 50 46 52 62 53 39 54 28 55
REMARK SMILES IDX 29 56 33 57 30 58 32 59 31 60 50 61 51 62 55 63 52 64 54 65
REMARK SMILES IDX 53 66 40 67 41 68 45 69 42 70 44 71 43 72
REMARK H PARENT 8 18 60 40 38 51
REMARK Flexibility Score: inf
ROOT
ATOM      1  C   UNL A   1      37.692  20.599  24.963  1.00  0.00     0.274 C 
ENDROOT
BRANCH   1   2
ATOM      2  O   UNL A   1      36.433  19.902  24.952  1.00  0.00    -0.460 OA
BRANCH   2   3
ATOM      3  C   UNL A   1      35.308  20.671  24.940  1.00  0.00     0.344 C 
ATOM      4  O   UNL A   1      34.195  20.268  25.266  1.00  0.00    -0.249 OA
BRANCH   3   5
ATOM      5  C   UNL A   1      35.633  22.127  24.644  1.00  0.00     0.311 C 
ATOM      6  F   UNL A   1      34.799  22.656  23.686  1.00  0.00    -0.231 F 
BRANCH   5   7
ATOM      7  C   UNL A   1      35.586  23.072  25.869  1.00  0.00     0.129 C 
ATOM      8  C   UNL A   1      36.838  23.951  26.011  1.00  0.00     0.051 C 
BRANCH   7   9
ATOM      9  C   UNL A   1      34.353  23.997  25.872  1.00  0.00    -0.010 A 
ATOM     10  C   UNL A   1      30.796  26.487  25.936  1.00  0.00     0.047 C 
ATOM     11  C   UNL A   1      32.033  25.644  25.926  1.00  0.00    -0.015 A 
ATOM     12  C   UNL A   1      33.234  26.124  25.399  1.00  0.00     0.007 A 
ATOM     13  C   UNL A   1      32.005  24.346  26.433  1.00  0.00     0.126 A 
ATOM     14  C   UNL A   1      34.377  25.314  25.377  1.00  0.00     0.007 A 
ATOM     15  C   UNL A   1      33.138  23.535  26.414  1.00  0.00     0.046 A 
ATOM     16  F   UNL A   1      30.868  23.857  26.949  1.00  0.00    -0.207 F 
ENDBRANCH   7   9
BRANCH   7  17
ATOM     17  O   UNL A   1      35.507  22.250  27.050  1.00  0.00    -0.382 OA
ATOM     18  H   UNL A   1      36.339  22.313  27.545  1.00  0.00     0.212 HD
ENDBRANCH   7  17
ENDBRANCH   5   7
ENDBRANCH   3   5
ENDBRANCH   2   3
ENDBRANCH   1   2
BRANCH   1  19
ATOM     19  C   UNL A   1      38.875  19.623  24.931  1.00  0.00     0.275 C 
BRANCH  19  20
ATOM     20  O   UNL A   1      39.581  19.571  26.189  1.00  0.00    -0.458 OA
BRANCH  20  21
ATOM     21  C   UNL A   1      40.930  19.634  26.102  1.00  0.00     0.338 C 
ATOM     22  O   UNL A   1      41.676  18.806  25.607  1.00  0.00    -0.246 OA
BRANCH  21  23
ATOM     23  C   UNL A   1      41.416  20.942  26.578  1.00  0.00     0.060 A 
ATOM     24  C   UNL A   1      41.284  21.224  27.942  1.00  0.00     0.016 A 
ATOM     25  C   UNL A   1      41.916  21.906  25.701  1.00  0.00     0.016 A 
ATOM     26  C   UNL A   1      41.635  22.478  28.433  1.00  0.00     0.010 A 
ATOM     27  C   UNL A   1      42.274  23.165  26.197  1.00  0.00     0.010 A 
ATOM     28  C   UNL A   1      42.123  23.461  27.563  1.00  0.00    -0.014 A 
BRANCH  28  29
ATOM     29  C   UNL A   1      42.438  24.809  28.091  1.00  0.00     0.031 A 
ATOM     30  C   UNL A   1      43.852  25.164  28.450  1.00  0.00     0.074 A 
ATOM     31  C   UNL A   1      41.461  25.726  28.206  1.00  0.00     0.049 A 
ATOM     32  N   UNL A   1      44.320  26.273  28.964  1.00  0.00    -0.248 NA
ATOM     33  C   UNL A   1      44.875  24.139  28.193  1.00  0.00     0.031 C 
ATOM     34  C   UNL A   1      40.060  25.521  27.835  1.00  0.00     0.029 A 
ATOM     35  N   UNL A   1      41.502  27.019  28.661  1.00  0.00    -0.354 N 
ATOM     36  C   UNL A   1      45.688  26.077  29.104  1.00  0.00     0.074 A 
ATOM     37  C   UNL A   1      45.973  24.736  28.638  1.00  0.00     0.031 C 
ATOM     38  C   UNL A   1      39.377  26.656  28.065  1.00  0.00     0.029 A 
ATOM     39  C   UNL A   1      40.280  27.647  28.643  1.00  0.00     0.049 A 
ATOM     40  H   UNL A   1      42.328  27.457  28.972  1.00  0.00     0.167 HD
ATOM     41  C   UNL A   1      46.621  26.937  29.578  1.00  0.00     0.031 A 
ATOM     42  C   UNL A   1      39.925  28.874  29.067  1.00  0.00     0.031 A 
ATOM     43  C   UNL A   1      46.338  28.267  30.048  1.00  0.00     0.049 A 
ATOM     44  C   UNL A   1      40.966  29.776  29.665  1.00  0.00     0.074 A 
ATOM     45  C   UNL A   1      47.217  29.208  30.556  1.00  0.00     0.029 A 
ATOM     46  N   UNL A   1      45.078  28.843  30.068  1.00  0.00    -0.354 N 
ATOM     47  N   UNL A   1      42.253  29.571  29.808  1.00  0.00    -0.248 NA
ATOM     48  C   UNL A   1      40.504  31.078  30.166  1.00  0.00     0.031 C 
ATOM     49  C   UNL A   1      46.481  30.341  30.920  1.00  0.00     0.029 A 
ATOM     50  C   UNL A   1      45.151  30.121  30.597  1.00  0.00     0.049 A 
ATOM     51  H   UNL A   1      44.253  28.409  29.752  1.00  0.00     0.167 HD
ATOM     52  C   UNL A   1      42.756  30.724  30.396  1.00  0.00     0.074 A 
ATOM     53  C   UNL A   1      41.639  31.630  30.569  1.00  0.00     0.031 C 
ATOM     54  C   UNL A   1      44.030  31.007  30.762  1.00  0.00     0.031 A 
BRANCH  41  55
ATOM     55  C   UNL A   1      48.039  26.445  29.642  1.00  0.00    -0.014 A 
ATOM     56  C   UNL A   1      48.521  25.758  30.766  1.00  0.00     0.009 A 
ATOM     57  C   UNL A   1      48.894  26.645  28.548  1.00  0.00     0.009 A 
ATOM     58  C   UNL A   1      49.841  25.306  30.806  1.00  0.00     0.001 A 
ATOM     59  C   UNL A   1      50.208  26.172  28.580  1.00  0.00     0.001 A 
ATOM     60  C   UNL A   1      50.682  25.511  29.712  1.00  0.00     0.000 A 
ENDBRANCH  41  55
BRANCH  42  61
ATOM     61  C   UNL A   1      38.510  29.313  28.970  1.00  0.00    -0.014 A 
ATOM     62  C   UNL A   1      38.025  29.909  27.797  1.00  0.00     0.009 A 
ATOM     63  C   UNL A   1      37.639  29.150  30.059  1.00  0.00     0.009 A 
ATOM     64  C   UNL A   1      36.703  30.353  27.724  1.00  0.00     0.001 A 
ATOM     65  C   UNL A   1      36.311  29.570  29.975  1.00  0.00     0.001 A 
ATOM     66  C   UNL A   1      35.847  30.180  28.810  1.00  0.00     0.000 A 
ENDBRANCH  42  61
BRANCH  54  67
ATOM     67  C   UNL A   1      44.285  32.362  31.355  1.00  0.00    -0.014 A 
ATOM     68  C   UNL A   1      44.606  33.461  30.545  1.00  0.00     0.009 A 
ATOM     69  C   UNL A   1      44.172  32.545  32.743  1.00  0.00     0.009 A 
ATOM     70  C   UNL A   1      44.841  34.713  31.117  1.00  0.00     0.001 A 
ATOM     71  C   UNL A   1      44.384  33.803  33.308  1.00  0.00     0.001 A 
ATOM     72  C   UNL A   1      44.726  34.883  32.497  1.00  0.00     0.000 A 
ENDBRANCH  54  67
ENDBRANCH  28  29
ENDBRANCH  21  23
ENDBRANCH  20  21
ENDBRANCH  19  20
ENDBRANCH   1  19
TORSDOF 14
ENDMDL
MODEL 2
REMARK VINA RESULT:      -9.9      5.416     10.411
REMARK SMILES Cc1ccc([C@@](C)(O)[C@H](F)C(=O)OCCOC(=O)c2ccc(-c3c4nc(c(-c5ccccc5)c5ccc([nH]5)c(-c5ccccc5)c5nc(c(-c6ccccc6)c6ccc3[nH]6)C=C5)C=C4)cc2)cc1F
REMARK SMILES IDX 14 1 13 2 11 3 12 4 9 5 10 6 6 7 7 8 5 9 1 10 2 11 3 12
REMARK SMILES IDX 68 13 4 14 67 15 69 16 8 17 15 19 16 20 17 21 18 22 19 23
REMARK SMILES IDX 20 24 66 25 21 26 65 27 22 28 23 29 24 30 59 31 25 32 64 33
REMARK SMILES IDX 58 34 60 35 26 36 63 37 57 38 56 39 27 41 49 42 34 43 48 44
REMARK SMILES IDX 35 45 38 46 47 47 61 48 36 49 37 50 46 52 62 53 39 54 28 55
REMARK SMILES IDX 29 56 33 57 30 58 32 59 31 60 50 61 51 62 55 63 52 64 54 65
REMARK SMILES IDX 53 66 40 67 41 68 45 69 42 70 44 71 43 72
REMARK H PARENT 8 18 60 40 38 51
REMARK Flexibility Score: inf
ROOT
ATOM      1  C   UNL A   1      33.819  35.125  29.473  1.00  0.00     0.274 C 
ENDROOT
BRANCH   1   2
ATOM      2  O   UNL A   1      32.705  34.947  30.366  1.00  0.00    -0.460 OA
BRANCH   2   3
ATOM      3  C   UNL A   1      32.934  35.189  31.688  1.00  0.00     0.344 C 
ATOM      4  O   UNL A   1      32.066  35.154  32.554  1.00  0.00    -0.249 OA
BRANCH   3   5
ATOM      5  C   UNL A   1      34.421  35.331  31.976  1.00  0.00     0.311 C 
ATOM      6  F   UNL A   1      34.718  36.541  32.560  1.00  0.00    -0.231 F 
BRANCH   5   7
ATOM      7  C   UNL A   1      35.023  34.224  32.875  1.00  0.00     0.129 C 
ATOM      8  C   UNL A   1      34.705  32.802  32.388  1.00  0.00     0.051 C 
BRANCH   7   9
ATOM      9  C   UNL A   1      36.553  34.340  33.034  1.00  0.00    -0.010 A 
ATOM     10  C   UNL A   1      40.840  34.673  33.636  1.00  0.00     0.047 C 
ATOM     11  C   UNL A   1      39.365  34.540  33.417  1.00  0.00    -0.015 A 
ATOM     12  C   UNL A   1      38.821  34.535  32.131  1.00  0.00     0.007 A 
ATOM     13  C   UNL A   1      38.498  34.433  34.502  1.00  0.00     0.126 A 
ATOM     14  C   UNL A   1      37.436  34.433  31.943  1.00  0.00     0.007 A 
ATOM     15  C   UNL A   1      37.120  34.331  34.324  1.00  0.00     0.046 A 
ATOM     16  F   UNL A   1      38.990  34.431  35.749  1.00  0.00    -0.207 F 
ENDBRANCH   7   9
BRANCH   7  17
ATOM     17  O   UNL A   1      34.445  34.366  34.187  1.00  0.00    -0.382 OA
ATOM     18  H   UNL A   1      34.944  33.827  34.820  1.00  0.00     0.212 HD
ENDBRANCH   7  17
ENDBRANCH   5   7
ENDBRANCH   3   5
ENDBRANCH   2   3
ENDBRANCH   1   2
BRANCH   1  19
ATOM     19  C   UNL A   1      33.938  33.959  28.483  1.00  0.00     0.275 C 
BRANCH  19  20
ATOM     20  O   UNL A   1      34.264  32.713  29.135  1.00  0.00    -0.458 OA
BRANCH  20  21
ATOM     21  C   UNL A   1      34.534  31.677  28.307  1.00  0.00     0.338 C 
ATOM     22  O   UNL A   1      33.886  31.320  27.338  1.00  0.00    -0.246 OA
BRANCH  21  23
ATOM     23  C   UNL A   1      35.837  31.075  28.644  1.00  0.00     0.060 A 
ATOM     24  C   UNL A   1      35.835  29.776  29.164  1.00  0.00     0.016 A 
ATOM     25  C   UNL A   1      37.031  31.790  28.530  1.00  0.00     0.016 A 
ATOM     26  C   UNL A   1      37.024  29.193  29.590  1.00  0.00     0.010 A 
ATOM     27  C   UNL A   1      38.227  31.200  28.954  1.00  0.00     0.010 A 
ATOM     28  C   UNL A   1      38.227  29.903  29.498  1.00  0.00    -0.014 A 
BRANCH  28  29
ATOM     29  C   UNL A   1      39.476  29.290  30.008  1.00  0.00     0.031 A 
ATOM     30  C   UNL A   1      40.108  29.811  31.267  1.00  0.00     0.074 A 
ATOM     31  C   UNL A   1      40.015  28.239  29.365  1.00  0.00     0.049 A 
ATOM     32  N   UNL A   1      41.220  29.436  31.848  1.00  0.00    -0.248 NA
ATOM     33  C   UNL A   1      39.395  30.891  31.965  1.00  0.00     0.031 C 
ATOM     34  C   UNL A   1      39.463  27.606  28.166  1.00  0.00     0.029 A 
ATOM     35  N   UNL A   1      41.148  27.514  29.636  1.00  0.00    -0.354 N 
ATOM     36  C   UNL A   1      41.347  30.241  32.973  1.00  0.00     0.074 A 
ATOM     37  C   UNL A   1      40.209  31.136  32.983  1.00  0.00     0.031 C 
ATOM     38  C   UNL A   1      40.252  26.577  27.814  1.00  0.00     0.029 A 
ATOM     39  C   UNL A   1      41.386  26.509  28.731  1.00  0.00     0.049 A 
ATOM     40  H   UNL A   1      41.734  27.696  30.408  1.00  0.00     0.167 HD
ATOM     41  C   UNL A   1      42.323  30.233  33.912  1.00  0.00     0.031 A 
ATOM     42  C   UNL A   1      42.416  25.648  28.638  1.00  0.00     0.031 A 
ATOM     43  C   UNL A   1      43.458  29.348  33.899  1.00  0.00     0.049 A 
ATOM     44  C   UNL A   1      43.527  25.717  29.646  1.00  0.00     0.074 A 
ATOM     45  C   UNL A   1      44.504  29.274  34.802  1.00  0.00     0.029 A 
ATOM     46  N   UNL A   1      43.693  28.385  32.931  1.00  0.00    -0.354 N 
ATOM     47  N   UNL A   1      43.645  26.495  30.694  1.00  0.00    -0.248 NA
ATOM     48  C   UNL A   1      44.653  24.792  29.453  1.00  0.00     0.031 C 
ATOM     49  C   UNL A   1      45.395  28.290  34.358  1.00  0.00     0.029 A 
ATOM     50  C   UNL A   1      44.878  27.722  33.204  1.00  0.00     0.049 A 
ATOM     51  H   UNL A   1      43.105  28.198  32.164  1.00  0.00     0.167 HD
ATOM     52  C   UNL A   1      44.844  26.140  31.296  1.00  0.00     0.074 A 
ATOM     53  C   UNL A   1      45.411  25.066  30.505  1.00  0.00     0.031 C 
ATOM     54  C   UNL A   1      45.426  26.657  32.406  1.00  0.00     0.031 A 
BRANCH  41  55
ATOM     55  C   UNL A   1      42.219  31.243  35.019  1.00  0.00    -0.014 A 
ATOM     56  C   UNL A   1      41.255  31.119  36.030  1.00  0.00     0.009 A 
ATOM     57  C   UNL A   1      43.120  32.318  35.065  1.00  0.00     0.009 A 
ATOM     58  C   UNL A   1      41.176  32.067  37.051  1.00  0.00     0.001 A 
ATOM     59  C   UNL A   1      43.054  33.252  36.100  1.00  0.00     0.001 A 
ATOM     60  C   UNL A   1      42.077  33.131  37.087  1.00  0.00     0.000 A 
ENDBRANCH  41  55
BRANCH  42  61
ATOM     61  C   UNL A   1      42.463  24.662  27.528  1.00  0.00    -0.014 A 
ATOM     62  C   UNL A   1      43.147  24.955  26.339  1.00  0.00     0.009 A 
ATOM     63  C   UNL A   1      41.809  23.425  27.648  1.00  0.00     0.009 A 
ATOM     64  C   UNL A   1      43.158  24.038  25.286  1.00  0.00     0.001 A 
ATOM     65  C   UNL A   1      41.844  22.501  26.604  1.00  0.00     0.001 A 
ATOM     66  C   UNL A   1      42.510  22.812  25.420  1.00  0.00     0.000 A 
ENDBRANCH  42  61
BRANCH  54  67
ATOM     67  C   UNL A   1      46.726  26.046  32.842  1.00  0.00    -0.014 A 
ATOM     68  C   UNL A   1      47.952  26.523  32.354  1.00  0.00     0.009 A 
ATOM     69  C   UNL A   1      46.722  24.999  33.777  1.00  0.00     0.009 A 
ATOM     70  C   UNL A   1      49.150  25.939  32.772  1.00  0.00     0.001 A 
ATOM     71  C   UNL A   1      47.922  24.434  34.209  1.00  0.00     0.001 A 
ATOM     72  C   UNL A   1      49.134  24.899  33.701  1.00  0.00     0.000 A 
ENDBRANCH  54  67
ENDBRANCH  28  29
ENDBRANCH  21  23
ENDBRANCH  20  21
ENDBRANCH  19  20
ENDBRANCH   1  19
TORSDOF 14
ENDMDL
MODEL 3
REMARK VINA RESULT:      -9.9      3.647      6.273
REMARK SMILES Cc1ccc([C@@](C)(O)[C@H](F)C(=O)OCCOC(=O)c2ccc(-c3c4nc(c(-c5ccccc5)c5ccc([nH]5)c(-c5ccccc5)c5nc(c(-c6ccccc6)c6ccc3[nH]6)C=C5)C=C4)cc2)cc1F
REMARK SMILES IDX 14 1 13 2 11 3 12 4 9 5 10 6 6 7 7 8 5 9 1 10 2 11 3 12
REMARK SMILES IDX 68 13 4 14 67 15 69 16 8 17 15 19 16 20 17 21 18 22 19 23
REMARK SMILES IDX 20 24 66 25 21 26 65 27 22 28 23 29 24 30 59 31 25 32 64 33
REMARK SMILES IDX 58 34 60 35 26 36 63 37 57 38 56 39 27 41 49 42 34 43 48 44
REMARK SMILES IDX 35 45 38 46 47 47 61 48 36 49 37 50 46 52 62 53 39 54 28 55
REMARK SMILES IDX 29 56 33 57 30 58 32 59 31 60 50 61 51 62 55 63 52 64 54 65
REMARK SMILES IDX 53 66 40 67 41 68 45 69 42 70 44 71 43 72
REMARK H PARENT 8 18 60 40 38 51
REMARK Flexibility Score: inf
ROOT
ATOM      1  C   UNL A   1      41.651  19.959  26.107  1.00  0.00     0.274 C 
ENDROOT
BRANCH   1   2
ATOM      2  O   UNL A   1      42.860  20.586  26.571  1.00  0.00    -0.460 OA
BRANCH   2   3
ATOM      3  C   UNL A   1      43.757  20.967  25.618  1.00  0.00     0.344 C 
ATOM      4  O   UNL A   1      43.833  20.461  24.503  1.00  0.00    -0.249 OA
BRANCH   3   5
ATOM      5  C   UNL A   1      44.526  22.209  26.044  1.00  0.00     0.311 C 
ATOM      6  F   UNL A   1      45.501  22.547  25.133  1.00  0.00    -0.231 F 
BRANCH   5   7
ATOM      7  C   UNL A   1      43.658  23.469  26.281  1.00  0.00     0.129 C 
ATOM      8  C   UNL A   1      42.986  23.496  27.662  1.00  0.00     0.051 C 
BRANCH   7   9
ATOM      9  C   UNL A   1      44.443  24.785  26.109  1.00  0.00    -0.010 A 
ATOM     10  C   UNL A   1      46.757  28.440  25.728  1.00  0.00     0.047 C 
ATOM     11  C   UNL A   1      45.960  27.177  25.838  1.00  0.00    -0.015 A 
ATOM     12  C   UNL A   1      44.747  27.023  25.162  1.00  0.00     0.007 A 
ATOM     13  C   UNL A   1      46.411  26.127  26.635  1.00  0.00     0.126 A 
ATOM     14  C   UNL A   1      44.003  25.843  25.293  1.00  0.00     0.007 A 
ATOM     15  C   UNL A   1      45.676  24.950  26.770  1.00  0.00     0.046 A 
ATOM     16  F   UNL A   1      47.573  26.242  27.293  1.00  0.00    -0.207 F 
ENDBRANCH   7   9
BRANCH   7  17
ATOM     17  O   UNL A   1      42.608  23.465  25.295  1.00  0.00    -0.382 OA
ATOM     18  H   UNL A   1      42.457  22.558  24.986  1.00  0.00     0.212 HD
ENDBRANCH   7  17
ENDBRANCH   5   7
ENDBRANCH   3   5
ENDBRANCH   2   3
ENDBRANCH   1   2
BRANCH   1  19
ATOM     19  C   UNL A   1      40.407  20.740  26.551  1.00  0.00     0.275 C 
BRANCH  19  20
ATOM     20  O   UNL A   1      40.403  22.098  26.060  1.00  0.00    -0.458 OA
BRANCH  20  21
ATOM     21  C   UNL A   1      39.231  22.761  26.195  1.00  0.00     0.338 C 
ATOM     22  O   UNL A   1      38.113  22.338  25.959  1.00  0.00    -0.246 OA
BRANCH  21  23
ATOM     23  C   UNL A   1      39.455  24.079  26.816  1.00  0.00     0.060 A 
ATOM     24  C   UNL A   1      40.071  25.066  26.038  1.00  0.00     0.016 A 
ATOM     25  C   UNL A   1      39.146  24.326  28.155  1.00  0.00     0.016 A 
ATOM     26  C   UNL A   1      40.396  26.297  26.599  1.00  0.00     0.010 A 
ATOM     27  C   UNL A   1      39.467  25.567  28.717  1.00  0.00     0.010 A 
ATOM     28  C   UNL A   1      40.106  26.553  27.945  1.00  0.00    -0.014 A 
BRANCH  28  29
ATOM     29  C   UNL A   1      40.509  27.847  28.543  1.00  0.00     0.031 A 
ATOM     30  C   UNL A   1      41.937  28.074  28.949  1.00  0.00     0.074 A 
ATOM     31  C   UNL A   1      39.602  28.832  28.680  1.00  0.00     0.049 A 
ATOM     32  N   UNL A   1      42.475  29.119  29.526  1.00  0.00    -0.248 NA
ATOM     33  C   UNL A   1      42.885  26.986  28.666  1.00  0.00     0.031 C 
ATOM     34  C   UNL A   1      38.200  28.753  28.269  1.00  0.00     0.029 A 
ATOM     35  N   UNL A   1      39.731  30.095  29.197  1.00  0.00    -0.354 N 
ATOM     36  C   UNL A   1      43.819  28.811  29.686  1.00  0.00     0.074 A 
ATOM     37  C   UNL A   1      44.013  27.475  29.163  1.00  0.00     0.031 C 
ATOM     38  C   UNL A   1      37.600  29.925  28.538  1.00  0.00     0.029 A 
ATOM     39  C   UNL A   1      38.561  30.816  29.182  1.00  0.00     0.049 A 
ATOM     40  H   UNL A   1      40.580  30.453  29.546  1.00  0.00     0.167 HD
ATOM     41  C   UNL A   1      44.804  29.574  30.220  1.00  0.00     0.031 A 
ATOM     42  C   UNL A   1      38.291  32.046  29.656  1.00  0.00     0.031 A 
ATOM     43  C   UNL A   1      44.611  30.899  30.747  1.00  0.00     0.049 A 
ATOM     44  C   UNL A   1      39.382  32.836  30.319  1.00  0.00     0.074 A 
ATOM     45  C   UNL A   1      45.546  31.744  31.319  1.00  0.00     0.029 A 
ATOM     46  N   UNL A   1      43.399  31.569  30.767  1.00  0.00    -0.354 N 
ATOM     47  N   UNL A   1      40.646  32.526  30.481  1.00  0.00    -0.248 NA
ATOM     48  C   UNL A   1      39.008  34.146  30.871  1.00  0.00     0.031 C 
ATOM     49  C   UNL A   1      44.890  32.913  31.721  1.00  0.00     0.029 A 
ATOM     50  C   UNL A   1      43.556  32.812  31.358  1.00  0.00     0.049 A 
ATOM     51  H   UNL A   1      42.551  31.215  30.413  1.00  0.00     0.167 HD
ATOM     52  C   UNL A   1      41.220  33.608  31.134  1.00  0.00     0.074 A 
ATOM     53  C   UNL A   1      40.172  34.589  31.325  1.00  0.00     0.031 C 
ATOM     54  C   UNL A   1      42.503  33.774  31.540  1.00  0.00     0.031 A 
BRANCH  41  55
ATOM     55  C   UNL A   1      46.177  28.970  30.292  1.00  0.00    -0.014 A 
ATOM     56  C   UNL A   1      46.564  28.166  31.375  1.00  0.00     0.009 A 
ATOM     57  C   UNL A   1      47.086  29.185  29.245  1.00  0.00     0.009 A 
ATOM     58  C   UNL A   1      47.845  27.613  31.422  1.00  0.00     0.001 A 
ATOM     59  C   UNL A   1      48.359  28.612  29.283  1.00  0.00     0.001 A 
ATOM     60  C   UNL A   1      48.740  27.834  30.375  1.00  0.00     0.000 A 
ENDBRANCH  41  55
BRANCH  42  61
ATOM     61  C   UNL A   1      36.916  32.598  29.550  1.00  0.00    -0.014 A 
ATOM     62  C   UNL A   1      35.988  32.410  30.585  1.00  0.00     0.009 A 
ATOM     63  C   UNL A   1      36.521  33.305  28.403  1.00  0.00     0.009 A 
ATOM     64  C   UNL A   1      34.686  32.901  30.464  1.00  0.00     0.001 A 
ATOM     65  C   UNL A   1      35.228  33.817  28.296  1.00  0.00     0.001 A 
ATOM     66  C   UNL A   1      34.308  33.606  29.323  1.00  0.00     0.000 A 
ENDBRANCH  42  61
BRANCH  54  67
ATOM     67  C   UNL A   1      42.844  35.077  32.203  1.00  0.00    -0.014 A 
ATOM     68  C   UNL A   1      42.560  35.298  33.559  1.00  0.00     0.009 A 
ATOM     69  C   UNL A   1      43.486  36.085  31.466  1.00  0.00     0.009 A 
ATOM     70  C   UNL A   1      42.885  36.518  34.157  1.00  0.00     0.001 A 
ATOM     71  C   UNL A   1      43.830  37.293  32.073  1.00  0.00     0.001 A 
ATOM     72  C   UNL A   1      43.522  37.512  33.414  1.00  0.00     0.000 A 
ENDBRANCH  54  67
ENDBRANCH  28  29
ENDBRANCH  21  23
ENDBRANCH  20  21
ENDBRANCH  19  20
ENDBRANCH   1  19
TORSDOF 14
ENDMDL
