MODEL 1
REMARK VINA RESULT:     -11.5      0.000      0.000
REMARK SMILES Cc1c(/C=C/c2cc(C(=O)OCCOC(=O)c3ccc(-c4c5nc(c(-c6ccccc6)c6ccc([nH]6)c(-c6ccccc6)c6nc(c(-c7ccccc7)c7ccc4[nH]7)C=C6)C=C5)cc3)c3ccccc3n2)cc(C#N)n1C
REMARK SMILES IDX 12 1 11 2 9 3 10 4 8 5 6 6 7 7 71 8 70 9 65 10 69 11 66 12
REMARK SMILES IDX 68 13 67 14 5 15 4 16 3 17 1 18 2 19 76 20 72 21 73 22 77 23
REMARK SMILES IDX 74 24 75 25 13 26 14 27 15 28 16 29 17 30 18 31 64 32 19 33
REMARK SMILES IDX 63 34 20 35 21 36 22 37 57 38 23 39 62 40 56 41 58 42 24 43
REMARK SMILES IDX 61 44 55 45 54 46 25 48 47 49 32 50 46 51 33 52 36 53 45 54
REMARK SMILES IDX 59 55 34 56 35 57 44 59 60 60 37 61 26 62 27 63 31 64 28 65
REMARK SMILES IDX 30 66 29 67 48 68 49 69 53 70 50 71 52 72 51 73 38 74 39 75
REMARK SMILES IDX 43 76 40 77 42 78 41 79
REMARK H PARENT 58 47 36 58
REMARK Flexibility Score: inf
ROOT
ATOM      1  C   UNL A   1      35.017  21.520  26.267  1.00  0.00     0.275 C 
ENDROOT
BRANCH   1   2
ATOM      2  O   UNL A   1      35.028  22.966  26.290  1.00  0.00    -0.458 OA
BRANCH   2   3
ATOM      3  C   UNL A   1      33.823  23.583  26.321  1.00  0.00     0.339 C 
ATOM      4  O   UNL A   1      32.938  23.385  27.141  1.00  0.00    -0.246 OA
BRANCH   3   5
ATOM      5  C   UNL A   1      33.702  24.651  25.293  1.00  0.00     0.071 A 
ATOM      6  C   UNL A   1      33.552  27.018  24.901  1.00  0.00     0.065 A 
ATOM      7  C   UNL A   1      33.708  25.963  25.773  1.00  0.00     0.044 A 
ATOM      8  N   UNL A   1      33.292  26.830  23.596  1.00  0.00    -0.248 NA
ATOM      9  C   UNL A   1      33.248  25.565  23.126  1.00  0.00     0.072 A 
ATOM     10  C   UNL A   1      33.481  24.417  23.924  1.00  0.00     0.015 A 
ATOM     11  C   UNL A   1      32.948  25.382  21.784  1.00  0.00     0.029 A 
ATOM     12  C   UNL A   1      33.438  23.136  23.317  1.00  0.00     0.011 A 
ATOM     13  C   UNL A   1      32.900  24.115  21.196  1.00  0.00     0.002 A 
ATOM     14  C   UNL A   1      33.160  22.990  21.961  1.00  0.00     0.001 A 
BRANCH   6  15
ATOM     15  C   UNL A   1      33.732  28.381  25.422  1.00  0.00     0.029 C 
ATOM     16  C   UNL A   1      34.198  28.685  26.643  1.00  0.00     0.012 C 
BRANCH  16  17
ATOM     17  C   UNL A   1      34.486  29.989  27.181  1.00  0.00    -0.003 A 
ATOM     18  C   UNL A   1      37.074  29.978  27.653  1.00  0.00     0.065 C 
ATOM     19  C   UNL A   1      35.692  30.541  27.609  1.00  0.00     0.023 A 
ATOM     20  N   UNL A   1      35.421  31.833  28.046  1.00  0.00    -0.339 N 
ATOM     21  C   UNL A   1      33.482  30.976  27.384  1.00  0.00     0.048 A 
ATOM     22  C   UNL A   1      34.081  32.103  27.905  1.00  0.00     0.120 A 
ATOM     23  C   UNL A   1      36.409  32.763  28.567  1.00  0.00     0.150 C 
BRANCH  22  24
ATOM     24  C   UNL A   1      33.437  33.328  28.238  1.00  0.00     0.118 C 
ATOM     25  N   UNL A   1      32.917  34.326  28.531  1.00  0.00    -0.191 NA
ENDBRANCH  22  24
ENDBRANCH  16  17
ENDBRANCH   6  15
ENDBRANCH   3   5
ENDBRANCH   2   3
ENDBRANCH   1   2
BRANCH   1  26
ATOM     26  C   UNL A   1      35.886  20.975  25.131  1.00  0.00     0.275 C 
BRANCH  26  27
ATOM     27  O   UNL A   1      37.051  21.799  24.940  1.00  0.00    -0.458 OA
BRANCH  27  28
ATOM     28  C   UNL A   1      38.168  21.322  25.525  1.00  0.00     0.338 C 
ATOM     29  O   UNL A   1      38.679  20.224  25.378  1.00  0.00    -0.246 OA
BRANCH  28  30
ATOM     30  C   UNL A   1      38.828  22.376  26.299  1.00  0.00     0.060 A 
ATOM     31  C   UNL A   1      38.345  23.665  26.135  1.00  0.00     0.016 A 
ATOM     32  C   UNL A   1      40.027  22.158  26.963  1.00  0.00     0.016 A 
ATOM     33  C   UNL A   1      39.139  24.754  26.454  1.00  0.00     0.010 A 
ATOM     34  C   UNL A   1      40.745  23.260  27.447  1.00  0.00     0.010 A 
ATOM     35  C   UNL A   1      40.337  24.577  27.152  1.00  0.00    -0.014 A 
BRANCH  35  36
ATOM     36  C   UNL A   1      41.140  25.763  27.573  1.00  0.00     0.031 A 
ATOM     37  C   UNL A   1      40.611  26.724  28.610  1.00  0.00     0.074 A 
ATOM     38  C   UNL A   1      42.359  25.979  27.028  1.00  0.00     0.049 A 
ATOM     39  N   UNL A   1      41.090  27.886  28.974  1.00  0.00    -0.248 NA
ATOM     40  C   UNL A   1      39.380  26.338  29.322  1.00  0.00     0.031 C 
ATOM     41  C   UNL A   1      43.025  25.111  26.050  1.00  0.00     0.029 A 
ATOM     42  N   UNL A   1      43.260  26.998  27.219  1.00  0.00    -0.354 N 
ATOM     43  C   UNL A   1      40.185  28.400  29.898  1.00  0.00     0.074 A 
ATOM     44  C   UNL A   1      39.131  27.421  30.045  1.00  0.00     0.031 C 
ATOM     45  C   UNL A   1      44.236  25.605  25.766  1.00  0.00     0.029 A 
ATOM     46  C   UNL A   1      44.386  26.888  26.433  1.00  0.00     0.049 A 
ATOM     47  H   UNL A   1      43.117  27.735  27.855  1.00  0.00     0.167 HD
ATOM     48  C   UNL A   1      40.227  29.585  30.553  1.00  0.00     0.031 A 
ATOM     49  C   UNL A   1      45.397  27.746  26.210  1.00  0.00     0.031 A 
ATOM     50  C   UNL A   1      41.295  30.543  30.424  1.00  0.00     0.049 A 
ATOM     51  C   UNL A   1      45.378  29.078  26.901  1.00  0.00     0.074 A 
ATOM     52  C   UNL A   1      41.445  31.754  31.078  1.00  0.00     0.029 A 
ATOM     53  N   UNL A   1      42.388  30.404  29.585  1.00  0.00    -0.354 N 
ATOM     54  N   UNL A   1      44.517  29.544  27.772  1.00  0.00    -0.248 NA
ATOM     55  C   UNL A   1      46.470  30.005  26.573  1.00  0.00     0.031 C 
ATOM     56  C   UNL A   1      42.591  32.380  30.581  1.00  0.00     0.029 A 
ATOM     57  C   UNL A   1      43.201  31.521  29.683  1.00  0.00     0.049 A 
ATOM     58  H   UNL A   1      42.563  29.626  29.007  1.00  0.00     0.167 HD
ATOM     59  C   UNL A   1      44.979  30.806  28.117  1.00  0.00     0.074 A 
ATOM     60  C   UNL A   1      46.211  31.018  27.386  1.00  0.00     0.031 C 
ATOM     61  C   UNL A   1      44.430  31.714  28.959  1.00  0.00     0.031 A 
BRANCH  48  62
ATOM     62  C   UNL A   1      39.067  29.954  31.440  1.00  0.00    -0.014 A 
ATOM     63  C   UNL A   1      39.138  29.845  32.837  1.00  0.00     0.009 A 
ATOM     64  C   UNL A   1      37.914  30.513  30.862  1.00  0.00     0.009 A 
ATOM     65  C   UNL A   1      38.072  30.273  33.633  1.00  0.00     0.001 A 
ATOM     66  C   UNL A   1      36.865  30.970  31.662  1.00  0.00     0.001 A 
ATOM     67  C   UNL A   1      36.943  30.844  33.047  1.00  0.00     0.000 A 
ENDBRANCH  48  62
BRANCH  49  68
ATOM     68  C   UNL A   1      46.467  27.419  25.226  1.00  0.00    -0.014 A 
ATOM     69  C   UNL A   1      46.600  28.151  24.036  1.00  0.00     0.009 A 
ATOM     70  C   UNL A   1      47.334  26.335  25.449  1.00  0.00     0.009 A 
ATOM     71  C   UNL A   1      47.541  27.775  23.074  1.00  0.00     0.001 A 
ATOM     72  C   UNL A   1      48.304  25.990  24.507  1.00  0.00     0.001 A 
ATOM     73  C   UNL A   1      48.394  26.698  23.312  1.00  0.00     0.000 A 
ENDBRANCH  49  68
BRANCH  61  74
ATOM     74  C   UNL A   1      45.195  32.987  29.188  1.00  0.00    -0.014 A 
ATOM     75  C   UNL A   1      46.169  33.092  30.192  1.00  0.00     0.009 A 
ATOM     76  C   UNL A   1      44.947  34.095  28.362  1.00  0.00     0.009 A 
ATOM     77  C   UNL A   1      46.847  34.296  30.393  1.00  0.00     0.001 A 
ATOM     78  C   UNL A   1      45.654  35.284  28.538  1.00  0.00     0.001 A 
ATOM     79  C   UNL A   1      46.595  35.387  29.561  1.00  0.00     0.000 A 
ENDBRANCH  61  74
ENDBRANCH  35  36
ENDBRANCH  28  30
ENDBRANCH  27  28
ENDBRANCH  26  27
ENDBRANCH   1  26
TORSDOF 14
ENDMDL
MODEL 2
REMARK VINA RESULT:     -11.4      0.602      5.888
REMARK SMILES Cc1c(/C=C/c2cc(C(=O)OCCOC(=O)c3ccc(-c4c5nc(c(-c6ccccc6)c6ccc([nH]6)c(-c6ccccc6)c6nc(c(-c7ccccc7)c7ccc4[nH]7)C=C6)C=C5)cc3)c3ccccc3n2)cc(C#N)n1C
REMARK SMILES IDX 12 1 11 2 9 3 10 4 8 5 6 6 7 7 71 8 70 9 65 10 69 11 66 12
REMARK SMILES IDX 68 13 67 14 5 15 4 16 3 17 1 18 2 19 76 20 72 21 73 22 77 23
REMARK SMILES IDX 74 24 75 25 13 26 14 27 15 28 16 29 17 30 18 31 64 32 19 33
REMARK SMILES IDX 63 34 20 35 21 36 22 37 57 38 23 39 62 40 56 41 58 42 24 43
REMARK SMILES IDX 61 44 55 45 54 46 25 48 47 49 32 50 46 51 33 52 36 53 45 54
REMARK SMILES IDX 59 55 34 56 35 57 44 59 60 60 37 61 26 62 27 63 31 64 28 65
REMARK SMILES IDX 30 66 29 67 48 68 49 69 53 70 50 71 52 72 51 73 38 74 39 75
REMARK SMILES IDX 43 76 40 77 42 78 41 79
REMARK H PARENT 58 47 36 58
REMARK Flexibility Score: inf
ROOT
ATOM      1  C   UNL A   1      35.219  21.667  26.215  1.00  0.00     0.275 C 
ENDROOT
BRANCH   1   2
ATOM      2  O   UNL A   1      35.225  23.106  26.075  1.00  0.00    -0.458 OA
BRANCH   2   3
ATOM      3  C   UNL A   1      34.034  23.736  26.212  1.00  0.00     0.339 C 
ATOM      4  O   UNL A   1      33.208  23.521  27.087  1.00  0.00    -0.246 OA
BRANCH   3   5
ATOM      5  C   UNL A   1      33.854  24.837  25.229  1.00  0.00     0.071 A 
ATOM      6  C   UNL A   1      33.619  27.211  24.932  1.00  0.00     0.065 A 
ATOM      7  C   UNL A   1      33.830  26.129  25.759  1.00  0.00     0.044 A 
ATOM      8  N   UNL A   1      33.334  27.065  23.627  1.00  0.00    -0.248 NA
ATOM      9  C   UNL A   1      33.320  25.817  23.109  1.00  0.00     0.072 A 
ATOM     10  C   UNL A   1      33.608  24.647  23.857  1.00  0.00     0.015 A 
ATOM     11  C   UNL A   1      32.993  25.675  21.768  1.00  0.00     0.029 A 
ATOM     12  C   UNL A   1      33.591  23.390  23.202  1.00  0.00     0.011 A 
ATOM     13  C   UNL A   1      32.971  24.431  21.133  1.00  0.00     0.002 A 
ATOM     14  C   UNL A   1      33.286  23.286  21.848  1.00  0.00     0.001 A 
BRANCH   6  15
ATOM     15  C   UNL A   1      33.768  28.558  25.501  1.00  0.00     0.029 C 
ATOM     16  C   UNL A   1      34.329  28.837  26.688  1.00  0.00     0.012 C 
BRANCH  16  17
ATOM     17  C   UNL A   1      34.590  30.131  27.260  1.00  0.00    -0.003 A 
ATOM     18  C   UNL A   1      37.142  30.095  27.898  1.00  0.00     0.065 C 
ATOM     19  C   UNL A   1      35.769  30.670  27.772  1.00  0.00     0.023 A 
ATOM     20  N   UNL A   1      35.479  31.957  28.209  1.00  0.00    -0.339 N 
ATOM     21  C   UNL A   1      33.582  31.124  27.412  1.00  0.00     0.048 A 
ATOM     22  C   UNL A   1      34.153  32.239  27.986  1.00  0.00     0.120 A 
ATOM     23  C   UNL A   1      36.437  32.874  28.805  1.00  0.00     0.150 C 
BRANCH  22  24
ATOM     24  C   UNL A   1      33.497  33.465  28.293  1.00  0.00     0.118 C 
ATOM     25  N   UNL A   1      32.969  34.474  28.526  1.00  0.00    -0.191 NA
ENDBRANCH  22  24
ENDBRANCH  16  17
ENDBRANCH   6  15
ENDBRANCH   3   5
ENDBRANCH   2   3
ENDBRANCH   1   2
BRANCH   1  26
ATOM     26  C   UNL A   1      36.192  21.007  25.235  1.00  0.00     0.275 C 
BRANCH  26  27
ATOM     27  O   UNL A   1      37.349  21.838  25.028  1.00  0.00    -0.458 OA
BRANCH  27  28
ATOM     28  C   UNL A   1      38.443  21.443  25.710  1.00  0.00     0.338 C 
ATOM     29  O   UNL A   1      38.980  20.347  25.693  1.00  0.00    -0.246 OA
BRANCH  28  30
ATOM     30  C   UNL A   1      39.045  22.579  26.412  1.00  0.00     0.060 A 
ATOM     31  C   UNL A   1      38.535  23.834  26.117  1.00  0.00     0.016 A 
ATOM     32  C   UNL A   1      40.222  22.454  27.136  1.00  0.00     0.016 A 
ATOM     33  C   UNL A   1      39.287  24.970  26.369  1.00  0.00     0.010 A 
ATOM     34  C   UNL A   1      40.892  23.615  27.549  1.00  0.00     0.010 A 
ATOM     35  C   UNL A   1      40.462  24.888  27.124  1.00  0.00    -0.014 A 
BRANCH  35  36
ATOM     36  C   UNL A   1      41.216  26.129  27.469  1.00  0.00     0.031 A 
ATOM     37  C   UNL A   1      42.542  26.432  26.814  1.00  0.00     0.074 A 
ATOM     38  C   UNL A   1      40.708  26.998  28.371  1.00  0.00     0.049 A 
ATOM     39  N   UNL A   1      43.410  27.367  27.108  1.00  0.00    -0.248 NA
ATOM     40  C   UNL A   1      42.955  25.569  25.694  1.00  0.00     0.031 C 
ATOM     41  C   UNL A   1      39.414  26.866  29.051  1.00  0.00     0.029 A 
ATOM     42  N   UNL A   1      41.216  28.171  28.875  1.00  0.00    -0.354 N 
ATOM     43  C   UNL A   1      44.496  27.160  26.263  1.00  0.00     0.074 A 
ATOM     44  C   UNL A   1      44.178  26.015  25.440  1.00  0.00     0.031 C 
ATOM     45  C   UNL A   1      39.213  27.930  29.839  1.00  0.00     0.029 A 
ATOM     46  C   UNL A   1      40.410  28.754  29.826  1.00  0.00     0.049 A 
ATOM     47  H   UNL A   1      42.074  28.558  28.584  1.00  0.00     0.167 HD
ATOM     48  C   UNL A   1      45.656  27.856  26.191  1.00  0.00     0.031 A 
ATOM     49  C   UNL A   1      40.625  29.792  30.654  1.00  0.00     0.031 A 
ATOM     50  C   UNL A   1      45.955  29.013  26.994  1.00  0.00     0.049 A 
ATOM     51  C   UNL A   1      41.947  30.499  30.594  1.00  0.00     0.074 A 
ATOM     52  C   UNL A   1      47.088  29.809  26.964  1.00  0.00     0.029 A 
ATOM     53  N   UNL A   1      45.125  29.538  27.971  1.00  0.00    -0.354 N 
ATOM     54  N   UNL A   1      42.960  30.291  29.788  1.00  0.00    -0.248 NA
ATOM     55  C   UNL A   1      42.158  31.583  31.564  1.00  0.00     0.031 C 
ATOM     56  C   UNL A   1      46.975  30.770  27.972  1.00  0.00     0.029 A 
ATOM     57  C   UNL A   1      45.734  30.627  28.571  1.00  0.00     0.049 A 
ATOM     58  H   UNL A   1      44.233  29.189  28.203  1.00  0.00     0.167 HD
ATOM     59  C   UNL A   1      43.915  31.236  30.135  1.00  0.00     0.074 A 
ATOM     60  C   UNL A   1      43.349  32.036  31.201  1.00  0.00     0.031 C 
ATOM     61  C   UNL A   1      45.155  31.422  29.621  1.00  0.00     0.031 A 
BRANCH  48  62
ATOM     62  C   UNL A   1      46.726  27.370  25.248  1.00  0.00    -0.014 A 
ATOM     63  C   UNL A   1      46.892  27.923  23.969  1.00  0.00     0.009 A 
ATOM     64  C   UNL A   1      47.644  26.403  25.693  1.00  0.00     0.009 A 
ATOM     65  C   UNL A   1      47.947  27.504  23.152  1.00  0.00     0.001 A 
ATOM     66  C   UNL A   1      48.714  26.011  24.887  1.00  0.00     0.001 A 
ATOM     67  C   UNL A   1      48.861  26.558  23.615  1.00  0.00     0.000 A 
ENDBRANCH  48  62
BRANCH  49  68
ATOM     68  C   UNL A   1      39.608  30.173  31.673  1.00  0.00    -0.014 A 
ATOM     69  C   UNL A   1      38.604  31.107  31.375  1.00  0.00     0.009 A 
ATOM     70  C   UNL A   1      39.665  29.640  32.973  1.00  0.00     0.009 A 
ATOM     71  C   UNL A   1      37.716  31.533  32.365  1.00  0.00     0.001 A 
ATOM     72  C   UNL A   1      38.747  30.032  33.948  1.00  0.00     0.001 A 
ATOM     73  C   UNL A   1      37.786  30.993  33.649  1.00  0.00     0.000 A 
ENDBRANCH  49  68
BRANCH  61  74
ATOM     74  C   UNL A   1      45.953  32.577  30.158  1.00  0.00    -0.014 A 
ATOM     75  C   UNL A   1      45.827  33.870  29.628  1.00  0.00     0.009 A 
ATOM     76  C   UNL A   1      46.828  32.366  31.235  1.00  0.00     0.009 A 
ATOM     77  C   UNL A   1      46.599  34.917  30.135  1.00  0.00     0.001 A 
ATOM     78  C   UNL A   1      47.567  33.422  31.766  1.00  0.00     0.001 A 
ATOM     79  C   UNL A   1      47.461  34.694  31.208  1.00  0.00     0.000 A 
ENDBRANCH  61  74
ENDBRANCH  35  36
ENDBRANCH  28  30
ENDBRANCH  27  28
ENDBRANCH  26  27
ENDBRANCH   1  26
TORSDOF 14
ENDMDL
MODEL 3
REMARK VINA RESULT:     -11.2      2.355      3.623
REMARK SMILES Cc1c(/C=C/c2cc(C(=O)OCCOC(=O)c3ccc(-c4c5nc(c(-c6ccccc6)c6ccc([nH]6)c(-c6ccccc6)c6nc(c(-c7ccccc7)c7ccc4[nH]7)C=C6)C=C5)cc3)c3ccccc3n2)cc(C#N)n1C
REMARK SMILES IDX 12 1 11 2 9 3 10 4 8 5 6 6 7 7 71 8 70 9 65 10 69 11 66 12
REMARK SMILES IDX 68 13 67 14 5 15 4 16 3 17 1 18 2 19 76 20 72 21 73 22 77 23
REMARK SMILES IDX 74 24 75 25 13 26 14 27 15 28 16 29 17 30 18 31 64 32 19 33
REMARK SMILES IDX 63 34 20 35 21 36 22 37 57 38 23 39 62 40 56 41 58 42 24 43
REMARK SMILES IDX 61 44 55 45 54 46 25 48 47 49 32 50 46 51 33 52 36 53 45 54
REMARK SMILES IDX 59 55 34 56 35 57 44 59 60 60 37 61 26 62 27 63 31 64 28 65
REMARK SMILES IDX 30 66 29 67 48 68 49 69 53 70 50 71 52 72 51 73 38 74 39 75
REMARK SMILES IDX 43 76 40 77 42 78 41 79
REMARK H PARENT 58 47 36 58
REMARK Flexibility Score: inf
ROOT
ATOM      1  C   UNL A   1      38.924  21.678  25.833  1.00  0.00     0.275 C 
ENDROOT
BRANCH   1   2
ATOM      2  O   UNL A   1      37.490  21.824  25.948  1.00  0.00    -0.458 OA
BRANCH   2   3
ATOM      3  C   UNL A   1      36.823  22.183  24.825  1.00  0.00     0.339 C 
ATOM      4  O   UNL A   1      37.316  22.332  23.716  1.00  0.00    -0.246 OA
BRANCH   3   5
ATOM      5  C   UNL A   1      35.354  22.277  25.039  1.00  0.00     0.071 A 
ATOM      6  C   UNL A   1      33.538  23.694  25.727  1.00  0.00     0.065 A 
ATOM      7  C   UNL A   1      34.878  23.523  25.457  1.00  0.00     0.044 A 
ATOM      8  N   UNL A   1      32.670  22.669  25.699  1.00  0.00    -0.248 NA
ATOM      9  C   UNL A   1      33.125  21.452  25.330  1.00  0.00     0.072 A 
ATOM     10  C   UNL A   1      34.465  21.191  24.951  1.00  0.00     0.015 A 
ATOM     11  C   UNL A   1      32.226  20.395  25.336  1.00  0.00     0.029 A 
ATOM     12  C   UNL A   1      34.825  19.878  24.554  1.00  0.00     0.011 A 
ATOM     13  C   UNL A   1      32.592  19.102  24.951  1.00  0.00     0.002 A 
ATOM     14  C   UNL A   1      33.892  18.847  24.544  1.00  0.00     0.001 A 
BRANCH   6  15
ATOM     15  C   UNL A   1      33.055  25.055  26.000  1.00  0.00     0.029 C 
ATOM     16  C   UNL A   1      33.725  26.183  25.719  1.00  0.00     0.012 C 
BRANCH  16  17
ATOM     17  C   UNL A   1      33.274  27.541  25.873  1.00  0.00    -0.003 A 
ATOM     18  C   UNL A   1      31.133  27.727  24.356  1.00  0.00     0.065 C 
ATOM     19  C   UNL A   1      32.186  28.200  25.303  1.00  0.00     0.023 A 
ATOM     20  N   UNL A   1      32.202  29.507  25.776  1.00  0.00    -0.339 N 
ATOM     21  C   UNL A   1      33.951  28.490  26.689  1.00  0.00     0.048 A 
ATOM     22  C   UNL A   1      33.269  29.686  26.623  1.00  0.00     0.120 A 
ATOM     23  C   UNL A   1      31.230  30.532  25.432  1.00  0.00     0.150 C 
BRANCH  22  24
ATOM     24  C   UNL A   1      33.601  30.890  27.305  1.00  0.00     0.118 C 
ATOM     25  N   UNL A   1      33.853  31.883  27.856  1.00  0.00    -0.191 NA
ENDBRANCH  22  24
ENDBRANCH  16  17
ENDBRANCH   6  15
ENDBRANCH   3   5
ENDBRANCH   2   3
ENDBRANCH   1   2
BRANCH   1  26
ATOM     26  C   UNL A   1      39.314  20.230  25.529  1.00  0.00     0.275 C 
BRANCH  26  27
ATOM     27  O   UNL A   1      40.304  19.763  26.464  1.00  0.00    -0.458 OA
BRANCH  27  28
ATOM     28  C   UNL A   1      41.567  19.786  25.990  1.00  0.00     0.338 C 
ATOM     29  O   UNL A   1      42.082  19.017  25.195  1.00  0.00    -0.246 OA
BRANCH  28  30
ATOM     30  C   UNL A   1      42.261  20.991  26.450  1.00  0.00     0.060 A 
ATOM     31  C   UNL A   1      42.335  21.183  27.821  1.00  0.00     0.016 A 
ATOM     32  C   UNL A   1      42.605  22.016  25.580  1.00  0.00     0.016 A 
ATOM     33  C   UNL A   1      42.561  22.448  28.337  1.00  0.00     0.010 A 
ATOM     34  C   UNL A   1      43.011  23.249  26.110  1.00  0.00     0.010 A 
ATOM     35  C   UNL A   1      42.943  23.499  27.496  1.00  0.00    -0.014 A 
BRANCH  35  36
ATOM     36  C   UNL A   1      43.274  24.835  28.073  1.00  0.00     0.031 A 
ATOM     37  C   UNL A   1      42.181  25.806  28.448  1.00  0.00     0.074 A 
ATOM     38  C   UNL A   1      44.566  25.181  28.270  1.00  0.00     0.049 A 
ATOM     39  N   UNL A   1      42.282  27.062  28.802  1.00  0.00    -0.248 NA
ATOM     40  C   UNL A   1      40.795  25.309  28.410  1.00  0.00     0.031 C 
ATOM     41  C   UNL A   1      45.731  24.331  28.001  1.00  0.00     0.029 A 
ATOM     42  N   UNL A   1      45.123  26.345  28.744  1.00  0.00    -0.354 N 
ATOM     43  C   UNL A   1      40.979  27.522  28.957  1.00  0.00     0.074 A 
ATOM     44  C   UNL A   1      40.102  26.411  28.665  1.00  0.00     0.031 C 
ATOM     45  C   UNL A   1      46.848  24.977  28.356  1.00  0.00     0.029 A 
ATOM     46  C   UNL A   1      46.499  26.331  28.752  1.00  0.00     0.049 A 
ATOM     47  H   UNL A   1      44.589  27.115  29.048  1.00  0.00     0.167 HD
ATOM     48  C   UNL A   1      40.555  28.763  29.300  1.00  0.00     0.031 A 
ATOM     49  C   UNL A   1      47.393  27.309  28.980  1.00  0.00     0.031 A 
ATOM     50  C   UNL A   1      41.435  29.858  29.618  1.00  0.00     0.049 A 
ATOM     51  C   UNL A   1      46.890  28.688  29.292  1.00  0.00     0.074 A 
ATOM     52  C   UNL A   1      41.098  31.140  30.016  1.00  0.00     0.029 A 
ATOM     53  N   UNL A   1      42.818  29.804  29.571  1.00  0.00    -0.354 N 
ATOM     54  N   UNL A   1      45.655  29.103  29.437  1.00  0.00    -0.248 NA
ATOM     55  C   UNL A   1      47.905  29.735  29.468  1.00  0.00     0.031 C 
ATOM     56  C   UNL A   1      42.275  31.883  30.138  1.00  0.00     0.029 A 
ATOM     57  C   UNL A   1      43.348  31.041  29.903  1.00  0.00     0.049 A 
ATOM     58  H   UNL A   1      43.346  29.006  29.338  1.00  0.00     0.167 HD
ATOM     59  C   UNL A   1      45.747  30.452  29.748  1.00  0.00     0.074 A 
ATOM     60  C   UNL A   1      47.157  30.776  29.802  1.00  0.00     0.031 C 
ATOM     61  C   UNL A   1      44.753  31.346  29.964  1.00  0.00     0.031 A 
BRANCH  48  62
ATOM     62  C   UNL A   1      39.074  29.037  29.309  1.00  0.00    -0.014 A 
ATOM     63  C   UNL A   1      38.308  28.932  30.480  1.00  0.00     0.009 A 
ATOM     64  C   UNL A   1      38.457  29.502  28.135  1.00  0.00     0.009 A 
ATOM     65  C   UNL A   1      36.952  29.273  30.468  1.00  0.00     0.001 A 
ATOM     66  C   UNL A   1      37.111  29.872  28.135  1.00  0.00     0.001 A 
ATOM     67  C   UNL A   1      36.359  29.751  29.300  1.00  0.00     0.000 A 
ENDBRANCH  48  62
BRANCH  49  68
ATOM     68  C   UNL A   1      48.854  27.052  28.835  1.00  0.00    -0.014 A 
ATOM     69  C   UNL A   1      49.629  26.660  29.936  1.00  0.00     0.009 A 
ATOM     70  C   UNL A   1      49.492  27.245  27.598  1.00  0.00     0.009 A 
ATOM     71  C   UNL A   1      51.013  26.517  29.814  1.00  0.00     0.001 A 
ATOM     72  C   UNL A   1      50.869  27.056  27.466  1.00  0.00     0.001 A 
ATOM     73  C   UNL A   1      51.631  26.712  28.579  1.00  0.00     0.000 A 
ENDBRANCH  49  68
BRANCH  61  74
ATOM     74  C   UNL A   1      45.158  32.742  30.348  1.00  0.00    -0.014 A 
ATOM     75  C   UNL A   1      45.334  33.749  29.387  1.00  0.00     0.009 A 
ATOM     76  C   UNL A   1      45.341  33.056  31.704  1.00  0.00     0.009 A 
ATOM     77  C   UNL A   1      45.732  35.030  29.774  1.00  0.00     0.001 A 
ATOM     78  C   UNL A   1      45.699  34.347  32.091  1.00  0.00     0.001 A 
ATOM     79  C   UNL A   1      45.906  35.329  31.125  1.00  0.00     0.000 A 
ENDBRANCH  61  74
ENDBRANCH  35  36
ENDBRANCH  28  30
ENDBRANCH  27  28
ENDBRANCH  26  27
ENDBRANCH   1  26
TORSDOF 14
ENDMDL
