MODEL 1
REMARK VINA RESULT:      -8.9      0.000      0.000
REMARK SMILES CN(C)C(=O)CCNC(=O)NC[C@H]1CC[C@@H](C(=O)OCCOC(=O)c2ccc(-c3c4nc(c(-c5ccccc5)c5ccc([nH]5)c(-c5ccccc5)c5nc(c(-c6ccccc6)c6ccc3[nH]6)C=C5)C=C4)cc2)CC1
REMARK SMILES IDX 19 1 17 2 18 3 16 4 13 5 14 6 74 7 15 8 73 9 12 10 11 11
REMARK SMILES IDX 8 12 9 13 10 15 7 17 6 18 4 19 1 20 2 21 3 22 5 23 20 24
REMARK SMILES IDX 21 25 22 26 23 27 24 28 25 29 26 30 72 31 27 32 71 33 28 34
REMARK SMILES IDX 29 35 30 36 65 37 31 38 70 39 64 40 66 41 32 42 69 43 63 44
REMARK SMILES IDX 62 45 33 47 55 48 40 49 54 50 41 51 44 52 53 53 67 54 42 55
REMARK SMILES IDX 43 56 52 58 68 59 45 60 34 61 35 62 39 63 36 64 38 65 37 66
REMARK SMILES IDX 56 67 57 68 61 69 58 70 60 71 59 72 46 73 47 74 51 75 48 76
REMARK SMILES IDX 50 77 49 78
REMARK H PARENT 8 14 11 16 66 46 44 57
REMARK Flexibility Score: inf
ROOT
ATOM      1  O   UNL A   1      36.708  33.322  29.357  1.00  0.00    -0.462 OA
ENDROOT
BRANCH   1   2
ATOM      2  C   UNL A   1      37.318  33.833  30.455  1.00  0.00     0.309 C 
ATOM      3  O   UNL A   1      38.512  34.103  30.524  1.00  0.00    -0.252 OA
BRANCH   2   4
ATOM      4  C   UNL A   1      36.379  33.981  31.651  1.00  0.00     0.099 C 
ATOM      5  C   UNL A   1      37.210  32.178  33.893  1.00  0.00     0.008 C 
ATOM      6  C   UNL A   1      38.019  33.421  33.490  1.00  0.00     0.006 C 
ATOM      7  C   UNL A   1      36.336  31.664  32.739  1.00  0.00     0.006 C 
ATOM      8  C   UNL A   1      37.146  34.503  32.862  1.00  0.00     0.015 C 
ATOM      9  C   UNL A   1      35.546  32.752  32.017  1.00  0.00     0.015 C 
BRANCH   5  10
ATOM     10  C   UNL A   1      38.171  31.086  34.408  1.00  0.00     0.121 C 
BRANCH  10  11
ATOM     11  N   UNL A   1      37.795  29.764  33.945  1.00  0.00    -0.338 N 
ATOM     12  N   UNL A   1      39.757  28.612  33.304  1.00  0.00    -0.338 N 
ATOM     13  C   UNL A   1      38.431  28.732  33.387  1.00  0.00     0.314 C 
ATOM     14  H   UNL A   1      40.034  27.895  32.690  1.00  0.00     0.165 HD
ATOM     15  O   UNL A   1      37.742  27.815  32.933  1.00  0.00    -0.249 OA
ATOM     16  H   UNL A   1      36.836  29.585  34.072  1.00  0.00     0.165 HD
BRANCH  12  17
ATOM     17  C   UNL A   1      40.884  29.295  33.912  1.00  0.00     0.127 C 
BRANCH  17  18
ATOM     18  C   UNL A   1      42.022  28.358  34.288  1.00  0.00     0.121 C 
BRANCH  18  19
ATOM     19  C   UNL A   1      41.701  27.675  35.600  1.00  0.00     0.223 C 
ATOM     20  C   UNL A   1      42.152  25.948  37.254  1.00  0.00     0.146 C 
ATOM     21  N   UNL A   1      42.315  26.473  35.909  1.00  0.00    -0.349 N 
ATOM     22  C   UNL A   1      43.069  25.634  34.987  1.00  0.00     0.146 C 
ATOM     23  O   UNL A   1      40.951  28.248  36.397  1.00  0.00    -0.275 OA
ENDBRANCH  18  19
ENDBRANCH  17  18
ENDBRANCH  12  17
ENDBRANCH  10  11
ENDBRANCH   5  10
ENDBRANCH   2   4
ENDBRANCH   1   2
BRANCH   1  24
ATOM     24  C   UNL A   1      35.662  34.109  28.753  1.00  0.00     0.274 C 
BRANCH  24  25
ATOM     25  C   UNL A   1      34.638  33.226  28.037  1.00  0.00     0.275 C 
BRANCH  25  26
ATOM     26  O   UNL A   1      34.396  32.016  28.774  1.00  0.00    -0.458 OA
BRANCH  26  27
ATOM     27  C   UNL A   1      34.485  30.879  28.050  1.00  0.00     0.338 C 
ATOM     28  O   UNL A   1      33.689  30.458  27.222  1.00  0.00    -0.246 OA
BRANCH  27  29
ATOM     29  C   UNL A   1      35.791  30.257  28.286  1.00  0.00     0.060 A 
ATOM     30  C   UNL A   1      36.045  29.723  29.552  1.00  0.00     0.016 A 
ATOM     31  C   UNL A   1      36.778  30.256  27.299  1.00  0.00     0.016 A 
ATOM     32  C   UNL A   1      37.292  29.183  29.844  1.00  0.00     0.010 A 
ATOM     33  C   UNL A   1      38.033  29.723  27.595  1.00  0.00     0.010 A 
ATOM     34  C   UNL A   1      38.298  29.195  28.873  1.00  0.00    -0.014 A 
BRANCH  34  35
ATOM     35  C   UNL A   1      39.661  28.738  29.219  1.00  0.00     0.031 A 
ATOM     36  C   UNL A   1      40.565  29.651  29.992  1.00  0.00     0.074 A 
ATOM     37  C   UNL A   1      40.076  27.511  28.857  1.00  0.00     0.049 A 
ATOM     38  N   UNL A   1      41.830  29.505  30.289  1.00  0.00    -0.248 NA
ATOM     39  C   UNL A   1      39.964  30.895  30.498  1.00  0.00     0.031 C 
ATOM     40  C   UNL A   1      39.262  26.509  28.169  1.00  0.00     0.029 A 
ATOM     41  N   UNL A   1      41.296  26.905  29.015  1.00  0.00    -0.354 N 
ATOM     42  C   UNL A   1      42.183  30.649  30.992  1.00  0.00     0.074 A 
ATOM     43  C   UNL A   1      41.004  31.482  31.073  1.00  0.00     0.031 C 
ATOM     44  C   UNL A   1      40.008  25.412  27.960  1.00  0.00     0.029 A 
ATOM     45  C   UNL A   1      41.361  25.656  28.452  1.00  0.00     0.049 A 
ATOM     46  H   UNL A   1      42.051  27.326  29.487  1.00  0.00     0.167 HD
ATOM     47  C   UNL A   1      43.387  30.975  31.518  1.00  0.00     0.031 A 
ATOM     48  C   UNL A   1      42.407  24.819  28.318  1.00  0.00     0.031 A 
ATOM     49  C   UNL A   1      44.558  30.145  31.432  1.00  0.00     0.049 A 
ATOM     50  C   UNL A   1      43.753  25.238  28.841  1.00  0.00     0.074 A 
ATOM     51  C   UNL A   1      45.831  30.391  31.916  1.00  0.00     0.029 A 
ATOM     52  N   UNL A   1      44.594  28.901  30.821  1.00  0.00    -0.354 N 
ATOM     53  N   UNL A   1      44.088  26.337  29.473  1.00  0.00    -0.248 NA
ATOM     54  C   UNL A   1      44.866  24.303  28.627  1.00  0.00     0.031 C 
ATOM     55  C   UNL A   1      46.646  29.309  31.566  1.00  0.00     0.029 A 
ATOM     56  C   UNL A   1      45.868  28.371  30.904  1.00  0.00     0.049 A 
ATOM     57  H   UNL A   1      43.825  28.459  30.393  1.00  0.00     0.167 HD
ATOM     58  C   UNL A   1      45.443  26.216  29.751  1.00  0.00     0.074 A 
ATOM     59  C   UNL A   1      45.865  24.933  29.229  1.00  0.00     0.031 C 
ATOM     60  C   UNL A   1      46.264  27.089  30.383  1.00  0.00     0.031 A 
BRANCH  47  61
ATOM     61  C   UNL A   1      43.502  32.313  32.191  1.00  0.00    -0.014 A 
ATOM     62  C   UNL A   1      43.830  33.469  31.466  1.00  0.00     0.009 A 
ATOM     63  C   UNL A   1      43.264  32.418  33.570  1.00  0.00     0.009 A 
ATOM     64  C   UNL A   1      43.947  34.699  32.116  1.00  0.00     0.001 A 
ATOM     65  C   UNL A   1      43.359  33.652  34.213  1.00  0.00     0.001 A 
ATOM     66  C   UNL A   1      43.708  34.790  33.488  1.00  0.00     0.000 A 
ENDBRANCH  47  61
BRANCH  48  67
ATOM     67  C   UNL A   1      42.233  23.518  27.624  1.00  0.00    -0.014 A 
ATOM     68  C   UNL A   1      41.783  22.389  28.325  1.00  0.00     0.009 A 
ATOM     69  C   UNL A   1      42.524  23.396  26.256  1.00  0.00     0.009 A 
ATOM     70  C   UNL A   1      41.645  21.161  27.674  1.00  0.00     0.001 A 
ATOM     71  C   UNL A   1      42.362  22.174  25.602  1.00  0.00     0.001 A 
ATOM     72  C   UNL A   1      41.930  21.055  26.313  1.00  0.00     0.000 A 
ENDBRANCH  48  67
BRANCH  60  73
ATOM     73  C   UNL A   1      47.690  26.665  30.581  1.00  0.00    -0.014 A 
ATOM     74  C   UNL A   1      48.671  26.938  29.616  1.00  0.00     0.009 A 
ATOM     75  C   UNL A   1      48.060  26.021  31.772  1.00  0.00     0.009 A 
ATOM     76  C   UNL A   1      49.994  26.550  29.831  1.00  0.00     0.001 A 
ATOM     77  C   UNL A   1      49.389  25.655  31.993  1.00  0.00     0.001 A 
ATOM     78  C   UNL A   1      50.352  25.913  31.020  1.00  0.00     0.000 A 
ENDBRANCH  60  73
ENDBRANCH  34  35
ENDBRANCH  27  29
ENDBRANCH  26  27
ENDBRANCH  25  26
ENDBRANCH  24  25
ENDBRANCH   1  24
TORSDOF 16
ENDMDL
MODEL 2
REMARK VINA RESULT:      -8.9      5.135     10.334
REMARK SMILES CN(C)C(=O)CCNC(=O)NC[C@H]1CC[C@@H](C(=O)OCCOC(=O)c2ccc(-c3c4nc(c(-c5ccccc5)c5ccc([nH]5)c(-c5ccccc5)c5nc(c(-c6ccccc6)c6ccc3[nH]6)C=C5)C=C4)cc2)CC1
REMARK SMILES IDX 19 1 17 2 18 3 16 4 13 5 14 6 74 7 15 8 73 9 12 10 11 11
REMARK SMILES IDX 8 12 9 13 10 15 7 17 6 18 4 19 1 20 2 21 3 22 5 23 20 24
REMARK SMILES IDX 21 25 22 26 23 27 24 28 25 29 26 30 72 31 27 32 71 33 28 34
REMARK SMILES IDX 29 35 30 36 65 37 31 38 70 39 64 40 66 41 32 42 69 43 63 44
REMARK SMILES IDX 62 45 33 47 55 48 40 49 54 50 41 51 44 52 53 53 67 54 42 55
REMARK SMILES IDX 43 56 52 58 68 59 45 60 34 61 35 62 39 63 36 64 38 65 37 66
REMARK SMILES IDX 56 67 57 68 61 69 58 70 60 71 59 72 46 73 47 74 51 75 48 76
REMARK SMILES IDX 50 77 49 78
REMARK H PARENT 8 14 11 16 66 46 44 57
REMARK Flexibility Score: inf
ROOT
ATOM      1  O   UNL A   1      37.370  20.150  24.568  1.00  0.00    -0.462 OA
ENDROOT
BRANCH   1   2
ATOM      2  C   UNL A   1      36.782  21.218  25.162  1.00  0.00     0.309 C 
ATOM      3  O   UNL A   1      35.944  21.143  26.053  1.00  0.00    -0.252 OA
BRANCH   2   4
ATOM      4  C   UNL A   1      37.214  22.555  24.561  1.00  0.00     0.099 C 
ATOM      5  C   UNL A   1      34.911  24.466  24.437  1.00  0.00     0.008 C 
ATOM      6  C   UNL A   1      35.574  24.056  25.762  1.00  0.00     0.006 C 
ATOM      7  C   UNL A   1      35.140  23.421  23.335  1.00  0.00     0.006 C 
ATOM      8  C   UNL A   1      37.039  23.674  25.584  1.00  0.00     0.015 C 
ATOM      9  C   UNL A   1      36.581  22.933  23.221  1.00  0.00     0.015 C 
BRANCH   5  10
ATOM     10  C   UNL A   1      33.407  24.722  24.674  1.00  0.00     0.121 C 
BRANCH  10  11
ATOM     11  N   UNL A   1      32.961  24.209  25.955  1.00  0.00    -0.338 N 
ATOM     12  N   UNL A   1      31.589  22.324  25.567  1.00  0.00    -0.338 N 
ATOM     13  C   UNL A   1      32.120  23.256  26.360  1.00  0.00     0.314 C 
ATOM     14  H   UNL A   1      30.847  21.841  25.995  1.00  0.00     0.165 HD
ATOM     15  O   UNL A   1      31.829  23.224  27.558  1.00  0.00    -0.249 OA
ATOM     16  H   UNL A   1      33.381  24.680  26.710  1.00  0.00     0.165 HD
BRANCH  12  17
ATOM     17  C   UNL A   1      31.854  21.860  24.218  1.00  0.00     0.127 C 
BRANCH  17  18
ATOM     18  C   UNL A   1      33.068  20.947  24.126  1.00  0.00     0.121 C 
BRANCH  18  19
ATOM     19  C   UNL A   1      32.832  19.708  24.963  1.00  0.00     0.223 C 
ATOM     20  C   UNL A   1      32.602  17.292  25.154  1.00  0.00     0.146 C 
ATOM     21  N   UNL A   1      32.616  18.493  24.335  1.00  0.00    -0.349 N 
ATOM     22  C   UNL A   1      32.333  18.299  22.919  1.00  0.00     0.146 C 
ATOM     23  O   UNL A   1      32.911  19.801  26.192  1.00  0.00    -0.275 OA
ENDBRANCH  18  19
ENDBRANCH  17  18
ENDBRANCH  12  17
ENDBRANCH  10  11
ENDBRANCH   5  10
ENDBRANCH   2   4
ENDBRANCH   1   2
BRANCH   1  24
ATOM     24  C   UNL A   1      38.248  19.342  25.378  1.00  0.00     0.274 C 
BRANCH  24  25
ATOM     25  C   UNL A   1      39.664  19.920  25.419  1.00  0.00     0.275 C 
BRANCH  25  26
ATOM     26  O   UNL A   1      40.568  19.022  26.083  1.00  0.00    -0.458 OA
BRANCH  26  27
ATOM     27  C   UNL A   1      41.863  19.405  26.072  1.00  0.00     0.338 C 
ATOM     28  O   UNL A   1      42.821  18.783  25.636  1.00  0.00    -0.246 OA
BRANCH  27  29
ATOM     29  C   UNL A   1      41.960  20.792  26.536  1.00  0.00     0.060 A 
ATOM     30  C   UNL A   1      42.318  21.773  25.607  1.00  0.00     0.016 A 
ATOM     31  C   UNL A   1      41.766  21.118  27.879  1.00  0.00     0.016 A 
ATOM     32  C   UNL A   1      42.487  23.091  26.014  1.00  0.00     0.010 A 
ATOM     33  C   UNL A   1      41.946  22.440  28.290  1.00  0.00     0.010 A 
ATOM     34  C   UNL A   1      42.319  23.429  27.360  1.00  0.00    -0.014 A 
BRANCH  34  35
ATOM     35  C   UNL A   1      42.621  24.802  27.818  1.00  0.00     0.031 A 
ATOM     36  C   UNL A   1      44.041  25.176  28.122  1.00  0.00     0.074 A 
ATOM     37  C   UNL A   1      41.634  25.706  27.946  1.00  0.00     0.049 A 
ATOM     38  N   UNL A   1      44.511  26.275  28.653  1.00  0.00    -0.248 NA
ATOM     39  C   UNL A   1      45.070  24.180  27.782  1.00  0.00     0.031 C 
ATOM     40  C   UNL A   1      40.229  25.480  27.609  1.00  0.00     0.029 A 
ATOM     41  N   UNL A   1      41.669  26.999  28.401  1.00  0.00    -0.354 N 
ATOM     42  C   UNL A   1      45.885  26.092  28.736  1.00  0.00     0.074 A 
ATOM     43  C   UNL A   1      46.173  24.777  28.207  1.00  0.00     0.031 C 
ATOM     44  C   UNL A   1      39.532  26.598  27.874  1.00  0.00     0.029 A 
ATOM     45  C   UNL A   1      40.433  27.595  28.446  1.00  0.00     0.049 A 
ATOM     46  H   UNL A   1      42.499  27.455  28.669  1.00  0.00     0.167 HD
ATOM     47  C   UNL A   1      46.820  26.944  29.216  1.00  0.00     0.031 A 
ATOM     48  C   UNL A   1      40.068  28.797  28.928  1.00  0.00     0.031 A 
ATOM     49  C   UNL A   1      46.527  28.250  29.744  1.00  0.00     0.049 A 
ATOM     50  C   UNL A   1      41.114  29.695  29.528  1.00  0.00     0.074 A 
ATOM     51  C   UNL A   1      47.400  29.185  30.271  1.00  0.00     0.029 A 
ATOM     52  N   UNL A   1      45.258  28.804  29.806  1.00  0.00    -0.354 N 
ATOM     53  N   UNL A   1      42.406  29.500  29.636  1.00  0.00    -0.248 NA
ATOM     54  C   UNL A   1      40.649  30.975  30.078  1.00  0.00     0.031 C 
ATOM     55  C   UNL A   1      46.652  30.293  30.685  1.00  0.00     0.029 A 
ATOM     56  C   UNL A   1      45.321  30.064  30.374  1.00  0.00     0.049 A 
ATOM     57  H   UNL A   1      44.434  28.367  29.491  1.00  0.00     0.167 HD
ATOM     58  C   UNL A   1      42.912  30.641  30.245  1.00  0.00     0.074 A 
ATOM     59  C   UNL A   1      41.789  31.527  30.472  1.00  0.00     0.031 C 
ATOM     60  C   UNL A   1      44.191  30.930  30.584  1.00  0.00     0.031 A 
BRANCH  47  61
ATOM     61  C   UNL A   1      48.242  26.464  29.234  1.00  0.00    -0.014 A 
ATOM     62  C   UNL A   1      49.111  26.716  28.160  1.00  0.00     0.009 A 
ATOM     63  C   UNL A   1      48.724  25.762  30.350  1.00  0.00     0.009 A 
ATOM     64  C   UNL A   1      50.425  26.246  28.192  1.00  0.00     0.001 A 
ATOM     65  C   UNL A   1      50.044  25.314  30.389  1.00  0.00     0.001 A 
ATOM     66  C   UNL A   1      50.892  25.549  29.307  1.00  0.00     0.000 A 
ENDBRANCH  47  61
BRANCH  48  67
ATOM     67  C   UNL A   1      38.641  29.206  28.900  1.00  0.00    -0.014 A 
ATOM     68  C   UNL A   1      37.822  29.015  30.023  1.00  0.00     0.009 A 
ATOM     69  C   UNL A   1      38.088  29.785  27.747  1.00  0.00     0.009 A 
ATOM     70  C   UNL A   1      36.473  29.378  29.984  1.00  0.00     0.001 A 
ATOM     71  C   UNL A   1      36.747  30.170  27.720  1.00  0.00     0.001 A 
ATOM     72  C   UNL A   1      35.938  29.960  28.836  1.00  0.00     0.000 A 
ENDBRANCH  48  67
BRANCH  60  73
ATOM     73  C   UNL A   1      44.448  32.275  31.198  1.00  0.00    -0.014 A 
ATOM     74  C   UNL A   1      44.713  33.400  30.402  1.00  0.00     0.009 A 
ATOM     75  C   UNL A   1      44.379  32.423  32.592  1.00  0.00     0.009 A 
ATOM     76  C   UNL A   1      44.931  34.645  30.995  1.00  0.00     0.001 A 
ATOM     77  C   UNL A   1      44.574  33.674  33.179  1.00  0.00     0.001 A 
ATOM     78  C   UNL A   1      44.857  34.781  32.382  1.00  0.00     0.000 A 
ENDBRANCH  60  73
ENDBRANCH  34  35
ENDBRANCH  27  29
ENDBRANCH  26  27
ENDBRANCH  25  26
ENDBRANCH  24  25
ENDBRANCH   1  24
TORSDOF 16
ENDMDL
MODEL 3
REMARK VINA RESULT:      -8.8      4.082      6.702
REMARK SMILES CN(C)C(=O)CCNC(=O)NC[C@H]1CC[C@@H](C(=O)OCCOC(=O)c2ccc(-c3c4nc(c(-c5ccccc5)c5ccc([nH]5)c(-c5ccccc5)c5nc(c(-c6ccccc6)c6ccc3[nH]6)C=C5)C=C4)cc2)CC1
REMARK SMILES IDX 19 1 17 2 18 3 16 4 13 5 14 6 74 7 15 8 73 9 12 10 11 11
REMARK SMILES IDX 8 12 9 13 10 15 7 17 6 18 4 19 1 20 2 21 3 22 5 23 20 24
REMARK SMILES IDX 21 25 22 26 23 27 24 28 25 29 26 30 72 31 27 32 71 33 28 34
REMARK SMILES IDX 29 35 30 36 65 37 31 38 70 39 64 40 66 41 32 42 69 43 63 44
REMARK SMILES IDX 62 45 33 47 55 48 40 49 54 50 41 51 44 52 53 53 67 54 42 55
REMARK SMILES IDX 43 56 52 58 68 59 45 60 34 61 35 62 39 63 36 64 38 65 37 66
REMARK SMILES IDX 56 67 57 68 61 69 58 70 60 71 59 72 46 73 47 74 51 75 48 76
REMARK SMILES IDX 50 77 49 78
REMARK H PARENT 8 14 11 16 66 46 44 57
REMARK Flexibility Score: inf
ROOT
ATOM      1  O   UNL A   1      32.037  29.297  24.327  1.00  0.00    -0.462 OA
ENDROOT
BRANCH   1   2
ATOM      2  C   UNL A   1      30.789  29.238  23.800  1.00  0.00     0.309 C 
ATOM      3  O   UNL A   1      29.924  30.091  23.966  1.00  0.00    -0.252 OA
BRANCH   2   4
ATOM      4  C   UNL A   1      30.525  27.952  23.020  1.00  0.00     0.099 C 
ATOM      5  C   UNL A   1      31.420  25.554  24.576  1.00  0.00     0.008 C 
ATOM      6  C   UNL A   1      30.191  26.386  24.975  1.00  0.00     0.006 C 
ATOM      7  C   UNL A   1      32.407  26.364  23.722  1.00  0.00     0.006 C 
ATOM      8  C   UNL A   1      29.538  27.068  23.778  1.00  0.00     0.015 C 
ATOM      9  C   UNL A   1      31.757  27.153  22.589  1.00  0.00     0.015 C 
BRANCH   5  10
ATOM     10  C   UNL A   1      32.095  24.994  25.846  1.00  0.00     0.121 C 
BRANCH  10  11
ATOM     11  N   UNL A   1      31.138  24.378  26.746  1.00  0.00    -0.338 N 
ATOM     12  N   UNL A   1      30.874  22.115  26.115  1.00  0.00    -0.338 N 
ATOM     13  C   UNL A   1      30.535  23.190  26.827  1.00  0.00     0.314 C 
ATOM     14  H   UNL A   1      30.198  21.401  26.161  1.00  0.00     0.165 HD
ATOM     15  O   UNL A   1      29.609  23.076  27.633  1.00  0.00    -0.249 OA
ATOM     16  H   UNL A   1      30.869  24.983  27.473  1.00  0.00     0.165 HD
BRANCH  12  17
ATOM     17  C   UNL A   1      32.012  21.755  25.289  1.00  0.00     0.127 C 
BRANCH  17  18
ATOM     18  C   UNL A   1      33.107  21.033  26.058  1.00  0.00     0.121 C 
BRANCH  18  19
ATOM     19  C   UNL A   1      34.144  22.035  26.521  1.00  0.00     0.223 C 
ATOM     20  C   UNL A   1      36.157  23.341  26.114  1.00  0.00     0.146 C 
ATOM     21  N   UNL A   1      35.286  22.232  25.762  1.00  0.00    -0.349 N 
ATOM     22  C   UNL A   1      35.742  21.389  24.665  1.00  0.00     0.146 C 
ATOM     23  O   UNL A   1      33.909  22.704  27.531  1.00  0.00    -0.275 OA
ENDBRANCH  18  19
ENDBRANCH  17  18
ENDBRANCH  12  17
ENDBRANCH  10  11
ENDBRANCH   5  10
ENDBRANCH   2   4
ENDBRANCH   1   2
BRANCH   1  24
ATOM     24  C   UNL A   1      32.150  29.583  25.736  1.00  0.00     0.274 C 
BRANCH  24  25
ATOM     25  C   UNL A   1      33.612  29.630  26.184  1.00  0.00     0.275 C 
BRANCH  25  26
ATOM     26  O   UNL A   1      33.711  29.872  27.597  1.00  0.00    -0.458 OA
BRANCH  26  27
ATOM     27  C   UNL A   1      34.602  30.823  27.952  1.00  0.00     0.338 C 
ATOM     28  O   UNL A   1      34.383  32.005  28.172  1.00  0.00    -0.246 OA
BRANCH  27  29
ATOM     29  C   UNL A   1      35.905  30.196  28.194  1.00  0.00     0.060 A 
ATOM     30  C   UNL A   1      36.135  29.623  29.449  1.00  0.00     0.016 A 
ATOM     31  C   UNL A   1      36.911  30.227  27.227  1.00  0.00     0.016 A 
ATOM     32  C   UNL A   1      37.378  29.077  29.748  1.00  0.00     0.010 A 
ATOM     33  C   UNL A   1      38.161  29.686  27.532  1.00  0.00     0.010 A 
ATOM     34  C   UNL A   1      38.403  29.120  28.798  1.00  0.00    -0.014 A 
BRANCH  34  35
ATOM     35  C   UNL A   1      39.759  28.655  29.157  1.00  0.00     0.031 A 
ATOM     36  C   UNL A   1      40.665  29.565  29.930  1.00  0.00     0.074 A 
ATOM     37  C   UNL A   1      40.168  27.423  28.804  1.00  0.00     0.049 A 
ATOM     38  N   UNL A   1      41.926  29.411  30.237  1.00  0.00    -0.248 NA
ATOM     39  C   UNL A   1      40.069  30.817  30.425  1.00  0.00     0.031 C 
ATOM     40  C   UNL A   1      39.352  26.423  28.116  1.00  0.00     0.029 A 
ATOM     41  N   UNL A   1      41.382  26.809  28.975  1.00  0.00    -0.354 N 
ATOM     42  C   UNL A   1      42.283  30.557  30.937  1.00  0.00     0.074 A 
ATOM     43  C   UNL A   1      41.109  31.399  31.004  1.00  0.00     0.031 C 
ATOM     44  C   UNL A   1      40.091  25.319  27.919  1.00  0.00     0.029 A 
ATOM     45  C   UNL A   1      41.442  25.555  28.419  1.00  0.00     0.049 A 
ATOM     46  H   UNL A   1      42.137  27.227  29.450  1.00  0.00     0.167 HD
ATOM     47  C   UNL A   1      43.486  30.878  31.469  1.00  0.00     0.031 A 
ATOM     48  C   UNL A   1      42.482  24.710  28.298  1.00  0.00     0.031 A 
ATOM     49  C   UNL A   1      44.651  30.038  31.396  1.00  0.00     0.049 A 
ATOM     50  C   UNL A   1      43.827  25.122  28.828  1.00  0.00     0.074 A 
ATOM     51  C   UNL A   1      45.922  30.278  31.888  1.00  0.00     0.029 A 
ATOM     52  N   UNL A   1      44.682  28.790  30.793  1.00  0.00    -0.354 N 
ATOM     53  N   UNL A   1      44.166  26.222  29.456  1.00  0.00    -0.248 NA
ATOM     54  C   UNL A   1      44.935  24.178  28.627  1.00  0.00     0.031 C 
ATOM     55  C   UNL A   1      46.731  29.187  31.551  1.00  0.00     0.029 A 
ATOM     56  C   UNL A   1      45.952  28.252  30.889  1.00  0.00     0.049 A 
ATOM     57  H   UNL A   1      43.913  28.352  30.362  1.00  0.00     0.167 HD
ATOM     58  C   UNL A   1      45.518  26.093  29.745  1.00  0.00     0.074 A 
ATOM     59  C   UNL A   1      45.934  24.804  29.233  1.00  0.00     0.031 C 
ATOM     60  C   UNL A   1      46.341  26.964  30.378  1.00  0.00     0.031 A 
BRANCH  47  61
ATOM     61  C   UNL A   1      43.606  32.218  32.135  1.00  0.00    -0.014 A 
ATOM     62  C   UNL A   1      43.878  33.379  31.395  1.00  0.00     0.009 A 
ATOM     63  C   UNL A   1      43.429  32.321  33.524  1.00  0.00     0.009 A 
ATOM     64  C   UNL A   1      44.001  34.612  32.039  1.00  0.00     0.001 A 
ATOM     65  C   UNL A   1      43.529  33.557  34.161  1.00  0.00     0.001 A 
ATOM     66  C   UNL A   1      43.824  34.701  33.420  1.00  0.00     0.000 A 
ENDBRANCH  47  61
BRANCH  48  67
ATOM     67  C   UNL A   1      42.304  23.406  27.610  1.00  0.00    -0.014 A 
ATOM     68  C   UNL A   1      42.581  23.277  26.241  1.00  0.00     0.009 A 
ATOM     69  C   UNL A   1      41.848  22.284  28.319  1.00  0.00     0.009 A 
ATOM     70  C   UNL A   1      42.388  22.055  25.592  1.00  0.00     0.001 A 
ATOM     71  C   UNL A   1      41.680  21.057  27.674  1.00  0.00     0.001 A 
ATOM     72  C   UNL A   1      41.943  20.946  26.310  1.00  0.00     0.000 A 
ENDBRANCH  48  67
BRANCH  60  73
ATOM     73  C   UNL A   1      47.762  26.530  30.588  1.00  0.00    -0.014 A 
ATOM     74  C   UNL A   1      48.151  25.850  31.752  1.00  0.00     0.009 A 
ATOM     75  C   UNL A   1      48.714  26.769  29.584  1.00  0.00     0.009 A 
ATOM     76  C   UNL A   1      49.475  25.440  31.917  1.00  0.00     0.001 A 
ATOM     77  C   UNL A   1      50.031  26.337  29.743  1.00  0.00     0.001 A 
ATOM     78  C   UNL A   1      50.412  25.681  30.911  1.00  0.00     0.000 A 
ENDBRANCH  60  73
ENDBRANCH  34  35
ENDBRANCH  27  29
ENDBRANCH  26  27
ENDBRANCH  25  26
ENDBRANCH  24  25
ENDBRANCH   1  24
TORSDOF 16
ENDMDL
