MODEL 1
REMARK VINA RESULT:     -13.4      0.000      0.000
REMARK SMILES Cc1ccc(-c2nc(C)cc(N3CCCC[C@H]3C(=O)OCCOC(=O)c3ccc(-c4c5nc(c(-c6ccccc6)c6ccc([nH]6)c(-c6ccccc6)c6nc(c(-c7ccccc7)c7ccc4[nH]7)C=C6)C=C5)cc3)n2)cc1
REMARK SMILES IDX 21 1 20 2 18 3 19 4 17 5 12 6 13 7 14 8 16 9 15 10 11 11
REMARK SMILES IDX 6 12 7 13 74 14 8 15 9 16 10 17 5 18 1 19 2 20 3 21 76 22
REMARK SMILES IDX 4 23 75 24 22 25 23 26 24 27 25 28 26 29 27 30 73 31 28 32
REMARK SMILES IDX 72 33 29 34 30 35 31 36 66 37 32 38 71 39 65 40 67 41 33 42
REMARK SMILES IDX 70 43 64 44 63 45 34 47 56 48 41 49 55 50 42 51 45 52 54 53
REMARK SMILES IDX 68 54 43 55 44 56 53 58 69 59 46 60 35 61 36 62 40 63 37 64
REMARK SMILES IDX 39 65 38 66 57 67 58 68 62 69 59 70 61 71 60 72 47 73 48 74
REMARK SMILES IDX 52 75 49 76 51 77 50 78
REMARK H PARENT 67 46 45 57
REMARK Flexibility Score: inf
ROOT
ATOM      1  C   UNL A   1      38.927  21.524  25.645  1.00  0.00     0.274 C 
ENDROOT
BRANCH   1   2
ATOM      2  O   UNL A   1      37.553  21.734  26.009  1.00  0.00    -0.461 OA
BRANCH   2   3
ATOM      3  C   UNL A   1      36.573  21.686  24.924  1.00  0.00     0.328 C 
ATOM      4  O   UNL A   1      37.253  22.019  23.910  1.00  0.00    -0.250 OA
BRANCH   3   5
ATOM      5  C   UNL A   1      34.462  21.090  25.168  1.00  0.00     0.193 C 
ATOM      6  N   UNL A   1      33.047  21.886  24.488  1.00  0.00    -0.343 N 
ATOM      7  C   UNL A   1      32.535  21.371  23.192  1.00  0.00     0.119 C 
ATOM      8  C   UNL A   1      32.217  19.888  23.143  1.00  0.00     0.022 C 
ATOM      9  C   UNL A   1      33.644  19.518  25.194  1.00  0.00     0.037 C 
ATOM     10  C   UNL A   1      33.168  18.959  23.859  1.00  0.00     0.005 C 
BRANCH   6  11
ATOM     11  C   UNL A   1      32.133  22.794  25.093  1.00  0.00     0.133 A 
ATOM     12  C   UNL A   1      31.876  24.816  26.236  1.00  0.00     0.161 A 
ATOM     13  N   UNL A   1      30.828  24.418  26.961  1.00  0.00    -0.233 NA
ATOM     14  N   UNL A   1      32.538  24.067  25.319  1.00  0.00    -0.211 NA
ATOM     15  C   UNL A   1      30.359  23.207  26.680  1.00  0.00     0.043 A 
ATOM     16  C   UNL A   1      29.204  22.782  27.534  1.00  0.00     0.067 C 
ATOM     17  C   UNL A   1      30.943  22.402  25.704  1.00  0.00     0.070 A 
BRANCH  12  18
ATOM     18  C   UNL A   1      32.279  26.200  26.475  1.00  0.00     0.019 A 
ATOM     19  C   UNL A   1      33.413  30.343  26.972  1.00  0.00     0.044 C 
ATOM     20  C   UNL A   1      33.011  28.912  26.777  1.00  0.00    -0.051 A 
ATOM     21  C   UNL A   1      31.764  28.467  27.224  1.00  0.00     0.004 A 
ATOM     22  C   UNL A   1      33.879  28.004  26.160  1.00  0.00     0.004 A 
ATOM     23  C   UNL A   1      31.399  27.127  27.065  1.00  0.00     0.012 A 
ATOM     24  C   UNL A   1      33.519  26.662  26.018  1.00  0.00     0.012 A 
ENDBRANCH  12  18
ENDBRANCH   6  11
ENDBRANCH   3   5
ENDBRANCH   2   3
ENDBRANCH   1   2
BRANCH   1  25
ATOM     25  C   UNL A   1      39.823  21.978  26.807  1.00  0.00     0.275 C 
BRANCH  25  26
ATOM     26  O   UNL A   1      41.049  22.659  26.425  1.00  0.00    -0.458 OA
BRANCH  26  27
ATOM     27  C   UNL A   1      41.489  23.794  27.045  1.00  0.00     0.338 C 
ATOM     28  O   UNL A   1      42.431  23.835  27.816  1.00  0.00    -0.246 OA
BRANCH  27  29
ATOM     29  C   UNL A   1      40.494  24.886  27.014  1.00  0.00     0.060 A 
ATOM     30  C   UNL A   1      40.957  26.266  25.946  1.00  0.00     0.016 A 
ATOM     31  C   UNL A   1      39.545  25.188  28.492  1.00  0.00     0.016 A 
ATOM     32  C   UNL A   1      40.593  27.969  26.467  1.00  0.00     0.010 A 
ATOM     33  C   UNL A   1      39.193  26.888  29.004  1.00  0.00     0.010 A 
ATOM     34  C   UNL A   1      39.792  28.262  28.031  1.00  0.00    -0.014 A 
BRANCH  34  35
ATOM     35  C   UNL A   1      40.132  29.407  28.858  1.00  0.00     0.031 A 
ATOM     36  C   UNL A   1      39.071  30.407  29.022  1.00  0.00     0.074 A 
ATOM     37  C   UNL A   1      41.274  29.345  29.595  1.00  0.00     0.049 A 
ATOM     38  N   UNL A   1      39.280  31.577  29.489  1.00  0.00    -0.248 NA
ATOM     39  C   UNL A   1      37.679  30.225  28.591  1.00  0.00     0.031 C 
ATOM     40  C   UNL A   1      41.654  30.056  30.815  1.00  0.00     0.029 A 
ATOM     41  N   UNL A   1      42.429  28.629  29.327  1.00  0.00    -0.354 N 
ATOM     42  C   UNL A   1      38.052  32.113  29.792  1.00  0.00     0.074 A 
ATOM     43  C   UNL A   1      37.094  31.326  29.073  1.00  0.00     0.031 C 
ATOM     44  C   UNL A   1      42.987  29.943  31.011  1.00  0.00     0.029 A 
ATOM     45  C   UNL A   1      43.551  29.232  29.878  1.00  0.00     0.049 A 
ATOM     46  H   UNL A   1      42.451  27.794  28.807  1.00  0.00     0.167 HD
ATOM     47  C   UNL A   1      38.013  33.049  30.774  1.00  0.00     0.031 A 
ATOM     48  C   UNL A   1      44.528  29.717  29.054  1.00  0.00     0.031 A 
ATOM     49  C   UNL A   1      39.379  33.422  31.146  1.00  0.00     0.049 A 
ATOM     50  C   UNL A   1      44.378  31.222  28.906  1.00  0.00     0.074 A 
ATOM     51  C   UNL A   1      40.200  33.051  32.197  1.00  0.00     0.029 A 
ATOM     52  N   UNL A   1      40.221  33.895  30.142  1.00  0.00    -0.354 N 
ATOM     53  N   UNL A   1      43.306  31.882  29.263  1.00  0.00    -0.248 NA
ATOM     54  C   UNL A   1      45.430  32.104  28.415  1.00  0.00     0.031 C 
ATOM     55  C   UNL A   1      41.553  33.221  31.766  1.00  0.00     0.029 A 
ATOM     56  C   UNL A   1      41.552  33.727  30.474  1.00  0.00     0.049 A 
ATOM     57  H   UNL A   1      39.906  34.299  29.301  1.00  0.00     0.167 HD
ATOM     58  C   UNL A   1      43.519  33.225  29.149  1.00  0.00     0.074 A 
ATOM     59  C   UNL A   1      44.865  33.311  28.602  1.00  0.00     0.031 C 
ATOM     60  C   UNL A   1      42.593  34.157  29.534  1.00  0.00     0.031 A 
BRANCH  47  61
ATOM     61  C   UNL A   1      36.785  33.445  31.548  1.00  0.00    -0.014 A 
ATOM     62  C   UNL A   1      36.880  34.527  32.440  1.00  0.00     0.009 A 
ATOM     63  C   UNL A   1      35.551  32.764  31.532  1.00  0.00     0.009 A 
ATOM     64  C   UNL A   1      35.813  34.908  33.265  1.00  0.00     0.001 A 
ATOM     65  C   UNL A   1      34.472  33.152  32.341  1.00  0.00     0.001 A 
ATOM     66  C   UNL A   1      34.606  34.223  33.212  1.00  0.00     0.000 A 
ENDBRANCH  47  61
BRANCH  48  67
ATOM     67  C   UNL A   1      44.893  28.741  27.982  1.00  0.00    -0.014 A 
ATOM     68  C   UNL A   1      45.307  27.451  28.399  1.00  0.00     0.009 A 
ATOM     69  C   UNL A   1      44.424  28.890  26.679  1.00  0.00     0.009 A 
ATOM     70  C   UNL A   1      45.044  26.317  27.625  1.00  0.00     0.001 A 
ATOM     71  C   UNL A   1      44.207  27.749  25.898  1.00  0.00     0.001 A 
ATOM     72  C   UNL A   1      44.457  26.464  26.380  1.00  0.00     0.000 A 
ENDBRANCH  48  67
BRANCH  60  73
ATOM     73  C   UNL A   1      42.603  35.610  29.105  1.00  0.00    -0.014 A 
ATOM     74  C   UNL A   1      43.314  36.622  29.756  1.00  0.00     0.009 A 
ATOM     75  C   UNL A   1      41.953  35.986  27.906  1.00  0.00     0.009 A 
ATOM     76  C   UNL A   1      43.299  37.943  29.295  1.00  0.00     0.001 A 
ATOM     77  C   UNL A   1      42.013  37.278  27.388  1.00  0.00     0.001 A 
ATOM     78  C   UNL A   1      42.661  38.269  28.104  1.00  0.00     0.000 A 
ENDBRANCH  60  73
ENDBRANCH  34  35
ENDBRANCH  27  29
ENDBRANCH  26  27
ENDBRANCH  25  26
ENDBRANCH   1  25
TORSDOF 13
ENDMDL
MODEL 2
REMARK VINA RESULT:     -13.0      2.290      3.953
REMARK SMILES Cc1ccc(-c2nc(C)cc(N3CCCC[C@H]3C(=O)OCCOC(=O)c3ccc(-c4c5nc(c(-c6ccccc6)c6ccc([nH]6)c(-c6ccccc6)c6nc(c(-c7ccccc7)c7ccc4[nH]7)C=C6)C=C5)cc3)n2)cc1
REMARK SMILES IDX 21 1 20 2 18 3 19 4 17 5 12 6 13 7 14 8 16 9 15 10 11 11
REMARK SMILES IDX 6 12 7 13 74 14 8 15 9 16 10 17 5 18 1 19 2 20 3 21 76 22
REMARK SMILES IDX 4 23 75 24 22 25 23 26 24 27 25 28 26 29 27 30 73 31 28 32
REMARK SMILES IDX 72 33 29 34 30 35 31 36 66 37 32 38 71 39 65 40 67 41 33 42
REMARK SMILES IDX 70 43 64 44 63 45 34 47 56 48 41 49 55 50 42 51 45 52 54 53
REMARK SMILES IDX 68 54 43 55 44 56 53 58 69 59 46 60 35 61 36 62 40 63 37 64
REMARK SMILES IDX 39 65 38 66 57 67 58 68 62 69 59 70 61 71 60 72 47 73 48 74
REMARK SMILES IDX 52 75 49 76 51 77 50 78
REMARK H PARENT 67 46 45 57
REMARK Flexibility Score: inf
ROOT
ATOM      1  C   UNL A   1      37.729  22.919  25.827  1.00  0.00     0.274 C 
ENDROOT
BRANCH   1   2
ATOM      2  O   UNL A   1      37.461  23.424  24.508  1.00  0.00    -0.461 OA
BRANCH   2   3
ATOM      3  C   UNL A   1      36.443  22.715  23.730  1.00  0.00     0.328 C 
ATOM      4  O   UNL A   1      36.913  22.743  22.555  1.00  0.00    -0.250 OA
BRANCH   3   5
ATOM      5  C   UNL A   1      34.614  21.821  24.579  1.00  0.00     0.193 C 
ATOM      6  N   UNL A   1      32.948  22.254  24.210  1.00  0.00    -0.343 N 
ATOM      7  C   UNL A   1      32.259  21.465  23.157  1.00  0.00     0.119 C 
ATOM      8  C   UNL A   1      32.243  19.960  23.354  1.00  0.00     0.022 C 
ATOM      9  C   UNL A   1      34.158  20.158  24.989  1.00  0.00     0.037 C 
ATOM     10  C   UNL A   1      33.503  19.326  23.893  1.00  0.00     0.005 C 
BRANCH   6  11
ATOM     11  C   UNL A   1      32.040  23.079  24.931  1.00  0.00     0.133 A 
ATOM     12  C   UNL A   1      31.779  24.999  26.237  1.00  0.00     0.161 A 
ATOM     13  N   UNL A   1      30.788  24.509  26.984  1.00  0.00    -0.233 NA
ATOM     14  N   UNL A   1      32.414  24.345  25.232  1.00  0.00    -0.211 NA
ATOM     15  C   UNL A   1      30.345  23.306  26.638  1.00  0.00     0.043 A 
ATOM     16  C   UNL A   1      29.255  22.775  27.517  1.00  0.00     0.067 C 
ATOM     17  C   UNL A   1      30.899  22.598  25.573  1.00  0.00     0.070 A 
BRANCH  12  18
ATOM     18  C   UNL A   1      32.149  26.375  26.559  1.00  0.00     0.019 A 
ATOM     19  C   UNL A   1      33.194  30.505  27.301  1.00  0.00     0.044 C 
ATOM     20  C   UNL A   1      32.824  29.080  27.021  1.00  0.00    -0.051 A 
ATOM     21  C   UNL A   1      31.561  28.599  27.381  1.00  0.00     0.004 A 
ATOM     22  C   UNL A   1      33.736  28.212  26.411  1.00  0.00     0.004 A 
ATOM     23  C   UNL A   1      31.226  27.264  27.142  1.00  0.00     0.012 A 
ATOM     24  C   UNL A   1      33.404  26.874  26.190  1.00  0.00     0.012 A 
ENDBRANCH  12  18
ENDBRANCH   6  11
ENDBRANCH   3   5
ENDBRANCH   2   3
ENDBRANCH   1   2
BRANCH   1  25
ATOM     25  C   UNL A   1      38.671  21.713  25.714  1.00  0.00     0.275 C 
BRANCH  25  26
ATOM     26  O   UNL A   1      39.932  21.832  26.430  1.00  0.00    -0.458 OA
BRANCH  26  27
ATOM     27  C   UNL A   1      40.999  21.016  26.189  1.00  0.00     0.338 C 
ATOM     28  O   UNL A   1      40.917  19.817  25.988  1.00  0.00    -0.246 OA
BRANCH  27  29
ATOM     29  C   UNL A   1      42.287  21.626  26.581  1.00  0.00     0.060 A 
ATOM     30  C   UNL A   1      42.563  21.667  28.365  1.00  0.00     0.016 A 
ATOM     31  C   UNL A   1      42.937  22.929  25.553  1.00  0.00     0.016 A 
ATOM     32  C   UNL A   1      43.360  23.116  29.119  1.00  0.00     0.010 A 
ATOM     33  C   UNL A   1      43.724  24.370  26.316  1.00  0.00     0.010 A 
ATOM     34  C   UNL A   1      43.852  24.487  28.094  1.00  0.00    -0.014 A 
BRANCH  34  35
ATOM     35  C   UNL A   1      43.749  25.860  28.557  1.00  0.00     0.031 A 
ATOM     36  C   UNL A   1      42.441  26.496  28.369  1.00  0.00     0.074 A 
ATOM     37  C   UNL A   1      44.755  26.349  29.332  1.00  0.00     0.049 A 
ATOM     38  N   UNL A   1      42.253  27.754  28.476  1.00  0.00    -0.248 NA
ATOM     39  C   UNL A   1      41.223  25.791  27.948  1.00  0.00     0.031 C 
ATOM     40  C   UNL A   1      44.758  27.443  30.302  1.00  0.00     0.029 A 
ATOM     41  N   UNL A   1      46.088  25.973  29.342  1.00  0.00    -0.354 N 
ATOM     42  C   UNL A   1      40.895  27.953  28.550  1.00  0.00     0.074 A 
ATOM     43  C   UNL A   1      40.297  26.749  28.053  1.00  0.00     0.031 C 
ATOM     44  C   UNL A   1      46.032  27.797  30.584  1.00  0.00     0.029 A 
ATOM     45  C   UNL A   1      46.916  27.014  29.741  1.00  0.00     0.049 A 
ATOM     46  H   UNL A   1      46.410  25.076  29.095  1.00  0.00     0.167 HD
ATOM     47  C   UNL A   1      40.469  29.061  29.206  1.00  0.00     0.031 A 
ATOM     48  C   UNL A   1      47.820  27.531  28.856  1.00  0.00     0.031 A 
ATOM     49  C   UNL A   1      41.617  29.917  29.514  1.00  0.00     0.049 A 
ATOM     50  C   UNL A   1      47.280  28.821  28.261  1.00  0.00     0.074 A 
ATOM     51  C   UNL A   1      42.361  30.112  30.664  1.00  0.00     0.029 A 
ATOM     52  N   UNL A   1      42.419  30.335  28.455  1.00  0.00    -0.354 N 
ATOM     53  N   UNL A   1      46.030  29.195  28.356  1.00  0.00    -0.248 NA
ATOM     54  C   UNL A   1      48.101  29.814  27.579  1.00  0.00     0.031 C 
ATOM     55  C   UNL A   1      43.659  30.561  30.265  1.00  0.00     0.029 A 
ATOM     56  C   UNL A   1      43.688  30.675  28.882  1.00  0.00     0.049 A 
ATOM     57  H   UNL A   1      42.119  30.381  27.518  1.00  0.00     0.167 HD
ATOM     58  C   UNL A   1      45.875  30.456  27.859  1.00  0.00     0.074 A 
ATOM     59  C   UNL A   1      47.205  30.796  27.373  1.00  0.00     0.031 C 
ATOM     60  C   UNL A   1      44.685  31.130  27.906  1.00  0.00     0.031 A 
BRANCH  47  61
ATOM     61  C   UNL A   1      39.088  29.259  29.770  1.00  0.00    -0.014 A 
ATOM     62  C   UNL A   1      38.228  30.164  29.124  1.00  0.00     0.009 A 
ATOM     63  C   UNL A   1      38.598  28.683  30.960  1.00  0.00     0.009 A 
ATOM     64  C   UNL A   1      36.959  30.475  29.630  1.00  0.00     0.001 A 
ATOM     65  C   UNL A   1      37.321  28.975  31.462  1.00  0.00     0.001 A 
ATOM     66  C   UNL A   1      36.503  29.877  30.797  1.00  0.00     0.000 A 
ENDBRANCH  47  61
BRANCH  48  67
ATOM     67  C   UNL A   1      48.580  26.461  28.140  1.00  0.00    -0.014 A 
ATOM     68  C   UNL A   1      48.421  26.389  26.733  1.00  0.00     0.009 A 
ATOM     69  C   UNL A   1      49.714  25.880  28.702  1.00  0.00     0.009 A 
ATOM     70  C   UNL A   1      49.462  25.963  25.904  1.00  0.00     0.001 A 
ATOM     71  C   UNL A   1      50.732  25.417  27.859  1.00  0.00     0.001 A 
ATOM     72  C   UNL A   1      50.640  25.507  26.471  1.00  0.00     0.000 A 
ENDBRANCH  48  67
BRANCH  60  73
ATOM     73  C   UNL A   1      44.348  32.345  27.066  1.00  0.00    -0.014 A 
ATOM     74  C   UNL A   1      44.167  32.325  25.681  1.00  0.00     0.009 A 
ATOM     75  C   UNL A   1      44.080  33.579  27.705  1.00  0.00     0.009 A 
ATOM     76  C   UNL A   1      43.834  33.481  24.966  1.00  0.00     0.001 A 
ATOM     77  C   UNL A   1      43.655  34.711  27.012  1.00  0.00     0.001 A 
ATOM     78  C   UNL A   1      43.565  34.671  25.633  1.00  0.00     0.000 A 
ENDBRANCH  60  73
ENDBRANCH  34  35
ENDBRANCH  27  29
ENDBRANCH  26  27
ENDBRANCH  25  26
ENDBRANCH   1  25
TORSDOF 13
ENDMDL
MODEL 3
REMARK VINA RESULT:     -13.0      4.340      7.019
REMARK SMILES Cc1ccc(-c2nc(C)cc(N3CCCC[C@H]3C(=O)OCCOC(=O)c3ccc(-c4c5nc(c(-c6ccccc6)c6ccc([nH]6)c(-c6ccccc6)c6nc(c(-c7ccccc7)c7ccc4[nH]7)C=C6)C=C5)cc3)n2)cc1
REMARK SMILES IDX 21 1 20 2 18 3 19 4 17 5 12 6 13 7 14 8 16 9 15 10 11 11
REMARK SMILES IDX 6 12 7 13 74 14 8 15 9 16 10 17 5 18 1 19 2 20 3 21 76 22
REMARK SMILES IDX 4 23 75 24 22 25 23 26 24 27 25 28 26 29 27 30 73 31 28 32
REMARK SMILES IDX 72 33 29 34 30 35 31 36 66 37 32 38 71 39 65 40 67 41 33 42
REMARK SMILES IDX 70 43 64 44 63 45 34 47 56 48 41 49 55 50 42 51 45 52 54 53
REMARK SMILES IDX 68 54 43 55 44 56 53 58 69 59 46 60 35 61 36 62 40 63 37 64
REMARK SMILES IDX 39 65 38 66 57 67 58 68 62 69 59 70 61 71 60 72 47 73 48 74
REMARK SMILES IDX 52 75 49 76 51 77 50 78
REMARK H PARENT 67 46 45 57
REMARK Flexibility Score: inf
ROOT
ATOM      1  C   UNL A   1      33.906  30.262  27.137  1.00  0.00     0.274 C 
ENDROOT
BRANCH   1   2
ATOM      2  O   UNL A   1      32.472  30.281  27.226  1.00  0.00    -0.461 OA
BRANCH   2   3
ATOM      3  C   UNL A   1      31.770  29.082  26.764  1.00  0.00     0.328 C 
ATOM      4  O   UNL A   1      31.551  28.450  27.838  1.00  0.00    -0.250 OA
BRANCH   3   5
ATOM      5  C   UNL A   1      31.246  28.668  24.662  1.00  0.00     0.193 C 
ATOM      6  N   UNL A   1      30.757  27.124  23.971  1.00  0.00    -0.343 N 
ATOM      7  C   UNL A   1      29.300  26.853  23.879  1.00  0.00     0.119 C 
ATOM      8  C   UNL A   1      28.472  27.893  23.146  1.00  0.00     0.022 C 
ATOM      9  C   UNL A   1      30.335  29.575  23.441  1.00  0.00     0.037 C 
ATOM     10  C   UNL A   1      28.830  29.342  23.380  1.00  0.00     0.005 C 
BRANCH   6  11
ATOM     11  C   UNL A   1      31.520  26.171  23.239  1.00  0.00     0.133 A 
ATOM     12  C   UNL A   1      33.507  24.949  23.127  1.00  0.00     0.161 A 
ATOM     13  N   UNL A   1      33.577  24.942  21.794  1.00  0.00    -0.233 NA
ATOM     14  N   UNL A   1      32.531  25.528  23.869  1.00  0.00    -0.211 NA
ATOM     15  C   UNL A   1      32.542  25.484  21.161  1.00  0.00     0.043 A 
ATOM     16  C   UNL A   1      32.669  25.488  19.669  1.00  0.00     0.067 C 
ATOM     17  C   UNL A   1      31.468  26.040  21.852  1.00  0.00     0.070 A 
BRANCH  12  18
ATOM     18  C   UNL A   1      34.592  24.226  23.787  1.00  0.00     0.019 A 
ATOM     19  C   UNL A   1      37.947  22.230  25.648  1.00  0.00     0.044 C 
ATOM     20  C   UNL A   1      36.800  22.939  24.995  1.00  0.00    -0.051 A 
ATOM     21  C   UNL A   1      36.054  23.878  25.713  1.00  0.00     0.004 A 
ATOM     22  C   UNL A   1      36.453  22.665  23.667  1.00  0.00     0.004 A 
ATOM     23  C   UNL A   1      34.969  24.521  25.111  1.00  0.00     0.012 A 
ATOM     24  C   UNL A   1      35.357  23.295  23.074  1.00  0.00     0.012 A 
ENDBRANCH  12  18
ENDBRANCH   6  11
ENDBRANCH   3   5
ENDBRANCH   2   3
ENDBRANCH   1   2
BRANCH   1  25
ATOM     25  C   UNL A   1      34.451  31.612  27.624  1.00  0.00     0.275 C 
BRANCH  25  26
ATOM     26  O   UNL A   1      33.957  32.057  28.918  1.00  0.00    -0.458 OA
BRANCH  26  27
ATOM     27  C   UNL A   1      34.786  32.396  29.949  1.00  0.00     0.338 C 
ATOM     28  O   UNL A   1      34.435  33.013  30.939  1.00  0.00    -0.246 OA
BRANCH  27  29
ATOM     29  C   UNL A   1      36.216  32.300  29.590  1.00  0.00     0.060 A 
ATOM     30  C   UNL A   1      37.120  31.043  30.517  1.00  0.00     0.016 A 
ATOM     31  C   UNL A   1      37.046  33.793  29.078  1.00  0.00     0.016 A 
ATOM     32  C   UNL A   1      38.822  31.376  31.062  1.00  0.00     0.010 A 
ATOM     33  C   UNL A   1      38.739  34.116  29.632  1.00  0.00     0.010 A 
ATOM     34  C   UNL A   1      39.579  32.944  30.686  1.00  0.00    -0.014 A 
BRANCH  34  35
ATOM     35  C   UNL A   1      40.478  33.599  31.621  1.00  0.00     0.031 A 
ATOM     36  C   UNL A   1      39.835  34.240  32.773  1.00  0.00     0.074 A 
ATOM     37  C   UNL A   1      41.811  33.359  31.498  1.00  0.00     0.049 A 
ATOM     38  N   UNL A   1      40.436  35.068  33.537  1.00  0.00    -0.248 NA
ATOM     39  C   UNL A   1      38.419  34.088  33.131  1.00  0.00     0.031 C 
ATOM     40  C   UNL A   1      42.886  33.456  32.485  1.00  0.00     0.029 A 
ATOM     41  N   UNL A   1      42.520  33.026  30.356  1.00  0.00    -0.354 N 
ATOM     42  C   UNL A   1      39.658  35.217  34.659  1.00  0.00     0.074 A 
ATOM     43  C   UNL A   1      38.357  34.736  34.299  1.00  0.00     0.031 C 
ATOM     44  C   UNL A   1      44.082  33.454  31.856  1.00  0.00     0.029 A 
ATOM     45  C   UNL A   1      43.840  33.450  30.424  1.00  0.00     0.049 A 
ATOM     46  H   UNL A   1      42.133  32.548  29.587  1.00  0.00     0.167 HD
ATOM     47  C   UNL A   1      40.292  35.563  35.808  1.00  0.00     0.031 A 
ATOM     48  C   UNL A   1      44.289  34.399  29.549  1.00  0.00     0.031 A 
ATOM     49  C   UNL A   1      41.685  35.905  35.512  1.00  0.00     0.049 A 
ATOM     50  C   UNL A   1      44.315  35.757  30.231  1.00  0.00     0.074 A 
ATOM     51  C   UNL A   1      42.871  35.203  35.638  1.00  0.00     0.029 A 
ATOM     52  N   UNL A   1      41.923  36.910  34.578  1.00  0.00    -0.354 N 
ATOM     53  N   UNL A   1      43.715  36.011  31.365  1.00  0.00    -0.248 NA
ATOM     54  C   UNL A   1      45.064  36.906  29.735  1.00  0.00     0.031 C 
ATOM     55  C   UNL A   1      43.793  35.746  34.689  1.00  0.00     0.029 A 
ATOM     56  C   UNL A   1      43.181  36.796  34.020  1.00  0.00     0.049 A 
ATOM     57  H   UNL A   1      41.274  37.613  34.345  1.00  0.00     0.167 HD
ATOM     58  C   UNL A   1      44.037  37.264  31.800  1.00  0.00     0.074 A 
ATOM     59  C   UNL A   1      44.879  37.788  30.735  1.00  0.00     0.031 C 
ATOM     60  C   UNL A   1      43.613  37.761  33.002  1.00  0.00     0.031 A 
BRANCH  47  61
ATOM     61  C   UNL A   1      39.742  35.368  37.196  1.00  0.00    -0.014 A 
ATOM     62  C   UNL A   1      39.750  36.464  38.076  1.00  0.00     0.009 A 
ATOM     63  C   UNL A   1      39.297  34.145  37.736  1.00  0.00     0.009 A 
ATOM     64  C   UNL A   1      39.341  36.350  39.410  1.00  0.00     0.001 A 
ATOM     65  C   UNL A   1      38.867  34.027  39.067  1.00  0.00     0.001 A 
ATOM     66  C   UNL A   1      38.894  35.132  39.906  1.00  0.00     0.000 A 
ENDBRANCH  47  61
BRANCH  48  67
ATOM     67  C   UNL A   1      43.872  34.108  28.143  1.00  0.00    -0.014 A 
ATOM     68  C   UNL A   1      43.022  35.052  27.515  1.00  0.00     0.009 A 
ATOM     69  C   UNL A   1      44.612  33.250  27.333  1.00  0.00     0.009 A 
ATOM     70  C   UNL A   1      43.087  35.285  26.138  1.00  0.00     0.001 A 
ATOM     71  C   UNL A   1      44.633  33.467  25.951  1.00  0.00     0.001 A 
ATOM     72  C   UNL A   1      43.925  34.510  25.355  1.00  0.00     0.000 A 
ENDBRANCH  48  67
BRANCH  60  73
ATOM     73  C   UNL A   1      43.616  39.230  33.377  1.00  0.00    -0.014 A 
ATOM     74  C   UNL A   1      42.965  40.232  32.653  1.00  0.00     0.009 A 
ATOM     75  C   UNL A   1      44.211  39.636  34.595  1.00  0.00     0.009 A 
ATOM     76  C   UNL A   1      42.988  41.569  33.066  1.00  0.00     0.001 A 
ATOM     77  C   UNL A   1      44.155  40.947  35.062  1.00  0.00     0.001 A 
ATOM     78  C   UNL A   1      43.571  41.925  34.276  1.00  0.00     0.000 A 
ENDBRANCH  60  73
ENDBRANCH  34  35
ENDBRANCH  27  29
ENDBRANCH  26  27
ENDBRANCH  25  26
ENDBRANCH   1  25
TORSDOF 13
ENDMDL
