MODEL 1
REMARK VINA RESULT:     -12.1      0.000      0.000
REMARK SMILES COc1cc2c(cc1OC)[C@H](C(=O)OCCOC(=O)c1ccc(-c3c4nc(c(-c5ccccc5)c5ccc([nH]5)c(-c5ccccc5)c5nc(c(-c6ccccc6)c6ccc3[nH]6)C=C5)C=C4)cc1)[C@H](c1cccc(Cl)c1)N(C)C2=O
REMARK SMILES IDX 16 1 15 2 14 3 12 4 13 5 11 6 3 7 4 8 8 9 5 10 7 11 6 12
REMARK SMILES IDX 78 13 76 14 79 15 68 16 77 17 2 18 1 19 9 20 10 21 69 22
REMARK SMILES IDX 70 23 75 24 71 25 73 26 72 27 74 28 17 29 18 30 19 31 20 32
REMARK SMILES IDX 21 33 67 34 22 35 66 36 23 37 24 38 25 39 60 40 26 41 65 42
REMARK SMILES IDX 59 43 61 44 27 45 64 46 58 47 57 48 28 50 50 51 35 52 49 53
REMARK SMILES IDX 36 54 39 55 48 56 62 57 37 58 38 59 47 61 63 62 40 63 29 64
REMARK SMILES IDX 30 65 34 66 31 67 33 68 32 69 51 70 52 71 56 72 53 73 55 74
REMARK SMILES IDX 54 75 41 76 42 77 46 78 43 79 45 80 44 81
REMARK H PARENT 61 49 39 60
REMARK Flexibility Score: inf
ROOT
ATOM      1  C   UNL A   1      38.993  21.368  25.821  1.00  0.00     0.275 C 
ENDROOT
BRANCH   1   2
ATOM      2  C   UNL A   1      37.716  21.534  24.983  1.00  0.00     0.274 C 
BRANCH   2   3
ATOM      3  O   UNL A   1      37.296  22.910  24.955  1.00  0.00    -0.462 OA
BRANCH   3   4
ATOM      4  C   UNL A   1      36.176  23.205  24.259  1.00  0.00     0.316 C 
ATOM      5  O   UNL A   1      36.086  23.051  23.042  1.00  0.00    -0.251 OA
BRANCH   4   6
ATOM      6  C   UNL A   1      34.997  23.672  25.096  1.00  0.00     0.157 C 
ATOM      7  C   UNL A   1      31.797  26.100  23.434  1.00  0.00     0.161 A 
ATOM      8  C   UNL A   1      31.613  25.346  24.601  1.00  0.00     0.064 A 
ATOM      9  C   UNL A   1      33.074  26.180  22.870  1.00  0.00     0.161 A 
ATOM     10  C   UNL A   1      32.673  24.615  25.155  1.00  0.00     0.048 A 
ATOM     11  C   UNL A   1      34.122  25.453  23.449  1.00  0.00     0.056 A 
ATOM     12  C   UNL A   1      33.920  24.571  24.516  1.00  0.00    -0.015 A 
ATOM     13  C   UNL A   1      32.469  23.918  26.464  1.00  0.00     0.254 C 
ATOM     14  N   UNL A   1      33.392  22.928  26.798  1.00  0.00    -0.333 N 
ATOM     15  O   UNL A   1      31.526  24.231  27.182  1.00  0.00    -0.269 OA
ATOM     16  C   UNL A   1      34.360  22.438  25.801  1.00  0.00     0.134 C 
ATOM     17  C   UNL A   1      33.274  22.240  28.072  1.00  0.00     0.147 C 
BRANCH   7  18
ATOM     18  O   UNL A   1      30.743  26.701  22.803  1.00  0.00    -0.493 OA
ATOM     19  C   UNL A   1      30.437  28.014  23.262  1.00  0.00     0.278 C 
ENDBRANCH   7  18
BRANCH   9  20
ATOM     20  O   UNL A   1      33.500  26.904  21.788  1.00  0.00    -0.493 OA
ATOM     21  C   UNL A   1      34.013  28.207  21.997  1.00  0.00     0.278 C 
ENDBRANCH   9  20
BRANCH  16  22
ATOM     22  C   UNL A   1      33.761  21.392  24.846  1.00  0.00    -0.023 A 
ATOM     23  C   UNL A   1      32.823  21.787  23.874  1.00  0.00     0.006 A 
ATOM     24  C   UNL A   1      34.086  20.025  24.908  1.00  0.00     0.026 A 
ATOM     25  C   UNL A   1      32.162  20.851  23.074  1.00  0.00     0.002 A 
ATOM     26  C   UNL A   1      33.437  19.093  24.096  1.00  0.00     0.041 A 
ATOM     27  C   UNL A   1      32.460  19.498  23.197  1.00  0.00     0.020 A 
ATOM     28  Cl  UNL A   1      33.845  17.425  24.223  1.00  0.00    -0.084 Cl
ENDBRANCH  16  22
ENDBRANCH   4   6
ENDBRANCH   3   4
ENDBRANCH   2   3
ENDBRANCH   1   2
BRANCH   1  29
ATOM     29  O   UNL A   1      39.495  20.017  25.763  1.00  0.00    -0.458 OA
BRANCH  29  30
ATOM     30  C   UNL A   1      40.809  19.860  26.052  1.00  0.00     0.338 C 
ATOM     31  O   UNL A   1      41.512  18.901  25.786  1.00  0.00    -0.246 OA
BRANCH  30  32
ATOM     32  C   UNL A   1      41.347  21.121  26.590  1.00  0.00     0.060 A 
ATOM     33  C   UNL A   1      41.219  21.369  27.962  1.00  0.00     0.016 A 
ATOM     34  C   UNL A   1      41.930  22.071  25.753  1.00  0.00     0.016 A 
ATOM     35  C   UNL A   1      41.678  22.559  28.509  1.00  0.00     0.010 A 
ATOM     36  C   UNL A   1      42.385  23.274  26.301  1.00  0.00     0.010 A 
ATOM     37  C   UNL A   1      42.256  23.522  27.679  1.00  0.00    -0.014 A 
BRANCH  37  38
ATOM     38  C   UNL A   1      42.659  24.822  28.252  1.00  0.00     0.031 A 
ATOM     39  C   UNL A   1      41.621  25.879  28.469  1.00  0.00     0.074 A 
ATOM     40  C   UNL A   1      43.940  25.033  28.597  1.00  0.00     0.049 A 
ATOM     41  N   UNL A   1      41.773  27.115  28.866  1.00  0.00    -0.248 NA
ATOM     42  C   UNL A   1      40.225  25.493  28.208  1.00  0.00     0.031 C 
ATOM     43  C   UNL A   1      45.018  24.047  28.503  1.00  0.00     0.029 A 
ATOM     44  N   UNL A   1      44.552  26.154  29.096  1.00  0.00    -0.354 N 
ATOM     45  C   UNL A   1      40.497  27.663  28.881  1.00  0.00     0.074 A 
ATOM     46  C   UNL A   1      39.584  26.629  28.442  1.00  0.00     0.031 C 
ATOM     47  C   UNL A   1      46.163  24.611  28.922  1.00  0.00     0.029 A 
ATOM     48  C   UNL A   1      45.906  26.007  29.266  1.00  0.00     0.049 A 
ATOM     49  H   UNL A   1      44.067  26.983  29.311  1.00  0.00     0.167 HD
ATOM     50  C   UNL A   1      40.126  28.917  29.225  1.00  0.00     0.031 A 
ATOM     51  C   UNL A   1      46.836  26.910  29.626  1.00  0.00     0.031 A 
ATOM     52  C   UNL A   1      41.042  29.941  29.649  1.00  0.00     0.049 A 
ATOM     53  C   UNL A   1      46.408  28.321  29.916  1.00  0.00     0.074 A 
ATOM     54  C   UNL A   1      40.769  31.248  30.012  1.00  0.00     0.029 A 
ATOM     55  N   UNL A   1      42.414  29.768  29.766  1.00  0.00    -0.354 N 
ATOM     56  N   UNL A   1      45.203  28.837  29.908  1.00  0.00    -0.248 NA
ATOM     57  C   UNL A   1      47.471  29.276  30.260  1.00  0.00     0.031 C 
ATOM     58  C   UNL A   1      41.984  31.880  30.304  1.00  0.00     0.029 A 
ATOM     59  C   UNL A   1      43.005  30.951  30.174  1.00  0.00     0.049 A 
ATOM     60  H   UNL A   1      42.894  28.929  29.585  1.00  0.00     0.167 HD
ATOM     61  C   UNL A   1      45.358  30.168  30.270  1.00  0.00     0.074 A 
ATOM     62  C   UNL A   1      46.773  30.376  30.503  1.00  0.00     0.031 C 
ATOM     63  C   UNL A   1      44.415  31.133  30.401  1.00  0.00     0.031 A 
BRANCH  50  64
ATOM     64  C   UNL A   1      38.669  29.259  29.104  1.00  0.00    -0.014 A 
ATOM     65  C   UNL A   1      37.794  29.128  30.194  1.00  0.00     0.009 A 
ATOM     66  C   UNL A   1      38.168  29.735  27.883  1.00  0.00     0.009 A 
ATOM     67  C   UNL A   1      36.439  29.437  30.052  1.00  0.00     0.001 A 
ATOM     68  C   UNL A   1      36.819  30.067  27.751  1.00  0.00     0.001 A 
ATOM     69  C   UNL A   1      35.953  29.909  28.833  1.00  0.00     0.000 A 
ENDBRANCH  50  64
BRANCH  51  70
ATOM     70  C   UNL A   1      48.267  26.518  29.695  1.00  0.00    -0.014 A 
ATOM     71  C   UNL A   1      49.098  26.642  28.573  1.00  0.00     0.009 A 
ATOM     72  C   UNL A   1      48.807  26.004  30.886  1.00  0.00     0.009 A 
ATOM     73  C   UNL A   1      50.435  26.240  28.634  1.00  0.00     0.001 A 
ATOM     74  C   UNL A   1      50.150  25.628  30.952  1.00  0.00     0.001 A 
ATOM     75  C   UNL A   1      50.960  25.737  29.824  1.00  0.00     0.000 A 
ENDBRANCH  51  70
BRANCH  63  76
ATOM     76  C   UNL A   1      44.881  32.487  30.853  1.00  0.00    -0.014 A 
ATOM     77  C   UNL A   1      44.977  32.808  32.214  1.00  0.00     0.009 A 
ATOM     78  C   UNL A   1      45.266  33.441  29.897  1.00  0.00     0.009 A 
ATOM     79  C   UNL A   1      45.423  34.070  32.610  1.00  0.00     0.001 A 
ATOM     80  C   UNL A   1      45.736  34.692  30.296  1.00  0.00     0.001 A 
ATOM     81  C   UNL A   1      45.806  35.009  31.651  1.00  0.00     0.000 A 
ENDBRANCH  63  76
ENDBRANCH  37  38
ENDBRANCH  30  32
ENDBRANCH  29  30
ENDBRANCH   1  29
TORSDOF 14
ENDMDL
MODEL 2
REMARK VINA RESULT:     -12.0      3.581      8.598
REMARK SMILES COc1cc2c(cc1OC)[C@H](C(=O)OCCOC(=O)c1ccc(-c3c4nc(c(-c5ccccc5)c5ccc([nH]5)c(-c5ccccc5)c5nc(c(-c6ccccc6)c6ccc3[nH]6)C=C5)C=C4)cc1)[C@H](c1cccc(Cl)c1)N(C)C2=O
REMARK SMILES IDX 16 1 15 2 14 3 12 4 13 5 11 6 3 7 4 8 8 9 5 10 7 11 6 12
REMARK SMILES IDX 78 13 76 14 79 15 68 16 77 17 2 18 1 19 9 20 10 21 69 22
REMARK SMILES IDX 70 23 75 24 71 25 73 26 72 27 74 28 17 29 18 30 19 31 20 32
REMARK SMILES IDX 21 33 67 34 22 35 66 36 23 37 24 38 25 39 60 40 26 41 65 42
REMARK SMILES IDX 59 43 61 44 27 45 64 46 58 47 57 48 28 50 50 51 35 52 49 53
REMARK SMILES IDX 36 54 39 55 48 56 62 57 37 58 38 59 47 61 63 62 40 63 29 64
REMARK SMILES IDX 30 65 34 66 31 67 33 68 32 69 51 70 52 71 56 72 53 73 55 74
REMARK SMILES IDX 54 75 41 76 42 77 46 78 43 79 45 80 44 81
REMARK H PARENT 61 49 39 60
REMARK Flexibility Score: inf
ROOT
ATOM      1  C   UNL A   1      33.313  31.555  27.475  1.00  0.00     0.275 C 
ENDROOT
BRANCH   1   2
ATOM      2  C   UNL A   1      32.440  30.417  26.924  1.00  0.00     0.274 C 
BRANCH   2   3
ATOM      3  O   UNL A   1      32.996  29.133  27.264  1.00  0.00    -0.462 OA
BRANCH   3   4
ATOM      4  C   UNL A   1      32.333  28.036  26.840  1.00  0.00     0.316 C 
ATOM      5  O   UNL A   1      31.273  27.662  27.339  1.00  0.00    -0.251 OA
BRANCH   4   6
ATOM      6  C   UNL A   1      32.947  27.330  25.642  1.00  0.00     0.157 C 
ATOM      7  C   UNL A   1      32.306  23.100  24.871  1.00  0.00     0.161 A 
ATOM      8  C   UNL A   1      32.701  23.978  23.852  1.00  0.00     0.064 A 
ATOM      9  C   UNL A   1      32.249  23.567  26.188  1.00  0.00     0.161 A 
ATOM     10  C   UNL A   1      32.960  25.327  24.131  1.00  0.00     0.048 A 
ATOM     11  C   UNL A   1      32.526  24.916  26.446  1.00  0.00     0.056 A 
ATOM     12  C   UNL A   1      32.765  25.839  25.422  1.00  0.00    -0.015 A 
ATOM     13  C   UNL A   1      33.492  26.205  23.043  1.00  0.00     0.254 C 
ATOM     14  N   UNL A   1      33.393  27.581  23.242  1.00  0.00    -0.333 N 
ATOM     15  O   UNL A   1      33.984  25.702  22.039  1.00  0.00    -0.269 OA
ATOM     16  C   UNL A   1      32.589  28.123  24.351  1.00  0.00     0.134 C 
ATOM     17  C   UNL A   1      33.926  28.489  22.241  1.00  0.00     0.147 C 
BRANCH   7  18
ATOM     18  O   UNL A   1      31.913  21.820  24.593  1.00  0.00    -0.493 OA
ATOM     19  C   UNL A   1      32.969  20.867  24.534  1.00  0.00     0.278 C 
ENDBRANCH   7  18
BRANCH   9  20
ATOM     20  O   UNL A   1      31.963  22.882  27.339  1.00  0.00    -0.493 OA
ATOM     21  C   UNL A   1      33.028  22.305  28.073  1.00  0.00     0.278 C 
ENDBRANCH   9  20
BRANCH  16  22
ATOM     22  C   UNL A   1      31.087  28.182  24.030  1.00  0.00    -0.023 A 
ATOM     23  C   UNL A   1      30.328  26.996  24.005  1.00  0.00     0.006 A 
ATOM     24  C   UNL A   1      30.415  29.380  23.728  1.00  0.00     0.026 A 
ATOM     25  C   UNL A   1      28.993  26.991  23.595  1.00  0.00     0.002 A 
ATOM     26  C   UNL A   1      29.076  29.376  23.334  1.00  0.00     0.041 A 
ATOM     27  C   UNL A   1      28.369  28.184  23.244  1.00  0.00     0.020 A 
ATOM     28  Cl  UNL A   1      28.299  30.862  22.945  1.00  0.00    -0.084 Cl
ENDBRANCH  16  22
ENDBRANCH   4   6
ENDBRANCH   3   4
ENDBRANCH   2   3
ENDBRANCH   1   2
BRANCH   1  29
ATOM     29  O   UNL A   1      32.640  32.828  27.396  1.00  0.00    -0.458 OA
BRANCH  29  30
ATOM     30  C   UNL A   1      33.130  33.808  28.192  1.00  0.00     0.338 C 
ATOM     31  O   UNL A   1      32.556  34.821  28.551  1.00  0.00    -0.246 OA
BRANCH  30  32
ATOM     32  C   UNL A   1      34.433  33.392  28.738  1.00  0.00     0.060 A 
ATOM     33  C   UNL A   1      35.583  33.635  27.977  1.00  0.00     0.016 A 
ATOM     34  C   UNL A   1      34.523  32.729  29.961  1.00  0.00     0.016 A 
ATOM     35  C   UNL A   1      36.829  33.229  28.433  1.00  0.00     0.010 A 
ATOM     36  C   UNL A   1      35.776  32.311  30.417  1.00  0.00     0.010 A 
ATOM     37  C   UNL A   1      36.931  32.556  29.653  1.00  0.00    -0.014 A 
BRANCH  37  38
ATOM     38  C   UNL A   1      38.246  32.046  30.088  1.00  0.00     0.031 A 
ATOM     39  C   UNL A   1      38.736  30.734  29.556  1.00  0.00     0.074 A 
ATOM     40  C   UNL A   1      38.999  32.771  30.933  1.00  0.00     0.049 A 
ATOM     41  N   UNL A   1      39.809  30.062  29.880  1.00  0.00    -0.248 NA
ATOM     42  C   UNL A   1      37.910  30.098  28.517  1.00  0.00     0.031 C 
ATOM     43  C   UNL A   1      38.655  34.096  31.452  1.00  0.00     0.029 A 
ATOM     44  N   UNL A   1      40.213  32.490  31.505  1.00  0.00    -0.354 N 
ATOM     45  C   UNL A   1      39.777  28.911  29.103  1.00  0.00     0.074 A 
ATOM     46  C   UNL A   1      38.573  28.971  28.301  1.00  0.00     0.031 C 
ATOM     47  C   UNL A   1      39.634  34.509  32.275  1.00  0.00     0.029 A 
ATOM     48  C   UNL A   1      40.643  33.459  32.377  1.00  0.00     0.049 A 
ATOM     49  H   UNL A   1      40.725  31.672  31.309  1.00  0.00     0.167 HD
ATOM     50  C   UNL A   1      40.670  27.896  29.069  1.00  0.00     0.031 A 
ATOM     51  C   UNL A   1      41.715  33.477  33.189  1.00  0.00     0.031 A 
ATOM     52  C   UNL A   1      41.858  27.841  29.877  1.00  0.00     0.049 A 
ATOM     53  C   UNL A   1      42.644  32.295  33.198  1.00  0.00     0.074 A 
ATOM     54  C   UNL A   1      42.825  26.852  29.926  1.00  0.00     0.029 A 
ATOM     55  N   UNL A   1      42.238  28.820  30.783  1.00  0.00    -0.354 N 
ATOM     56  N   UNL A   1      42.596  31.202  32.476  1.00  0.00    -0.248 NA
ATOM     57  C   UNL A   1      43.773  32.350  34.138  1.00  0.00     0.031 C 
ATOM     58  C   UNL A   1      43.767  27.213  30.896  1.00  0.00     0.029 A 
ATOM     59  C   UNL A   1      43.414  28.450  31.412  1.00  0.00     0.049 A 
ATOM     60  H   UNL A   1      41.744  29.654  30.953  1.00  0.00     0.167 HD
ATOM     61  C   UNL A   1      43.700  30.450  32.855  1.00  0.00     0.074 A 
ATOM     62  C   UNL A   1      44.405  31.218  33.861  1.00  0.00     0.031 C 
ATOM     63  C   UNL A   1      44.097  29.233  32.409  1.00  0.00     0.031 A 
BRANCH  50  64
ATOM     64  C   UNL A   1      40.362  26.741  28.160  1.00  0.00    -0.014 A 
ATOM     65  C   UNL A   1      39.544  25.679  28.579  1.00  0.00     0.009 A 
ATOM     66  C   UNL A   1      40.889  26.723  26.860  1.00  0.00     0.009 A 
ATOM     67  C   UNL A   1      39.286  24.607  27.721  1.00  0.00     0.001 A 
ATOM     68  C   UNL A   1      40.609  25.663  25.996  1.00  0.00     0.001 A 
ATOM     69  C   UNL A   1      39.815  24.601  26.430  1.00  0.00     0.000 A 
ENDBRANCH  50  64
BRANCH  51  70
ATOM     70  C   UNL A   1      41.947  34.635  34.090  1.00  0.00    -0.014 A 
ATOM     71  C   UNL A   1      41.435  34.641  35.395  1.00  0.00     0.009 A 
ATOM     72  C   UNL A   1      42.675  35.750  33.641  1.00  0.00     0.009 A 
ATOM     73  C   UNL A   1      41.627  35.748  36.226  1.00  0.00     0.001 A 
ATOM     74  C   UNL A   1      42.888  36.844  34.484  1.00  0.00     0.001 A 
ATOM     75  C   UNL A   1      42.356  36.845  35.771  1.00  0.00     0.000 A 
ENDBRANCH  51  70
BRANCH  63  76
ATOM     76  C   UNL A   1      45.371  28.679  32.979  1.00  0.00    -0.014 A 
ATOM     77  C   UNL A   1      46.615  28.968  32.400  1.00  0.00     0.009 A 
ATOM     78  C   UNL A   1      45.324  27.888  34.138  1.00  0.00     0.009 A 
ATOM     79  C   UNL A   1      47.787  28.450  32.954  1.00  0.00     0.001 A 
ATOM     80  C   UNL A   1      46.499  27.393  34.704  1.00  0.00     0.001 A 
ATOM     81  C   UNL A   1      47.728  27.667  34.108  1.00  0.00     0.000 A 
ENDBRANCH  63  76
ENDBRANCH  37  38
ENDBRANCH  30  32
ENDBRANCH  29  30
ENDBRANCH   1  29
TORSDOF 14
ENDMDL
MODEL 3
REMARK VINA RESULT:     -11.7      3.568      8.474
REMARK SMILES COc1cc2c(cc1OC)[C@H](C(=O)OCCOC(=O)c1ccc(-c3c4nc(c(-c5ccccc5)c5ccc([nH]5)c(-c5ccccc5)c5nc(c(-c6ccccc6)c6ccc3[nH]6)C=C5)C=C4)cc1)[C@H](c1cccc(Cl)c1)N(C)C2=O
REMARK SMILES IDX 16 1 15 2 14 3 12 4 13 5 11 6 3 7 4 8 8 9 5 10 7 11 6 12
REMARK SMILES IDX 78 13 76 14 79 15 68 16 77 17 2 18 1 19 9 20 10 21 69 22
REMARK SMILES IDX 70 23 75 24 71 25 73 26 72 27 74 28 17 29 18 30 19 31 20 32
REMARK SMILES IDX 21 33 67 34 22 35 66 36 23 37 24 38 25 39 60 40 26 41 65 42
REMARK SMILES IDX 59 43 61 44 27 45 64 46 58 47 57 48 28 50 50 51 35 52 49 53
REMARK SMILES IDX 36 54 39 55 48 56 62 57 37 58 38 59 47 61 63 62 40 63 29 64
REMARK SMILES IDX 30 65 34 66 31 67 33 68 32 69 51 70 52 71 56 72 53 73 55 74
REMARK SMILES IDX 54 75 41 76 42 77 46 78 43 79 45 80 44 81
REMARK H PARENT 61 49 39 60
REMARK Flexibility Score: inf
ROOT
ATOM      1  C   UNL A   1      33.162  31.715  27.270  1.00  0.00     0.275 C 
ENDROOT
BRANCH   1   2
ATOM      2  C   UNL A   1      32.206  30.531  27.058  1.00  0.00     0.274 C 
BRANCH   2   3
ATOM      3  O   UNL A   1      32.891  29.278  27.241  1.00  0.00    -0.462 OA
BRANCH   3   4
ATOM      4  C   UNL A   1      32.258  28.157  26.834  1.00  0.00     0.316 C 
ATOM      5  O   UNL A   1      31.210  27.761  27.341  1.00  0.00    -0.251 OA
BRANCH   4   6
ATOM      6  C   UNL A   1      32.890  27.451  25.645  1.00  0.00     0.157 C 
ATOM      7  C   UNL A   1      32.329  23.203  24.913  1.00  0.00     0.161 A 
ATOM      8  C   UNL A   1      32.711  24.078  23.887  1.00  0.00     0.064 A 
ATOM      9  C   UNL A   1      32.259  23.682  26.225  1.00  0.00     0.161 A 
ATOM     10  C   UNL A   1      32.944  25.435  24.154  1.00  0.00     0.048 A 
ATOM     11  C   UNL A   1      32.510  25.038  26.470  1.00  0.00     0.056 A 
ATOM     12  C   UNL A   1      32.735  25.955  25.439  1.00  0.00    -0.015 A 
ATOM     13  C   UNL A   1      33.464  26.312  23.058  1.00  0.00     0.254 C 
ATOM     14  N   UNL A   1      33.340  27.688  23.244  1.00  0.00    -0.333 N 
ATOM     15  O   UNL A   1      33.969  25.809  22.061  1.00  0.00    -0.269 OA
ATOM     16  C   UNL A   1      32.521  28.225  24.346  1.00  0.00     0.134 C 
ATOM     17  C   UNL A   1      33.859  28.596  22.237  1.00  0.00     0.147 C 
BRANCH   7  18
ATOM     18  O   UNL A   1      31.960  21.913  24.645  1.00  0.00    -0.493 OA
ATOM     19  C   UNL A   1      32.612  21.323  23.526  1.00  0.00     0.278 C 
ENDBRANCH   7  18
BRANCH   9  20
ATOM     20  O   UNL A   1      31.981  23.002  27.381  1.00  0.00    -0.493 OA
ATOM     21  C   UNL A   1      33.005  22.229  27.982  1.00  0.00     0.278 C 
ENDBRANCH   9  20
BRANCH  16  22
ATOM     22  C   UNL A   1      31.019  28.253  24.019  1.00  0.00    -0.023 A 
ATOM     23  C   UNL A   1      30.277  27.057  24.029  1.00  0.00     0.006 A 
ATOM     24  C   UNL A   1      30.332  29.432  23.677  1.00  0.00     0.026 A 
ATOM     25  C   UNL A   1      28.944  27.021  23.616  1.00  0.00     0.002 A 
ATOM     26  C   UNL A   1      28.995  29.397  23.280  1.00  0.00     0.041 A 
ATOM     27  C   UNL A   1      28.304  28.193  23.226  1.00  0.00     0.020 A 
ATOM     28  Cl  UNL A   1      28.199  30.860  22.843  1.00  0.00    -0.084 Cl
ENDBRANCH  16  22
ENDBRANCH   4   6
ENDBRANCH   3   4
ENDBRANCH   2   3
ENDBRANCH   1   2
BRANCH   1  29
ATOM     29  O   UNL A   1      32.448  32.964  27.371  1.00  0.00    -0.458 OA
BRANCH  29  30
ATOM     30  C   UNL A   1      33.049  33.934  28.100  1.00  0.00     0.338 C 
ATOM     31  O   UNL A   1      32.594  35.026  28.390  1.00  0.00    -0.246 OA
BRANCH  30  32
ATOM     32  C   UNL A   1      34.303  33.412  28.671  1.00  0.00     0.060 A 
ATOM     33  C   UNL A   1      35.483  33.558  27.933  1.00  0.00     0.016 A 
ATOM     34  C   UNL A   1      34.314  32.746  29.895  1.00  0.00     0.016 A 
ATOM     35  C   UNL A   1      36.683  33.051  28.414  1.00  0.00     0.010 A 
ATOM     36  C   UNL A   1      35.519  32.227  30.376  1.00  0.00     0.010 A 
ATOM     37  C   UNL A   1      36.705  32.374  29.635  1.00  0.00    -0.014 A 
BRANCH  37  38
ATOM     38  C   UNL A   1      37.964  31.758  30.097  1.00  0.00     0.031 A 
ATOM     39  C   UNL A   1      38.796  32.469  31.120  1.00  0.00     0.074 A 
ATOM     40  C   UNL A   1      38.338  30.559  29.617  1.00  0.00     0.049 A 
ATOM     41  N   UNL A   1      39.975  32.155  31.587  1.00  0.00    -0.248 NA
ATOM     42  C   UNL A   1      38.220  33.695  31.696  1.00  0.00     0.031 C 
ATOM     43  C   UNL A   1      37.567  29.743  28.679  1.00  0.00     0.029 A 
ATOM     44  N   UNL A   1      39.468  29.821  29.857  1.00  0.00    -0.354 N 
ATOM     45  C   UNL A   1      40.295  33.155  32.495  1.00  0.00     0.074 A 
ATOM     46  C   UNL A   1      39.192  34.092  32.505  1.00  0.00     0.031 C 
ATOM     47  C   UNL A   1      38.253  28.618  28.414  1.00  0.00     0.029 A 
ATOM     48  C   UNL A   1      39.527  28.661  29.125  1.00  0.00     0.049 A 
ATOM     49  H   UNL A   1      40.168  30.096  30.492  1.00  0.00     0.167 HD
ATOM     50  C   UNL A   1      41.412  33.280  33.248  1.00  0.00     0.031 A 
ATOM     51  C   UNL A   1      40.516  27.755  29.018  1.00  0.00     0.031 A 
ATOM     52  C   UNL A   1      42.508  32.349  33.224  1.00  0.00     0.049 A 
ATOM     53  C   UNL A   1      41.785  27.965  29.797  1.00  0.00     0.074 A 
ATOM     54  C   UNL A   1      43.691  32.388  33.940  1.00  0.00     0.029 A 
ATOM     55  N   UNL A   1      42.553  31.208  32.435  1.00  0.00    -0.354 N 
ATOM     56  N   UNL A   1      42.089  28.923  30.638  1.00  0.00    -0.248 NA
ATOM     57  C   UNL A   1      42.848  26.968  29.607  1.00  0.00     0.031 C 
ATOM     58  C   UNL A   1      44.471  31.293  33.550  1.00  0.00     0.029 A 
ATOM     59  C   UNL A   1      43.752  30.546  32.631  1.00  0.00     0.049 A 
ATOM     60  H   UNL A   1      41.837  30.914  31.827  1.00  0.00     0.167 HD
ATOM     61  C   UNL A   1      43.366  28.633  31.097  1.00  0.00     0.074 A 
ATOM     62  C   UNL A   1      43.774  27.402  30.450  1.00  0.00     0.031 C 
ATOM     63  C   UNL A   1      44.134  29.321  31.977  1.00  0.00     0.031 A 
BRANCH  50  64
ATOM     64  C   UNL A   1      41.520  34.497  34.121  1.00  0.00    -0.014 A 
ATOM     65  C   UNL A   1      40.954  34.527  35.405  1.00  0.00     0.009 A 
ATOM     66  C   UNL A   1      42.212  35.624  33.655  1.00  0.00     0.009 A 
ATOM     67  C   UNL A   1      41.053  35.677  36.192  1.00  0.00     0.001 A 
ATOM     68  C   UNL A   1      42.332  36.763  34.453  1.00  0.00     0.001 A 
ATOM     69  C   UNL A   1      41.744  36.792  35.718  1.00  0.00     0.000 A 
ENDBRANCH  50  64
BRANCH  51  70
ATOM     70  C   UNL A   1      40.362  26.589  28.111  1.00  0.00    -0.014 A 
ATOM     71  C   UNL A   1      40.884  26.620  26.810  1.00  0.00     0.009 A 
ATOM     72  C   UNL A   1      39.679  25.439  28.541  1.00  0.00     0.009 A 
ATOM     73  C   UNL A   1      40.707  25.534  25.950  1.00  0.00     0.001 A 
ATOM     74  C   UNL A   1      39.527  24.344  27.688  1.00  0.00     0.001 A 
ATOM     75  C   UNL A   1      40.032  24.396  26.391  1.00  0.00     0.000 A 
ENDBRANCH  51  70
BRANCH  63  76
ATOM     76  C   UNL A   1      45.473  28.736  32.318  1.00  0.00    -0.014 A 
ATOM     77  C   UNL A   1      45.621  27.814  33.365  1.00  0.00     0.009 A 
ATOM     78  C   UNL A   1      46.597  29.086  31.553  1.00  0.00     0.009 A 
ATOM     79  C   UNL A   1      46.875  27.275  33.657  1.00  0.00     0.001 A 
ATOM     80  C   UNL A   1      47.844  28.526  31.830  1.00  0.00     0.001 A 
ATOM     81  C   UNL A   1      47.984  27.628  32.887  1.00  0.00     0.000 A 
ENDBRANCH  63  76
ENDBRANCH  37  38
ENDBRANCH  30  32
ENDBRANCH  29  30
ENDBRANCH   1  29
TORSDOF 14
ENDMDL
