MODEL 1
REMARK VINA RESULT:     -12.1      0.000      0.000
REMARK SMILES Cc1ccc(-c2cc(Cl)ccc2Cl)c(C(=O)OCCOC(=O)c2ccc(-c3c4nc(c(-c5ccccc5)c5ccc([nH]5)c(-c5ccccc5)c5nc(c(-c6ccccc6)c6ccc3[nH]6)C=C5)C=C4)cc2)c1
REMARK SMILES IDX 19 1 18 2 17 3 15 4 16 5 14 6 1 7 2 8 3 9 71 10 4 11 5 12
REMARK SMILES IDX 6 13 7 14 12 15 8 16 11 17 13 18 9 19 10 20 20 21 21 22
REMARK SMILES IDX 22 23 23 24 24 25 70 26 25 27 69 28 26 29 27 30 28 31 63 32
REMARK SMILES IDX 29 33 68 34 62 35 64 36 30 37 67 38 61 39 60 40 31 42 53 43
REMARK SMILES IDX 38 44 52 45 39 46 42 47 51 48 65 49 40 50 41 51 50 53 66 54
REMARK SMILES IDX 43 55 32 56 33 57 37 58 34 59 36 60 35 61 54 62 55 63 59 64
REMARK SMILES IDX 56 65 58 66 57 67 44 68 45 69 49 70 46 71 48 72 47 73
REMARK H PARENT 64 41 42 52
REMARK Flexibility Score: inf
ROOT
ATOM      1  C   UNL A   1      32.624  31.599  27.213  1.00  0.00     0.275 C 
ENDROOT
BRANCH   1   2
ATOM      2  C   UNL A   1      31.823  30.736  26.219  1.00  0.00     0.275 C 
BRANCH   2   3
ATOM      3  O   UNL A   1      32.603  30.031  25.211  1.00  0.00    -0.458 OA
BRANCH   3   4
ATOM      4  C   UNL A   1      32.433  28.680  25.293  1.00  0.00     0.338 C 
ATOM      5  O   UNL A   1      32.639  28.033  26.318  1.00  0.00    -0.246 OA
BRANCH   4   6
ATOM      6  C   UNL A   1      32.305  27.909  24.033  1.00  0.00     0.068 A 
ATOM      7  C   UNL A   1      34.225  24.669  23.342  1.00  0.00     0.044 C 
ATOM      8  C   UNL A   1      33.263  25.803  23.175  1.00  0.00    -0.050 A 
ATOM      9  C   UNL A   1      32.266  25.757  22.216  1.00  0.00     0.004 A 
ATOM     10  C   UNL A   1      33.315  26.910  24.018  1.00  0.00     0.019 A 
ATOM     11  C   UNL A   1      31.311  26.773  22.158  1.00  0.00     0.010 A 
ATOM     12  C   UNL A   1      31.233  27.828  23.110  1.00  0.00    -0.002 A 
BRANCH  12  13
ATOM     13  C   UNL A   1      29.976  28.630  23.032  1.00  0.00     0.003 A 
ATOM     14  C   UNL A   1      29.974  29.952  22.545  1.00  0.00     0.030 A 
ATOM     15  C   UNL A   1      28.697  28.050  23.289  1.00  0.00     0.049 A 
ATOM     16  C   UNL A   1      28.769  30.650  22.337  1.00  0.00     0.041 A 
ATOM     17  C   UNL A   1      27.501  28.741  23.042  1.00  0.00     0.023 A 
ATOM     18  Cl  UNL A   1      28.504  26.460  23.969  1.00  0.00    -0.084 Cl
ATOM     19  Cl  UNL A   1      28.782  32.273  21.762  1.00  0.00    -0.084 Cl
ATOM     20  C   UNL A   1      27.537  30.049  22.578  1.00  0.00     0.022 A 
ENDBRANCH  12  13
ENDBRANCH   4   6
ENDBRANCH   3   4
ENDBRANCH   2   3
ENDBRANCH   1   2
BRANCH   1  21
ATOM     21  O   UNL A   1      32.432  33.031  27.275  1.00  0.00    -0.458 OA
BRANCH  21  22
ATOM     22  C   UNL A   1      33.156  33.758  28.143  1.00  0.00     0.338 C 
ATOM     23  O   UNL A   1      32.834  34.866  28.551  1.00  0.00    -0.246 OA
BRANCH  22  24
ATOM     24  C   UNL A   1      34.390  33.071  28.541  1.00  0.00     0.060 A 
ATOM     25  C   UNL A   1      35.580  33.423  27.888  1.00  0.00     0.016 A 
ATOM     26  C   UNL A   1      34.391  32.257  29.668  1.00  0.00     0.016 A 
ATOM     27  C   UNL A   1      36.805  33.059  28.409  1.00  0.00     0.010 A 
ATOM     28  C   UNL A   1      35.599  31.918  30.213  1.00  0.00     0.010 A 
ATOM     29  C   UNL A   1      36.787  32.290  29.557  1.00  0.00    -0.014 A 
BRANCH  29  30
ATOM     30  C   UNL A   1      37.942  31.549  29.996  1.00  0.00     0.031 A 
ATOM     31  C   UNL A   1      38.257  30.238  29.401  1.00  0.00     0.074 A 
ATOM     32  C   UNL A   1      38.737  32.368  30.726  1.00  0.00     0.049 A 
ATOM     33  N   UNL A   1      39.183  29.457  29.831  1.00  0.00    -0.248 NA
ATOM     34  C   UNL A   1      37.509  29.635  28.290  1.00  0.00     0.031 C 
ATOM     35  C   UNL A   1      40.170  32.359  30.922  1.00  0.00     0.029 A 
ATOM     36  N   UNL A   1      38.322  33.449  31.527  1.00  0.00    -0.354 N 
ATOM     37  C   UNL A   1      39.431  28.548  28.817  1.00  0.00     0.074 A 
ATOM     38  C   UNL A   1      38.252  28.559  27.999  1.00  0.00     0.031 C 
ATOM     39  C   UNL A   1      40.459  33.123  31.996  1.00  0.00     0.029 A 
ATOM     40  C   UNL A   1      39.190  33.481  32.618  1.00  0.00     0.049 A 
ATOM     41  H   UNL A   1      37.571  34.062  31.352  1.00  0.00     0.167 HD
ATOM     42  C   UNL A   1      40.708  28.098  28.662  1.00  0.00     0.031 A 
ATOM     43  C   UNL A   1      38.788  33.068  33.863  1.00  0.00     0.031 A 
ATOM     44  C   UNL A   1      41.536  28.608  29.754  1.00  0.00     0.049 A 
ATOM     45  C   UNL A   1      39.525  31.802  34.241  1.00  0.00     0.074 A 
ATOM     46  C   UNL A   1      42.370  29.710  29.830  1.00  0.00     0.029 A 
ATOM     47  N   UNL A   1      41.224  28.248  31.058  1.00  0.00    -0.354 N 
ATOM     48  N   UNL A   1      39.898  30.888  33.385  1.00  0.00    -0.248 NA
ATOM     49  C   UNL A   1      39.950  31.519  35.605  1.00  0.00     0.031 C 
ATOM     50  C   UNL A   1      42.461  30.080  31.201  1.00  0.00     0.029 A 
ATOM     51  C   UNL A   1      41.689  29.202  31.944  1.00  0.00     0.049 A 
ATOM     52  H   UNL A   1      40.740  27.429  31.317  1.00  0.00     0.167 HD
ATOM     53  C   UNL A   1      40.731  30.008  34.018  1.00  0.00     0.074 A 
ATOM     54  C   UNL A   1      40.693  30.416  35.414  1.00  0.00     0.031 C 
ATOM     55  C   UNL A   1      41.454  29.046  33.372  1.00  0.00     0.031 A 
BRANCH  42  56
ATOM     56  C   UNL A   1      41.301  27.503  27.402  1.00  0.00    -0.014 A 
ATOM     57  C   UNL A   1      41.919  28.373  26.477  1.00  0.00     0.009 A 
ATOM     58  C   UNL A   1      41.238  26.154  27.018  1.00  0.00     0.009 A 
ATOM     59  C   UNL A   1      42.401  27.936  25.236  1.00  0.00     0.001 A 
ATOM     60  C   UNL A   1      41.721  25.706  25.775  1.00  0.00     0.001 A 
ATOM     61  C   UNL A   1      42.297  26.599  24.881  1.00  0.00     0.000 A 
ENDBRANCH  42  56
BRANCH  43  62
ATOM     62  C   UNL A   1      37.337  33.293  34.137  1.00  0.00    -0.014 A 
ATOM     63  C   UNL A   1      36.894  34.626  34.291  1.00  0.00     0.009 A 
ATOM     64  C   UNL A   1      36.414  32.313  33.761  1.00  0.00     0.009 A 
ATOM     65  C   UNL A   1      35.629  35.006  33.844  1.00  0.00     0.001 A 
ATOM     66  C   UNL A   1      35.148  32.703  33.329  1.00  0.00     0.001 A 
ATOM     67  C   UNL A   1      34.780  34.050  33.308  1.00  0.00     0.000 A 
ENDBRANCH  43  62
BRANCH  55  68
ATOM     68  C   UNL A   1      42.120  27.887  34.059  1.00  0.00    -0.014 A 
ATOM     69  C   UNL A   1      43.498  27.811  34.281  1.00  0.00     0.009 A 
ATOM     70  C   UNL A   1      41.318  26.887  34.654  1.00  0.00     0.009 A 
ATOM     71  C   UNL A   1      44.058  26.741  34.982  1.00  0.00     0.001 A 
ATOM     72  C   UNL A   1      41.865  25.860  35.417  1.00  0.00     0.001 A 
ATOM     73  C   UNL A   1      43.243  25.772  35.557  1.00  0.00     0.000 A 
ENDBRANCH  55  68
ENDBRANCH  29  30
ENDBRANCH  22  24
ENDBRANCH  21  22
ENDBRANCH   1  21
TORSDOF 12
ENDMDL
MODEL 2
REMARK VINA RESULT:     -12.0      2.201      3.658
REMARK SMILES Cc1ccc(-c2cc(Cl)ccc2Cl)c(C(=O)OCCOC(=O)c2ccc(-c3c4nc(c(-c5ccccc5)c5ccc([nH]5)c(-c5ccccc5)c5nc(c(-c6ccccc6)c6ccc3[nH]6)C=C5)C=C4)cc2)c1
REMARK SMILES IDX 19 1 18 2 17 3 15 4 16 5 14 6 1 7 2 8 3 9 71 10 4 11 5 12
REMARK SMILES IDX 6 13 7 14 12 15 8 16 11 17 13 18 9 19 10 20 20 21 21 22
REMARK SMILES IDX 22 23 23 24 24 25 70 26 25 27 69 28 26 29 27 30 28 31 63 32
REMARK SMILES IDX 29 33 68 34 62 35 64 36 30 37 67 38 61 39 60 40 31 42 53 43
REMARK SMILES IDX 38 44 52 45 39 46 42 47 51 48 65 49 40 50 41 51 50 53 66 54
REMARK SMILES IDX 43 55 32 56 33 57 37 58 34 59 36 60 35 61 54 62 55 63 59 64
REMARK SMILES IDX 56 65 58 66 57 67 44 68 45 69 49 70 46 71 48 72 47 73
REMARK H PARENT 64 41 42 52
REMARK Flexibility Score: inf
ROOT
ATOM      1  C   UNL A   1      33.284  30.465  26.914  1.00  0.00     0.275 C 
ENDROOT
BRANCH   1   2
ATOM      2  C   UNL A   1      32.626  29.592  25.828  1.00  0.00     0.275 C 
BRANCH   2   3
ATOM      3  O   UNL A   1      31.492  28.785  26.256  1.00  0.00    -0.458 OA
BRANCH   3   4
ATOM      4  C   UNL A   1      31.603  27.492  25.835  1.00  0.00     0.338 C 
ATOM      5  O   UNL A   1      31.774  26.544  26.598  1.00  0.00    -0.246 OA
BRANCH   4   6
ATOM      6  C   UNL A   1      31.848  27.241  24.394  1.00  0.00     0.068 A 
ATOM      7  C   UNL A   1      33.981  24.337  23.097  1.00  0.00     0.044 C 
ATOM      8  C   UNL A   1      33.068  25.523  23.109  1.00  0.00    -0.050 A 
ATOM      9  C   UNL A   1      32.373  25.900  21.973  1.00  0.00     0.004 A 
ATOM     10  C   UNL A   1      32.854  26.243  24.281  1.00  0.00     0.019 A 
ATOM     11  C   UNL A   1      31.439  26.936  22.042  1.00  0.00     0.010 A 
ATOM     12  C   UNL A   1      31.073  27.577  23.258  1.00  0.00    -0.002 A 
BRANCH  12  13
ATOM     13  C   UNL A   1      29.861  28.444  23.149  1.00  0.00     0.003 A 
ATOM     14  C   UNL A   1      29.940  29.764  22.663  1.00  0.00     0.030 A 
ATOM     15  C   UNL A   1      28.547  27.931  23.375  1.00  0.00     0.049 A 
ATOM     16  C   UNL A   1      28.778  30.523  22.426  1.00  0.00     0.041 A 
ATOM     17  C   UNL A   1      27.395  28.684  23.099  1.00  0.00     0.023 A 
ATOM     18  Cl  UNL A   1      28.256  26.354  24.049  1.00  0.00    -0.084 Cl
ATOM     19  Cl  UNL A   1      28.889  32.143  21.853  1.00  0.00    -0.084 Cl
ATOM     20  C   UNL A   1      27.510  29.987  22.637  1.00  0.00     0.022 A 
ENDBRANCH  12  13
ENDBRANCH   4   6
ENDBRANCH   3   4
ENDBRANCH   2   3
ENDBRANCH   1   2
BRANCH   1  21
ATOM     21  O   UNL A   1      34.488  30.031  27.586  1.00  0.00    -0.458 OA
BRANCH  21  22
ATOM     22  C   UNL A   1      35.470  30.917  27.823  1.00  0.00     0.338 C 
ATOM     23  O   UNL A   1      35.348  32.129  27.702  1.00  0.00    -0.246 OA
BRANCH  22  24
ATOM     24  C   UNL A   1      36.716  30.262  28.238  1.00  0.00     0.060 A 
ATOM     25  C   UNL A   1      36.697  29.494  29.410  1.00  0.00     0.016 A 
ATOM     26  C   UNL A   1      37.806  30.247  27.374  1.00  0.00     0.016 A 
ATOM     27  C   UNL A   1      37.719  28.611  29.692  1.00  0.00     0.010 A 
ATOM     28  C   UNL A   1      38.809  29.352  27.625  1.00  0.00     0.010 A 
ATOM     29  C   UNL A   1      38.771  28.575  28.797  1.00  0.00    -0.014 A 
BRANCH  29  30
ATOM     30  C   UNL A   1      40.043  27.988  29.139  1.00  0.00     0.031 A 
ATOM     31  C   UNL A   1      40.361  26.609  28.727  1.00  0.00     0.074 A 
ATOM     32  C   UNL A   1      40.877  28.967  29.563  1.00  0.00     0.049 A 
ATOM     33  N   UNL A   1      41.410  25.970  29.107  1.00  0.00    -0.248 NA
ATOM     34  C   UNL A   1      39.491  25.776  27.889  1.00  0.00     0.031 C 
ATOM     35  C   UNL A   1      42.318  29.071  29.494  1.00  0.00     0.029 A 
ATOM     36  N   UNL A   1      40.514  30.153  30.231  1.00  0.00    -0.354 N 
ATOM     37  C   UNL A   1      41.559  24.907  28.235  1.00  0.00     0.074 A 
ATOM     38  C   UNL A   1      40.261  24.706  27.655  1.00  0.00     0.031 C 
ATOM     39  C   UNL A   1      42.719  30.031  30.353  1.00  0.00     0.029 A 
ATOM     40  C   UNL A   1      41.549  30.428  31.124  1.00  0.00     0.049 A 
ATOM     41  H   UNL A   1      39.694  30.682  30.094  1.00  0.00     0.167 HD
ATOM     42  C   UNL A   1      42.825  24.505  27.929  1.00  0.00     0.031 A 
ATOM     43  C   UNL A   1      41.399  30.227  32.474  1.00  0.00     0.031 A 
ATOM     44  C   UNL A   1      43.779  25.248  28.750  1.00  0.00     0.049 A 
ATOM     45  C   UNL A   1      42.294  29.093  32.920  1.00  0.00     0.074 A 
ATOM     46  C   UNL A   1      44.518  26.389  28.485  1.00  0.00     0.029 A 
ATOM     47  N   UNL A   1      43.724  25.115  30.131  1.00  0.00    -0.354 N 
ATOM     48  N   UNL A   1      42.592  28.059  32.179  1.00  0.00    -0.248 NA
ATOM     49  C   UNL A   1      42.966  29.084  34.213  1.00  0.00     0.031 C 
ATOM     50  C   UNL A   1      44.808  27.006  29.734  1.00  0.00     0.029 A 
ATOM     51  C   UNL A   1      44.250  26.237  30.743  1.00  0.00     0.049 A 
ATOM     52  H   UNL A   1      43.362  24.332  30.608  1.00  0.00     0.167 HD
ATOM     53  C   UNL A   1      43.593  27.354  32.789  1.00  0.00     0.074 A 
ATOM     54  C   UNL A   1      43.757  28.006  34.080  1.00  0.00     0.031 C 
ATOM     55  C   UNL A   1      44.274  26.331  32.195  1.00  0.00     0.031 A 
BRANCH  42  56
ATOM     56  C   UNL A   1      43.244  23.724  26.701  1.00  0.00    -0.014 A 
ATOM     57  C   UNL A   1      43.355  22.320  26.806  1.00  0.00     0.009 A 
ATOM     58  C   UNL A   1      43.606  24.270  25.459  1.00  0.00     0.009 A 
ATOM     59  C   UNL A   1      43.837  21.521  25.761  1.00  0.00     0.001 A 
ATOM     60  C   UNL A   1      44.089  23.476  24.404  1.00  0.00     0.001 A 
ATOM     61  C   UNL A   1      44.211  22.100  24.558  1.00  0.00     0.000 A 
ENDBRANCH  42  56
BRANCH  43  62
ATOM     62  C   UNL A   1      40.002  30.421  32.965  1.00  0.00    -0.014 A 
ATOM     63  C   UNL A   1      39.396  31.679  32.750  1.00  0.00     0.009 A 
ATOM     64  C   UNL A   1      39.186  29.301  33.154  1.00  0.00     0.009 A 
ATOM     65  C   UNL A   1      38.029  31.770  32.488  1.00  0.00     0.001 A 
ATOM     66  C   UNL A   1      37.820  29.407  32.903  1.00  0.00     0.001 A 
ATOM     67  C   UNL A   1      37.255  30.620  32.507  1.00  0.00     0.000 A 
ENDBRANCH  43  62
BRANCH  55  68
ATOM     68  C   UNL A   1      45.142  25.354  32.936  1.00  0.00    -0.014 A 
ATOM     69  C   UNL A   1      46.485  25.593  33.242  1.00  0.00     0.009 A 
ATOM     70  C   UNL A   1      44.554  24.196  33.495  1.00  0.00     0.009 A 
ATOM     71  C   UNL A   1      47.230  24.677  33.989  1.00  0.00     0.001 A 
ATOM     72  C   UNL A   1      45.272  23.320  34.302  1.00  0.00     0.001 A 
ATOM     73  C   UNL A   1      46.622  23.548  34.526  1.00  0.00     0.000 A 
ENDBRANCH  55  68
ENDBRANCH  29  30
ENDBRANCH  22  24
ENDBRANCH  21  22
ENDBRANCH   1  21
TORSDOF 12
ENDMDL
MODEL 3
REMARK VINA RESULT:     -11.9      4.094      8.948
REMARK SMILES Cc1ccc(-c2cc(Cl)ccc2Cl)c(C(=O)OCCOC(=O)c2ccc(-c3c4nc(c(-c5ccccc5)c5ccc([nH]5)c(-c5ccccc5)c5nc(c(-c6ccccc6)c6ccc3[nH]6)C=C5)C=C4)cc2)c1
REMARK SMILES IDX 19 1 18 2 17 3 15 4 16 5 14 6 1 7 2 8 3 9 71 10 4 11 5 12
REMARK SMILES IDX 6 13 7 14 12 15 8 16 11 17 13 18 9 19 10 20 20 21 21 22
REMARK SMILES IDX 22 23 23 24 24 25 70 26 25 27 69 28 26 29 27 30 28 31 63 32
REMARK SMILES IDX 29 33 68 34 62 35 64 36 30 37 67 38 61 39 60 40 31 42 53 43
REMARK SMILES IDX 38 44 52 45 39 46 42 47 51 48 65 49 40 50 41 51 50 53 66 54
REMARK SMILES IDX 43 55 32 56 33 57 37 58 34 59 36 60 35 61 54 62 55 63 59 64
REMARK SMILES IDX 56 65 58 66 57 67 44 68 45 69 49 70 46 71 48 72 47 73
REMARK H PARENT 64 41 42 52
REMARK Flexibility Score: inf
ROOT
ATOM      1  C   UNL A   1      37.875  21.951  25.516  1.00  0.00     0.275 C 
ENDROOT
BRANCH   1   2
ATOM      2  C   UNL A   1      36.372  21.682  25.307  1.00  0.00     0.275 C 
BRANCH   2   3
ATOM      3  O   UNL A   1      35.868  21.882  23.956  1.00  0.00    -0.458 OA
BRANCH   3   4
ATOM      4  C   UNL A   1      34.853  22.794  23.924  1.00  0.00     0.338 C 
ATOM      5  O   UNL A   1      34.966  23.915  23.434  1.00  0.00    -0.246 OA
BRANCH   4   6
ATOM      6  C   UNL A   1      33.670  22.559  24.787  1.00  0.00     0.068 A 
ATOM      7  C   UNL A   1      31.496  25.382  26.191  1.00  0.00     0.044 C 
ATOM      8  C   UNL A   1      31.980  24.006  25.854  1.00  0.00    -0.050 A 
ATOM      9  C   UNL A   1      31.163  22.901  26.024  1.00  0.00     0.004 A 
ATOM     10  C   UNL A   1      33.246  23.810  25.310  1.00  0.00     0.019 A 
ATOM     11  C   UNL A   1      31.595  21.646  25.592  1.00  0.00     0.010 A 
ATOM     12  C   UNL A   1      32.808  21.439  24.880  1.00  0.00    -0.002 A 
BRANCH  12  13
ATOM     13  C   UNL A   1      32.933  20.083  24.267  1.00  0.00     0.003 A 
ATOM     14  C   UNL A   1      33.422  18.984  25.001  1.00  0.00     0.030 A 
ATOM     15  C   UNL A   1      32.415  19.794  22.968  1.00  0.00     0.049 A 
ATOM     16  C   UNL A   1      33.399  17.682  24.465  1.00  0.00     0.041 A 
ATOM     17  C   UNL A   1      32.363  18.488  22.458  1.00  0.00     0.023 A 
ATOM     18  Cl  UNL A   1      31.845  21.032  21.886  1.00  0.00    -0.084 Cl
ATOM     19  Cl  UNL A   1      34.020  16.352  25.364  1.00  0.00    -0.084 Cl
ATOM     20  C   UNL A   1      32.869  17.431  23.202  1.00  0.00     0.022 A 
ENDBRANCH  12  13
ENDBRANCH   4   6
ENDBRANCH   3   4
ENDBRANCH   2   3
ENDBRANCH   1   2
BRANCH   1  21
ATOM     21  O   UNL A   1      38.333  23.194  26.095  1.00  0.00    -0.458 OA
BRANCH  21  22
ATOM     22  C   UNL A   1      39.460  23.207  26.827  1.00  0.00     0.338 C 
ATOM     23  O   UNL A   1      40.154  22.222  27.041  1.00  0.00    -0.246 OA
BRANCH  22  24
ATOM     24  C   UNL A   1      39.762  24.545  27.349  1.00  0.00     0.060 A 
ATOM     25  C   UNL A   1      40.210  25.519  26.446  1.00  0.00     0.016 A 
ATOM     26  C   UNL A   1      39.410  24.869  28.655  1.00  0.00     0.016 A 
ATOM     27  C   UNL A   1      40.214  26.855  26.793  1.00  0.00     0.010 A 
ATOM     28  C   UNL A   1      39.379  26.192  29.000  1.00  0.00     0.010 A 
ATOM     29  C   UNL A   1      39.816  27.162  28.079  1.00  0.00    -0.014 A 
BRANCH  29  30
ATOM     30  C   UNL A   1      40.109  28.437  28.684  1.00  0.00     0.031 A 
ATOM     31  C   UNL A   1      39.086  29.498  28.717  1.00  0.00     0.074 A 
ATOM     32  C   UNL A   1      41.250  28.328  29.405  1.00  0.00     0.049 A 
ATOM     33  N   UNL A   1      39.311  30.701  29.112  1.00  0.00    -0.248 NA
ATOM     34  C   UNL A   1      37.707  29.330  28.243  1.00  0.00     0.031 C 
ATOM     35  C   UNL A   1      41.687  29.038  30.587  1.00  0.00     0.029 A 
ATOM     36  N   UNL A   1      42.339  27.478  29.135  1.00  0.00    -0.354 N 
ATOM     37  C   UNL A   1      38.075  31.266  29.369  1.00  0.00     0.074 A 
ATOM     38  C   UNL A   1      37.133  30.479  28.625  1.00  0.00     0.031 C 
ATOM     39  C   UNL A   1      43.017  28.854  30.728  1.00  0.00     0.029 A 
ATOM     40  C   UNL A   1      43.482  28.174  29.526  1.00  0.00     0.049 A 
ATOM     41  H   UNL A   1      42.302  26.573  28.747  1.00  0.00     0.167 HD
ATOM     42  C   UNL A   1      37.986  32.170  30.386  1.00  0.00     0.031 A 
ATOM     43  C   UNL A   1      44.338  28.720  28.603  1.00  0.00     0.031 A 
ATOM     44  C   UNL A   1      39.324  32.446  30.905  1.00  0.00     0.049 A 
ATOM     45  C   UNL A   1      44.277  30.229  28.685  1.00  0.00     0.074 A 
ATOM     46  C   UNL A   1      40.012  31.917  31.984  1.00  0.00     0.029 A 
ATOM     47  N   UNL A   1      40.271  33.006  30.058  1.00  0.00    -0.354 N 
ATOM     48  N   UNL A   1      43.202  30.903  28.994  1.00  0.00    -0.248 NA
ATOM     49  C   UNL A   1      45.447  31.074  28.487  1.00  0.00     0.031 C 
ATOM     50  C   UNL A   1      41.401  32.066  31.715  1.00  0.00     0.029 A 
ATOM     51  C   UNL A   1      41.546  32.684  30.483  1.00  0.00     0.049 A 
ATOM     52  H   UNL A   1      40.065  33.556  29.267  1.00  0.00     0.167 HD
ATOM     53  C   UNL A   1      43.547  32.210  29.204  1.00  0.00     0.074 A 
ATOM     54  C   UNL A   1      44.951  32.276  28.827  1.00  0.00     0.031 C 
ATOM     55  C   UNL A   1      42.704  33.145  29.731  1.00  0.00     0.031 A 
BRANCH  42  56
ATOM     56  C   UNL A   1      36.728  32.551  31.137  1.00  0.00    -0.014 A 
ATOM     57  C   UNL A   1      35.812  33.426  30.511  1.00  0.00     0.009 A 
ATOM     58  C   UNL A   1      36.402  32.169  32.449  1.00  0.00     0.009 A 
ATOM     59  C   UNL A   1      34.675  33.921  31.163  1.00  0.00     0.001 A 
ATOM     60  C   UNL A   1      35.261  32.659  33.110  1.00  0.00     0.001 A 
ATOM     61  C   UNL A   1      34.401  33.542  32.468  1.00  0.00     0.000 A 
ENDBRANCH  42  56
BRANCH  43  62
ATOM     62  C   UNL A   1      44.405  27.964  27.317  1.00  0.00    -0.014 A 
ATOM     63  C   UNL A   1      44.747  26.594  27.374  1.00  0.00     0.009 A 
ATOM     64  C   UNL A   1      43.691  28.436  26.211  1.00  0.00     0.009 A 
ATOM     65  C   UNL A   1      44.180  25.685  26.480  1.00  0.00     0.001 A 
ATOM     66  C   UNL A   1      43.141  27.520  25.317  1.00  0.00     0.001 A 
ATOM     67  C   UNL A   1      43.330  26.148  25.488  1.00  0.00     0.000 A 
ENDBRANCH  43  62
BRANCH  55  68
ATOM     68  C   UNL A   1      42.949  34.626  29.679  1.00  0.00    -0.014 A 
ATOM     69  C   UNL A   1      43.596  35.337  30.696  1.00  0.00     0.009 A 
ATOM     70  C   UNL A   1      42.657  35.332  28.490  1.00  0.00     0.009 A 
ATOM     71  C   UNL A   1      43.855  36.703  30.569  1.00  0.00     0.001 A 
ATOM     72  C   UNL A   1      42.982  36.675  28.331  1.00  0.00     0.001 A 
ATOM     73  C   UNL A   1      43.557  37.369  29.385  1.00  0.00     0.000 A 
ENDBRANCH  55  68
ENDBRANCH  29  30
ENDBRANCH  22  24
ENDBRANCH  21  22
ENDBRANCH   1  21
TORSDOF 12
ENDMDL
