MODEL 1
REMARK VINA RESULT:     -12.5      0.000      0.000
REMARK SMILES NS(=O)(=O)c1ccc(-n2nc(C(=O)OCCOC(=O)c3ccc(-c4c5nc(c(-c6ccccc6)c6ccc([nH]6)c(-c6ccccc6)c6nc(c(-c7ccccc7)c7ccc4[nH]7)C=C6)C=C5)cc3)c(Cl)c2-c2ccc(Cl)cc2)cc1
REMARK SMILES IDX 15 1 14 2 12 3 13 4 11 5 9 6 10 7 70 8 68 9 69 10 8 11 5 12
REMARK SMILES IDX 6 13 79 14 7 15 78 16 2 17 3 18 4 19 1 20 71 23 72 24 77 25
REMARK SMILES IDX 73 26 76 27 74 28 75 29 16 30 17 31 18 32 19 33 20 34 21 35
REMARK SMILES IDX 67 36 22 37 66 38 23 39 24 40 25 41 60 42 26 43 65 44 59 45
REMARK SMILES IDX 61 46 27 47 64 48 58 49 57 50 28 52 50 53 35 54 49 55 36 56
REMARK SMILES IDX 39 57 48 58 62 59 37 60 38 61 47 63 63 64 40 65 29 66 30 67
REMARK SMILES IDX 34 68 31 69 33 70 32 71 51 72 52 73 56 74 53 75 55 76 54 77
REMARK SMILES IDX 41 78 42 79 46 80 43 81 45 82 44 83
REMARK H PARENT 1 21 1 22 61 51 39 62
REMARK Flexibility Score: inf
ROOT
ATOM      1  C   UNL A   1      31.039  27.668  25.797  1.00  0.00     0.275 C 
ENDROOT
BRANCH   1   2
ATOM      2  O   UNL A   1      30.238  27.381  24.644  1.00  0.00    -0.457 OA
BRANCH   2   3
ATOM      3  C   UNL A   1      30.837  27.116  23.443  1.00  0.00     0.360 C 
ATOM      4  O   UNL A   1      30.657  27.790  22.432  1.00  0.00    -0.244 OA
BRANCH   3   5
ATOM      5  C   UNL A   1      31.723  25.939  23.523  1.00  0.00     0.190 A 
ATOM      6  N   UNL A   1      32.365  23.892  23.669  1.00  0.00    -0.231 N 
ATOM      7  N   UNL A   1      31.292  24.664  23.356  1.00  0.00    -0.159 NA
ATOM      8  C   UNL A   1      33.493  24.644  23.952  1.00  0.00     0.094 A 
ATOM      9  C   UNL A   1      33.117  25.957  23.772  1.00  0.00     0.102 A 
ATOM     10  Cl  UNL A   1      34.160  27.307  23.892  1.00  0.00    -0.079 Cl
BRANCH   6  11
ATOM     11  C   UNL A   1      32.255  22.479  23.762  1.00  0.00     0.065 A 
ATOM     12  C   UNL A   1      32.462  19.710  23.969  1.00  0.00     0.082 A 
ATOM     13  C   UNL A   1      32.283  20.300  22.710  1.00  0.00     0.024 A 
ATOM     14  C   UNL A   1      32.470  20.490  25.127  1.00  0.00     0.024 A 
ATOM     15  C   UNL A   1      32.155  21.694  22.605  1.00  0.00     0.030 A 
ATOM     16  C   UNL A   1      32.376  21.874  25.022  1.00  0.00     0.030 A 
BRANCH  12  17
ATOM     17  S   UNL A   1      32.770  17.974  24.123  1.00  0.00     0.238 S 
ATOM     18  O   UNL A   1      31.856  17.437  25.099  1.00  0.00    -0.207 OA
ATOM     19  O   UNL A   1      34.197  17.743  24.176  1.00  0.00    -0.207 OA
BRANCH  17  20
ATOM     20  N   UNL A   1      32.275  17.360  22.638  1.00  0.00    -0.225 NA
ATOM     21  H   UNL A   1      31.403  16.845  22.756  1.00  0.00     0.137 HD
ATOM     22  H   UNL A   1      32.992  16.733  22.272  1.00  0.00     0.137 HD
ENDBRANCH  17  20
ENDBRANCH  12  17
ENDBRANCH   6  11
BRANCH   8  23
ATOM     23  C   UNL A   1      34.825  24.154  24.295  1.00  0.00     0.002 A 
ATOM     24  C   UNL A   1      35.501  23.355  23.360  1.00  0.00     0.012 A 
ATOM     25  C   UNL A   1      35.375  24.344  25.566  1.00  0.00     0.012 A 
ATOM     26  C   UNL A   1      36.681  22.703  23.708  1.00  0.00     0.021 A 
ATOM     27  C   UNL A   1      36.568  23.702  25.909  1.00  0.00     0.021 A 
ATOM     28  C   UNL A   1      37.204  22.871  24.986  1.00  0.00     0.041 A 
ATOM     29  Cl  UNL A   1      38.628  22.019  25.434  1.00  0.00    -0.084 Cl
ENDBRANCH   8  23
ENDBRANCH   3   5
ENDBRANCH   2   3
ENDBRANCH   1   2
BRANCH   1  30
ATOM     30  C   UNL A   1      31.608  29.074  25.724  1.00  0.00     0.275 C 
BRANCH  30  31
ATOM     31  O   UNL A   1      32.361  29.353  26.898  1.00  0.00    -0.458 OA
BRANCH  31  32
ATOM     32  C   UNL A   1      32.577  30.662  27.154  1.00  0.00     0.338 C 
ATOM     33  O   UNL A   1      31.760  31.568  27.154  1.00  0.00    -0.246 OA
BRANCH  32  34
ATOM     34  C   UNL A   1      34.021  30.876  27.230  1.00  0.00     0.060 A 
ATOM     35  C   UNL A   1      34.851  29.754  27.231  1.00  0.00     0.016 A 
ATOM     36  C   UNL A   1      34.480  32.151  27.593  1.00  0.00     0.016 A 
ATOM     37  C   UNL A   1      36.113  29.881  27.771  1.00  0.00     0.010 A 
ATOM     38  C   UNL A   1      35.721  32.270  28.153  1.00  0.00     0.010 A 
ATOM     39  C   UNL A   1      36.491  31.119  28.301  1.00  0.00    -0.014 A 
BRANCH  39  40
ATOM     40  C   UNL A   1      37.796  31.257  28.901  1.00  0.00     0.031 A 
ATOM     41  C   UNL A   1      38.554  29.986  28.881  1.00  0.00     0.074 A 
ATOM     42  C   UNL A   1      38.293  32.456  29.261  1.00  0.00     0.049 A 
ATOM     43  N   UNL A   1      38.922  29.283  29.897  1.00  0.00    -0.248 NA
ATOM     44  C   UNL A   1      38.762  29.322  27.580  1.00  0.00     0.031 C 
ATOM     45  C   UNL A   1      37.715  33.785  29.042  1.00  0.00     0.029 A 
ATOM     46  N   UNL A   1      39.505  32.742  29.798  1.00  0.00    -0.354 N 
ATOM     47  C   UNL A   1      39.594  28.188  29.367  1.00  0.00     0.074 A 
ATOM     48  C   UNL A   1      39.285  28.157  27.961  1.00  0.00     0.031 C 
ATOM     49  C   UNL A   1      38.679  34.721  29.204  1.00  0.00     0.029 A 
ATOM     50  C   UNL A   1      39.896  34.068  29.660  1.00  0.00     0.049 A 
ATOM     51  H   UNL A   1      40.061  32.066  30.248  1.00  0.00     0.167 HD
ATOM     52  C   UNL A   1      40.586  27.575  30.064  1.00  0.00     0.031 A 
ATOM     53  C   UNL A   1      41.151  34.559  29.835  1.00  0.00     0.031 A 
ATOM     54  C   UNL A   1      40.535  27.915  31.463  1.00  0.00     0.049 A 
ATOM     55  C   UNL A   1      41.918  33.549  30.606  1.00  0.00     0.074 A 
ATOM     56  C   UNL A   1      39.586  27.770  32.456  1.00  0.00     0.029 A 
ATOM     57  N   UNL A   1      41.403  28.887  31.903  1.00  0.00    -0.354 N 
ATOM     58  N   UNL A   1      41.665  33.262  31.850  1.00  0.00    -0.248 NA
ATOM     59  C   UNL A   1      42.621  32.515  29.858  1.00  0.00     0.031 C 
ATOM     60  C   UNL A   1      39.652  28.981  33.205  1.00  0.00     0.029 A 
ATOM     61  C   UNL A   1      40.691  29.758  32.687  1.00  0.00     0.049 A 
ATOM     62  H   UNL A   1      42.362  28.946  31.692  1.00  0.00     0.167 HD
ATOM     63  C   UNL A   1      41.747  31.878  31.916  1.00  0.00     0.074 A 
ATOM     64  C   UNL A   1      42.429  31.479  30.682  1.00  0.00     0.031 C 
ATOM     65  C   UNL A   1      40.992  31.167  32.804  1.00  0.00     0.031 A 
BRANCH  52  66
ATOM     66  C   UNL A   1      41.842  27.068  29.404  1.00  0.00    -0.014 A 
ATOM     67  C   UNL A   1      42.856  27.992  29.099  1.00  0.00     0.009 A 
ATOM     68  C   UNL A   1      41.947  25.794  28.811  1.00  0.00     0.009 A 
ATOM     69  C   UNL A   1      43.869  27.679  28.186  1.00  0.00     0.001 A 
ATOM     70  C   UNL A   1      42.980  25.464  27.933  1.00  0.00     0.001 A 
ATOM     71  C   UNL A   1      43.925  26.419  27.597  1.00  0.00     0.000 A 
ENDBRANCH  52  66
BRANCH  53  72
ATOM     72  C   UNL A   1      41.820  35.679  29.132  1.00  0.00    -0.014 A 
ATOM     73  C   UNL A   1      42.888  36.371  29.726  1.00  0.00     0.009 A 
ATOM     74  C   UNL A   1      41.588  35.897  27.761  1.00  0.00     0.009 A 
ATOM     75  C   UNL A   1      43.715  37.216  28.969  1.00  0.00     0.001 A 
ATOM     76  C   UNL A   1      42.409  36.742  27.006  1.00  0.00     0.001 A 
ATOM     77  C   UNL A   1      43.483  37.390  27.607  1.00  0.00     0.000 A 
ENDBRANCH  53  72
BRANCH  65  78
ATOM     78  C   UNL A   1      40.217  31.935  33.849  1.00  0.00    -0.014 A 
ATOM     79  C   UNL A   1      38.923  32.444  33.636  1.00  0.00     0.009 A 
ATOM     80  C   UNL A   1      40.752  32.006  35.143  1.00  0.00     0.009 A 
ATOM     81  C   UNL A   1      38.203  33.034  34.682  1.00  0.00     0.001 A 
ATOM     82  C   UNL A   1      40.025  32.574  36.191  1.00  0.00     0.001 A 
ATOM     83  C   UNL A   1      38.754  33.094  35.959  1.00  0.00     0.000 A 
ENDBRANCH  65  78
ENDBRANCH  39  40
ENDBRANCH  32  34
ENDBRANCH  31  32
ENDBRANCH  30  31
ENDBRANCH   1  30
TORSDOF 15
ENDMDL
MODEL 2
REMARK VINA RESULT:     -12.1      6.315     11.829
REMARK SMILES NS(=O)(=O)c1ccc(-n2nc(C(=O)OCCOC(=O)c3ccc(-c4c5nc(c(-c6ccccc6)c6ccc([nH]6)c(-c6ccccc6)c6nc(c(-c7ccccc7)c7ccc4[nH]7)C=C6)C=C5)cc3)c(Cl)c2-c2ccc(Cl)cc2)cc1
REMARK SMILES IDX 15 1 14 2 12 3 13 4 11 5 9 6 10 7 70 8 68 9 69 10 8 11 5 12
REMARK SMILES IDX 6 13 79 14 7 15 78 16 2 17 3 18 4 19 1 20 71 23 72 24 77 25
REMARK SMILES IDX 73 26 76 27 74 28 75 29 16 30 17 31 18 32 19 33 20 34 21 35
REMARK SMILES IDX 67 36 22 37 66 38 23 39 24 40 25 41 60 42 26 43 65 44 59 45
REMARK SMILES IDX 61 46 27 47 64 48 58 49 57 50 28 52 50 53 35 54 49 55 36 56
REMARK SMILES IDX 39 57 48 58 62 59 37 60 38 61 47 63 63 64 40 65 29 66 30 67
REMARK SMILES IDX 34 68 31 69 33 70 32 71 51 72 52 73 56 74 53 75 55 76 54 77
REMARK SMILES IDX 41 78 42 79 46 80 43 81 45 82 44 83
REMARK H PARENT 1 21 1 22 61 51 39 62
REMARK Flexibility Score: inf
ROOT
ATOM      1  C   UNL A   1      40.508  32.270  36.449  1.00  0.00     0.275 C 
ENDROOT
BRANCH   1   2
ATOM      2  O   UNL A   1      39.231  32.351  37.096  1.00  0.00    -0.457 OA
BRANCH   2   3
ATOM      3  C   UNL A   1      38.219  31.511  36.721  1.00  0.00     0.360 C 
ATOM      4  O   UNL A   1      37.794  30.602  37.429  1.00  0.00    -0.244 OA
BRANCH   3   5
ATOM      5  C   UNL A   1      37.705  31.841  35.378  1.00  0.00     0.190 A 
ATOM      6  N   UNL A   1      36.551  32.776  33.823  1.00  0.00    -0.231 N 
ATOM      7  N   UNL A   1      36.942  32.931  35.114  1.00  0.00    -0.159 NA
ATOM      8  C   UNL A   1      37.112  31.657  33.231  1.00  0.00     0.094 A 
ATOM      9  C   UNL A   1      37.927  31.100  34.191  1.00  0.00     0.102 A 
ATOM     10  Cl  UNL A   1      38.945  29.746  33.957  1.00  0.00    -0.079 Cl
BRANCH   6  11
ATOM     11  C   UNL A   1      35.602  33.651  33.229  1.00  0.00     0.065 A 
ATOM     12  C   UNL A   1      33.725  35.552  32.445  1.00  0.00     0.082 A 
ATOM     13  C   UNL A   1      33.303  34.256  32.776  1.00  0.00     0.024 A 
ATOM     14  C   UNL A   1      35.081  35.880  32.438  1.00  0.00     0.024 A 
ATOM     15  C   UNL A   1      34.251  33.289  33.149  1.00  0.00     0.030 A 
ATOM     16  C   UNL A   1      36.019  34.933  32.840  1.00  0.00     0.030 A 
BRANCH  12  17
ATOM     17  S   UNL A   1      32.549  36.831  32.110  1.00  0.00     0.238 S 
ATOM     18  O   UNL A   1      31.560  36.821  33.159  1.00  0.00    -0.207 OA
ATOM     19  O   UNL A   1      32.201  36.809  30.706  1.00  0.00    -0.207 OA
BRANCH  17  20
ATOM     20  N   UNL A   1      33.438  38.241  32.327  1.00  0.00    -0.225 NA
ATOM     21  H   UNL A   1      33.415  38.793  31.470  1.00  0.00     0.137 HD
ATOM     22  H   UNL A   1      34.405  38.002  32.551  1.00  0.00     0.137 HD
ENDBRANCH  17  20
ENDBRANCH  12  17
ENDBRANCH   6  11
BRANCH   8  23
ATOM     23  C   UNL A   1      36.942  31.199  31.855  1.00  0.00     0.002 A 
ATOM     24  C   UNL A   1      36.698  29.834  31.634  1.00  0.00     0.012 A 
ATOM     25  C   UNL A   1      37.152  32.048  30.765  1.00  0.00     0.012 A 
ATOM     26  C   UNL A   1      36.723  29.311  30.345  1.00  0.00     0.021 A 
ATOM     27  C   UNL A   1      37.161  31.524  29.469  1.00  0.00     0.021 A 
ATOM     28  C   UNL A   1      36.965  30.157  29.268  1.00  0.00     0.041 A 
ATOM     29  Cl  UNL A   1      37.055  29.500  27.682  1.00  0.00    -0.084 Cl
ENDBRANCH   8  23
ENDBRANCH   3   5
ENDBRANCH   2   3
ENDBRANCH   1   2
BRANCH   1  30
ATOM     30  C   UNL A   1      40.587  33.243  35.286  1.00  0.00     0.275 C 
BRANCH  30  31
ATOM     31  O   UNL A   1      41.263  32.636  34.192  1.00  0.00    -0.458 OA
BRANCH  31  32
ATOM     32  C   UNL A   1      40.772  32.929  32.968  1.00  0.00     0.338 C 
ATOM     33  O   UNL A   1      39.931  33.765  32.682  1.00  0.00    -0.246 OA
BRANCH  32  34
ATOM     34  C   UNL A   1      41.263  31.922  32.030  1.00  0.00     0.060 A 
ATOM     35  C   UNL A   1      40.323  31.129  31.368  1.00  0.00     0.016 A 
ATOM     36  C   UNL A   1      42.628  31.601  32.060  1.00  0.00     0.016 A 
ATOM     37  C   UNL A   1      40.734  29.908  30.879  1.00  0.00     0.010 A 
ATOM     38  C   UNL A   1      43.028  30.378  31.600  1.00  0.00     0.010 A 
ATOM     39  C   UNL A   1      42.062  29.519  31.084  1.00  0.00    -0.014 A 
BRANCH  39  40
ATOM     40  C   UNL A   1      42.496  28.228  30.608  1.00  0.00     0.031 A 
ATOM     41  C   UNL A   1      43.344  27.526  31.599  1.00  0.00     0.074 A 
ATOM     42  C   UNL A   1      42.018  27.689  29.470  1.00  0.00     0.049 A 
ATOM     43  N   UNL A   1      44.590  27.221  31.479  1.00  0.00    -0.248 NA
ATOM     44  C   UNL A   1      42.797  27.309  32.952  1.00  0.00     0.031 C 
ATOM     45  C   UNL A   1      40.961  28.200  28.594  1.00  0.00     0.029 A 
ATOM     46  N   UNL A   1      42.304  26.482  28.921  1.00  0.00    -0.354 N 
ATOM     47  C   UNL A   1      44.932  26.583  32.665  1.00  0.00     0.074 A 
ATOM     48  C   UNL A   1      43.868  26.851  33.597  1.00  0.00     0.031 C 
ATOM     49  C   UNL A   1      40.528  27.200  27.790  1.00  0.00     0.029 A 
ATOM     50  C   UNL A   1      41.360  26.028  28.008  1.00  0.00     0.049 A 
ATOM     51  H   UNL A   1      43.113  25.970  29.151  1.00  0.00     0.167 HD
ATOM     52  C   UNL A   1      45.910  25.641  32.693  1.00  0.00     0.031 A 
ATOM     53  C   UNL A   1      41.240  24.759  27.540  1.00  0.00     0.031 A 
ATOM     54  C   UNL A   1      46.751  25.719  31.525  1.00  0.00     0.049 A 
ATOM     55  C   UNL A   1      42.520  24.061  27.818  1.00  0.00     0.074 A 
ATOM     56  C   UNL A   1      47.550  26.702  30.977  1.00  0.00     0.029 A 
ATOM     57  N   UNL A   1      46.500  24.821  30.513  1.00  0.00    -0.354 N 
ATOM     58  N   UNL A   1      43.638  24.364  27.224  1.00  0.00    -0.248 NA
ATOM     59  C   UNL A   1      42.659  23.382  29.100  1.00  0.00     0.031 C 
ATOM     60  C   UNL A   1      47.338  26.605  29.570  1.00  0.00     0.029 A 
ATOM     61  C   UNL A   1      46.494  25.517  29.331  1.00  0.00     0.049 A 
ATOM     62  H   UNL A   1      46.351  23.855  30.618  1.00  0.00     0.167 HD
ATOM     63  C   UNL A   1      44.589  24.345  28.236  1.00  0.00     0.074 A 
ATOM     64  C   UNL A   1      43.946  23.645  29.350  1.00  0.00     0.031 C 
ATOM     65  C   UNL A   1      45.686  25.157  28.188  1.00  0.00     0.031 A 
BRANCH  52  66
ATOM     66  C   UNL A   1      45.802  24.389  33.525  1.00  0.00    -0.014 A 
ATOM     67  C   UNL A   1      44.653  23.593  33.389  1.00  0.00     0.009 A 
ATOM     68  C   UNL A   1      46.630  24.121  34.633  1.00  0.00     0.009 A 
ATOM     69  C   UNL A   1      44.313  22.640  34.355  1.00  0.00     0.001 A 
ATOM     70  C   UNL A   1      46.318  23.141  35.576  1.00  0.00     0.001 A 
ATOM     71  C   UNL A   1      45.141  22.421  35.452  1.00  0.00     0.000 A 
ENDBRANCH  52  66
BRANCH  53  72
ATOM     72  C   UNL A   1      40.014  24.020  27.154  1.00  0.00    -0.014 A 
ATOM     73  C   UNL A   1      38.815  24.700  26.884  1.00  0.00     0.009 A 
ATOM     74  C   UNL A   1      40.090  22.664  26.785  1.00  0.00     0.009 A 
ATOM     75  C   UNL A   1      37.748  24.057  26.236  1.00  0.00     0.001 A 
ATOM     76  C   UNL A   1      39.025  22.022  26.142  1.00  0.00     0.001 A 
ATOM     77  C   UNL A   1      37.860  22.722  25.853  1.00  0.00     0.000 A 
ENDBRANCH  53  72
BRANCH  65  78
ATOM     78  C   UNL A   1      45.943  25.929  26.915  1.00  0.00    -0.014 A 
ATOM     79  C   UNL A   1      45.347  27.170  26.626  1.00  0.00     0.009 A 
ATOM     80  C   UNL A   1      46.942  25.458  26.051  1.00  0.00     0.009 A 
ATOM     81  C   UNL A   1      45.720  27.899  25.491  1.00  0.00     0.001 A 
ATOM     82  C   UNL A   1      47.330  26.196  24.932  1.00  0.00     0.001 A 
ATOM     83  C   UNL A   1      46.715  27.413  24.648  1.00  0.00     0.000 A 
ENDBRANCH  65  78
ENDBRANCH  39  40
ENDBRANCH  32  34
ENDBRANCH  31  32
ENDBRANCH  30  31
ENDBRANCH   1  30
TORSDOF 15
ENDMDL
MODEL 3
REMARK VINA RESULT:     -12.0      1.609      5.694
REMARK SMILES NS(=O)(=O)c1ccc(-n2nc(C(=O)OCCOC(=O)c3ccc(-c4c5nc(c(-c6ccccc6)c6ccc([nH]6)c(-c6ccccc6)c6nc(c(-c7ccccc7)c7ccc4[nH]7)C=C6)C=C5)cc3)c(Cl)c2-c2ccc(Cl)cc2)cc1
REMARK SMILES IDX 15 1 14 2 12 3 13 4 11 5 9 6 10 7 70 8 68 9 69 10 8 11 5 12
REMARK SMILES IDX 6 13 79 14 7 15 78 16 2 17 3 18 4 19 1 20 71 23 72 24 77 25
REMARK SMILES IDX 73 26 76 27 74 28 75 29 16 30 17 31 18 32 19 33 20 34 21 35
REMARK SMILES IDX 67 36 22 37 66 38 23 39 24 40 25 41 60 42 26 43 65 44 59 45
REMARK SMILES IDX 61 46 27 47 64 48 58 49 57 50 28 52 50 53 35 54 49 55 36 56
REMARK SMILES IDX 39 57 48 58 62 59 37 60 38 61 47 63 63 64 40 65 29 66 30 67
REMARK SMILES IDX 34 68 31 69 33 70 32 71 51 72 52 73 56 74 53 75 55 76 54 77
REMARK SMILES IDX 41 78 42 79 46 80 43 81 45 82 44 83
REMARK H PARENT 1 21 1 22 61 51 39 62
REMARK Flexibility Score: inf
ROOT
ATOM      1  C   UNL A   1      31.405  27.795  26.653  1.00  0.00     0.275 C 
ENDROOT
BRANCH   1   2
ATOM      2  O   UNL A   1      30.527  27.499  25.560  1.00  0.00    -0.457 OA
BRANCH   2   3
ATOM      3  C   UNL A   1      31.034  27.333  24.300  1.00  0.00     0.360 C 
ATOM      4  O   UNL A   1      30.811  28.106  23.373  1.00  0.00    -0.244 OA
BRANCH   3   5
ATOM      5  C   UNL A   1      31.879  26.128  24.206  1.00  0.00     0.190 A 
ATOM      6  N   UNL A   1      32.453  24.059  24.089  1.00  0.00    -0.231 N 
ATOM      7  N   UNL A   1      31.397  24.895  23.913  1.00  0.00    -0.159 NA
ATOM      8  C   UNL A   1      33.617  24.737  24.406  1.00  0.00     0.094 A 
ATOM      9  C   UNL A   1      33.282  26.073  24.394  1.00  0.00     0.102 A 
ATOM     10  Cl  UNL A   1      34.377  27.368  24.621  1.00  0.00    -0.079 Cl
BRANCH   6  11
ATOM     11  C   UNL A   1      32.297  22.649  24.024  1.00  0.00     0.065 A 
ATOM     12  C   UNL A   1      32.412  19.869  23.895  1.00  0.00     0.082 A 
ATOM     13  C   UNL A   1      32.178  20.609  22.727  1.00  0.00     0.024 A 
ATOM     14  C   UNL A   1      32.521  20.507  25.132  1.00  0.00     0.024 A 
ATOM     15  C   UNL A   1      32.096  22.009  22.793  1.00  0.00     0.030 A 
ATOM     16  C   UNL A   1      32.472  21.896  25.195  1.00  0.00     0.030 A 
BRANCH  12  17
ATOM     17  S   UNL A   1      32.664  18.119  23.826  1.00  0.00     0.238 S 
ATOM     18  O   UNL A   1      31.842  17.503  24.837  1.00  0.00    -0.207 OA
ATOM     19  O   UNL A   1      34.078  17.843  23.690  1.00  0.00    -0.207 OA
BRANCH  17  20
ATOM     20  N   UNL A   1      31.983  17.688  22.350  1.00  0.00    -0.225 NA
ATOM     21  H   UNL A   1      32.325  16.768  22.073  1.00  0.00     0.137 HD
ATOM     22  H   UNL A   1      32.244  18.374  21.641  1.00  0.00     0.137 HD
ENDBRANCH  17  20
ENDBRANCH  12  17
ENDBRANCH   6  11
BRANCH   8  23
ATOM     23  C   UNL A   1      34.944  24.170  24.632  1.00  0.00     0.002 A 
ATOM     24  C   UNL A   1      35.547  23.453  23.587  1.00  0.00     0.012 A 
ATOM     25  C   UNL A   1      35.556  24.206  25.888  1.00  0.00     0.012 A 
ATOM     26  C   UNL A   1      36.715  22.729  23.809  1.00  0.00     0.021 A 
ATOM     27  C   UNL A   1      36.737  23.492  26.105  1.00  0.00     0.021 A 
ATOM     28  C   UNL A   1      37.300  22.743  25.070  1.00  0.00     0.041 A 
ATOM     29  Cl  UNL A   1      38.709  21.802  25.359  1.00  0.00    -0.084 Cl
ENDBRANCH   8  23
ENDBRANCH   3   5
ENDBRANCH   2   3
ENDBRANCH   1   2
BRANCH   1  30
ATOM     30  C   UNL A   1      31.884  29.235  26.586  1.00  0.00     0.275 C 
BRANCH  30  31
ATOM     31  O   UNL A   1      33.062  29.389  27.368  1.00  0.00    -0.458 OA
BRANCH  31  32
ATOM     32  C   UNL A   1      33.561  30.643  27.429  1.00  0.00     0.338 C 
ATOM     33  O   UNL A   1      32.964  31.693  27.259  1.00  0.00    -0.246 OA
BRANCH  32  34
ATOM     34  C   UNL A   1      35.016  30.548  27.528  1.00  0.00     0.060 A 
ATOM     35  C   UNL A   1      35.584  29.276  27.624  1.00  0.00     0.016 A 
ATOM     36  C   UNL A   1      35.735  31.716  27.818  1.00  0.00     0.016 A 
ATOM     37  C   UNL A   1      36.838  29.168  28.186  1.00  0.00     0.010 A 
ATOM     38  C   UNL A   1      36.967  31.605  28.400  1.00  0.00     0.010 A 
ATOM     39  C   UNL A   1      37.468  30.330  28.644  1.00  0.00    -0.014 A 
BRANCH  39  40
ATOM     40  C   UNL A   1      38.766  30.226  29.266  1.00  0.00     0.031 A 
ATOM     41  C   UNL A   1      38.813  30.919  30.573  1.00  0.00     0.074 A 
ATOM     42  C   UNL A   1      39.735  29.434  28.768  1.00  0.00     0.049 A 
ATOM     43  N   UNL A   1      39.514  31.956  30.879  1.00  0.00    -0.248 NA
ATOM     44  C   UNL A   1      37.827  30.532  31.601  1.00  0.00     0.031 C 
ATOM     45  C   UNL A   1      39.658  28.498  27.643  1.00  0.00     0.029 A 
ATOM     46  N   UNL A   1      40.979  29.210  29.259  1.00  0.00    -0.354 N 
ATOM     47  C   UNL A   1      39.213  32.229  32.208  1.00  0.00     0.074 A 
ATOM     48  C   UNL A   1      38.035  31.465  32.528  1.00  0.00     0.031 C 
ATOM     49  C   UNL A   1      40.703  27.639  27.707  1.00  0.00     0.029 A 
ATOM     50  C   UNL A   1      41.579  28.046  28.794  1.00  0.00     0.049 A 
ATOM     51  H   UNL A   1      41.420  29.821  29.892  1.00  0.00     0.167 HD
ATOM     52  C   UNL A   1      40.125  32.822  33.022  1.00  0.00     0.031 A 
ATOM     53  C   UNL A   1      42.670  27.436  29.326  1.00  0.00     0.031 A 
ATOM     54  C   UNL A   1      41.171  33.460  32.264  1.00  0.00     0.049 A 
ATOM     55  C   UNL A   1      43.355  28.429  30.190  1.00  0.00     0.074 A 
ATOM     56  C   UNL A   1      41.199  34.458  31.310  1.00  0.00     0.029 A 
ATOM     57  N   UNL A   1      42.358  32.776  32.136  1.00  0.00    -0.354 N 
ATOM     58  N   UNL A   1      43.955  29.485  29.722  1.00  0.00    -0.248 NA
ATOM     59  C   UNL A   1      42.945  28.513  31.585  1.00  0.00     0.031 C 
ATOM     60  C   UNL A   1      42.163  34.024  30.354  1.00  0.00     0.029 A 
ATOM     61  C   UNL A   1      42.733  32.836  30.819  1.00  0.00     0.049 A 
ATOM     62  H   UNL A   1      42.848  32.324  32.860  1.00  0.00     0.167 HD
ATOM     63  C   UNL A   1      43.589  30.509  30.585  1.00  0.00     0.074 A 
ATOM     64  C   UNL A   1      43.043  29.834  31.765  1.00  0.00     0.031 C 
ATOM     65  C   UNL A   1      43.479  31.797  30.146  1.00  0.00     0.031 A 
BRANCH  52  66
ATOM     66  C   UNL A   1      40.307  32.417  34.462  1.00  0.00    -0.014 A 
ATOM     67  C   UNL A   1      40.446  33.427  35.428  1.00  0.00     0.009 A 
ATOM     68  C   UNL A   1      40.639  31.107  34.863  1.00  0.00     0.009 A 
ATOM     69  C   UNL A   1      40.967  33.150  36.697  1.00  0.00     0.001 A 
ATOM     70  C   UNL A   1      41.118  30.820  36.142  1.00  0.00     0.001 A 
ATOM     71  C   UNL A   1      41.311  31.848  37.049  1.00  0.00     0.000 A 
ENDBRANCH  52  66
BRANCH  53  72
ATOM     72  C   UNL A   1      42.990  25.990  29.391  1.00  0.00    -0.014 A 
ATOM     73  C   UNL A   1      42.288  25.058  28.607  1.00  0.00     0.009 A 
ATOM     74  C   UNL A   1      44.169  25.551  30.019  1.00  0.00     0.009 A 
ATOM     75  C   UNL A   1      42.769  23.752  28.431  1.00  0.00     0.001 A 
ATOM     76  C   UNL A   1      44.648  24.248  29.847  1.00  0.00     0.001 A 
ATOM     77  C   UNL A   1      43.956  23.352  29.040  1.00  0.00     0.000 A 
ENDBRANCH  53  72
BRANCH  65  78
ATOM     78  C   UNL A   1      43.960  32.113  28.748  1.00  0.00    -0.014 A 
ATOM     79  C   UNL A   1      44.971  33.051  28.470  1.00  0.00     0.009 A 
ATOM     80  C   UNL A   1      43.484  31.320  27.694  1.00  0.00     0.009 A 
ATOM     81  C   UNL A   1      45.464  33.209  27.169  1.00  0.00     0.001 A 
ATOM     82  C   UNL A   1      43.991  31.462  26.402  1.00  0.00     0.001 A 
ATOM     83  C   UNL A   1      44.976  32.411  26.138  1.00  0.00     0.000 A 
ENDBRANCH  65  78
ENDBRANCH  39  40
ENDBRANCH  32  34
ENDBRANCH  31  32
ENDBRANCH  30  31
ENDBRANCH   1  30
TORSDOF 15
ENDMDL
