MODEL 1
REMARK VINA RESULT:     -11.2      0.000      0.000
REMARK SMILES CCOC(=O)c1c(NC(=O)[C@H]2[C@@H]3CC[C@@H](C3)[C@@H]2C(=O)OCCOC(=O)c2ccc(-c3c4nc(c(-c5ccccc5)c5ccc([nH]5)c(-c5ccccc5)c5nc(c(-c6ccccc6)c6ccc3[nH]6)C=C5)C=C4)cc2)sc2c1CCCC2
REMARK SMILES IDX 20 1 18 2 19 3 17 4 11 5 12 6 13 7 16 8 15 9 14 10 9 11 8 12
REMARK SMILES IDX 10 14 7 15 6 16 76 17 74 18 75 19 77 20 80 21 78 22 79 23
REMARK SMILES IDX 4 24 5 25 3 26 2 27 1 28 21 29 22 30 23 31 24 32 25 33 26 34
REMARK SMILES IDX 27 35 73 36 28 37 72 38 29 39 30 40 31 41 66 42 32 43 71 44
REMARK SMILES IDX 65 45 67 46 33 47 70 48 64 49 63 50 34 52 56 53 41 54 55 55
REMARK SMILES IDX 42 56 45 57 54 58 68 59 43 60 44 61 53 63 69 64 46 65 35 66
REMARK SMILES IDX 36 67 40 68 37 69 39 70 38 71 57 72 58 73 62 74 59 75 61 76
REMARK SMILES IDX 60 77 47 78 48 79 52 80 49 81 51 82 50 83
REMARK H PARENT 8 13 67 51 45 62
REMARK Flexibility Score: inf
ROOT
ATOM      1  O   UNL A   1      34.588  22.051  24.181  1.00  0.00    -0.462 OA
ENDROOT
BRANCH   1   2
ATOM      2  C   UNL A   1      34.413  23.072  23.315  1.00  0.00     0.310 C 
ATOM      3  O   UNL A   1      35.338  23.643  22.749  1.00  0.00    -0.252 OA
BRANCH   2   4
ATOM      4  C   UNL A   1      32.985  23.420  22.989  1.00  0.00     0.115 C 
ATOM      5  C   UNL A   1      32.672  24.916  23.209  1.00  0.00     0.096 C 
ATOM      6  C   UNL A   1      31.185  24.849  23.686  1.00  0.00     0.003 C 
ATOM      7  C   UNL A   1      31.189  24.517  25.184  1.00  0.00     0.005 C 
ATOM      8  C   UNL A   1      30.665  23.517  23.128  1.00  0.00     0.009 C 
ATOM      9  C   UNL A   1      31.831  22.711  23.713  1.00  0.00     0.004 C 
ATOM     10  C   UNL A   1      31.756  23.089  25.205  1.00  0.00     0.005 C 
BRANCH   5  11
ATOM     11  C   UNL A   1      32.843  25.758  21.953  1.00  0.00     0.229 C 
ATOM     12  N   UNL A   1      32.800  27.120  21.928  1.00  0.00    -0.317 N 
ATOM     13  H   UNL A   1      32.960  27.486  21.028  1.00  0.00     0.170 HD
ATOM     14  O   UNL A   1      33.119  25.203  20.882  1.00  0.00    -0.274 OA
BRANCH  12  15
ATOM     15  C   UNL A   1      32.586  28.106  22.869  1.00  0.00     0.110 A 
ATOM     16  C   UNL A   1      31.590  28.982  23.272  1.00  0.00     0.098 A 
ATOM     17  C   UNL A   1      31.892  29.531  24.579  1.00  0.00    -0.017 A 
ATOM     18  S   UNL A   1      33.994  28.277  23.844  1.00  0.00    -0.122 S 
ATOM     19  C   UNL A   1      33.186  29.256  24.966  1.00  0.00     0.011 A 
ATOM     20  C   UNL A   1      30.959  30.323  25.453  1.00  0.00     0.038 C 
ATOM     21  C   UNL A   1      33.847  29.782  26.204  1.00  0.00     0.047 C 
ATOM     22  C   UNL A   1      31.710  31.131  26.517  1.00  0.00     0.005 C 
ATOM     23  C   UNL A   1      32.799  30.296  27.204  1.00  0.00     0.006 C 
BRANCH  16  24
ATOM     24  C   UNL A   1      30.378  29.321  22.552  1.00  0.00     0.341 C 
ATOM     25  O   UNL A   1      30.366  29.866  21.454  1.00  0.00    -0.246 OA
BRANCH  24  26
ATOM     26  O   UNL A   1      29.266  28.891  23.214  1.00  0.00    -0.462 OA
BRANCH  26  27
ATOM     27  C   UNL A   1      28.023  29.373  22.691  1.00  0.00     0.230 C 
ATOM     28  C   UNL A   1      27.688  30.657  23.423  1.00  0.00     0.049 C 
ENDBRANCH  26  27
ENDBRANCH  24  26
ENDBRANCH  16  24
ENDBRANCH  12  15
ENDBRANCH   5  11
ENDBRANCH   2   4
ENDBRANCH   1   2
BRANCH   1  29
ATOM     29  C   UNL A   1      35.940  21.941  24.677  1.00  0.00     0.274 C 
BRANCH  29  30
ATOM     30  C   UNL A   1      36.237  22.893  25.846  1.00  0.00     0.275 C 
BRANCH  30  31
ATOM     31  O   UNL A   1      37.372  23.754  25.612  1.00  0.00    -0.458 OA
BRANCH  31  32
ATOM     32  C   UNL A   1      38.557  23.240  26.009  1.00  0.00     0.338 C 
ATOM     33  O   UNL A   1      38.997  22.127  25.759  1.00  0.00    -0.246 OA
BRANCH  32  34
ATOM     34  C   UNL A   1      39.364  24.228  26.744  1.00  0.00     0.060 A 
ATOM     35  C   UNL A   1      39.201  24.299  28.126  1.00  0.00     0.016 A 
ATOM     36  C   UNL A   1      40.052  25.236  26.071  1.00  0.00     0.016 A 
ATOM     37  C   UNL A   1      39.612  25.418  28.834  1.00  0.00     0.010 A 
ATOM     38  C   UNL A   1      40.524  26.341  26.792  1.00  0.00     0.010 A 
ATOM     39  C   UNL A   1      40.255  26.464  28.169  1.00  0.00    -0.014 A 
BRANCH  39  40
ATOM     40  C   UNL A   1      40.509  27.728  28.902  1.00  0.00     0.031 A 
ATOM     41  C   UNL A   1      41.861  27.969  29.515  1.00  0.00     0.074 A 
ATOM     42  C   UNL A   1      39.574  28.696  28.934  1.00  0.00     0.049 A 
ATOM     43  N   UNL A   1      42.264  28.957  30.272  1.00  0.00    -0.248 NA
ATOM     44  C   UNL A   1      42.900  26.964  29.236  1.00  0.00     0.031 C 
ATOM     45  C   UNL A   1      38.264  28.634  28.284  1.00  0.00     0.029 A 
ATOM     46  N   UNL A   1      39.599  29.935  29.520  1.00  0.00    -0.354 N 
ATOM     47  C   UNL A   1      43.582  28.668  30.600  1.00  0.00     0.074 A 
ATOM     48  C   UNL A   1      43.914  27.414  29.960  1.00  0.00     0.031 C 
ATOM     49  C   UNL A   1      37.623  29.799  28.480  1.00  0.00     0.029 A 
ATOM     50  C   UNL A   1      38.447  30.658  29.324  1.00  0.00     0.049 A 
ATOM     51  H   UNL A   1      40.368  30.275  30.033  1.00  0.00     0.167 HD
ATOM     52  C   UNL A   1      44.438  29.379  31.372  1.00  0.00     0.031 A 
ATOM     53  C   UNL A   1      38.087  31.865  29.797  1.00  0.00     0.031 A 
ATOM     54  C   UNL A   1      44.118  30.642  31.979  1.00  0.00     0.049 A 
ATOM     55  C   UNL A   1      39.028  32.606  30.703  1.00  0.00     0.074 A 
ATOM     56  C   UNL A   1      44.904  31.433  32.799  1.00  0.00     0.029 A 
ATOM     57  N   UNL A   1      42.913  31.308  31.813  1.00  0.00    -0.354 N 
ATOM     58  N   UNL A   1      40.240  32.282  31.079  1.00  0.00    -0.248 NA
ATOM     59  C   UNL A   1      38.539  33.874  31.264  1.00  0.00     0.031 C 
ATOM     60  C   UNL A   1      44.161  32.566  33.155  1.00  0.00     0.029 A 
ATOM     61  C   UNL A   1      42.928  32.495  32.525  1.00  0.00     0.049 A 
ATOM     62  H   UNL A   1      42.159  30.984  31.271  1.00  0.00     0.167 HD
ATOM     63  C   UNL A   1      40.667  33.309  31.909  1.00  0.00     0.074 A 
ATOM     64  C   UNL A   1      39.589  34.275  31.969  1.00  0.00     0.031 C 
ATOM     65  C   UNL A   1      41.844  33.439  32.569  1.00  0.00     0.031 A 
BRANCH  52  66
ATOM     66  C   UNL A   1      45.781  28.768  31.648  1.00  0.00    -0.014 A 
ATOM     67  C   UNL A   1      46.892  29.032  30.833  1.00  0.00     0.009 A 
ATOM     68  C   UNL A   1      45.931  27.908  32.748  1.00  0.00     0.009 A 
ATOM     69  C   UNL A   1      48.120  28.417  31.095  1.00  0.00     0.001 A 
ATOM     70  C   UNL A   1      47.164  27.314  33.019  1.00  0.00     0.001 A 
ATOM     71  C   UNL A   1      48.255  27.561  32.188  1.00  0.00     0.000 A 
ENDBRANCH  52  66
BRANCH  53  72
ATOM     72  C   UNL A   1      36.754  32.426  29.460  1.00  0.00    -0.014 A 
ATOM     73  C   UNL A   1      36.572  33.178  28.291  1.00  0.00     0.009 A 
ATOM     74  C   UNL A   1      35.657  32.213  30.311  1.00  0.00     0.009 A 
ATOM     75  C   UNL A   1      35.319  33.718  27.987  1.00  0.00     0.001 A 
ATOM     76  C   UNL A   1      34.402  32.733  29.991  1.00  0.00     0.001 A 
ATOM     77  C   UNL A   1      34.235  33.490  28.834  1.00  0.00     0.000 A 
ENDBRANCH  53  72
BRANCH  65  78
ATOM     78  C   UNL A   1      42.027  34.684  33.386  1.00  0.00    -0.014 A 
ATOM     79  C   UNL A   1      42.731  35.785  32.877  1.00  0.00     0.009 A 
ATOM     80  C   UNL A   1      41.466  34.762  34.669  1.00  0.00     0.009 A 
ATOM     81  C   UNL A   1      42.896  36.934  33.654  1.00  0.00     0.001 A 
ATOM     82  C   UNL A   1      41.615  35.919  35.435  1.00  0.00     0.001 A 
ATOM     83  C   UNL A   1      42.337  37.000  34.930  1.00  0.00     0.000 A 
ENDBRANCH  65  78
ENDBRANCH  39  40
ENDBRANCH  32  34
ENDBRANCH  31  32
ENDBRANCH  30  31
ENDBRANCH  29  30
ENDBRANCH   1  29
TORSDOF 16
ENDMDL
MODEL 2
REMARK VINA RESULT:     -11.2      2.775      7.874
REMARK SMILES CCOC(=O)c1c(NC(=O)[C@H]2[C@@H]3CC[C@@H](C3)[C@@H]2C(=O)OCCOC(=O)c2ccc(-c3c4nc(c(-c5ccccc5)c5ccc([nH]5)c(-c5ccccc5)c5nc(c(-c6ccccc6)c6ccc3[nH]6)C=C5)C=C4)cc2)sc2c1CCCC2
REMARK SMILES IDX 20 1 18 2 19 3 17 4 11 5 12 6 13 7 16 8 15 9 14 10 9 11 8 12
REMARK SMILES IDX 10 14 7 15 6 16 76 17 74 18 75 19 77 20 80 21 78 22 79 23
REMARK SMILES IDX 4 24 5 25 3 26 2 27 1 28 21 29 22 30 23 31 24 32 25 33 26 34
REMARK SMILES IDX 27 35 73 36 28 37 72 38 29 39 30 40 31 41 66 42 32 43 71 44
REMARK SMILES IDX 65 45 67 46 33 47 70 48 64 49 63 50 34 52 56 53 41 54 55 55
REMARK SMILES IDX 42 56 45 57 54 58 68 59 43 60 44 61 53 63 69 64 46 65 35 66
REMARK SMILES IDX 36 67 40 68 37 69 39 70 38 71 57 72 58 73 62 74 59 75 61 76
REMARK SMILES IDX 60 77 47 78 48 79 52 80 49 81 51 82 50 83
REMARK H PARENT 8 13 67 51 45 62
REMARK Flexibility Score: inf
ROOT
ATOM      1  O   UNL A   1      31.596  29.936  26.969  1.00  0.00    -0.462 OA
ENDROOT
BRANCH   1   2
ATOM      2  C   UNL A   1      32.103  28.905  26.260  1.00  0.00     0.310 C 
ATOM      3  O   UNL A   1      33.234  28.465  26.424  1.00  0.00    -0.252 OA
BRANCH   2   4
ATOM      4  C   UNL A   1      31.152  28.235  25.303  1.00  0.00     0.115 C 
ATOM      5  C   UNL A   1      31.624  26.826  24.885  1.00  0.00     0.096 C 
ATOM      6  C   UNL A   1      31.110  26.758  23.410  1.00  0.00     0.003 C 
ATOM      7  C   UNL A   1      32.132  27.483  22.525  1.00  0.00     0.005 C 
ATOM      8  C   UNL A   1      29.959  27.773  23.360  1.00  0.00     0.009 C 
ATOM      9  C   UNL A   1      30.805  28.901  23.963  1.00  0.00     0.004 C 
ATOM     10  C   UNL A   1      32.009  28.938  23.000  1.00  0.00     0.005 C 
BRANCH   5  11
ATOM     11  C   UNL A   1      31.050  25.716  25.753  1.00  0.00     0.229 C 
ATOM     12  N   UNL A   1      31.632  24.496  25.926  1.00  0.00    -0.317 N 
ATOM     13  H   UNL A   1      31.127  23.922  26.547  1.00  0.00     0.170 HD
ATOM     14  O   UNL A   1      30.031  25.932  26.421  1.00  0.00    -0.274 OA
BRANCH  12  15
ATOM     15  C   UNL A   1      32.765  23.878  25.437  1.00  0.00     0.110 A 
ATOM     16  C   UNL A   1      33.321  23.501  24.224  1.00  0.00     0.098 A 
ATOM     17  C   UNL A   1      34.728  23.192  24.383  1.00  0.00    -0.017 A 
ATOM     18  S   UNL A   1      33.802  23.470  26.749  1.00  0.00    -0.122 S 
ATOM     19  C   UNL A   1      35.088  23.098  25.710  1.00  0.00     0.011 A 
ATOM     20  C   UNL A   1      35.725  22.978  23.278  1.00  0.00     0.038 C 
ATOM     21  C   UNL A   1      36.435  22.675  26.212  1.00  0.00     0.047 C 
ATOM     22  C   UNL A   1      36.971  22.227  23.762  1.00  0.00     0.005 C 
ATOM     23  C   UNL A   1      37.488  22.781  25.097  1.00  0.00     0.006 C 
BRANCH  16  24
ATOM     24  C   UNL A   1      32.654  23.435  22.938  1.00  0.00     0.341 C 
ATOM     25  O   UNL A   1      32.984  24.100  21.963  1.00  0.00    -0.246 OA
BRANCH  24  26
ATOM     26  O   UNL A   1      31.669  22.491  22.933  1.00  0.00    -0.462 OA
BRANCH  26  27
ATOM     27  C   UNL A   1      32.042  21.228  22.373  1.00  0.00     0.230 C 
ATOM     28  C   UNL A   1      32.364  20.296  23.523  1.00  0.00     0.049 C 
ENDBRANCH  26  27
ENDBRANCH  24  26
ENDBRANCH  16  24
ENDBRANCH  12  15
ENDBRANCH   5  11
ENDBRANCH   2   4
ENDBRANCH   1   2
BRANCH   1  29
ATOM     29  C   UNL A   1      31.625  31.194  26.260  1.00  0.00     0.274 C 
BRANCH  29  30
ATOM     30  C   UNL A   1      31.464  32.414  27.179  1.00  0.00     0.275 C 
BRANCH  30  31
ATOM     31  O   UNL A   1      32.490  33.412  26.995  1.00  0.00    -0.458 OA
BRANCH  31  32
ATOM     32  C   UNL A   1      33.153  33.750  28.124  1.00  0.00     0.338 C 
ATOM     33  O   UNL A   1      32.756  34.481  29.019  1.00  0.00    -0.246 OA
BRANCH  32  34
ATOM     34  C   UNL A   1      34.442  33.048  28.233  1.00  0.00     0.060 A 
ATOM     35  C   UNL A   1      34.414  31.675  28.472  1.00  0.00     0.016 A 
ATOM     36  C   UNL A   1      35.635  33.755  28.371  1.00  0.00     0.016 A 
ATOM     37  C   UNL A   1      35.532  31.015  28.960  1.00  0.00     0.010 A 
ATOM     38  C   UNL A   1      36.784  33.079  28.805  1.00  0.00     0.010 A 
ATOM     39  C   UNL A   1      36.723  31.717  29.157  1.00  0.00    -0.014 A 
BRANCH  39  40
ATOM     40  C   UNL A   1      37.842  31.044  29.860  1.00  0.00     0.031 A 
ATOM     41  C   UNL A   1      38.039  31.280  31.332  1.00  0.00     0.074 A 
ATOM     42  C   UNL A   1      38.614  30.152  29.213  1.00  0.00     0.049 A 
ATOM     43  N   UNL A   1      39.001  30.867  32.117  1.00  0.00    -0.248 NA
ATOM     44  C   UNL A   1      37.012  32.086  32.014  1.00  0.00     0.031 C 
ATOM     45  C   UNL A   1      38.458  29.749  27.814  1.00  0.00     0.029 A 
ATOM     46  N   UNL A   1      39.672  29.403  29.661  1.00  0.00    -0.354 N 
ATOM     47  C   UNL A   1      38.724  31.404  33.368  1.00  0.00     0.074 A 
ATOM     48  C   UNL A   1      37.504  32.170  33.242  1.00  0.00     0.031 C 
ATOM     49  C   UNL A   1      39.366  28.801  27.529  1.00  0.00     0.029 A 
ATOM     50  C   UNL A   1      40.208  28.582  28.700  1.00  0.00     0.049 A 
ATOM     51  H   UNL A   1      40.014  29.449  30.583  1.00  0.00     0.167 HD
ATOM     52  C   UNL A   1      39.429  31.276  34.518  1.00  0.00     0.031 A 
ATOM     53  C   UNL A   1      41.277  27.767  28.751  1.00  0.00     0.031 A 
ATOM     54  C   UNL A   1      40.623  30.486  34.650  1.00  0.00     0.049 A 
ATOM     55  C   UNL A   1      42.079  27.690  30.019  1.00  0.00     0.074 A 
ATOM     56  C   UNL A   1      41.424  30.308  35.764  1.00  0.00     0.029 A 
ATOM     57  N   UNL A   1      41.174  29.723  33.632  1.00  0.00    -0.354 N 
ATOM     58  N   UNL A   1      41.859  28.271  31.172  1.00  0.00    -0.248 NA
ATOM     59  C   UNL A   1      43.290  26.857  29.982  1.00  0.00     0.031 C 
ATOM     60  C   UNL A   1      42.482  29.461  35.409  1.00  0.00     0.029 A 
ATOM     61  C   UNL A   1      42.313  29.083  34.087  1.00  0.00     0.049 A 
ATOM     62  H   UNL A   1      40.809  29.650  32.721  1.00  0.00     0.167 HD
ATOM     63  C   UNL A   1      42.893  27.866  32.004  1.00  0.00     0.074 A 
ATOM     64  C   UNL A   1      43.732  26.976  31.227  1.00  0.00     0.031 C 
ATOM     65  C   UNL A   1      43.131  28.204  33.294  1.00  0.00     0.031 A 
BRANCH  52  66
ATOM     66  C   UNL A   1      38.950  32.062  35.705  1.00  0.00    -0.014 A 
ATOM     67  C   UNL A   1      39.328  33.397  35.905  1.00  0.00     0.009 A 
ATOM     68  C   UNL A   1      38.104  31.445  36.640  1.00  0.00     0.009 A 
ATOM     69  C   UNL A   1      38.895  34.090  37.039  1.00  0.00     0.001 A 
ATOM     70  C   UNL A   1      37.655  32.147  37.759  1.00  0.00     0.001 A 
ATOM     71  C   UNL A   1      38.059  33.465  37.964  1.00  0.00     0.000 A 
ENDBRANCH  52  66
BRANCH  53  72
ATOM     72  C   UNL A   1      41.679  26.993  27.549  1.00  0.00    -0.014 A 
ATOM     73  C   UNL A   1      41.219  25.682  27.357  1.00  0.00     0.009 A 
ATOM     74  C   UNL A   1      42.527  27.564  26.587  1.00  0.00     0.009 A 
ATOM     75  C   UNL A   1      41.613  24.953  26.232  1.00  0.00     0.001 A 
ATOM     76  C   UNL A   1      42.899  26.841  25.451  1.00  0.00     0.001 A 
ATOM     77  C   UNL A   1      42.447  25.535  25.278  1.00  0.00     0.000 A 
ENDBRANCH  53  72
BRANCH  65  78
ATOM     78  C   UNL A   1      44.332  27.584  33.946  1.00  0.00    -0.014 A 
ATOM     79  C   UNL A   1      44.244  26.343  34.593  1.00  0.00     0.009 A 
ATOM     80  C   UNL A   1      45.571  28.240  33.887  1.00  0.00     0.009 A 
ATOM     81  C   UNL A   1      45.372  25.783  35.197  1.00  0.00     0.001 A 
ATOM     82  C   UNL A   1      46.700  27.669  34.474  1.00  0.00     0.001 A 
ATOM     83  C   UNL A   1      46.598  26.445  35.136  1.00  0.00     0.000 A 
ENDBRANCH  65  78
ENDBRANCH  39  40
ENDBRANCH  32  34
ENDBRANCH  31  32
ENDBRANCH  30  31
ENDBRANCH  29  30
ENDBRANCH   1  29
TORSDOF 16
ENDMDL
MODEL 3
REMARK VINA RESULT:     -11.1      3.090      7.433
REMARK SMILES CCOC(=O)c1c(NC(=O)[C@H]2[C@@H]3CC[C@@H](C3)[C@@H]2C(=O)OCCOC(=O)c2ccc(-c3c4nc(c(-c5ccccc5)c5ccc([nH]5)c(-c5ccccc5)c5nc(c(-c6ccccc6)c6ccc3[nH]6)C=C5)C=C4)cc2)sc2c1CCCC2
REMARK SMILES IDX 20 1 18 2 19 3 17 4 11 5 12 6 13 7 16 8 15 9 14 10 9 11 8 12
REMARK SMILES IDX 10 14 7 15 6 16 76 17 74 18 75 19 77 20 80 21 78 22 79 23
REMARK SMILES IDX 4 24 5 25 3 26 2 27 1 28 21 29 22 30 23 31 24 32 25 33 26 34
REMARK SMILES IDX 27 35 73 36 28 37 72 38 29 39 30 40 31 41 66 42 32 43 71 44
REMARK SMILES IDX 65 45 67 46 33 47 70 48 64 49 63 50 34 52 56 53 41 54 55 55
REMARK SMILES IDX 42 56 45 57 54 58 68 59 43 60 44 61 53 63 69 64 46 65 35 66
REMARK SMILES IDX 36 67 40 68 37 69 39 70 38 71 57 72 58 73 62 74 59 75 61 76
REMARK SMILES IDX 60 77 47 78 48 79 52 80 49 81 51 82 50 83
REMARK H PARENT 8 13 67 51 45 62
REMARK Flexibility Score: inf
ROOT
ATOM      1  O   UNL A   1      31.426  27.958  26.292  1.00  0.00    -0.462 OA
ENDROOT
BRANCH   1   2
ATOM      2  C   UNL A   1      32.067  26.845  25.873  1.00  0.00     0.310 C 
ATOM      3  O   UNL A   1      33.238  26.602  26.137  1.00  0.00    -0.252 OA
BRANCH   2   4
ATOM      4  C   UNL A   1      31.224  25.840  25.133  1.00  0.00     0.115 C 
ATOM      5  C   UNL A   1      31.846  24.427  25.134  1.00  0.00     0.096 C 
ATOM      6  C   UNL A   1      31.400  23.898  23.733  1.00  0.00     0.003 C 
ATOM      7  C   UNL A   1      32.381  24.449  22.690  1.00  0.00     0.005 C 
ATOM      8  C   UNL A   1      30.160  24.733  23.386  1.00  0.00     0.009 C 
ATOM      9  C   UNL A   1      30.868  26.066  23.656  1.00  0.00     0.004 C 
ATOM     10  C   UNL A   1      32.099  25.958  22.735  1.00  0.00     0.005 C 
BRANCH   5  11
ATOM     11  C   UNL A   1      31.348  23.550  26.273  1.00  0.00     0.229 C 
ATOM     12  N   UNL A   1      32.013  22.461  26.752  1.00  0.00    -0.317 N 
ATOM     13  H   UNL A   1      31.547  22.039  27.510  1.00  0.00     0.170 HD
ATOM     14  O   UNL A   1      30.315  23.867  26.877  1.00  0.00    -0.274 OA
BRANCH  12  15
ATOM     15  C   UNL A   1      33.186  21.813  26.425  1.00  0.00     0.110 A 
ATOM     16  C   UNL A   1      33.610  20.622  25.855  1.00  0.00     0.098 A 
ATOM     17  C   UNL A   1      35.006  20.707  25.476  1.00  0.00    -0.017 A 
ATOM     18  S   UNL A   1      34.524  22.810  26.846  1.00  0.00    -0.122 S 
ATOM     19  C   UNL A   1      35.615  21.826  26.002  1.00  0.00     0.011 A 
ATOM     20  C   UNL A   1      35.762  19.725  24.625  1.00  0.00     0.038 C 
ATOM     21  C   UNL A   1      37.076  22.144  25.900  1.00  0.00     0.047 C 
ATOM     22  C   UNL A   1      37.279  19.853  24.803  1.00  0.00     0.005 C 
ATOM     23  C   UNL A   1      37.734  21.319  24.781  1.00  0.00     0.006 C 
BRANCH  16  24
ATOM     24  C   UNL A   1      32.814  19.434  25.615  1.00  0.00     0.341 C 
ATOM     25  O   UNL A   1      32.542  18.608  26.479  1.00  0.00    -0.246 OA
BRANCH  24  26
ATOM     26  O   UNL A   1      32.350  19.393  24.333  1.00  0.00    -0.462 OA
BRANCH  26  27
ATOM     27  C   UNL A   1      32.354  18.096  23.727  1.00  0.00     0.230 C 
ATOM     28  C   UNL A   1      32.524  18.291  22.234  1.00  0.00     0.049 C 
ENDBRANCH  26  27
ENDBRANCH  24  26
ENDBRANCH  16  24
ENDBRANCH  12  15
ENDBRANCH   5  11
ENDBRANCH   2   4
ENDBRANCH   1   2
BRANCH   1  29
ATOM     29  C   UNL A   1      31.353  28.994  25.289  1.00  0.00     0.274 C 
BRANCH  29  30
ATOM     30  C   UNL A   1      31.793  30.372  25.805  1.00  0.00     0.275 C 
BRANCH  30  31
ATOM     31  O   UNL A   1      32.501  30.316  27.062  1.00  0.00    -0.458 OA
BRANCH  31  32
ATOM     32  C   UNL A   1      33.240  31.414  27.338  1.00  0.00     0.338 C 
ATOM     33  O   UNL A   1      32.841  32.566  27.427  1.00  0.00    -0.246 OA
BRANCH  32  34
ATOM     34  C   UNL A   1      34.643  31.071  27.627  1.00  0.00     0.060 A 
ATOM     35  C   UNL A   1      34.963  29.724  27.777  1.00  0.00     0.016 A 
ATOM     36  C   UNL A   1      35.556  32.051  28.011  1.00  0.00     0.016 A 
ATOM     37  C   UNL A   1      36.134  29.337  28.410  1.00  0.00     0.010 A 
ATOM     38  C   UNL A   1      36.769  31.663  28.596  1.00  0.00     0.010 A 
ATOM     39  C   UNL A   1      37.038  30.305  28.852  1.00  0.00    -0.014 A 
BRANCH  39  40
ATOM     40  C   UNL A   1      38.182  29.884  29.697  1.00  0.00     0.031 A 
ATOM     41  C   UNL A   1      39.291  29.071  29.088  1.00  0.00     0.074 A 
ATOM     42  C   UNL A   1      38.280  30.306  30.970  1.00  0.00     0.049 A 
ATOM     43  N   UNL A   1      40.330  28.523  29.664  1.00  0.00    -0.248 NA
ATOM     44  C   UNL A   1      39.223  28.848  27.634  1.00  0.00     0.031 C 
ATOM     45  C   UNL A   1      37.329  31.190  31.649  1.00  0.00     0.029 A 
ATOM     46  N   UNL A   1      39.245  30.066  31.914  1.00  0.00    -0.354 N 
ATOM     47  C   UNL A   1      41.010  27.851  28.656  1.00  0.00     0.074 A 
ATOM     48  C   UNL A   1      40.269  28.059  27.431  1.00  0.00     0.031 C 
ATOM     49  C   UNL A   1      37.777  31.444  32.889  1.00  0.00     0.029 A 
ATOM     50  C   UNL A   1      39.005  30.688  33.115  1.00  0.00     0.049 A 
ATOM     51  H   UNL A   1      40.035  29.502  31.748  1.00  0.00     0.167 HD
ATOM     52  C   UNL A   1      42.146  27.118  28.744  1.00  0.00     0.031 A 
ATOM     53  C   UNL A   1      39.685  30.631  34.274  1.00  0.00     0.031 A 
ATOM     54  C   UNL A   1      42.900  26.940  29.955  1.00  0.00     0.049 A 
ATOM     55  C   UNL A   1      40.906  29.762  34.365  1.00  0.00     0.074 A 
ATOM     56  C   UNL A   1      44.051  26.199  30.157  1.00  0.00     0.029 A 
ATOM     57  N   UNL A   1      42.584  27.532  31.168  1.00  0.00    -0.354 N 
ATOM     58  N   UNL A   1      41.491  29.060  33.427  1.00  0.00    -0.248 NA
ATOM     59  C   UNL A   1      41.549  29.667  35.684  1.00  0.00     0.031 C 
ATOM     60  C   UNL A   1      44.414  26.317  31.505  1.00  0.00     0.029 A 
ATOM     61  C   UNL A   1      43.510  27.162  32.128  1.00  0.00     0.049 A 
ATOM     62  H   UNL A   1      41.814  28.125  31.324  1.00  0.00     0.167 HD
ATOM     63  C   UNL A   1      42.578  28.447  34.035  1.00  0.00     0.074 A 
ATOM     64  C   UNL A   1      42.580  28.875  35.420  1.00  0.00     0.031 C 
ATOM     65  C   UNL A   1      43.490  27.601  33.498  1.00  0.00     0.031 A 
BRANCH  52  66
ATOM     66  C   UNL A   1      42.600  26.407  27.502  1.00  0.00    -0.014 A 
ATOM     67  C   UNL A   1      42.230  25.080  27.236  1.00  0.00     0.009 A 
ATOM     68  C   UNL A   1      43.416  27.085  26.583  1.00  0.00     0.009 A 
ATOM     69  C   UNL A   1      42.700  24.435  26.089  1.00  0.00     0.001 A 
ATOM     70  C   UNL A   1      43.865  26.444  25.427  1.00  0.00     0.001 A 
ATOM     71  C   UNL A   1      43.515  25.117  25.186  1.00  0.00     0.000 A 
ENDBRANCH  52  66
BRANCH  53  72
ATOM     72  C   UNL A   1      39.197  31.385  35.458  1.00  0.00    -0.014 A 
ATOM     73  C   UNL A   1      38.243  30.824  36.319  1.00  0.00     0.009 A 
ATOM     74  C   UNL A   1      39.686  32.674  35.730  1.00  0.00     0.009 A 
ATOM     75  C   UNL A   1      37.777  31.545  37.421  1.00  0.00     0.001 A 
ATOM     76  C   UNL A   1      39.236  33.381  36.846  1.00  0.00     0.001 A 
ATOM     77  C   UNL A   1      38.278  32.819  37.687  1.00  0.00     0.000 A 
ENDBRANCH  53  72
BRANCH  65  78
ATOM     78  C   UNL A   1      44.576  27.111  34.409  1.00  0.00    -0.014 A 
ATOM     79  C   UNL A   1      45.772  27.828  34.561  1.00  0.00     0.009 A 
ATOM     80  C   UNL A   1      44.389  25.929  35.141  1.00  0.00     0.009 A 
ATOM     81  C   UNL A   1      46.774  27.354  35.410  1.00  0.00     0.001 A 
ATOM     82  C   UNL A   1      45.383  25.469  36.005  1.00  0.00     0.001 A 
ATOM     83  C   UNL A   1      46.578  26.177  36.132  1.00  0.00     0.000 A 
ENDBRANCH  65  78
ENDBRANCH  39  40
ENDBRANCH  32  34
ENDBRANCH  31  32
ENDBRANCH  30  31
ENDBRANCH  29  30
ENDBRANCH   1  29
TORSDOF 16
ENDMDL
