MODEL 1
REMARK VINA RESULT:     -11.0      0.000      0.000
REMARK SMILES O=C(Cn1cnc(-c2ccccc2)c1-c1ccccc1)OCCOC(=O)c1ccc(-c2c3nc(c(-c4ccccc4)c4ccc([nH]4)c(-c4ccccc4)c4nc(c(-c5ccccc5)c5ccc2[nH]5)C=C4)C=C3)cc1
REMARK SMILES IDX 22 1 21 2 2 3 1 4 3 5 4 6 5 7 14 8 6 9 7 10 15 11 16 12
REMARK SMILES IDX 20 13 17 14 19 15 18 16 8 17 9 18 13 19 10 20 12 21 11 22
REMARK SMILES IDX 23 23 24 24 25 25 26 26 27 27 28 28 74 29 29 30 73 31 30 32
REMARK SMILES IDX 31 33 32 34 67 35 33 36 72 37 66 38 68 39 34 40 71 41 65 42
REMARK SMILES IDX 64 43 35 45 57 46 42 47 56 48 43 49 46 50 55 51 69 52 44 53
REMARK SMILES IDX 45 54 54 56 70 57 47 58 36 59 37 60 41 61 38 62 40 63 39 64
REMARK SMILES IDX 58 65 59 66 63 67 60 68 62 69 61 70 48 71 49 72 53 73 50 74
REMARK SMILES IDX 52 75 51 76
REMARK H PARENT 68 44 46 55
REMARK Flexibility Score: inf
ROOT
ATOM      1  C   UNL A   1      32.290  30.141  27.105  1.00  0.00     0.274 C 
ENDROOT
BRANCH   1   2
ATOM      2  O   UNL A   1      31.704  28.992  26.457  1.00  0.00    -0.461 OA
BRANCH   2   3
ATOM      3  C   UNL A   1      31.294  27.832  27.023  1.00  0.00     0.326 C 
ATOM      4  O   UNL A   1      31.286  27.746  28.250  1.00  0.00    -0.250 OA
BRANCH   3   5
ATOM      5  C   UNL A   1      30.918  26.650  26.162  1.00  0.00     0.246 C 
BRANCH   5   6
ATOM      6  N   UNL A   1      31.909  25.598  26.090  1.00  0.00    -0.319 N 
ATOM      7  C   UNL A   1      31.747  24.375  26.688  1.00  0.00     0.201 A 
ATOM      8  C   UNL A   1      32.995  25.503  25.247  1.00  0.00     0.076 A 
ATOM      9  N   UNL A   1      32.773  23.593  26.482  1.00  0.00    -0.236 NA
ATOM     10  C   UNL A   1      33.579  24.298  25.626  1.00  0.00     0.096 A 
BRANCH   8  11
ATOM     11  C   UNL A   1      33.313  26.412  24.143  1.00  0.00     0.000 A 
ATOM     12  C   UNL A   1      32.971  26.043  22.833  1.00  0.00     0.010 A 
ATOM     13  C   UNL A   1      33.953  27.637  24.346  1.00  0.00     0.010 A 
ATOM     14  C   UNL A   1      33.248  26.885  21.755  1.00  0.00     0.001 A 
ATOM     15  C   UNL A   1      34.210  28.491  23.271  1.00  0.00     0.001 A 
ATOM     16  C   UNL A   1      33.861  28.115  21.976  1.00  0.00     0.000 A 
ENDBRANCH   8  11
BRANCH  10  17
ATOM     17  C   UNL A   1      34.835  23.773  25.141  1.00  0.00     0.002 A 
ATOM     18  C   UNL A   1      34.929  23.286  23.833  1.00  0.00     0.010 A 
ATOM     19  C   UNL A   1      35.953  23.729  25.983  1.00  0.00     0.010 A 
ATOM     20  C   UNL A   1      36.144  22.787  23.363  1.00  0.00     0.001 A 
ATOM     21  C   UNL A   1      37.163  23.225  25.513  1.00  0.00     0.001 A 
ATOM     22  C   UNL A   1      37.259  22.759  24.202  1.00  0.00     0.000 A 
ENDBRANCH  10  17
ENDBRANCH   5   6
ENDBRANCH   3   5
ENDBRANCH   2   3
ENDBRANCH   1   2
BRANCH   1  23
ATOM     23  C   UNL A   1      33.672  30.487  26.566  1.00  0.00     0.275 C 
BRANCH  23  24
ATOM     24  O   UNL A   1      34.647  30.322  27.588  1.00  0.00    -0.458 OA
BRANCH  24  25
ATOM     25  C   UNL A   1      35.379  31.420  27.912  1.00  0.00     0.338 C 
ATOM     26  O   UNL A   1      35.256  32.538  27.494  1.00  0.00    -0.246 OA
BRANCH  25  27
ATOM     27  C   UNL A   1      36.392  30.970  28.884  1.00  0.00     0.060 A 
ATOM     28  C   UNL A   1      37.467  31.825  29.114  1.00  0.00     0.016 A 
ATOM     29  C   UNL A   1      36.372  29.646  29.358  1.00  0.00     0.016 A 
ATOM     30  C   UNL A   1      38.646  31.259  29.539  1.00  0.00     0.010 A 
ATOM     31  C   UNL A   1      37.544  29.082  29.778  1.00  0.00     0.010 A 
ATOM     32  C   UNL A   1      38.682  29.875  29.727  1.00  0.00    -0.014 A 
BRANCH  32  33
ATOM     33  C   UNL A   1      39.968  29.228  29.758  1.00  0.00     0.031 A 
ATOM     34  C   UNL A   1      40.514  29.044  31.108  1.00  0.00     0.074 A 
ATOM     35  C   UNL A   1      40.535  28.768  28.628  1.00  0.00     0.049 A 
ATOM     36  N   UNL A   1      41.519  29.657  31.634  1.00  0.00    -0.248 NA
ATOM     37  C   UNL A   1      39.757  28.192  32.037  1.00  0.00     0.031 C 
ATOM     38  C   UNL A   1      39.939  28.640  27.292  1.00  0.00     0.029 A 
ATOM     39  N   UNL A   1      41.756  28.199  28.472  1.00  0.00    -0.354 N 
ATOM     40  C   UNL A   1      41.648  29.118  32.905  1.00  0.00     0.074 A 
ATOM     41  C   UNL A   1      40.434  28.385  33.167  1.00  0.00     0.031 C 
ATOM     42  C   UNL A   1      40.709  27.819  26.540  1.00  0.00     0.029 A 
ATOM     43  C   UNL A   1      41.906  27.484  27.294  1.00  0.00     0.049 A 
ATOM     44  H   UNL A   1      42.474  28.286  29.139  1.00  0.00     0.167 HD
ATOM     45  C   UNL A   1      42.856  29.064  33.524  1.00  0.00     0.031 A 
ATOM     46  C   UNL A   1      42.908  26.615  27.015  1.00  0.00     0.031 A 
ATOM     47  C   UNL A   1      43.815  29.948  32.913  1.00  0.00     0.049 A 
ATOM     48  C   UNL A   1      44.024  26.906  27.950  1.00  0.00     0.074 A 
ATOM     49  C   UNL A   1      43.877  31.310  32.691  1.00  0.00     0.029 A 
ATOM     50  N   UNL A   1      44.739  29.386  32.063  1.00  0.00    -0.354 N 
ATOM     51  N   UNL A   1      44.723  28.004  27.907  1.00  0.00    -0.248 NA
ATOM     52  C   UNL A   1      44.059  26.198  29.221  1.00  0.00     0.031 C 
ATOM     53  C   UNL A   1      44.481  31.449  31.406  1.00  0.00     0.029 A 
ATOM     54  C   UNL A   1      44.805  30.172  30.942  1.00  0.00     0.049 A 
ATOM     55  H   UNL A   1      45.260  28.566  32.231  1.00  0.00     0.167 HD
ATOM     56  C   UNL A   1      44.916  28.356  29.236  1.00  0.00     0.074 A 
ATOM     57  C   UNL A   1      44.577  27.155  29.998  1.00  0.00     0.031 C 
ATOM     58  C   UNL A   1      45.046  29.664  29.609  1.00  0.00     0.031 A 
BRANCH  45  59
ATOM     59  C   UNL A   1      43.268  27.892  34.374  1.00  0.00    -0.014 A 
ATOM     60  C   UNL A   1      43.424  26.639  33.763  1.00  0.00     0.009 A 
ATOM     61  C   UNL A   1      43.234  27.914  35.783  1.00  0.00     0.009 A 
ATOM     62  C   UNL A   1      43.474  25.466  34.524  1.00  0.00     0.001 A 
ATOM     63  C   UNL A   1      43.328  26.751  36.547  1.00  0.00     0.001 A 
ATOM     64  C   UNL A   1      43.419  25.522  35.914  1.00  0.00     0.000 A 
ENDBRANCH  45  59
BRANCH  46  65
ATOM     65  C   UNL A   1      42.824  25.357  26.241  1.00  0.00    -0.014 A 
ATOM     66  C   UNL A   1      43.749  25.072  25.224  1.00  0.00     0.009 A 
ATOM     67  C   UNL A   1      41.993  24.309  26.682  1.00  0.00     0.009 A 
ATOM     68  C   UNL A   1      43.857  23.779  24.694  1.00  0.00     0.001 A 
ATOM     69  C   UNL A   1      42.099  23.021  26.150  1.00  0.00     0.001 A 
ATOM     70  C   UNL A   1      43.042  22.751  25.166  1.00  0.00     0.000 A 
ENDBRANCH  46  65
BRANCH  58  71
ATOM     71  C   UNL A   1      45.187  30.693  28.512  1.00  0.00    -0.014 A 
ATOM     72  C   UNL A   1      46.435  31.139  28.038  1.00  0.00     0.009 A 
ATOM     73  C   UNL A   1      44.033  31.112  27.834  1.00  0.00     0.009 A 
ATOM     74  C   UNL A   1      46.520  32.004  26.941  1.00  0.00     0.001 A 
ATOM     75  C   UNL A   1      44.119  31.958  26.726  1.00  0.00     0.001 A 
ATOM     76  C   UNL A   1      45.362  32.409  26.283  1.00  0.00     0.000 A 
ENDBRANCH  58  71
ENDBRANCH  32  33
ENDBRANCH  25  27
ENDBRANCH  24  25
ENDBRANCH  23  24
ENDBRANCH   1  23
TORSDOF 14
ENDMDL
MODEL 2
REMARK VINA RESULT:     -10.8      3.073      7.156
REMARK SMILES O=C(Cn1cnc(-c2ccccc2)c1-c1ccccc1)OCCOC(=O)c1ccc(-c2c3nc(c(-c4ccccc4)c4ccc([nH]4)c(-c4ccccc4)c4nc(c(-c5ccccc5)c5ccc2[nH]5)C=C4)C=C3)cc1
REMARK SMILES IDX 22 1 21 2 2 3 1 4 3 5 4 6 5 7 14 8 6 9 7 10 15 11 16 12
REMARK SMILES IDX 20 13 17 14 19 15 18 16 8 17 9 18 13 19 10 20 12 21 11 22
REMARK SMILES IDX 23 23 24 24 25 25 26 26 27 27 28 28 74 29 29 30 73 31 30 32
REMARK SMILES IDX 31 33 32 34 67 35 33 36 72 37 66 38 68 39 34 40 71 41 65 42
REMARK SMILES IDX 64 43 35 45 57 46 42 47 56 48 43 49 46 50 55 51 69 52 44 53
REMARK SMILES IDX 45 54 54 56 70 57 47 58 36 59 37 60 41 61 38 62 40 63 39 64
REMARK SMILES IDX 58 65 59 66 63 67 60 68 62 69 61 70 48 71 49 72 53 73 50 74
REMARK SMILES IDX 52 75 51 76
REMARK H PARENT 68 44 46 55
REMARK Flexibility Score: inf
ROOT
ATOM      1  C   UNL A   1      36.884  22.332  25.518  1.00  0.00     0.274 C 
ENDROOT
BRANCH   1   2
ATOM      2  O   UNL A   1      35.490  22.320  25.145  1.00  0.00    -0.461 OA
BRANCH   2   3
ATOM      3  C   UNL A   1      34.531  23.220  25.467  1.00  0.00     0.326 C 
ATOM      4  O   UNL A   1      33.611  22.862  26.202  1.00  0.00    -0.250 OA
BRANCH   3   5
ATOM      5  C   UNL A   1      34.558  24.611  24.883  1.00  0.00     0.246 C 
BRANCH   5   6
ATOM      6  N   UNL A   1      33.347  25.021  24.205  1.00  0.00    -0.319 N 
ATOM      7  C   UNL A   1      32.647  24.198  23.361  1.00  0.00     0.201 A 
ATOM      8  C   UNL A   1      32.554  26.119  24.460  1.00  0.00     0.076 A 
ATOM      9  N   UNL A   1      31.591  24.789  22.871  1.00  0.00    -0.236 NA
ATOM     10  C   UNL A   1      31.544  26.002  23.510  1.00  0.00     0.096 A 
BRANCH   8  11
ATOM     11  C   UNL A   1      32.713  27.058  25.573  1.00  0.00     0.000 A 
ATOM     12  C   UNL A   1      33.802  27.943  25.570  1.00  0.00     0.010 A 
ATOM     13  C   UNL A   1      31.819  27.103  26.645  1.00  0.00     0.010 A 
ATOM     14  C   UNL A   1      33.983  28.860  26.607  1.00  0.00     0.001 A 
ATOM     15  C   UNL A   1      31.986  28.036  27.672  1.00  0.00     0.001 A 
ATOM     16  C   UNL A   1      33.069  28.912  27.655  1.00  0.00     0.000 A 
ENDBRANCH   8  11
BRANCH  10  17
ATOM     17  C   UNL A   1      30.506  26.971  23.250  1.00  0.00     0.002 A 
ATOM     18  C   UNL A   1      30.797  28.127  22.518  1.00  0.00     0.010 A 
ATOM     19  C   UNL A   1      29.213  26.771  23.749  1.00  0.00     0.010 A 
ATOM     20  C   UNL A   1      29.792  29.059  22.261  1.00  0.00     0.001 A 
ATOM     21  C   UNL A   1      28.213  27.706  23.496  1.00  0.00     0.001 A 
ATOM     22  C   UNL A   1      28.502  28.847  22.748  1.00  0.00     0.000 A 
ENDBRANCH  10  17
ENDBRANCH   5   6
ENDBRANCH   3   5
ENDBRANCH   2   3
ENDBRANCH   1   2
BRANCH   1  23
ATOM     23  C   UNL A   1      37.530  20.954  25.448  1.00  0.00     0.275 C 
BRANCH  23  24
ATOM     24  O   UNL A   1      38.903  21.078  25.099  1.00  0.00    -0.458 OA
BRANCH  24  25
ATOM     25  C   UNL A   1      39.749  20.157  25.631  1.00  0.00     0.338 C 
ATOM     26  O   UNL A   1      39.660  18.961  25.589  1.00  0.00    -0.246 OA
BRANCH  25  27
ATOM     27  C   UNL A   1      40.819  20.919  26.303  1.00  0.00     0.060 A 
ATOM     28  C   UNL A   1      40.934  20.758  27.681  1.00  0.00     0.016 A 
ATOM     29  C   UNL A   1      41.513  21.923  25.604  1.00  0.00     0.016 A 
ATOM     30  C   UNL A   1      41.490  21.794  28.395  1.00  0.00     0.010 A 
ATOM     31  C   UNL A   1      42.062  22.954  26.312  1.00  0.00     0.010 A 
ATOM     32  C   UNL A   1      41.915  22.925  27.692  1.00  0.00    -0.014 A 
BRANCH  32  33
ATOM     33  C   UNL A   1      42.100  24.149  28.426  1.00  0.00     0.031 A 
ATOM     34  C   UNL A   1      41.078  25.168  28.159  1.00  0.00     0.074 A 
ATOM     35  C   UNL A   1      43.086  24.265  29.335  1.00  0.00     0.049 A 
ATOM     36  N   UNL A   1      41.229  26.275  27.516  1.00  0.00    -0.248 NA
ATOM     37  C   UNL A   1      39.688  24.846  28.512  1.00  0.00     0.031 C 
ATOM     38  C   UNL A   1      43.957  23.216  29.878  1.00  0.00     0.029 A 
ATOM     39  N   UNL A   1      43.436  25.357  30.058  1.00  0.00    -0.354 N 
ATOM     40  C   UNL A   1      39.988  26.891  27.557  1.00  0.00     0.074 A 
ATOM     41  C   UNL A   1      39.046  25.890  27.995  1.00  0.00     0.031 C 
ATOM     42  C   UNL A   1      44.555  23.675  31.002  1.00  0.00     0.029 A 
ATOM     43  C   UNL A   1      44.214  25.078  31.171  1.00  0.00     0.049 A 
ATOM     44  H   UNL A   1      43.162  26.270  29.815  1.00  0.00     0.167 HD
ATOM     45  C   UNL A   1      39.875  28.244  27.518  1.00  0.00     0.031 A 
ATOM     46  C   UNL A   1      44.475  25.931  32.191  1.00  0.00     0.031 A 
ATOM     47  C   UNL A   1      41.080  28.872  27.040  1.00  0.00     0.049 A 
ATOM     48  C   UNL A   1      44.195  27.306  31.706  1.00  0.00     0.074 A 
ATOM     49  C   UNL A   1      41.817  28.799  25.875  1.00  0.00     0.029 A 
ATOM     50  N   UNL A   1      41.916  29.429  27.981  1.00  0.00    -0.354 N 
ATOM     51  N   UNL A   1      44.906  27.899  30.791  1.00  0.00    -0.248 NA
ATOM     52  C   UNL A   1      42.854  27.840  31.893  1.00  0.00     0.031 C 
ATOM     53  C   UNL A   1      43.179  28.872  26.293  1.00  0.00     0.029 A 
ATOM     54  C   UNL A   1      43.195  29.041  27.679  1.00  0.00     0.049 A 
ATOM     55  H   UNL A   1      41.644  30.002  28.734  1.00  0.00     0.167 HD
ATOM     56  C   UNL A   1      43.983  28.565  29.997  1.00  0.00     0.074 A 
ATOM     57  C   UNL A   1      42.750  28.579  30.783  1.00  0.00     0.031 C 
ATOM     58  C   UNL A   1      44.219  28.781  28.668  1.00  0.00     0.031 A 
BRANCH  45  59
ATOM     59  C   UNL A   1      38.848  28.986  28.331  1.00  0.00    -0.014 A 
ATOM     60  C   UNL A   1      37.968  29.856  27.671  1.00  0.00     0.009 A 
ATOM     61  C   UNL A   1      38.898  29.077  29.737  1.00  0.00     0.009 A 
ATOM     62  C   UNL A   1      37.230  30.811  28.379  1.00  0.00     0.001 A 
ATOM     63  C   UNL A   1      38.130  29.997  30.450  1.00  0.00     0.001 A 
ATOM     64  C   UNL A   1      37.316  30.885  29.767  1.00  0.00     0.000 A 
ENDBRANCH  45  59
BRANCH  46  65
ATOM     65  C   UNL A   1      44.617  25.606  33.628  1.00  0.00    -0.014 A 
ATOM     66  C   UNL A   1      43.650  24.836  34.292  1.00  0.00     0.009 A 
ATOM     67  C   UNL A   1      45.842  25.828  34.286  1.00  0.00     0.009 A 
ATOM     68  C   UNL A   1      43.915  24.284  35.553  1.00  0.00     0.001 A 
ATOM     69  C   UNL A   1      46.104  25.281  35.545  1.00  0.00     0.001 A 
ATOM     70  C   UNL A   1      45.146  24.495  36.173  1.00  0.00     0.000 A 
ENDBRANCH  46  65
BRANCH  58  71
ATOM     71  C   UNL A   1      45.599  28.463  28.143  1.00  0.00    -0.014 A 
ATOM     72  C   UNL A   1      45.967  27.184  27.685  1.00  0.00     0.009 A 
ATOM     73  C   UNL A   1      46.505  29.517  27.962  1.00  0.00     0.009 A 
ATOM     74  C   UNL A   1      47.217  26.963  27.097  1.00  0.00     0.001 A 
ATOM     75  C   UNL A   1      47.745  29.301  27.356  1.00  0.00     0.001 A 
ATOM     76  C   UNL A   1      48.104  28.023  26.929  1.00  0.00     0.000 A 
ENDBRANCH  58  71
ENDBRANCH  32  33
ENDBRANCH  25  27
ENDBRANCH  24  25
ENDBRANCH  23  24
ENDBRANCH   1  23
TORSDOF 14
ENDMDL
MODEL 3
REMARK VINA RESULT:     -10.7      3.033      5.442
REMARK SMILES O=C(Cn1cnc(-c2ccccc2)c1-c1ccccc1)OCCOC(=O)c1ccc(-c2c3nc(c(-c4ccccc4)c4ccc([nH]4)c(-c4ccccc4)c4nc(c(-c5ccccc5)c5ccc2[nH]5)C=C4)C=C3)cc1
REMARK SMILES IDX 22 1 21 2 2 3 1 4 3 5 4 6 5 7 14 8 6 9 7 10 15 11 16 12
REMARK SMILES IDX 20 13 17 14 19 15 18 16 8 17 9 18 13 19 10 20 12 21 11 22
REMARK SMILES IDX 23 23 24 24 25 25 26 26 27 27 28 28 74 29 29 30 73 31 30 32
REMARK SMILES IDX 31 33 32 34 67 35 33 36 72 37 66 38 68 39 34 40 71 41 65 42
REMARK SMILES IDX 64 43 35 45 57 46 42 47 56 48 43 49 46 50 55 51 69 52 44 53
REMARK SMILES IDX 45 54 54 56 70 57 47 58 36 59 37 60 41 61 38 62 40 63 39 64
REMARK SMILES IDX 58 65 59 66 63 67 60 68 62 69 61 70 48 71 49 72 53 73 50 74
REMARK SMILES IDX 52 75 51 76
REMARK H PARENT 68 44 46 55
REMARK Flexibility Score: inf
ROOT
ATOM      1  C   UNL A   1      36.719  34.294  32.455  1.00  0.00     0.274 C 
ENDROOT
BRANCH   1   2
ATOM      2  O   UNL A   1      35.539  34.547  31.663  1.00  0.00    -0.461 OA
BRANCH   2   3
ATOM      3  C   UNL A   1      34.863  33.682  30.870  1.00  0.00     0.326 C 
ATOM      4  O   UNL A   1      34.064  32.906  31.392  1.00  0.00    -0.250 OA
BRANCH   3   5
ATOM      5  C   UNL A   1      35.135  33.631  29.386  1.00  0.00     0.246 C 
BRANCH   5   6
ATOM      6  N   UNL A   1      34.294  32.723  28.635  1.00  0.00    -0.319 N 
ATOM      7  C   UNL A   1      33.272  33.146  27.825  1.00  0.00     0.201 A 
ATOM      8  C   UNL A   1      34.502  31.386  28.371  1.00  0.00     0.076 A 
ATOM      9  N   UNL A   1      32.660  32.145  27.252  1.00  0.00    -0.236 NA
ATOM     10  C   UNL A   1      33.384  31.040  27.618  1.00  0.00     0.096 A 
BRANCH   8  11
ATOM     11  C   UNL A   1      35.703  30.617  28.705  1.00  0.00     0.000 A 
ATOM     12  C   UNL A   1      36.686  30.423  27.721  1.00  0.00     0.010 A 
ATOM     13  C   UNL A   1      35.905  30.062  29.970  1.00  0.00     0.010 A 
ATOM     14  C   UNL A   1      37.849  29.704  28.003  1.00  0.00     0.001 A 
ATOM     15  C   UNL A   1      37.080  29.362  30.260  1.00  0.00     0.001 A 
ATOM     16  C   UNL A   1      38.050  29.180  29.276  1.00  0.00     0.000 A 
ENDBRANCH   8  11
BRANCH  10  17
ATOM     17  C   UNL A   1      33.033  29.708  27.182  1.00  0.00     0.002 A 
ATOM     18  C   UNL A   1      31.827  29.134  27.597  1.00  0.00     0.010 A 
ATOM     19  C   UNL A   1      33.906  28.980  26.366  1.00  0.00     0.010 A 
ATOM     20  C   UNL A   1      31.484  27.851  27.169  1.00  0.00     0.001 A 
ATOM     21  C   UNL A   1      33.565  27.697  25.946  1.00  0.00     0.001 A 
ATOM     22  C   UNL A   1      32.352  27.136  26.344  1.00  0.00     0.000 A 
ENDBRANCH  10  17
ENDBRANCH   5   6
ENDBRANCH   3   5
ENDBRANCH   2   3
ENDBRANCH   1   2
BRANCH   1  23
ATOM     23  C   UNL A   1      37.367  32.951  32.142  1.00  0.00     0.275 C 
BRANCH  23  24
ATOM     24  O   UNL A   1      38.716  33.146  31.735  1.00  0.00    -0.458 OA
BRANCH  24  25
ATOM     25  C   UNL A   1      39.085  32.570  30.561  1.00  0.00     0.338 C 
ATOM     26  O   UNL A   1      38.607  32.737  29.474  1.00  0.00    -0.246 OA
BRANCH  25  27
ATOM     27  C   UNL A   1      40.202  31.661  30.881  1.00  0.00     0.060 A 
ATOM     28  C   UNL A   1      41.260  31.623  29.977  1.00  0.00     0.016 A 
ATOM     29  C   UNL A   1      40.069  30.723  31.921  1.00  0.00     0.016 A 
ATOM     30  C   UNL A   1      42.004  30.468  29.921  1.00  0.00     0.010 A 
ATOM     31  C   UNL A   1      40.806  29.573  31.864  1.00  0.00     0.010 A 
ATOM     32  C   UNL A   1      41.661  29.421  30.781  1.00  0.00    -0.014 A 
BRANCH  32  33
ATOM     33  C   UNL A   1      42.130  28.098  30.461  1.00  0.00     0.031 A 
ATOM     34  C   UNL A   1      42.965  27.490  31.505  1.00  0.00     0.074 A 
ATOM     35  C   UNL A   1      41.734  27.481  29.333  1.00  0.00     0.049 A 
ATOM     36  N   UNL A   1      44.233  27.263  31.455  1.00  0.00    -0.248 NA
ATOM     37  C   UNL A   1      42.346  27.251  32.817  1.00  0.00     0.031 C 
ATOM     38  C   UNL A   1      40.681  27.883  28.392  1.00  0.00     0.029 A 
ATOM     39  N   UNL A   1      42.127  26.275  28.854  1.00  0.00    -0.354 N 
ATOM     40  C   UNL A   1      44.541  26.660  32.665  1.00  0.00     0.074 A 
ATOM     41  C   UNL A   1      43.403  26.864  33.528  1.00  0.00     0.031 C 
ATOM     42  C   UNL A   1      40.363  26.828  27.606  1.00  0.00     0.029 A 
ATOM     43  C   UNL A   1      41.278  25.737  27.900  1.00  0.00     0.049 A 
ATOM     44  H   UNL A   1      42.945  25.821  29.158  1.00  0.00     0.167 HD
ATOM     45  C   UNL A   1      45.576  25.787  32.770  1.00  0.00     0.031 A 
ATOM     46  C   UNL A   1      41.289  24.455  27.459  1.00  0.00     0.031 A 
ATOM     47  C   UNL A   1      46.486  25.893  31.659  1.00  0.00     0.049 A 
ATOM     48  C   UNL A   1      42.611  23.876  27.805  1.00  0.00     0.074 A 
ATOM     49  C   UNL A   1      47.263  26.907  31.133  1.00  0.00     0.029 A 
ATOM     50  N   UNL A   1      46.385  24.943  30.669  1.00  0.00    -0.354 N 
ATOM     51  N   UNL A   1      43.726  24.264  27.256  1.00  0.00    -0.248 NA
ATOM     52  C   UNL A   1      42.753  23.206  29.090  1.00  0.00     0.031 C 
ATOM     53  C   UNL A   1      47.190  26.734  29.719  1.00  0.00     0.029 A 
ATOM     54  C   UNL A   1      46.423  25.595  29.464  1.00  0.00     0.049 A 
ATOM     55  H   UNL A   1      46.302  23.971  30.802  1.00  0.00     0.167 HD
ATOM     56  C   UNL A   1      44.646  24.291  28.296  1.00  0.00     0.074 A 
ATOM     57  C   UNL A   1      44.018  23.531  29.375  1.00  0.00     0.031 C 
ATOM     58  C   UNL A   1      45.693  25.170  28.288  1.00  0.00     0.031 A 
BRANCH  45  59
ATOM     59  C   UNL A   1      45.502  24.557  33.636  1.00  0.00    -0.014 A 
ATOM     60  C   UNL A   1      44.561  23.567  33.319  1.00  0.00     0.009 A 
ATOM     61  C   UNL A   1      46.120  24.468  34.900  1.00  0.00     0.009 A 
ATOM     62  C   UNL A   1      44.210  22.581  34.248  1.00  0.00     0.001 A 
ATOM     63  C   UNL A   1      45.806  23.460  35.811  1.00  0.00     0.001 A 
ATOM     64  C   UNL A   1      44.828  22.532  35.495  1.00  0.00     0.000 A 
ENDBRANCH  45  59
BRANCH  46  65
ATOM     65  C   UNL A   1      40.129  23.620  27.077  1.00  0.00    -0.014 A 
ATOM     66  C   UNL A   1      38.892  24.204  26.764  1.00  0.00     0.009 A 
ATOM     67  C   UNL A   1      40.310  22.261  26.759  1.00  0.00     0.009 A 
ATOM     68  C   UNL A   1      37.888  23.460  26.127  1.00  0.00     0.001 A 
ATOM     69  C   UNL A   1      39.308  21.519  26.127  1.00  0.00     0.001 A 
ATOM     70  C   UNL A   1      38.101  22.123  25.797  1.00  0.00     0.000 A 
ENDBRANCH  46  65
BRANCH  58  71
ATOM     71  C   UNL A   1      45.939  25.955  27.022  1.00  0.00    -0.014 A 
ATOM     72  C   UNL A   1      45.326  27.194  26.760  1.00  0.00     0.009 A 
ATOM     73  C   UNL A   1      46.931  25.508  26.138  1.00  0.00     0.009 A 
ATOM     74  C   UNL A   1      45.672  27.944  25.630  1.00  0.00     0.001 A 
ATOM     75  C   UNL A   1      47.292  26.266  25.022  1.00  0.00     0.001 A 
ATOM     76  C   UNL A   1      46.658  27.480  24.764  1.00  0.00     0.000 A 
ENDBRANCH  58  71
ENDBRANCH  32  33
ENDBRANCH  25  27
ENDBRANCH  24  25
ENDBRANCH  23  24
ENDBRANCH   1  23
TORSDOF 14
ENDMDL
