MODEL 1
REMARK VINA RESULT:     -12.8      0.000      0.000
REMARK SMILES O=C(OCCOC(=O)[C@@H]1CC2(CC[NH2+]CC2)C[N@@H+]1Cc1cccc2nonc12)c1ccc(-c2c3nc(c(-c4ccccc4)c4ccc([nH]4)c(-c4ccccc4)c4nc(c(-c5ccccc5)c5ccc2[nH]5)C=C4)C=C3)cc1
REMARK SMILES IDX 4 1 3 2 2 3 1 4 29 5 30 6 76 7 31 8 75 9 32 10 33 11 34 12
REMARK SMILES IDX 69 13 35 14 74 15 68 16 70 17 36 18 73 19 67 20 66 21 37 23
REMARK SMILES IDX 59 24 44 25 58 26 45 27 48 28 57 29 71 30 46 31 47 32 56 34
REMARK SMILES IDX 72 35 49 36 38 37 39 38 43 39 40 40 42 41 41 42 60 43 61 44
REMARK SMILES IDX 65 45 62 46 64 47 63 48 50 49 51 50 55 51 52 52 54 53 53 54
REMARK SMILES IDX 5 55 6 56 7 57 8 58 9 59 10 60 18 61 11 62 17 63 12 65 16 66
REMARK SMILES IDX 13 67 15 68 14 69 19 72 20 73 21 74 28 75 22 76 24 77 27 78
REMARK SMILES IDX 23 79 25 80 26 81
REMARK H PARENT 70 22 48 33 18 64 14 70 14 71
REMARK Flexibility Score: inf
ROOT
ATOM      1  C   UNL A   1      32.824  29.818  25.517  1.00  0.00     0.275 C 
ENDROOT
BRANCH   1   2
ATOM      2  O   UNL A   1      33.565  29.769  26.731  1.00  0.00    -0.458 OA
BRANCH   2   3
ATOM      3  C   UNL A   1      33.390  30.926  27.343  1.00  0.00     0.338 C 
ATOM      4  O   UNL A   1      32.596  31.781  27.005  1.00  0.00    -0.246 OA
BRANCH   3   5
ATOM      5  C   UNL A   1      34.608  31.213  28.100  1.00  0.00     0.060 A 
ATOM      6  C   UNL A   1      35.870  30.411  27.467  1.00  0.00     0.016 A 
ATOM      7  C   UNL A   1      34.842  31.940  29.522  1.00  0.00     0.016 A 
ATOM      8  C   UNL A   1      37.650  30.203  28.389  1.00  0.00     0.010 A 
ATOM      9  C   UNL A   1      36.335  31.887  30.374  1.00  0.00     0.010 A 
ATOM     10  C   UNL A   1      37.786  31.024  29.931  1.00  0.00    -0.014 A 
BRANCH  10  11
ATOM     11  C   UNL A   1      38.920  30.835  30.922  1.00  0.00     0.031 A 
ATOM     12  C   UNL A   1      39.484  29.438  30.694  1.00  0.00     0.074 A 
ATOM     13  C   UNL A   1      39.858  31.774  31.254  1.00  0.00     0.049 A 
ATOM     14  N   UNL A   1      40.213  29.126  29.657  1.00  0.00    -0.248 NA
ATOM     15  C   UNL A   1      38.850  28.271  31.312  1.00  0.00     0.031 C 
ATOM     16  C   UNL A   1      40.607  32.641  30.329  1.00  0.00     0.029 A 
ATOM     17  N   UNL A   1      40.580  31.881  32.459  1.00  0.00    -0.354 N 
ATOM     18  C   UNL A   1      39.972  27.782  29.362  1.00  0.00     0.074 A 
ATOM     19  C   UNL A   1      39.126  27.297  30.425  1.00  0.00     0.031 C 
ATOM     20  C   UNL A   1      41.741  33.069  30.926  1.00  0.00     0.029 A 
ATOM     21  C   UNL A   1      41.809  32.560  32.293  1.00  0.00     0.049 A 
ATOM     22  H   UNL A   1      40.264  31.524  33.320  1.00  0.00     0.167 HD
ATOM     23  C   UNL A   1      40.421  27.184  28.215  1.00  0.00     0.031 A 
ATOM     24  C   UNL A   1      42.961  32.195  32.944  1.00  0.00     0.031 A 
ATOM     25  C   UNL A   1      41.359  27.972  27.463  1.00  0.00     0.049 A 
ATOM     26  C   UNL A   1      43.522  31.171  31.990  1.00  0.00     0.074 A 
ATOM     27  C   UNL A   1      41.645  28.436  26.200  1.00  0.00     0.029 A 
ATOM     28  N   UNL A   1      42.439  28.359  28.208  1.00  0.00    -0.354 N 
ATOM     29  N   UNL A   1      44.101  31.397  30.837  1.00  0.00    -0.248 NA
ATOM     30  C   UNL A   1      43.004  29.818  32.153  1.00  0.00     0.031 C 
ATOM     31  C   UNL A   1      42.664  29.439  26.382  1.00  0.00     0.029 A 
ATOM     32  C   UNL A   1      42.966  29.515  27.744  1.00  0.00     0.049 A 
ATOM     33  H   UNL A   1      42.787  27.860  28.981  1.00  0.00     0.167 HD
ATOM     34  C   UNL A   1      43.679  30.351  30.004  1.00  0.00     0.074 A 
ATOM     35  C   UNL A   1      43.073  29.385  30.903  1.00  0.00     0.031 C 
ATOM     36  C   UNL A   1      43.665  30.431  28.633  1.00  0.00     0.031 A 
BRANCH  23  37
ATOM     37  C   UNL A   1      40.318  25.726  27.975  1.00  0.00    -0.014 A 
ATOM     38  C   UNL A   1      39.253  25.086  27.331  1.00  0.00     0.009 A 
ATOM     39  C   UNL A   1      41.447  24.970  28.331  1.00  0.00     0.009 A 
ATOM     40  C   UNL A   1      39.325  23.708  27.068  1.00  0.00     0.001 A 
ATOM     41  C   UNL A   1      41.519  23.607  28.068  1.00  0.00     0.001 A 
ATOM     42  C   UNL A   1      40.454  22.972  27.438  1.00  0.00     0.000 A 
ENDBRANCH  23  37
BRANCH  24  43
ATOM     43  C   UNL A   1      42.824  31.996  34.430  1.00  0.00    -0.014 A 
ATOM     44  C   UNL A   1      43.233  30.878  35.172  1.00  0.00     0.009 A 
ATOM     45  C   UNL A   1      42.109  32.991  35.126  1.00  0.00     0.009 A 
ATOM     46  C   UNL A   1      42.737  30.647  36.464  1.00  0.00     0.001 A 
ATOM     47  C   UNL A   1      41.635  32.778  36.425  1.00  0.00     0.001 A 
ATOM     48  C   UNL A   1      41.900  31.577  37.071  1.00  0.00     0.000 A 
ENDBRANCH  24  43
BRANCH  36  49
ATOM     49  C   UNL A   1      44.368  31.586  27.988  1.00  0.00    -0.014 A 
ATOM     50  C   UNL A   1      43.662  32.735  27.589  1.00  0.00     0.009 A 
ATOM     51  C   UNL A   1      45.685  31.417  27.552  1.00  0.00     0.009 A 
ATOM     52  C   UNL A   1      44.223  33.627  26.673  1.00  0.00     0.001 A 
ATOM     53  C   UNL A   1      46.252  32.319  26.655  1.00  0.00     0.001 A 
ATOM     54  C   UNL A   1      45.509  33.402  26.188  1.00  0.00     0.000 A 
ENDBRANCH  36  49
ENDBRANCH  10  11
ENDBRANCH   3   5
ENDBRANCH   2   3
ENDBRANCH   1   2
BRANCH   1  55
ATOM     55  C   UNL A   1      32.543  28.448  24.740  1.00  0.00     0.274 C 
BRANCH  55  56
ATOM     56  O   UNL A   1      32.249  27.228  25.547  1.00  0.00    -0.458 OA
BRANCH  56  57
ATOM     57  C   UNL A   1      31.434  26.732  26.542  1.00  0.00     0.365 C 
ATOM     58  O   UNL A   1      31.455  27.159  27.684  1.00  0.00    -0.245 OA
BRANCH  57  59
ATOM     59  C   UNL A   1      30.666  25.368  26.035  1.00  0.00     0.296 C 
ATOM     60  C   UNL A   1      31.792  24.008  26.938  1.00  0.00     0.091 C 
ATOM     61  N   UNL A   1      30.364  24.825  24.252  1.00  0.00    -0.319 N 
ATOM     62  C   UNL A   1      32.459  22.566  25.339  1.00  0.00     0.036 C 
ATOM     63  C   UNL A   1      31.353  23.276  23.765  1.00  0.00     0.270 C 
ATOM     64  H   UNL A   1      29.380  24.557  24.278  1.00  0.00     0.349 HD
ATOM     65  C   UNL A   1      32.198  20.901  25.064  1.00  0.00     0.074 C 
ATOM     66  C   UNL A   1      34.056  22.433  24.580  1.00  0.00     0.074 C 
ATOM     67  C   UNL A   1      33.279  19.914  25.579  1.00  0.00     0.261 C 
ATOM     68  C   UNL A   1      35.052  21.494  25.298  1.00  0.00     0.261 C 
ATOM     69  N   UNL A   1      34.649  20.115  25.115  1.00  0.00    -0.346 N 
ATOM     70  H   UNL A   1      34.707  19.878  24.125  1.00  0.00     0.346 HD
ATOM     71  H   UNL A   1      35.271  19.516  25.658  1.00  0.00     0.346 HD
BRANCH  61  72
ATOM     72  C   UNL A   1      30.345  25.886  23.195  1.00  0.00     0.302 C 
BRANCH  72  73
ATOM     73  C   UNL A   1      29.328  27.016  23.242  1.00  0.00     0.038 A 
ATOM     74  C   UNL A   1      28.047  26.919  23.873  1.00  0.00     0.012 A 
ATOM     75  C   UNL A   1      29.495  28.262  22.584  1.00  0.00     0.144 A 
ATOM     76  C   UNL A   1      26.997  27.882  23.733  1.00  0.00     0.003 A 
ATOM     77  C   UNL A   1      28.420  29.246  22.434  1.00  0.00     0.135 A 
ATOM     78  N   UNL A   1      30.583  28.758  21.983  1.00  0.00    -0.049 NA
ATOM     79  C   UNL A   1      27.139  29.069  22.989  1.00  0.00     0.034 A 
ATOM     80  N   UNL A   1      28.864  30.245  21.662  1.00  0.00    -0.050 NA
ATOM     81  O   UNL A   1      30.177  29.922  21.356  1.00  0.00    -0.243 OA
ENDBRANCH  72  73
ENDBRANCH  61  72
ENDBRANCH  57  59
ENDBRANCH  56  57
ENDBRANCH  55  56
ENDBRANCH   1  55
TORSDOF 13
ENDMDL
MODEL 2
REMARK VINA RESULT:     -12.3      4.558      8.757
REMARK SMILES O=C(OCCOC(=O)[C@@H]1CC2(CC[NH2+]CC2)C[N@@H+]1Cc1cccc2nonc12)c1ccc(-c2c3nc(c(-c4ccccc4)c4ccc([nH]4)c(-c4ccccc4)c4nc(c(-c5ccccc5)c5ccc2[nH]5)C=C4)C=C3)cc1
REMARK SMILES IDX 4 1 3 2 2 3 1 4 29 5 30 6 76 7 31 8 75 9 32 10 33 11 34 12
REMARK SMILES IDX 69 13 35 14 74 15 68 16 70 17 36 18 73 19 67 20 66 21 37 23
REMARK SMILES IDX 59 24 44 25 58 26 45 27 48 28 57 29 71 30 46 31 47 32 56 34
REMARK SMILES IDX 72 35 49 36 38 37 39 38 43 39 40 40 42 41 41 42 60 43 61 44
REMARK SMILES IDX 65 45 62 46 64 47 63 48 50 49 51 50 55 51 52 52 54 53 53 54
REMARK SMILES IDX 5 55 6 56 7 57 8 58 9 59 10 60 18 61 11 62 17 63 12 65 16 66
REMARK SMILES IDX 13 67 15 68 14 69 19 72 20 73 21 74 28 75 22 76 24 77 27 78
REMARK SMILES IDX 23 79 25 80 26 81
REMARK H PARENT 70 22 48 33 18 64 14 70 14 71
REMARK Flexibility Score: inf
ROOT
ATOM      1  C   UNL A   1      42.604  25.955  26.069  1.00  0.00     0.275 C 
ENDROOT
BRANCH   1   2
ATOM      2  O   UNL A   1      41.555  26.626  25.380  1.00  0.00    -0.458 OA
BRANCH   2   3
ATOM      3  C   UNL A   1      41.772  27.922  25.502  1.00  0.00     0.338 C 
ATOM      4  O   UNL A   1      42.600  28.553  24.876  1.00  0.00    -0.246 OA
BRANCH   3   5
ATOM      5  C   UNL A   1      41.274  28.331  26.816  1.00  0.00     0.060 A 
ATOM      6  C   UNL A   1      39.702  27.955  26.967  1.00  0.00     0.016 A 
ATOM      7  C   UNL A   1      41.916  29.267  27.963  1.00  0.00     0.016 A 
ATOM      8  C   UNL A   1      38.512  28.655  28.435  1.00  0.00     0.010 A 
ATOM      9  C   UNL A   1      41.017  29.874  29.298  1.00  0.00     0.010 A 
ATOM     10  C   UNL A   1      39.313  29.671  29.618  1.00  0.00    -0.014 A 
BRANCH  10  11
ATOM     11  C   UNL A   1      38.608  30.502  30.672  1.00  0.00     0.031 A 
ATOM     12  C   UNL A   1      39.044  29.966  32.030  1.00  0.00     0.074 A 
ATOM     13  C   UNL A   1      38.426  31.858  30.634  1.00  0.00     0.049 A 
ATOM     14  N   UNL A   1      40.233  30.173  32.528  1.00  0.00    -0.248 NA
ATOM     15  C   UNL A   1      38.381  28.798  32.616  1.00  0.00     0.031 C 
ATOM     16  C   UNL A   1      39.434  32.874  30.286  1.00  0.00     0.029 A 
ATOM     17  N   UNL A   1      37.403  32.607  31.246  1.00  0.00    -0.354 N 
ATOM     18  C   UNL A   1      40.557  29.069  33.320  1.00  0.00     0.074 A 
ATOM     19  C   UNL A   1      39.369  28.250  33.347  1.00  0.00     0.031 C 
ATOM     20  C   UNL A   1      39.071  34.068  30.805  1.00  0.00     0.029 A 
ATOM     21  C   UNL A   1      37.787  33.946  31.491  1.00  0.00     0.049 A 
ATOM     22  H   UNL A   1      36.519  32.241  31.477  1.00  0.00     0.167 HD
ATOM     23  C   UNL A   1      41.810  28.867  33.831  1.00  0.00     0.031 A 
ATOM     24  C   UNL A   1      37.428  34.634  32.623  1.00  0.00     0.031 A 
ATOM     25  C   UNL A   1      42.695  29.992  33.696  1.00  0.00     0.049 A 
ATOM     26  C   UNL A   1      38.546  34.255  33.561  1.00  0.00     0.074 A 
ATOM     27  C   UNL A   1      43.957  30.359  33.289  1.00  0.00     0.029 A 
ATOM     28  N   UNL A   1      42.178  31.136  34.240  1.00  0.00    -0.354 N 
ATOM     29  N   UNL A   1      39.780  34.694  33.539  1.00  0.00    -0.248 NA
ATOM     30  C   UNL A   1      38.364  32.995  34.271  1.00  0.00     0.031 C 
ATOM     31  C   UNL A   1      43.935  31.799  33.225  1.00  0.00     0.029 A 
ATOM     32  C   UNL A   1      42.669  32.236  33.623  1.00  0.00     0.049 A 
ATOM     33  H   UNL A   1      41.534  31.156  34.983  1.00  0.00     0.167 HD
ATOM     34  C   UNL A   1      40.569  33.589  33.890  1.00  0.00     0.074 A 
ATOM     35  C   UNL A   1      39.624  32.608  34.398  1.00  0.00     0.031 C 
ATOM     36  C   UNL A   1      41.895  33.467  33.557  1.00  0.00     0.031 A 
BRANCH  23  37
ATOM     37  C   UNL A   1      42.118  27.796  34.807  1.00  0.00    -0.014 A 
ATOM     38  C   UNL A   1      41.731  27.791  36.152  1.00  0.00     0.009 A 
ATOM     39  C   UNL A   1      42.748  26.656  34.280  1.00  0.00     0.009 A 
ATOM     40  C   UNL A   1      41.993  26.664  36.948  1.00  0.00     0.001 A 
ATOM     41  C   UNL A   1      43.003  25.540  35.068  1.00  0.00     0.001 A 
ATOM     42  C   UNL A   1      42.629  25.543  36.406  1.00  0.00     0.000 A 
ENDBRANCH  23  37
BRANCH  24  43
ATOM     43  C   UNL A   1      35.964  34.580  32.970  1.00  0.00    -0.014 A 
ATOM     44  C   UNL A   1      35.238  33.455  33.392  1.00  0.00     0.009 A 
ATOM     45  C   UNL A   1      35.227  35.758  32.739  1.00  0.00     0.009 A 
ATOM     46  C   UNL A   1      33.837  33.436  33.335  1.00  0.00     0.001 A 
ATOM     47  C   UNL A   1      33.829  35.752  32.710  1.00  0.00     0.001 A 
ATOM     48  C   UNL A   1      33.135  34.573  32.949  1.00  0.00     0.000 A 
ENDBRANCH  24  43
BRANCH  36  49
ATOM     49  C   UNL A   1      42.600  34.674  33.019  1.00  0.00    -0.014 A 
ATOM     50  C   UNL A   1      42.720  34.889  31.635  1.00  0.00     0.009 A 
ATOM     51  C   UNL A   1      43.359  35.458  33.894  1.00  0.00     0.009 A 
ATOM     52  C   UNL A   1      43.673  35.779  31.138  1.00  0.00     0.001 A 
ATOM     53  C   UNL A   1      44.294  36.363  33.397  1.00  0.00     0.001 A 
ATOM     54  C   UNL A   1      44.477  36.497  32.020  1.00  0.00     0.000 A 
ENDBRANCH  36  49
ENDBRANCH  10  11
ENDBRANCH   3   5
ENDBRANCH   2   3
ENDBRANCH   1   2
BRANCH   1  55
ATOM     55  C   UNL A   1      42.317  25.399  27.541  1.00  0.00     0.274 C 
BRANCH  55  56
ATOM     56  O   UNL A   1      41.107  24.551  27.750  1.00  0.00    -0.458 OA
BRANCH  56  57
ATOM     57  C   UNL A   1      39.739  24.516  27.577  1.00  0.00     0.365 C 
ATOM     58  O   UNL A   1      38.955  24.787  28.472  1.00  0.00    -0.245 OA
BRANCH  57  59
ATOM     59  C   UNL A   1      39.356  23.828  26.133  1.00  0.00     0.296 C 
ATOM     60  C   UNL A   1      37.477  24.439  25.972  1.00  0.00     0.091 C 
ATOM     61  N   UNL A   1      39.444  21.996  25.684  1.00  0.00    -0.319 N 
ATOM     62  C   UNL A   1      36.232  22.593  25.614  1.00  0.00     0.036 C 
ATOM     63  C   UNL A   1      37.734  21.212  25.404  1.00  0.00     0.270 C 
ATOM     64  H   UNL A   1      39.913  22.023  24.779  1.00  0.00     0.349 HD
ATOM     65  C   UNL A   1      35.253  22.060  24.321  1.00  0.00     0.074 C 
ATOM     66  C   UNL A   1      35.172  21.748  26.756  1.00  0.00     0.074 C 
ATOM     67  C   UNL A   1      33.732  22.352  24.409  1.00  0.00     0.261 C 
ATOM     68  C   UNL A   1      33.711  22.253  26.797  1.00  0.00     0.261 C 
ATOM     69  N   UNL A   1      33.019  21.864  25.586  1.00  0.00    -0.346 N 
ATOM     70  H   UNL A   1      32.962  20.846  25.546  1.00  0.00     0.346 HD
ATOM     71  H   UNL A   1      32.084  22.270  25.596  1.00  0.00     0.346 HD
BRANCH  61  72
ATOM     72  C   UNL A   1      40.382  21.131  26.469  1.00  0.00     0.302 C 
BRANCH  72  73
ATOM     73  C   UNL A   1      41.849  21.025  26.085  1.00  0.00     0.038 A 
ATOM     74  C   UNL A   1      42.695  22.149  25.821  1.00  0.00     0.012 A 
ATOM     75  C   UNL A   1      42.522  19.796  25.852  1.00  0.00     0.144 A 
ATOM     76  C   UNL A   1      44.002  22.064  25.242  1.00  0.00     0.003 A 
ATOM     77  C   UNL A   1      43.857  19.708  25.255  1.00  0.00     0.135 A 
ATOM     78  N   UNL A   1      42.102  18.548  26.089  1.00  0.00    -0.049 NA
ATOM     79  C   UNL A   1      44.620  20.841  24.918  1.00  0.00     0.034 A 
ATOM     80  N   UNL A   1      44.147  18.416  25.056  1.00  0.00    -0.050 NA
ATOM     81  O   UNL A   1      43.053  17.712  25.533  1.00  0.00    -0.243 OA
ENDBRANCH  72  73
ENDBRANCH  61  72
ENDBRANCH  57  59
ENDBRANCH  56  57
ENDBRANCH  55  56
ENDBRANCH   1  55
TORSDOF 13
ENDMDL
MODEL 3
REMARK VINA RESULT:     -12.3      3.033      7.926
REMARK SMILES O=C(OCCOC(=O)[C@@H]1CC2(CC[NH2+]CC2)C[N@@H+]1Cc1cccc2nonc12)c1ccc(-c2c3nc(c(-c4ccccc4)c4ccc([nH]4)c(-c4ccccc4)c4nc(c(-c5ccccc5)c5ccc2[nH]5)C=C4)C=C3)cc1
REMARK SMILES IDX 4 1 3 2 2 3 1 4 29 5 30 6 76 7 31 8 75 9 32 10 33 11 34 12
REMARK SMILES IDX 69 13 35 14 74 15 68 16 70 17 36 18 73 19 67 20 66 21 37 23
REMARK SMILES IDX 59 24 44 25 58 26 45 27 48 28 57 29 71 30 46 31 47 32 56 34
REMARK SMILES IDX 72 35 49 36 38 37 39 38 43 39 40 40 42 41 41 42 60 43 61 44
REMARK SMILES IDX 65 45 62 46 64 47 63 48 50 49 51 50 55 51 52 52 54 53 53 54
REMARK SMILES IDX 5 55 6 56 7 57 8 58 9 59 10 60 18 61 11 62 17 63 12 65 16 66
REMARK SMILES IDX 13 67 15 68 14 69 19 72 20 73 21 74 28 75 22 76 24 77 27 78
REMARK SMILES IDX 23 79 25 80 26 81
REMARK H PARENT 70 22 48 33 18 64 14 70 14 71
REMARK Flexibility Score: inf
ROOT
ATOM      1  C   UNL A   1      38.920  21.579  25.818  1.00  0.00     0.275 C 
ENDROOT
BRANCH   1   2
ATOM      2  O   UNL A   1      40.169  20.897  25.764  1.00  0.00    -0.458 OA
BRANCH   2   3
ATOM      3  C   UNL A   1      40.782  21.113  26.913  1.00  0.00     0.338 C 
ATOM      4  O   UNL A   1      40.779  20.353  27.861  1.00  0.00    -0.246 OA
BRANCH   3   5
ATOM      5  C   UNL A   1      40.983  22.557  27.040  1.00  0.00     0.060 A 
ATOM      6  C   UNL A   1      41.959  23.099  25.862  1.00  0.00     0.016 A 
ATOM      7  C   UNL A   1      40.631  23.588  28.232  1.00  0.00     0.016 A 
ATOM      8  C   UNL A   1      42.809  24.927  25.855  1.00  0.00     0.010 A 
ATOM      9  C   UNL A   1      41.245  25.193  28.302  1.00  0.00     0.010 A 
ATOM     10  C   UNL A   1      42.364  25.956  27.202  1.00  0.00    -0.014 A 
BRANCH  10  11
ATOM     11  C   UNL A   1      43.036  27.270  27.552  1.00  0.00     0.031 A 
ATOM     12  C   UNL A   1      41.941  28.326  27.631  1.00  0.00     0.074 A 
ATOM     13  C   UNL A   1      44.045  27.437  28.462  1.00  0.00     0.049 A 
ATOM     14  N   UNL A   1      41.086  28.393  28.615  1.00  0.00    -0.248 NA
ATOM     15  C   UNL A   1      41.456  28.985  26.415  1.00  0.00     0.031 C 
ATOM     16  C   UNL A   1      44.115  26.863  29.817  1.00  0.00     0.029 A 
ATOM     17  N   UNL A   1      45.030  28.443  28.481  1.00  0.00    -0.354 N 
ATOM     18  C   UNL A   1      39.891  28.904  28.102  1.00  0.00     0.074 A 
ATOM     19  C   UNL A   1      40.179  29.263  26.734  1.00  0.00     0.031 C 
ATOM     20  C   UNL A   1      44.961  27.595  30.576  1.00  0.00     0.029 A 
ATOM     21  C   UNL A   1      45.542  28.673  29.779  1.00  0.00     0.049 A 
ATOM     22  H   UNL A   1      45.330  28.931  27.681  1.00  0.00     0.167 HD
ATOM     23  C   UNL A   1      38.725  28.919  28.819  1.00  0.00     0.031 A 
ATOM     24  C   UNL A   1      45.857  29.922  30.251  1.00  0.00     0.031 A 
ATOM     25  C   UNL A   1      38.879  28.597  30.211  1.00  0.00     0.049 A 
ATOM     26  C   UNL A   1      44.529  30.363  30.813  1.00  0.00     0.074 A 
ATOM     27  C   UNL A   1      38.377  27.813  31.224  1.00  0.00     0.029 A 
ATOM     28  N   UNL A   1      39.791  29.401  30.840  1.00  0.00    -0.354 N 
ATOM     29  N   UNL A   1      43.965  29.955  31.922  1.00  0.00    -0.248 NA
ATOM     30  C   UNL A   1      43.612  30.960  29.851  1.00  0.00     0.031 C 
ATOM     31  C   UNL A   1      39.338  27.908  32.294  1.00  0.00     0.029 A 
ATOM     32  C   UNL A   1      40.362  28.768  31.890  1.00  0.00     0.049 A 
ATOM     33  H   UNL A   1      40.003  30.322  30.563  1.00  0.00     0.167 HD
ATOM     34  C   UNL A   1      42.594  29.892  31.634  1.00  0.00     0.074 A 
ATOM     35  C   UNL A   1      42.450  30.596  30.371  1.00  0.00     0.031 C 
ATOM     36  C   UNL A   1      41.709  29.103  32.327  1.00  0.00     0.031 A 
BRANCH  23  37
ATOM     37  C   UNL A   1      37.502  29.609  28.349  1.00  0.00    -0.014 A 
ATOM     38  C   UNL A   1      36.392  28.984  27.770  1.00  0.00     0.009 A 
ATOM     39  C   UNL A   1      37.435  30.985  28.628  1.00  0.00     0.009 A 
ATOM     40  C   UNL A   1      35.247  29.739  27.464  1.00  0.00     0.001 A 
ATOM     41  C   UNL A   1      36.300  31.730  28.330  1.00  0.00     0.001 A 
ATOM     42  C   UNL A   1      35.204  31.109  27.743  1.00  0.00     0.000 A 
ENDBRANCH  23  37
BRANCH  24  43
ATOM     43  C   UNL A   1      46.720  30.754  29.339  1.00  0.00    -0.014 A 
ATOM     44  C   UNL A   1      46.327  31.885  28.607  1.00  0.00     0.009 A 
ATOM     45  C   UNL A   1      48.027  30.278  29.117  1.00  0.00     0.009 A 
ATOM     46  C   UNL A   1      47.097  32.352  27.532  1.00  0.00     0.001 A 
ATOM     47  C   UNL A   1      48.811  30.760  28.064  1.00  0.00     0.001 A 
ATOM     48  C   UNL A   1      48.319  31.758  27.233  1.00  0.00     0.000 A 
ENDBRANCH  24  43
BRANCH  36  49
ATOM     49  C   UNL A   1      42.174  28.478  33.607  1.00  0.00    -0.014 A 
ATOM     50  C   UNL A   1      42.754  27.198  33.620  1.00  0.00     0.009 A 
ATOM     51  C   UNL A   1      41.799  29.064  34.819  1.00  0.00     0.009 A 
ATOM     52  C   UNL A   1      42.838  26.472  34.810  1.00  0.00     0.001 A 
ATOM     53  C   UNL A   1      41.905  28.349  36.010  1.00  0.00     0.001 A 
ATOM     54  C   UNL A   1      42.389  27.041  35.999  1.00  0.00     0.000 A 
ENDBRANCH  36  49
ENDBRANCH  10  11
ENDBRANCH   3   5
ENDBRANCH   2   3
ENDBRANCH   1   2
BRANCH   1  55
ATOM     55  C   UNL A   1      37.675  20.953  25.034  1.00  0.00     0.274 C 
BRANCH  55  56
ATOM     56  O   UNL A   1      36.586  21.872  24.590  1.00  0.00    -0.458 OA
BRANCH  56  57
ATOM     57  C   UNL A   1      35.567  22.678  25.049  1.00  0.00     0.365 C 
ATOM     58  O   UNL A   1      35.544  23.130  26.183  1.00  0.00    -0.245 OA
BRANCH  57  59
ATOM     59  C   UNL A   1      34.324  22.710  23.973  1.00  0.00     0.296 C 
ATOM     60  C   UNL A   1      34.286  24.652  23.578  1.00  0.00     0.091 C 
ATOM     61  N   UNL A   1      32.555  22.110  24.255  1.00  0.00    -0.319 N 
ATOM     62  C   UNL A   1      32.170  25.339  23.939  1.00  0.00     0.036 C 
ATOM     63  C   UNL A   1      31.282  23.522  24.282  1.00  0.00     0.270 C 
ATOM     64  H   UNL A   1      32.381  21.565  23.411  1.00  0.00     0.349 HD
ATOM     65  C   UNL A   1      30.953  25.999  22.939  1.00  0.00     0.074 C 
ATOM     66  C   UNL A   1      31.539  26.271  25.309  1.00  0.00     0.074 C 
ATOM     67  C   UNL A   1      30.823  27.544  22.898  1.00  0.00     0.261 C 
ATOM     68  C   UNL A   1      31.597  27.807  25.145  1.00  0.00     0.261 C 
ATOM     69  N   UNL A   1      30.619  28.237  24.167  1.00  0.00    -0.346 N 
ATOM     70  H   UNL A   1      29.683  28.029  24.517  1.00  0.00     0.346 HD
ATOM     71  H   UNL A   1      30.724  29.240  24.016  1.00  0.00     0.346 HD
BRANCH  61  72
ATOM     72  C   UNL A   1      32.332  21.076  25.316  1.00  0.00     0.302 C 
BRANCH  72  73
ATOM     73  C   UNL A   1      32.475  19.595  25.004  1.00  0.00     0.038 A 
ATOM     74  C   UNL A   1      32.767  18.592  25.982  1.00  0.00     0.012 A 
ATOM     75  C   UNL A   1      32.428  19.052  23.694  1.00  0.00     0.144 A 
ATOM     76  C   UNL A   1      33.127  17.240  25.676  1.00  0.00     0.003 A 
ATOM     77  C   UNL A   1      32.801  17.671  23.379  1.00  0.00     0.135 A 
ATOM     78  N   UNL A   1      32.081  19.648  22.547  1.00  0.00    -0.049 NA
ATOM     79  C   UNL A   1      33.178  16.738  24.362  1.00  0.00     0.034 A 
ATOM     80  N   UNL A   1      32.769  17.516  22.049  1.00  0.00    -0.050 NA
ATOM     81  O   UNL A   1      32.365  18.741  21.543  1.00  0.00    -0.243 OA
ENDBRANCH  72  73
ENDBRANCH  61  72
ENDBRANCH  57  59
ENDBRANCH  56  57
ENDBRANCH  55  56
ENDBRANCH   1  55
TORSDOF 13
ENDMDL
