MODEL 1
REMARK VINA RESULT:     -11.4      0.000      0.000
REMARK SMILES CC(C)(C)OC(=O)N[C@@H](Cc1c[nH]c2cccc(Cl)c12)C(=O)OCCOC(=O)c1ccc(-c2c3nc(c(-c4ccccc4)c4ccc([nH]4)c(-c4ccccc4)c4nc(c(-c5ccccc5)c5ccc2[nH]5)C=C4)C=C3)cc1
REMARK SMILES IDX 24 1 23 2 21 3 22 4 9 5 8 6 6 7 7 8 5 10 2 11 1 12 3 13 4 14
REMARK SMILES IDX 10 15 11 16 12 17 20 18 13 19 14 20 18 21 15 23 17 24 19 25
REMARK SMILES IDX 16 26 25 27 26 28 27 29 28 30 29 31 30 32 76 33 31 34 75 35
REMARK SMILES IDX 32 36 33 37 34 38 69 39 35 40 74 41 68 42 70 43 36 44 73 45
REMARK SMILES IDX 67 46 66 47 37 49 59 50 44 51 58 52 45 53 48 54 57 55 71 56
REMARK SMILES IDX 46 57 47 58 56 60 72 61 49 62 38 63 39 64 43 65 40 66 42 67
REMARK SMILES IDX 41 68 60 69 61 70 65 71 62 72 64 73 63 74 50 75 51 76 55 77
REMARK SMILES IDX 52 78 54 79 53 80
REMARK H PARENT 8 9 13 22 70 48 48 59
REMARK Flexibility Score: inf
ROOT
ATOM      1  C   UNL A   1      36.493  21.215  25.382  1.00  0.00     0.274 C 
ENDROOT
BRANCH   1   2
ATOM      2  O   UNL A   1      36.398  22.654  25.338  1.00  0.00    -0.461 OA
BRANCH   2   3
ATOM      3  C   UNL A   1      35.633  23.208  24.348  1.00  0.00     0.329 C 
ATOM      4  O   UNL A   1      35.996  23.350  23.185  1.00  0.00    -0.250 OA
BRANCH   3   5
ATOM      5  C   UNL A   1      34.314  23.776  24.891  1.00  0.00     0.200 C 
BRANCH   5   6
ATOM      6  N   UNL A   1      33.866  23.092  26.111  1.00  0.00    -0.308 N 
ATOM      7  C   UNL A   1      32.790  23.365  26.906  1.00  0.00     0.408 C 
ATOM      8  O   UNL A   1      32.556  22.686  27.893  1.00  0.00    -0.225 OA
ATOM      9  H   UNL A   1      34.420  22.330  26.397  1.00  0.00     0.168 HD
BRANCH   7  10
ATOM     10  O   UNL A   1      32.066  24.443  26.506  1.00  0.00    -0.444 OA
BRANCH  10  11
ATOM     11  C   UNL A   1      30.706  24.278  26.002  1.00  0.00     0.106 C 
ATOM     12  C   UNL A   1      30.870  23.719  24.578  1.00  0.00     0.056 C 
ATOM     13  C   UNL A   1      29.988  25.629  25.914  1.00  0.00     0.056 C 
ATOM     14  C   UNL A   1      29.876  23.278  26.822  1.00  0.00     0.056 C 
ENDBRANCH  10  11
ENDBRANCH   7  10
ENDBRANCH   5   6
BRANCH   5  15
ATOM     15  C   UNL A   1      34.501  25.300  25.117  1.00  0.00     0.075 C 
BRANCH  15  16
ATOM     16  C   UNL A   1      33.708  26.155  24.151  1.00  0.00    -0.018 A 
ATOM     17  C   UNL A   1      33.478  25.811  22.832  1.00  0.00     0.087 A 
ATOM     18  C   UNL A   1      32.948  27.363  24.405  1.00  0.00     0.021 A 
ATOM     19  N   UNL A   1      32.537  26.657  22.320  1.00  0.00    -0.361 N 
ATOM     20  C   UNL A   1      32.134  27.554  23.279  1.00  0.00     0.047 A 
ATOM     21  C   UNL A   1      32.748  28.268  25.476  1.00  0.00     0.050 A 
ATOM     22  H   UNL A   1      32.196  26.628  21.397  1.00  0.00     0.166 HD
ATOM     23  C   UNL A   1      31.104  28.508  23.227  1.00  0.00     0.027 A 
ATOM     24  C   UNL A   1      31.717  29.216  25.458  1.00  0.00     0.021 A 
ATOM     25  Cl  UNL A   1      33.797  28.183  26.822  1.00  0.00    -0.084 Cl
ATOM     26  C   UNL A   1      30.889  29.314  24.347  1.00  0.00     0.004 A 
ENDBRANCH  15  16
ENDBRANCH   5  15
ENDBRANCH   3   5
ENDBRANCH   2   3
ENDBRANCH   1   2
BRANCH   1  27
ATOM     27  C   UNL A   1      37.829  20.708  24.865  1.00  0.00     0.275 C 
BRANCH  27  28
ATOM     28  O   UNL A   1      38.866  21.076  25.766  1.00  0.00    -0.458 OA
BRANCH  28  29
ATOM     29  C   UNL A   1      39.855  20.162  25.803  1.00  0.00     0.338 C 
ATOM     30  O   UNL A   1      39.802  18.978  25.513  1.00  0.00    -0.246 OA
BRANCH  29  31
ATOM     31  C   UNL A   1      41.040  20.740  26.411  1.00  0.00     0.060 A 
ATOM     32  C   UNL A   1      41.086  20.697  27.806  1.00  0.00     0.016 A 
ATOM     33  C   UNL A   1      41.682  21.717  25.648  1.00  0.00     0.016 A 
ATOM     34  C   UNL A   1      41.565  21.805  28.458  1.00  0.00     0.010 A 
ATOM     35  C   UNL A   1      42.119  22.838  26.301  1.00  0.00     0.010 A 
ATOM     36  C   UNL A   1      41.962  22.898  27.687  1.00  0.00    -0.014 A 
BRANCH  36  37
ATOM     37  C   UNL A   1      42.246  24.129  28.382  1.00  0.00     0.031 A 
ATOM     38  C   UNL A   1      41.259  25.194  28.129  1.00  0.00     0.074 A 
ATOM     39  C   UNL A   1      43.236  24.216  29.286  1.00  0.00     0.049 A 
ATOM     40  N   UNL A   1      41.461  26.384  27.672  1.00  0.00    -0.248 NA
ATOM     41  C   UNL A   1      39.843  24.830  28.304  1.00  0.00     0.031 C 
ATOM     42  C   UNL A   1      44.056  23.133  29.835  1.00  0.00     0.029 A 
ATOM     43  N   UNL A   1      43.604  25.295  30.024  1.00  0.00    -0.354 N 
ATOM     44  C   UNL A   1      40.205  26.973  27.635  1.00  0.00     0.074 A 
ATOM     45  C   UNL A   1      39.238  25.935  27.883  1.00  0.00     0.031 C 
ATOM     46  C   UNL A   1      44.629  23.561  30.982  1.00  0.00     0.029 A 
ATOM     47  C   UNL A   1      44.302  24.966  31.174  1.00  0.00     0.049 A 
ATOM     48  H   UNL A   1      43.394  26.222  29.766  1.00  0.00     0.167 HD
ATOM     49  C   UNL A   1      40.021  28.316  27.632  1.00  0.00     0.031 A 
ATOM     50  C   UNL A   1      44.472  25.772  32.249  1.00  0.00     0.031 A 
ATOM     51  C   UNL A   1      41.197  29.045  27.262  1.00  0.00     0.049 A 
ATOM     52  C   UNL A   1      44.187  27.162  31.813  1.00  0.00     0.074 A 
ATOM     53  C   UNL A   1      41.970  29.114  26.120  1.00  0.00     0.029 A 
ATOM     54  N   UNL A   1      41.957  29.578  28.274  1.00  0.00    -0.354 N 
ATOM     55  N   UNL A   1      44.920  27.829  30.967  1.00  0.00    -0.248 NA
ATOM     56  C   UNL A   1      42.850  27.698  32.026  1.00  0.00     0.031 C 
ATOM     57  C   UNL A   1      43.306  29.280  26.584  1.00  0.00     0.029 A 
ATOM     58  C   UNL A   1      43.271  29.316  27.980  1.00  0.00     0.049 A 
ATOM     59  H   UNL A   1      41.621  30.059  29.064  1.00  0.00     0.167 HD
ATOM     60  C   UNL A   1      44.026  28.613  30.252  1.00  0.00     0.074 A 
ATOM     61  C   UNL A   1      42.792  28.584  31.028  1.00  0.00     0.031 C 
ATOM     62  C   UNL A   1      44.281  28.979  28.961  1.00  0.00     0.031 A 
BRANCH  49  63
ATOM     63  C   UNL A   1      38.839  28.934  28.310  1.00  0.00    -0.014 A 
ATOM     64  C   UNL A   1      38.629  28.735  29.678  1.00  0.00     0.009 A 
ATOM     65  C   UNL A   1      37.799  29.546  27.575  1.00  0.00     0.009 A 
ATOM     66  C   UNL A   1      37.437  29.150  30.283  1.00  0.00     0.001 A 
ATOM     67  C   UNL A   1      36.633  30.004  28.184  1.00  0.00     0.001 A 
ATOM     68  C   UNL A   1      36.447  29.792  29.540  1.00  0.00     0.000 A 
ENDBRANCH  49  63
BRANCH  50  69
ATOM     69  C   UNL A   1      44.526  25.378  33.677  1.00  0.00    -0.014 A 
ATOM     70  C   UNL A   1      43.398  24.823  34.301  1.00  0.00     0.009 A 
ATOM     71  C   UNL A   1      45.749  25.309  34.371  1.00  0.00     0.009 A 
ATOM     72  C   UNL A   1      43.500  24.189  35.547  1.00  0.00     0.001 A 
ATOM     73  C   UNL A   1      45.850  24.691  35.620  1.00  0.00     0.001 A 
ATOM     74  C   UNL A   1      44.728  24.113  36.200  1.00  0.00     0.000 A 
ENDBRANCH  50  69
BRANCH  62  75
ATOM     75  C   UNL A   1      45.663  28.710  28.417  1.00  0.00    -0.014 A 
ATOM     76  C   UNL A   1      46.022  27.463  27.875  1.00  0.00     0.009 A 
ATOM     77  C   UNL A   1      46.551  29.784  28.269  1.00  0.00     0.009 A 
ATOM     78  C   UNL A   1      47.241  27.295  27.211  1.00  0.00     0.001 A 
ATOM     79  C   UNL A   1      47.762  29.620  27.591  1.00  0.00     0.001 A 
ATOM     80  C   UNL A   1      48.106  28.377  27.062  1.00  0.00     0.000 A 
ENDBRANCH  62  75
ENDBRANCH  36  37
ENDBRANCH  29  31
ENDBRANCH  28  29
ENDBRANCH  27  28
ENDBRANCH   1  27
TORSDOF 16
ENDMDL
MODEL 2
REMARK VINA RESULT:     -11.1      1.934      2.908
REMARK SMILES CC(C)(C)OC(=O)N[C@@H](Cc1c[nH]c2cccc(Cl)c12)C(=O)OCCOC(=O)c1ccc(-c2c3nc(c(-c4ccccc4)c4ccc([nH]4)c(-c4ccccc4)c4nc(c(-c5ccccc5)c5ccc2[nH]5)C=C4)C=C3)cc1
REMARK SMILES IDX 24 1 23 2 21 3 22 4 9 5 8 6 6 7 7 8 5 10 2 11 1 12 3 13 4 14
REMARK SMILES IDX 10 15 11 16 12 17 20 18 13 19 14 20 18 21 15 23 17 24 19 25
REMARK SMILES IDX 16 26 25 27 26 28 27 29 28 30 29 31 30 32 76 33 31 34 75 35
REMARK SMILES IDX 32 36 33 37 34 38 69 39 35 40 74 41 68 42 70 43 36 44 73 45
REMARK SMILES IDX 67 46 66 47 37 49 59 50 44 51 58 52 45 53 48 54 57 55 71 56
REMARK SMILES IDX 46 57 47 58 56 60 72 61 49 62 38 63 39 64 43 65 40 66 42 67
REMARK SMILES IDX 41 68 60 69 61 70 65 71 62 72 64 73 63 74 50 75 51 76 55 77
REMARK SMILES IDX 52 78 54 79 53 80
REMARK H PARENT 8 9 13 22 70 48 48 59
REMARK Flexibility Score: inf
ROOT
ATOM      1  C   UNL A   1      36.394  20.678  25.112  1.00  0.00     0.274 C 
ENDROOT
BRANCH   1   2
ATOM      2  O   UNL A   1      35.722  21.779  25.758  1.00  0.00    -0.461 OA
BRANCH   2   3
ATOM      3  C   UNL A   1      34.559  21.507  26.427  1.00  0.00     0.329 C 
ATOM      4  O   UNL A   1      34.424  21.576  27.644  1.00  0.00    -0.250 OA
BRANCH   3   5
ATOM      5  C   UNL A   1      33.475  20.952  25.492  1.00  0.00     0.200 C 
BRANCH   5   6
ATOM      6  N   UNL A   1      32.776  19.795  26.064  1.00  0.00    -0.308 N 
ATOM      7  C   UNL A   1      32.840  18.481  25.696  1.00  0.00     0.408 C 
ATOM      8  O   UNL A   1      32.189  17.635  26.289  1.00  0.00    -0.225 OA
ATOM      9  H   UNL A   1      32.177  19.993  26.820  1.00  0.00     0.168 HD
BRANCH   7  10
ATOM     10  O   UNL A   1      33.647  18.244  24.629  1.00  0.00    -0.444 OA
BRANCH  10  11
ATOM     11  C   UNL A   1      34.067  16.884  24.305  1.00  0.00     0.106 C 
ATOM     12  C   UNL A   1      35.389  16.679  25.064  1.00  0.00     0.056 C 
ATOM     13  C   UNL A   1      34.342  16.741  22.804  1.00  0.00     0.056 C 
ATOM     14  C   UNL A   1      33.068  15.816  24.774  1.00  0.00     0.056 C 
ENDBRANCH  10  11
ENDBRANCH   7  10
ENDBRANCH   5   6
BRANCH   5  15
ATOM     15  C   UNL A   1      32.497  22.107  25.148  1.00  0.00     0.075 C 
BRANCH  15  16
ATOM     16  C   UNL A   1      32.787  22.769  23.818  1.00  0.00    -0.018 A 
ATOM     17  C   UNL A   1      32.589  22.154  22.595  1.00  0.00     0.087 A 
ATOM     18  C   UNL A   1      33.171  24.138  23.538  1.00  0.00     0.021 A 
ATOM     19  N   UNL A   1      32.705  23.094  21.612  1.00  0.00    -0.361 N 
ATOM     20  C   UNL A   1      32.973  24.325  22.162  1.00  0.00     0.047 A 
ATOM     21  C   UNL A   1      33.556  25.288  24.270  1.00  0.00     0.050 A 
ATOM     22  H   UNL A   1      32.611  22.917  20.649  1.00  0.00     0.166 HD
ATOM     23  C   UNL A   1      33.041  25.581  21.537  1.00  0.00     0.027 A 
ATOM     24  C   UNL A   1      33.614  26.555  23.677  1.00  0.00     0.021 A 
ATOM     25  Cl  UNL A   1      33.950  25.107  25.923  1.00  0.00    -0.084 Cl
ATOM     26  C   UNL A   1      33.334  26.697  22.324  1.00  0.00     0.004 A 
ENDBRANCH  15  16
ENDBRANCH   5  15
ENDBRANCH   3   5
ENDBRANCH   2   3
ENDBRANCH   1   2
BRANCH   1  27
ATOM     27  C   UNL A   1      37.803  21.039  24.674  1.00  0.00     0.275 C 
BRANCH  27  28
ATOM     28  O   UNL A   1      38.652  21.139  25.811  1.00  0.00    -0.458 OA
BRANCH  28  29
ATOM     29  C   UNL A   1      39.629  20.212  25.800  1.00  0.00     0.338 C 
ATOM     30  O   UNL A   1      39.552  19.036  25.485  1.00  0.00    -0.246 OA
BRANCH  29  31
ATOM     31  C   UNL A   1      40.838  20.760  26.387  1.00  0.00     0.060 A 
ATOM     32  C   UNL A   1      40.908  20.713  27.781  1.00  0.00     0.016 A 
ATOM     33  C   UNL A   1      41.489  21.723  25.615  1.00  0.00     0.016 A 
ATOM     34  C   UNL A   1      41.425  21.807  28.427  1.00  0.00     0.010 A 
ATOM     35  C   UNL A   1      41.964  22.831  26.262  1.00  0.00     0.010 A 
ATOM     36  C   UNL A   1      41.833  22.892  27.650  1.00  0.00    -0.014 A 
BRANCH  36  37
ATOM     37  C   UNL A   1      42.159  24.115  28.342  1.00  0.00     0.031 A 
ATOM     38  C   UNL A   1      41.180  25.195  28.130  1.00  0.00     0.074 A 
ATOM     39  C   UNL A   1      43.181  24.182  29.212  1.00  0.00     0.049 A 
ATOM     40  N   UNL A   1      41.384  26.386  27.674  1.00  0.00    -0.248 NA
ATOM     41  C   UNL A   1      39.766  24.851  28.351  1.00  0.00     0.031 C 
ATOM     42  C   UNL A   1      44.004  23.083  29.726  1.00  0.00     0.029 A 
ATOM     43  N   UNL A   1      43.590  25.250  29.944  1.00  0.00    -0.354 N 
ATOM     44  C   UNL A   1      40.136  26.992  27.683  1.00  0.00     0.074 A 
ATOM     45  C   UNL A   1      39.162  25.967  27.958  1.00  0.00     0.031 C 
ATOM     46  C   UNL A   1      44.622  23.496  30.856  1.00  0.00     0.029 A 
ATOM     47  C   UNL A   1      44.322  24.904  31.067  1.00  0.00     0.049 A 
ATOM     48  H   UNL A   1      43.384  26.182  29.699  1.00  0.00     0.167 HD
ATOM     49  C   UNL A   1      39.972  28.338  27.694  1.00  0.00     0.031 A 
ATOM     50  C   UNL A   1      44.540  25.701  32.141  1.00  0.00     0.031 A 
ATOM     51  C   UNL A   1      41.145  29.052  27.289  1.00  0.00     0.049 A 
ATOM     52  C   UNL A   1      44.261  27.098  31.723  1.00  0.00     0.074 A 
ATOM     53  C   UNL A   1      41.878  29.118  26.121  1.00  0.00     0.029 A 
ATOM     54  N   UNL A   1      41.946  29.568  28.277  1.00  0.00    -0.354 N 
ATOM     55  N   UNL A   1      44.975  27.759  30.856  1.00  0.00    -0.248 NA
ATOM     56  C   UNL A   1      42.940  27.651  31.985  1.00  0.00     0.031 C 
ATOM     57  C   UNL A   1      43.232  29.262  26.539  1.00  0.00     0.029 A 
ATOM     58  C   UNL A   1      43.246  29.289  27.936  1.00  0.00     0.049 A 
ATOM     59  H   UNL A   1      41.644  30.048  29.081  1.00  0.00     0.167 HD
ATOM     60  C   UNL A   1      44.068  28.560  30.177  1.00  0.00     0.074 A 
ATOM     61  C   UNL A   1      42.861  28.545  30.994  1.00  0.00     0.031 C 
ATOM     62  C   UNL A   1      44.284  28.931  28.880  1.00  0.00     0.031 A 
BRANCH  49  63
ATOM     63  C   UNL A   1      38.822  28.969  28.416  1.00  0.00    -0.014 A 
ATOM     64  C   UNL A   1      38.710  28.845  29.804  1.00  0.00     0.009 A 
ATOM     65  C   UNL A   1      37.720  29.514  27.722  1.00  0.00     0.009 A 
ATOM     66  C   UNL A   1      37.553  29.269  30.467  1.00  0.00     0.001 A 
ATOM     67  C   UNL A   1      36.586  29.980  28.382  1.00  0.00     0.001 A 
ATOM     68  C   UNL A   1      36.498  29.844  29.758  1.00  0.00     0.000 A 
ENDBRANCH  49  63
BRANCH  50  69
ATOM     69  C   UNL A   1      44.638  25.297  33.563  1.00  0.00    -0.014 A 
ATOM     70  C   UNL A   1      45.807  25.562  34.295  1.00  0.00     0.009 A 
ATOM     71  C   UNL A   1      43.505  24.876  34.284  1.00  0.00     0.009 A 
ATOM     72  C   UNL A   1      45.826  25.450  35.692  1.00  0.00     0.001 A 
ATOM     73  C   UNL A   1      43.526  24.750  35.677  1.00  0.00     0.001 A 
ATOM     74  C   UNL A   1      44.683  25.056  36.382  1.00  0.00     0.000 A 
ENDBRANCH  50  69
BRANCH  62  75
ATOM     75  C   UNL A   1      45.642  28.646  28.287  1.00  0.00    -0.014 A 
ATOM     76  C   UNL A   1      45.959  27.402  27.713  1.00  0.00     0.009 A 
ATOM     77  C   UNL A   1      46.546  29.706  28.129  1.00  0.00     0.009 A 
ATOM     78  C   UNL A   1      47.153  27.223  27.007  1.00  0.00     0.001 A 
ATOM     79  C   UNL A   1      47.731  29.530  27.409  1.00  0.00     0.001 A 
ATOM     80  C   UNL A   1      48.034  28.291  26.849  1.00  0.00     0.000 A 
ENDBRANCH  62  75
ENDBRANCH  36  37
ENDBRANCH  29  31
ENDBRANCH  28  29
ENDBRANCH  27  28
ENDBRANCH   1  27
TORSDOF 16
ENDMDL
MODEL 3
REMARK VINA RESULT:     -10.7      2.322      6.565
REMARK SMILES CC(C)(C)OC(=O)N[C@@H](Cc1c[nH]c2cccc(Cl)c12)C(=O)OCCOC(=O)c1ccc(-c2c3nc(c(-c4ccccc4)c4ccc([nH]4)c(-c4ccccc4)c4nc(c(-c5ccccc5)c5ccc2[nH]5)C=C4)C=C3)cc1
REMARK SMILES IDX 24 1 23 2 21 3 22 4 9 5 8 6 6 7 7 8 5 10 2 11 1 12 3 13 4 14
REMARK SMILES IDX 10 15 11 16 12 17 20 18 13 19 14 20 18 21 15 23 17 24 19 25
REMARK SMILES IDX 16 26 25 27 26 28 27 29 28 30 29 31 30 32 76 33 31 34 75 35
REMARK SMILES IDX 32 36 33 37 34 38 69 39 35 40 74 41 68 42 70 43 36 44 73 45
REMARK SMILES IDX 67 46 66 47 37 49 59 50 44 51 58 52 45 53 48 54 57 55 71 56
REMARK SMILES IDX 46 57 47 58 56 60 72 61 49 62 38 63 39 64 43 65 40 66 42 67
REMARK SMILES IDX 41 68 60 69 61 70 65 71 62 72 64 73 63 74 50 75 51 76 55 77
REMARK SMILES IDX 52 78 54 79 53 80
REMARK H PARENT 8 9 13 22 70 48 48 59
REMARK Flexibility Score: inf
ROOT
ATOM      1  C   UNL A   1      33.836  28.765  26.258  1.00  0.00     0.274 C 
ENDROOT
BRANCH   1   2
ATOM      2  O   UNL A   1      32.431  28.638  25.953  1.00  0.00    -0.461 OA
BRANCH   2   3
ATOM      3  C   UNL A   1      31.730  27.657  26.600  1.00  0.00     0.329 C 
ATOM      4  O   UNL A   1      31.075  27.829  27.623  1.00  0.00    -0.250 OA
BRANCH   3   5
ATOM      5  C   UNL A   1      31.977  26.272  25.986  1.00  0.00     0.200 C 
BRANCH   5   6
ATOM      6  N   UNL A   1      31.078  25.246  26.529  1.00  0.00    -0.308 N 
ATOM      7  C   UNL A   1      31.350  23.950  26.860  1.00  0.00     0.408 C 
ATOM      8  O   UNL A   1      30.477  23.224  27.310  1.00  0.00    -0.225 OA
ATOM      9  H   UNL A   1      30.147  25.533  26.675  1.00  0.00     0.168 HD
BRANCH   7  10
ATOM     10  O   UNL A   1      32.632  23.574  26.615  1.00  0.00    -0.444 OA
BRANCH  10  11
ATOM     11  C   UNL A   1      32.962  22.791  25.427  1.00  0.00     0.106 C 
ATOM     12  C   UNL A   1      33.335  21.395  25.956  1.00  0.00     0.056 C 
ATOM     13  C   UNL A   1      34.180  23.379  24.706  1.00  0.00     0.056 C 
ATOM     14  C   UNL A   1      31.780  22.641  24.457  1.00  0.00     0.056 C 
ENDBRANCH  10  11
ENDBRANCH   7  10
ENDBRANCH   5   6
BRANCH   5  15
ATOM     15  C   UNL A   1      31.847  26.397  24.444  1.00  0.00     0.075 C 
BRANCH  15  16
ATOM     16  C   UNL A   1      30.425  26.616  23.974  1.00  0.00    -0.018 A 
ATOM     17  C   UNL A   1      29.394  25.724  24.204  1.00  0.00     0.087 A 
ATOM     18  C   UNL A   1      29.833  27.784  23.351  1.00  0.00     0.021 A 
ATOM     19  N   UNL A   1      28.215  26.328  23.877  1.00  0.00    -0.361 N 
ATOM     20  C   UNL A   1      28.444  27.610  23.438  1.00  0.00     0.047 A 
ATOM     21  C   UNL A   1      30.271  29.022  22.819  1.00  0.00     0.050 A 
ATOM     22  H   UNL A   1      27.328  25.907  23.946  1.00  0.00     0.166 HD
ATOM     23  C   UNL A   1      27.521  28.621  23.126  1.00  0.00     0.027 A 
ATOM     24  C   UNL A   1      29.374  30.053  22.517  1.00  0.00     0.021 A 
ATOM     25  Cl  UNL A   1      31.943  29.248  22.553  1.00  0.00    -0.084 Cl
ATOM     26  C   UNL A   1      28.010  29.856  22.694  1.00  0.00     0.004 A 
ENDBRANCH  15  16
ENDBRANCH   5  15
ENDBRANCH   3   5
ENDBRANCH   2   3
ENDBRANCH   1   2
BRANCH   1  27
ATOM     27  C   UNL A   1      34.118  29.918  27.205  1.00  0.00     0.275 C 
BRANCH  27  28
ATOM     28  O   UNL A   1      35.347  29.694  27.885  1.00  0.00    -0.458 OA
BRANCH  28  29
ATOM     29  C   UNL A   1      35.901  30.840  28.327  1.00  0.00     0.338 C 
ATOM     30  O   UNL A   1      35.728  31.974  27.909  1.00  0.00    -0.246 OA
BRANCH  29  31
ATOM     31  C   UNL A   1      36.911  30.549  29.327  1.00  0.00     0.060 A 
ATOM     32  C   UNL A   1      38.168  31.115  29.101  1.00  0.00     0.016 A 
ATOM     33  C   UNL A   1      36.717  29.364  30.039  1.00  0.00     0.016 A 
ATOM     34  C   UNL A   1      39.269  30.341  29.366  1.00  0.00     0.010 A 
ATOM     35  C   UNL A   1      37.815  28.578  30.262  1.00  0.00     0.010 A 
ATOM     36  C   UNL A   1      39.059  29.043  29.832  1.00  0.00    -0.014 A 
BRANCH  36  37
ATOM     37  C   UNL A   1      40.204  28.169  29.890  1.00  0.00     0.031 A 
ATOM     38  C   UNL A   1      40.857  28.136  31.210  1.00  0.00     0.074 A 
ATOM     39  C   UNL A   1      40.525  27.358  28.868  1.00  0.00     0.049 A 
ATOM     40  N   UNL A   1      42.089  28.389  31.504  1.00  0.00    -0.248 NA
ATOM     41  C   UNL A   1      39.981  27.899  32.370  1.00  0.00     0.031 C 
ATOM     42  C   UNL A   1      39.754  27.089  27.651  1.00  0.00     0.029 A 
ATOM     43  N   UNL A   1      41.555  26.476  28.789  1.00  0.00    -0.354 N 
ATOM     44  C   UNL A   1      42.176  28.205  32.876  1.00  0.00     0.074 A 
ATOM     45  C   UNL A   1      40.833  28.058  33.376  1.00  0.00     0.031 C 
ATOM     46  C   UNL A   1      40.205  25.942  27.096  1.00  0.00     0.029 A 
ATOM     47  C   UNL A   1      41.353  25.473  27.857  1.00  0.00     0.049 A 
ATOM     48  H   UNL A   1      42.367  26.544  29.344  1.00  0.00     0.167 HD
ATOM     49  C   UNL A   1      43.347  27.951  33.512  1.00  0.00     0.031 A 
ATOM     50  C   UNL A   1      42.014  24.291  27.817  1.00  0.00     0.031 A 
ATOM     51  C   UNL A   1      44.498  28.291  32.730  1.00  0.00     0.049 A 
ATOM     52  C   UNL A   1      43.249  24.444  28.627  1.00  0.00     0.074 A 
ATOM     53  C   UNL A   1      44.997  29.468  32.210  1.00  0.00     0.029 A 
ATOM     54  N   UNL A   1      45.132  27.274  32.059  1.00  0.00    -0.354 N 
ATOM     55  N   UNL A   1      44.244  25.221  28.305  1.00  0.00    -0.248 NA
ATOM     56  C   UNL A   1      43.225  24.016  30.019  1.00  0.00     0.031 C 
ATOM     57  C   UNL A   1      45.577  29.108  30.960  1.00  0.00     0.029 A 
ATOM     58  C   UNL A   1      45.410  27.730  30.795  1.00  0.00     0.049 A 
ATOM     59  H   UNL A   1      45.346  26.383  32.418  1.00  0.00     0.167 HD
ATOM     60  C   UNL A   1      44.735  25.699  29.512  1.00  0.00     0.074 A 
ATOM     61  C   UNL A   1      44.154  24.831  30.529  1.00  0.00     0.031 C 
ATOM     62  C   UNL A   1      45.338  26.922  29.596  1.00  0.00     0.031 A 
BRANCH  49  63
ATOM     63  C   UNL A   1      43.394  27.068  34.719  1.00  0.00    -0.014 A 
ATOM     64  C   UNL A   1      43.811  27.582  35.951  1.00  0.00     0.009 A 
ATOM     65  C   UNL A   1      43.230  25.669  34.621  1.00  0.00     0.009 A 
ATOM     66  C   UNL A   1      44.035  26.731  37.039  1.00  0.00     0.001 A 
ATOM     67  C   UNL A   1      43.406  24.824  35.715  1.00  0.00     0.001 A 
ATOM     68  C   UNL A   1      43.823  25.357  36.923  1.00  0.00     0.000 A 
ENDBRANCH  49  63
BRANCH  50  69
ATOM     69  C   UNL A   1      41.481  22.968  27.416  1.00  0.00    -0.014 A 
ATOM     70  C   UNL A   1      40.112  22.810  27.145  1.00  0.00     0.009 A 
ATOM     71  C   UNL A   1      42.338  21.913  27.053  1.00  0.00     0.009 A 
ATOM     72  C   UNL A   1      39.631  21.662  26.501  1.00  0.00     0.001 A 
ATOM     73  C   UNL A   1      41.858  20.760  26.424  1.00  0.00     0.001 A 
ATOM     74  C   UNL A   1      40.505  20.643  26.130  1.00  0.00     0.000 A 
ENDBRANCH  50  69
BRANCH  62  75
ATOM     75  C   UNL A   1      45.668  27.630  28.305  1.00  0.00    -0.014 A 
ATOM     76  C   UNL A   1      44.717  28.400  27.612  1.00  0.00     0.009 A 
ATOM     77  C   UNL A   1      47.005  27.682  27.886  1.00  0.00     0.009 A 
ATOM     78  C   UNL A   1      45.095  29.194  26.524  1.00  0.00     0.001 A 
ATOM     79  C   UNL A   1      47.384  28.489  26.810  1.00  0.00     0.001 A 
ATOM     80  C   UNL A   1      46.430  29.245  26.130  1.00  0.00     0.000 A 
ENDBRANCH  62  75
ENDBRANCH  36  37
ENDBRANCH  29  31
ENDBRANCH  28  29
ENDBRANCH  27  28
ENDBRANCH   1  27
TORSDOF 16
ENDMDL
