MODEL 1
REMARK VINA RESULT:     -10.7      0.000      0.000
REMARK SMILES Cc1cc(C(=O)N[C@H]2C=C[C@H](C(=O)OCCOC(=O)c3ccc(-c4c5nc(c(-c6ccccc6)c6ccc([nH]6)c(-c6ccccc6)c6nc(c(-c7ccccc7)c7ccc4[nH]7)C=C6)C=C5)cc3)C2)ccc1F
REMARK SMILES IDX 15 1 14 2 12 3 13 4 11 5 8 6 9 7 68 8 10 9 7 10 5 11 6 12
REMARK SMILES IDX 4 14 1 15 2 16 3 17 71 18 70 19 72 20 69 21 16 22 17 23
REMARK SMILES IDX 18 24 19 25 20 26 21 27 67 28 22 29 66 30 23 31 24 32 25 33
REMARK SMILES IDX 60 34 26 35 65 36 59 37 61 38 27 39 64 40 58 41 57 42 28 44
REMARK SMILES IDX 50 45 35 46 49 47 36 48 39 49 48 50 62 51 37 52 38 53 47 55
REMARK SMILES IDX 63 56 40 57 29 58 30 59 34 60 31 61 33 62 32 63 51 64 52 65
REMARK SMILES IDX 56 66 53 67 55 68 54 69 41 70 42 71 46 72 43 73 45 74 44 75
REMARK H PARENT 7 13 61 43 39 54
REMARK Flexibility Score: inf
ROOT
ATOM      1  C   UNL A   1      31.953  31.638  26.503  1.00  0.00     0.274 C 
ENDROOT
BRANCH   1   2
ATOM      2  O   UNL A   1      32.380  30.671  27.481  1.00  0.00    -0.462 OA
BRANCH   2   3
ATOM      3  C   UNL A   1      33.600  30.118  27.260  1.00  0.00     0.312 C 
ATOM      4  O   UNL A   1      34.636  30.760  27.125  1.00  0.00    -0.252 OA
BRANCH   3   5
ATOM      5  C   UNL A   1      33.540  28.590  27.261  1.00  0.00     0.124 C 
ATOM      6  C   UNL A   1      32.549  28.104  25.119  1.00  0.00     0.106 C 
ATOM      7  C   UNL A   1      31.636  27.666  26.218  1.00  0.00    -0.006 C 
ATOM      8  C   UNL A   1      33.890  28.089  25.852  1.00  0.00     0.048 C 
ATOM      9  C   UNL A   1      32.157  28.012  27.408  1.00  0.00    -0.014 C 
BRANCH   6  10
ATOM     10  N   UNL A   1      32.535  27.256  23.967  1.00  0.00    -0.346 N 
ATOM     11  C   UNL A   1      31.640  27.196  22.920  1.00  0.00     0.251 C 
ATOM     12  O   UNL A   1      31.892  26.377  22.031  1.00  0.00    -0.269 OA
ATOM     13  H   UNL A   1      33.280  26.616  23.913  1.00  0.00     0.164 HD
BRANCH  11  14
ATOM     14  C   UNL A   1      30.416  28.064  22.766  1.00  0.00     0.040 A 
ATOM     15  C   UNL A   1      26.670  28.267  23.503  1.00  0.00     0.047 C 
ATOM     16  C   UNL A   1      28.029  28.629  22.979  1.00  0.00    -0.015 A 
ATOM     17  C   UNL A   1      29.103  27.731  23.124  1.00  0.00     0.020 A 
ATOM     18  C   UNL A   1      28.275  29.873  22.411  1.00  0.00     0.126 A 
ATOM     19  C   UNL A   1      29.555  30.223  22.001  1.00  0.00     0.040 A 
ATOM     20  F   UNL A   1      27.277  30.756  22.270  1.00  0.00    -0.207 F 
ATOM     21  C   UNL A   1      30.617  29.332  22.192  1.00  0.00     0.017 A 
ENDBRANCH  11  14
ENDBRANCH   6  10
ENDBRANCH   3   5
ENDBRANCH   2   3
ENDBRANCH   1   2
BRANCH   1  22
ATOM     22  C   UNL A   1      31.778  33.020  27.144  1.00  0.00     0.275 C 
BRANCH  22  23
ATOM     23  O   UNL A   1      33.012  33.768  27.197  1.00  0.00    -0.458 OA
BRANCH  23  24
ATOM     24  C   UNL A   1      33.258  34.393  28.375  1.00  0.00     0.338 C 
ATOM     25  O   UNL A   1      32.611  35.299  28.872  1.00  0.00    -0.246 OA
BRANCH  24  26
ATOM     26  C   UNL A   1      34.382  33.747  29.083  1.00  0.00     0.060 A 
ATOM     27  C   UNL A   1      35.676  34.164  28.755  1.00  0.00     0.016 A 
ATOM     28  C   UNL A   1      34.192  32.700  29.989  1.00  0.00     0.016 A 
ATOM     29  C   UNL A   1      36.783  33.565  29.351  1.00  0.00     0.010 A 
ATOM     30  C   UNL A   1      35.306  32.071  30.559  1.00  0.00     0.010 A 
ATOM     31  C   UNL A   1      36.607  32.499  30.241  1.00  0.00    -0.014 A 
BRANCH  31  32
ATOM     32  C   UNL A   1      37.801  31.804  30.777  1.00  0.00     0.031 A 
ATOM     33  C   UNL A   1      38.288  32.112  32.161  1.00  0.00     0.074 A 
ATOM     34  C   UNL A   1      38.420  30.863  30.044  1.00  0.00     0.049 A 
ATOM     35  N   UNL A   1      39.286  31.583  32.820  1.00  0.00    -0.248 NA
ATOM     36  C   UNL A   1      37.560  33.157  32.896  1.00  0.00     0.031 C 
ATOM     37  C   UNL A   1      38.027  30.460  28.698  1.00  0.00     0.029 A 
ATOM     38  N   UNL A   1      39.495  30.063  30.337  1.00  0.00    -0.354 N 
ATOM     39  C   UNL A   1      39.320  32.240  34.043  1.00  0.00     0.074 A 
ATOM     40  C   UNL A   1      38.242  33.207  34.032  1.00  0.00     0.031 C 
ATOM     41  C   UNL A   1      38.836  29.469  28.290  1.00  0.00     0.029 A 
ATOM     42  C   UNL A   1      39.807  29.174  29.337  1.00  0.00     0.049 A 
ATOM     43  H   UNL A   1      39.997  30.121  31.182  1.00  0.00     0.167 HD
ATOM     44  C   UNL A   1      40.181  32.065  35.073  1.00  0.00     0.031 A 
ATOM     45  C   UNL A   1      40.763  28.228  29.272  1.00  0.00     0.031 A 
ATOM     46  C   UNL A   1      41.270  31.123  35.076  1.00  0.00     0.049 A 
ATOM     47  C   UNL A   1      41.716  28.067  30.422  1.00  0.00     0.074 A 
ATOM     48  C   UNL A   1      42.205  30.890  36.071  1.00  0.00     0.029 A 
ATOM     49  N   UNL A   1      41.575  30.265  34.032  1.00  0.00    -0.354 N 
ATOM     50  N   UNL A   1      41.734  28.693  31.574  1.00  0.00    -0.248 NA
ATOM     51  C   UNL A   1      42.793  27.079  30.256  1.00  0.00     0.031 C 
ATOM     52  C   UNL A   1      43.103  29.922  35.608  1.00  0.00     0.029 A 
ATOM     53  C   UNL A   1      42.698  29.517  34.348  1.00  0.00     0.049 A 
ATOM     54  H   UNL A   1      41.069  30.196  33.190  1.00  0.00     0.167 HD
ATOM     55  C   UNL A   1      42.820  28.177  32.268  1.00  0.00     0.074 A 
ATOM     56  C   UNL A   1      43.416  27.163  31.423  1.00  0.00     0.031 C 
ATOM     57  C   UNL A   1      43.289  28.522  33.491  1.00  0.00     0.031 A 
BRANCH  44  58
ATOM     58  C   UNL A   1      40.009  32.962  36.263  1.00  0.00    -0.014 A 
ATOM     59  C   UNL A   1      40.662  34.201  36.345  1.00  0.00     0.009 A 
ATOM     60  C   UNL A   1      39.166  32.563  37.313  1.00  0.00     0.009 A 
ATOM     61  C   UNL A   1      40.498  35.010  37.471  1.00  0.00     0.001 A 
ATOM     62  C   UNL A   1      38.987  33.384  38.427  1.00  0.00     0.001 A 
ATOM     63  C   UNL A   1      39.659  34.602  38.509  1.00  0.00     0.000 A 
ENDBRANCH  44  58
BRANCH  45  64
ATOM     64  C   UNL A   1      40.870  27.354  28.075  1.00  0.00    -0.014 A 
ATOM     65  C   UNL A   1      40.244  26.097  28.057  1.00  0.00     0.009 A 
ATOM     66  C   UNL A   1      41.604  27.761  26.951  1.00  0.00     0.009 A 
ATOM     67  C   UNL A   1      40.368  25.260  26.945  1.00  0.00     0.001 A 
ATOM     68  C   UNL A   1      41.703  26.934  25.830  1.00  0.00     0.001 A 
ATOM     69  C   UNL A   1      41.092  25.682  25.831  1.00  0.00     0.000 A 
ENDBRANCH  45  64
BRANCH  57  70
ATOM     70  C   UNL A   1      44.507  27.797  33.987  1.00  0.00    -0.014 A 
ATOM     71  C   UNL A   1      44.391  26.590  34.696  1.00  0.00     0.009 A 
ATOM     72  C   UNL A   1      45.786  28.306  33.713  1.00  0.00     0.009 A 
ATOM     73  C   UNL A   1      45.533  25.924  35.147  1.00  0.00     0.001 A 
ATOM     74  C   UNL A   1      46.925  27.625  34.145  1.00  0.00     0.001 A 
ATOM     75  C   UNL A   1      46.797  26.439  34.868  1.00  0.00     0.000 A 
ENDBRANCH  57  70
ENDBRANCH  31  32
ENDBRANCH  24  26
ENDBRANCH  23  24
ENDBRANCH  22  23
ENDBRANCH   1  22
TORSDOF 13
ENDMDL
MODEL 2
REMARK VINA RESULT:     -10.7      1.410      6.026
REMARK SMILES Cc1cc(C(=O)N[C@H]2C=C[C@H](C(=O)OCCOC(=O)c3ccc(-c4c5nc(c(-c6ccccc6)c6ccc([nH]6)c(-c6ccccc6)c6nc(c(-c7ccccc7)c7ccc4[nH]7)C=C6)C=C5)cc3)C2)ccc1F
REMARK SMILES IDX 15 1 14 2 12 3 13 4 11 5 8 6 9 7 68 8 10 9 7 10 5 11 6 12
REMARK SMILES IDX 4 14 1 15 2 16 3 17 71 18 70 19 72 20 69 21 16 22 17 23
REMARK SMILES IDX 18 24 19 25 20 26 21 27 67 28 22 29 66 30 23 31 24 32 25 33
REMARK SMILES IDX 60 34 26 35 65 36 59 37 61 38 27 39 64 40 58 41 57 42 28 44
REMARK SMILES IDX 50 45 35 46 49 47 36 48 39 49 48 50 62 51 37 52 38 53 47 55
REMARK SMILES IDX 63 56 40 57 29 58 30 59 34 60 31 61 33 62 32 63 51 64 52 65
REMARK SMILES IDX 56 66 53 67 55 68 54 69 41 70 42 71 46 72 43 73 45 74 44 75
REMARK H PARENT 7 13 61 43 39 54
REMARK Flexibility Score: inf
ROOT
ATOM      1  C   UNL A   1      31.911  31.487  26.527  1.00  0.00     0.274 C 
ENDROOT
BRANCH   1   2
ATOM      2  O   UNL A   1      32.350  30.537  27.517  1.00  0.00    -0.462 OA
BRANCH   2   3
ATOM      3  C   UNL A   1      33.567  29.980  27.291  1.00  0.00     0.312 C 
ATOM      4  O   UNL A   1      34.610  30.617  27.181  1.00  0.00    -0.252 OA
BRANCH   3   5
ATOM      5  C   UNL A   1      33.495  28.453  27.251  1.00  0.00     0.124 C 
ATOM      6  C   UNL A   1      32.518  28.033  25.089  1.00  0.00     0.106 C 
ATOM      7  C   UNL A   1      31.592  27.573  26.168  1.00  0.00    -0.006 C 
ATOM      8  C   UNL A   1      33.853  27.987  25.832  1.00  0.00     0.048 C 
ATOM      9  C   UNL A   1      32.106  27.883  27.371  1.00  0.00    -0.014 C 
BRANCH   6  10
ATOM     10  N   UNL A   1      32.507  27.216  23.914  1.00  0.00    -0.346 N 
ATOM     11  C   UNL A   1      31.619  27.188  22.860  1.00  0.00     0.251 C 
ATOM     12  O   UNL A   1      31.872  26.392  21.952  1.00  0.00    -0.269 OA
ATOM     13  H   UNL A   1      33.249  26.572  23.849  1.00  0.00     0.164 HD
BRANCH  11  14
ATOM     14  C   UNL A   1      30.401  28.068  22.721  1.00  0.00     0.040 A 
ATOM     15  C   UNL A   1      26.684  28.340  23.572  1.00  0.00     0.047 C 
ATOM     16  C   UNL A   1      28.029  28.669  22.994  1.00  0.00    -0.015 A 
ATOM     17  C   UNL A   1      29.096  27.762  23.130  1.00  0.00     0.020 A 
ATOM     18  C   UNL A   1      28.272  29.894  22.385  1.00  0.00     0.126 A 
ATOM     19  C   UNL A   1      29.542  30.216  21.924  1.00  0.00     0.040 A 
ATOM     20  F   UNL A   1      27.281  30.785  22.251  1.00  0.00    -0.207 F 
ATOM     21  C   UNL A   1      30.599  29.317  22.106  1.00  0.00     0.017 A 
ENDBRANCH  11  14
ENDBRANCH   6  10
ENDBRANCH   3   5
ENDBRANCH   2   3
ENDBRANCH   1   2
BRANCH   1  22
ATOM     22  C   UNL A   1      31.780  32.888  27.135  1.00  0.00     0.275 C 
BRANCH  22  23
ATOM     23  O   UNL A   1      33.051  33.564  27.251  1.00  0.00    -0.458 OA
BRANCH  23  24
ATOM     24  C   UNL A   1      33.275  34.169  28.444  1.00  0.00     0.338 C 
ATOM     25  O   UNL A   1      32.533  34.944  29.022  1.00  0.00    -0.246 OA
BRANCH  24  26
ATOM     26  C   UNL A   1      34.526  33.674  29.052  1.00  0.00     0.060 A 
ATOM     27  C   UNL A   1      35.729  34.019  28.428  1.00  0.00     0.016 A 
ATOM     28  C   UNL A   1      34.532  32.824  30.162  1.00  0.00     0.016 A 
ATOM     29  C   UNL A   1      36.942  33.548  28.923  1.00  0.00     0.010 A 
ATOM     30  C   UNL A   1      35.750  32.318  30.637  1.00  0.00     0.010 A 
ATOM     31  C   UNL A   1      36.960  32.676  30.018  1.00  0.00    -0.014 A 
BRANCH  31  32
ATOM     32  C   UNL A   1      38.252  32.100  30.457  1.00  0.00     0.031 A 
ATOM     33  C   UNL A   1      38.743  30.817  29.857  1.00  0.00     0.074 A 
ATOM     34  C   UNL A   1      39.010  32.750  31.357  1.00  0.00     0.049 A 
ATOM     35  N   UNL A   1      39.862  30.177  30.081  1.00  0.00    -0.248 NA
ATOM     36  C   UNL A   1      37.854  30.165  28.883  1.00  0.00     0.031 C 
ATOM     37  C   UNL A   1      38.652  34.014  31.993  1.00  0.00     0.029 A 
ATOM     38  N   UNL A   1      40.244  32.447  31.876  1.00  0.00    -0.354 N 
ATOM     39  C   UNL A   1      39.808  29.038  29.289  1.00  0.00     0.074 A 
ATOM     40  C   UNL A   1      38.545  29.075  28.581  1.00  0.00     0.031 C 
ATOM     41  C   UNL A   1      39.657  34.392  32.799  1.00  0.00     0.029 A 
ATOM     42  C   UNL A   1      40.722  33.397  32.746  1.00  0.00     0.049 A 
ATOM     43  H   UNL A   1      40.738  31.627  31.648  1.00  0.00     0.167 HD
ATOM     44  C   UNL A   1      40.721  28.044  29.176  1.00  0.00     0.031 A 
ATOM     45  C   UNL A   1      41.885  33.461  33.420  1.00  0.00     0.031 A 
ATOM     46  C   UNL A   1      41.965  27.991  29.898  1.00  0.00     0.049 A 
ATOM     47  C   UNL A   1      42.872  32.335  33.289  1.00  0.00     0.074 A 
ATOM     48  C   UNL A   1      42.944  27.012  29.858  1.00  0.00     0.029 A 
ATOM     49  N   UNL A   1      42.399  28.953  30.795  1.00  0.00    -0.354 N 
ATOM     50  N   UNL A   1      42.810  31.265  32.534  1.00  0.00    -0.248 NA
ATOM     51  C   UNL A   1      44.084  32.419  34.118  1.00  0.00     0.031 C 
ATOM     52  C   UNL A   1      43.948  27.361  30.768  1.00  0.00     0.029 A 
ATOM     53  C   UNL A   1      43.619  28.581  31.334  1.00  0.00     0.049 A 
ATOM     54  H   UNL A   1      41.912  29.780  31.017  1.00  0.00     0.167 HD
ATOM     55  C   UNL A   1      43.970  30.549  32.796  1.00  0.00     0.074 A 
ATOM     56  C   UNL A   1      44.734  31.322  33.754  1.00  0.00     0.031 C 
ATOM     57  C   UNL A   1      44.361  29.352  32.298  1.00  0.00     0.031 A 
BRANCH  44  58
ATOM     58  C   UNL A   1      40.370  26.898  28.274  1.00  0.00    -0.014 A 
ATOM     59  C   UNL A   1      39.569  25.836  28.719  1.00  0.00     0.009 A 
ATOM     60  C   UNL A   1      40.838  26.892  26.950  1.00  0.00     0.009 A 
ATOM     61  C   UNL A   1      39.269  24.773  27.864  1.00  0.00     0.001 A 
ATOM     62  C   UNL A   1      40.519  25.839  26.091  1.00  0.00     0.001 A 
ATOM     63  C   UNL A   1      39.742  24.777  26.551  1.00  0.00     0.000 A 
ENDBRANCH  44  58
BRANCH  45  64
ATOM     64  C   UNL A   1      42.187  34.633  34.282  1.00  0.00    -0.014 A 
ATOM     65  C   UNL A   1      41.838  34.622  35.642  1.00  0.00     0.009 A 
ATOM     66  C   UNL A   1      42.815  35.771  33.754  1.00  0.00     0.009 A 
ATOM     67  C   UNL A   1      42.093  35.734  36.449  1.00  0.00     0.001 A 
ATOM     68  C   UNL A   1      43.095  36.870  34.568  1.00  0.00     0.001 A 
ATOM     69  C   UNL A   1      42.726  36.854  35.912  1.00  0.00     0.000 A 
ENDBRANCH  45  64
BRANCH  57  70
ATOM     70  C   UNL A   1      45.674  28.805  32.781  1.00  0.00    -0.014 A 
ATOM     71  C   UNL A   1      46.873  29.110  32.117  1.00  0.00     0.009 A 
ATOM     72  C   UNL A   1      45.717  28.003  33.932  1.00  0.00     0.009 A 
ATOM     73  C   UNL A   1      48.087  28.599  32.580  1.00  0.00     0.001 A 
ATOM     74  C   UNL A   1      46.936  27.513  34.406  1.00  0.00     0.001 A 
ATOM     75  C   UNL A   1      48.118  27.805  33.725  1.00  0.00     0.000 A 
ENDBRANCH  57  70
ENDBRANCH  31  32
ENDBRANCH  24  26
ENDBRANCH  23  24
ENDBRANCH  22  23
ENDBRANCH   1  22
TORSDOF 13
ENDMDL
MODEL 3
REMARK VINA RESULT:     -10.6      5.772      9.610
REMARK SMILES Cc1cc(C(=O)N[C@H]2C=C[C@H](C(=O)OCCOC(=O)c3ccc(-c4c5nc(c(-c6ccccc6)c6ccc([nH]6)c(-c6ccccc6)c6nc(c(-c7ccccc7)c7ccc4[nH]7)C=C6)C=C5)cc3)C2)ccc1F
REMARK SMILES IDX 15 1 14 2 12 3 13 4 11 5 8 6 9 7 68 8 10 9 7 10 5 11 6 12
REMARK SMILES IDX 4 14 1 15 2 16 3 17 71 18 70 19 72 20 69 21 16 22 17 23
REMARK SMILES IDX 18 24 19 25 20 26 21 27 67 28 22 29 66 30 23 31 24 32 25 33
REMARK SMILES IDX 60 34 26 35 65 36 59 37 61 38 27 39 64 40 58 41 57 42 28 44
REMARK SMILES IDX 50 45 35 46 49 47 36 48 39 49 48 50 62 51 37 52 38 53 47 55
REMARK SMILES IDX 63 56 40 57 29 58 30 59 34 60 31 61 33 62 32 63 51 64 52 65
REMARK SMILES IDX 56 66 53 67 55 68 54 69 41 70 42 71 46 72 43 73 45 74 44 75
REMARK H PARENT 7 13 61 43 39 54
REMARK Flexibility Score: inf
ROOT
ATOM      1  C   UNL A   1      37.566  20.458  25.057  1.00  0.00     0.274 C 
ENDROOT
BRANCH   1   2
ATOM      2  O   UNL A   1      37.888  21.783  24.592  1.00  0.00    -0.462 OA
BRANCH   2   3
ATOM      3  C   UNL A   1      37.720  22.777  25.502  1.00  0.00     0.312 C 
ATOM      4  O   UNL A   1      38.413  22.921  26.504  1.00  0.00    -0.252 OA
BRANCH   3   5
ATOM      5  C   UNL A   1      36.601  23.737  25.095  1.00  0.00     0.124 C 
ATOM      6  C   UNL A   1      34.687  22.280  24.958  1.00  0.00     0.106 C 
ATOM      7  C   UNL A   1      35.006  22.836  23.608  1.00  0.00    -0.006 C 
ATOM      8  C   UNL A   1      35.325  23.343  25.852  1.00  0.00     0.048 C 
ATOM      9  C   UNL A   1      36.122  23.583  23.676  1.00  0.00    -0.014 C 
BRANCH   6  10
ATOM     10  N   UNL A   1      33.289  22.106  25.210  1.00  0.00    -0.346 N 
ATOM     11  C   UNL A   1      32.480  21.009  25.008  1.00  0.00     0.251 C 
ATOM     12  O   UNL A   1      31.300  21.130  25.347  1.00  0.00    -0.269 OA
ATOM     13  H   UNL A   1      32.834  22.894  25.586  1.00  0.00     0.164 HD
BRANCH  11  14
ATOM     14  C   UNL A   1      32.931  19.684  24.443  1.00  0.00     0.040 A 
ATOM     15  C   UNL A   1      35.197  16.673  25.085  1.00  0.00     0.047 C 
ATOM     16  C   UNL A   1      34.236  17.596  24.397  1.00  0.00    -0.015 A 
ATOM     17  C   UNL A   1      33.912  18.838  24.976  1.00  0.00     0.020 A 
ATOM     18  C   UNL A   1      33.591  17.223  23.224  1.00  0.00     0.126 A 
ATOM     19  C   UNL A   1      32.645  18.055  22.640  1.00  0.00     0.040 A 
ATOM     20  F   UNL A   1      33.866  16.042  22.654  1.00  0.00    -0.207 F 
ATOM     21  C   UNL A   1      32.307  19.267  23.253  1.00  0.00     0.017 A 
ENDBRANCH  11  14
ENDBRANCH   6  10
ENDBRANCH   3   5
ENDBRANCH   2   3
ENDBRANCH   1   2
BRANCH   1  22
ATOM     22  C   UNL A   1      38.819  19.575  25.096  1.00  0.00     0.275 C 
BRANCH  22  23
ATOM     23  O   UNL A   1      39.588  19.754  26.304  1.00  0.00    -0.458 OA
BRANCH  23  24
ATOM     24  C   UNL A   1      40.933  19.781  26.133  1.00  0.00     0.338 C 
ATOM     25  O   UNL A   1      41.620  18.930  25.595  1.00  0.00    -0.246 OA
BRANCH  24  26
ATOM     26  C   UNL A   1      41.491  21.070  26.589  1.00  0.00     0.060 A 
ATOM     27  C   UNL A   1      41.434  21.351  27.958  1.00  0.00     0.016 A 
ATOM     28  C   UNL A   1      41.987  22.026  25.698  1.00  0.00     0.016 A 
ATOM     29  C   UNL A   1      41.900  22.567  28.449  1.00  0.00     0.010 A 
ATOM     30  C   UNL A   1      42.420  23.266  26.188  1.00  0.00     0.010 A 
ATOM     31  C   UNL A   1      42.376  23.543  27.565  1.00  0.00    -0.014 A 
BRANCH  31  32
ATOM     32  C   UNL A   1      42.763  24.870  28.099  1.00  0.00     0.031 A 
ATOM     33  C   UNL A   1      41.714  25.912  28.346  1.00  0.00     0.074 A 
ATOM     34  C   UNL A   1      44.045  25.125  28.408  1.00  0.00     0.049 A 
ATOM     35  N   UNL A   1      41.848  27.114  28.845  1.00  0.00    -0.248 NA
ATOM     36  C   UNL A   1      40.335  25.557  27.978  1.00  0.00     0.031 C 
ATOM     37  C   UNL A   1      45.150  24.187  28.235  1.00  0.00     0.029 A 
ATOM     38  N   UNL A   1      44.631  26.242  28.951  1.00  0.00    -0.354 N 
ATOM     39  C   UNL A   1      40.575  27.668  28.836  1.00  0.00     0.074 A 
ATOM     40  C   UNL A   1      39.683  26.671  28.282  1.00  0.00     0.031 C 
ATOM     41  C   UNL A   1      46.278  24.759  28.687  1.00  0.00     0.029 A 
ATOM     42  C   UNL A   1      45.980  26.102  29.171  1.00  0.00     0.049 A 
ATOM     43  H   UNL A   1      44.133  27.065  29.161  1.00  0.00     0.167 HD
ATOM     44  C   UNL A   1      40.187  28.902  29.239  1.00  0.00     0.031 A 
ATOM     45  C   UNL A   1      46.874  26.956  29.704  1.00  0.00     0.031 A 
ATOM     46  C   UNL A   1      41.075  29.906  29.766  1.00  0.00     0.049 A 
ATOM     47  C   UNL A   1      46.420  28.325  30.125  1.00  0.00     0.074 A 
ATOM     48  C   UNL A   1      40.772  31.191  30.182  1.00  0.00     0.029 A 
ATOM     49  N   UNL A   1      42.439  29.739  29.941  1.00  0.00    -0.354 N 
ATOM     50  N   UNL A   1      45.212  28.835  30.115  1.00  0.00    -0.248 NA
ATOM     51  C   UNL A   1      47.458  29.244  30.618  1.00  0.00     0.031 C 
ATOM     52  C   UNL A   1      41.962  31.817  30.567  1.00  0.00     0.029 A 
ATOM     53  C   UNL A   1      42.997  30.906  30.437  1.00  0.00     0.049 A 
ATOM     54  H   UNL A   1      42.939  28.914  29.743  1.00  0.00     0.167 HD
ATOM     55  C   UNL A   1      45.344  30.131  30.596  1.00  0.00     0.074 A 
ATOM     56  C   UNL A   1      46.743  30.318  30.922  1.00  0.00     0.031 C 
ATOM     57  C   UNL A   1      44.393  31.084  30.743  1.00  0.00     0.031 A 
BRANCH  44  58
ATOM     58  C   UNL A   1      38.739  29.251  29.063  1.00  0.00    -0.014 A 
ATOM     59  C   UNL A   1      38.241  29.710  27.834  1.00  0.00     0.009 A 
ATOM     60  C   UNL A   1      37.856  29.102  30.144  1.00  0.00     0.009 A 
ATOM     61  C   UNL A   1      36.892  30.044  27.701  1.00  0.00     0.001 A 
ATOM     62  C   UNL A   1      36.503  29.415  30.002  1.00  0.00     0.001 A 
ATOM     63  C   UNL A   1      36.024  29.894  28.784  1.00  0.00     0.000 A 
ENDBRANCH  44  58
BRANCH  45  64
ATOM     64  C   UNL A   1      48.292  26.546  29.874  1.00  0.00    -0.014 A 
ATOM     65  C   UNL A   1      49.229  26.796  28.858  1.00  0.00     0.009 A 
ATOM     66  C   UNL A   1      48.717  25.895  31.042  1.00  0.00     0.009 A 
ATOM     67  C   UNL A   1      50.556  26.385  29.002  1.00  0.00     0.001 A 
ATOM     68  C   UNL A   1      50.050  25.510  31.195  1.00  0.00     0.001 A 
ATOM     69  C   UNL A   1      50.966  25.748  30.172  1.00  0.00     0.000 A 
ENDBRANCH  45  64
BRANCH  57  70
ATOM     70  C   UNL A   1      44.835  32.416  31.279  1.00  0.00    -0.014 A 
ATOM     71  C   UNL A   1      45.178  33.465  30.411  1.00  0.00     0.009 A 
ATOM     72  C   UNL A   1      44.878  32.634  32.664  1.00  0.00     0.009 A 
ATOM     73  C   UNL A   1      45.583  34.700  30.923  1.00  0.00     0.001 A 
ATOM     74  C   UNL A   1      45.261  33.877  33.171  1.00  0.00     0.001 A 
ATOM     75  C   UNL A   1      45.620  34.906  32.301  1.00  0.00     0.000 A 
ENDBRANCH  57  70
ENDBRANCH  31  32
ENDBRANCH  24  26
ENDBRANCH  23  24
ENDBRANCH  22  23
ENDBRANCH   1  22
TORSDOF 13
ENDMDL
