MODEL 1
REMARK VINA RESULT:     -10.5      0.000      0.000
REMARK SMILES COc1ccc(NC(=O)C[C@@H](C[NH+]2CCOCC2)C(=O)OCCOC(=O)c2ccc(-c3c4nc(c(-c5ccccc5)c5ccc([nH]5)c(-c5ccccc5)c5nc(c(-c6ccccc6)c6ccc3[nH]6)C=C5)C=C4)cc2)cc1
REMARK SMILES IDX 22 1 21 2 19 3 20 4 11 5 10 6 8 7 7 8 9 10 6 11 3 12 4 13
REMARK SMILES IDX 76 14 5 15 75 16 2 17 1 18 12 19 13 20 14 21 18 22 15 24
REMARK SMILES IDX 17 25 16 26 23 27 24 28 25 29 26 30 27 31 28 32 74 33 29 34
REMARK SMILES IDX 73 35 30 36 31 37 32 38 67 39 33 40 72 41 66 42 68 43 34 44
REMARK SMILES IDX 71 45 65 46 64 47 35 49 57 50 42 51 56 52 43 53 46 54 55 55
REMARK SMILES IDX 69 56 44 57 45 58 54 60 70 61 47 62 36 63 37 64 41 65 38 66
REMARK SMILES IDX 40 67 39 68 58 69 59 70 63 71 60 72 62 73 61 74 48 75 49 76
REMARK SMILES IDX 53 77 50 78 52 79 51 80
REMARK H PARENT 7 9 13 23 68 48 46 59
REMARK Flexibility Score: inf
ROOT
ATOM      1  C   UNL A   1      35.585  21.386  25.641  1.00  0.00     0.274 C 
ENDROOT
BRANCH   1   2
ATOM      2  O   UNL A   1      34.937  22.205  24.634  1.00  0.00    -0.462 OA
BRANCH   2   3
ATOM      3  C   UNL A   1      33.733  21.788  24.179  1.00  0.00     0.315 C 
ATOM      4  O   UNL A   1      33.311  22.003  23.047  1.00  0.00    -0.252 OA
BRANCH   3   5
ATOM      5  C   UNL A   1      32.865  21.164  25.258  1.00  0.00     0.163 C 
BRANCH   5   6
ATOM      6  C   UNL A   1      31.708  21.997  25.830  1.00  0.00     0.121 C 
BRANCH   6   7
ATOM      7  C   UNL A   1      32.110  22.881  27.007  1.00  0.00     0.225 C 
ATOM      8  N   UNL A   1      31.999  24.243  27.002  1.00  0.00    -0.326 N 
ATOM      9  H   UNL A   1      32.305  24.679  27.829  1.00  0.00     0.169 HD
ATOM     10  O   UNL A   1      32.476  22.350  28.063  1.00  0.00    -0.275 OA
BRANCH   8  11
ATOM     11  C   UNL A   1      31.522  25.125  26.024  1.00  0.00     0.041 A 
ATOM     12  C   UNL A   1      30.725  27.294  24.432  1.00  0.00     0.119 A 
ATOM     13  C   UNL A   1      29.775  26.398  24.920  1.00  0.00     0.048 A 
ATOM     14  C   UNL A   1      32.077  27.004  24.613  1.00  0.00     0.048 A 
ATOM     15  C   UNL A   1      30.174  25.323  25.738  1.00  0.00     0.030 A 
ATOM     16  C   UNL A   1      32.478  25.896  25.359  1.00  0.00     0.030 A 
BRANCH  12  17
ATOM     17  O   UNL A   1      30.490  28.527  23.901  1.00  0.00    -0.497 OA
ATOM     18  C   UNL A   1      29.856  28.639  22.638  1.00  0.00     0.278 C 
ENDBRANCH  12  17
ENDBRANCH   8  11
ENDBRANCH   6   7
ENDBRANCH   5   6
BRANCH   5  19
ATOM     19  C   UNL A   1      32.602  19.724  24.804  1.00  0.00     0.278 C 
BRANCH  19  20
ATOM     20  N   UNL A   1      33.362  18.549  25.218  1.00  0.00    -0.330 N 
ATOM     21  C   UNL A   1      34.355  18.096  24.245  1.00  0.00     0.291 C 
ATOM     22  C   UNL A   1      32.864  17.429  26.004  1.00  0.00     0.291 C 
ATOM     23  H   UNL A   1      33.717  19.080  26.013  1.00  0.00     0.348 HD
ATOM     24  C   UNL A   1      33.760  16.978  23.388  1.00  0.00     0.221 C 
ATOM     25  C   UNL A   1      32.573  16.116  25.262  1.00  0.00     0.221 C 
ATOM     26  O   UNL A   1      33.476  15.826  24.192  1.00  0.00    -0.370 OA
ENDBRANCH  19  20
ENDBRANCH   5  19
ENDBRANCH   3   5
ENDBRANCH   2   3
ENDBRANCH   1   2
BRANCH   1  27
ATOM     27  C   UNL A   1      36.718  20.579  25.009  1.00  0.00     0.275 C 
BRANCH  27  28
ATOM     28  O   UNL A   1      37.901  21.390  24.984  1.00  0.00    -0.458 OA
BRANCH  28  29
ATOM     29  C   UNL A   1      38.870  20.990  25.837  1.00  0.00     0.338 C 
ATOM     30  O   UNL A   1      39.277  19.855  26.015  1.00  0.00    -0.246 OA
BRANCH  29  31
ATOM     31  C   UNL A   1      39.566  22.209  26.291  1.00  0.00     0.060 A 
ATOM     32  C   UNL A   1      39.071  23.447  25.863  1.00  0.00     0.016 A 
ATOM     33  C   UNL A   1      40.628  22.135  27.196  1.00  0.00     0.016 A 
ATOM     34  C   UNL A   1      39.622  24.622  26.356  1.00  0.00     0.010 A 
ATOM     35  C   UNL A   1      41.198  23.312  27.667  1.00  0.00     0.010 A 
ATOM     36  C   UNL A   1      40.704  24.555  27.238  1.00  0.00    -0.014 A 
BRANCH  36  37
ATOM     37  C   UNL A   1      41.457  25.775  27.568  1.00  0.00     0.031 A 
ATOM     38  C   UNL A   1      40.787  26.785  28.448  1.00  0.00     0.074 A 
ATOM     39  C   UNL A   1      42.690  25.977  27.077  1.00  0.00     0.049 A 
ATOM     40  N   UNL A   1      41.164  27.994  28.760  1.00  0.00    -0.248 NA
ATOM     41  C   UNL A   1      39.505  26.373  29.049  1.00  0.00     0.031 C 
ATOM     42  C   UNL A   1      43.451  25.024  26.272  1.00  0.00     0.029 A 
ATOM     43  N   UNL A   1      43.512  27.068  27.180  1.00  0.00    -0.354 N 
ATOM     44  C   UNL A   1      40.155  28.496  29.572  1.00  0.00     0.074 A 
ATOM     45  C   UNL A   1      39.144  27.472  29.691  1.00  0.00     0.031 C 
ATOM     46  C   UNL A   1      44.629  25.581  25.938  1.00  0.00     0.029 A 
ATOM     47  C   UNL A   1      44.678  26.941  26.466  1.00  0.00     0.049 A 
ATOM     48  H   UNL A   1      43.289  27.865  27.713  1.00  0.00     0.167 HD
ATOM     49  C   UNL A   1      40.085  29.711  30.162  1.00  0.00     0.031 A 
ATOM     50  C   UNL A   1      45.649  27.845  26.240  1.00  0.00     0.031 A 
ATOM     51  C   UNL A   1      41.095  30.721  30.016  1.00  0.00     0.049 A 
ATOM     52  C   UNL A   1      45.506  29.221  26.837  1.00  0.00     0.074 A 
ATOM     53  C   UNL A   1      41.132  31.992  30.560  1.00  0.00     0.029 A 
ATOM     54  N   UNL A   1      42.251  30.569  29.262  1.00  0.00    -0.354 N 
ATOM     55  N   UNL A   1      44.550  29.697  27.600  1.00  0.00    -0.248 NA
ATOM     56  C   UNL A   1      46.575  30.184  26.540  1.00  0.00     0.031 C 
ATOM     57  C   UNL A   1      42.286  32.628  30.090  1.00  0.00     0.029 A 
ATOM     58  C   UNL A   1      42.998  31.731  29.306  1.00  0.00     0.049 A 
ATOM     59  H   UNL A   1      42.501  29.754  28.771  1.00  0.00     0.167 HD
ATOM     60  C   UNL A   1      44.915  31.004  27.897  1.00  0.00     0.074 A 
ATOM     61  C   UNL A   1      46.186  31.240  27.242  1.00  0.00     0.031 C 
ATOM     62  C   UNL A   1      44.262  31.929  28.645  1.00  0.00     0.031 A 
BRANCH  49  63
ATOM     63  C   UNL A   1      38.851  30.016  30.961  1.00  0.00    -0.014 A 
ATOM     64  C   UNL A   1      37.716  30.592  30.368  1.00  0.00     0.009 A 
ATOM     65  C   UNL A   1      38.826  29.728  32.333  1.00  0.00     0.009 A 
ATOM     66  C   UNL A   1      36.597  30.908  31.140  1.00  0.00     0.001 A 
ATOM     67  C   UNL A   1      37.696  30.017  33.099  1.00  0.00     0.001 A 
ATOM     68  C   UNL A   1      36.586  30.617  32.504  1.00  0.00     0.000 A 
ENDBRANCH  49  63
BRANCH  50  69
ATOM     69  C   UNL A   1      46.817  27.495  25.391  1.00  0.00    -0.014 A 
ATOM     70  C   UNL A   1      47.917  26.811  25.932  1.00  0.00     0.009 A 
ATOM     71  C   UNL A   1      46.847  27.854  24.034  1.00  0.00     0.009 A 
ATOM     72  C   UNL A   1      49.030  26.517  25.139  1.00  0.00     0.001 A 
ATOM     73  C   UNL A   1      47.948  27.534  23.236  1.00  0.00     0.001 A 
ATOM     74  C   UNL A   1      49.043  26.874  23.792  1.00  0.00     0.000 A 
ENDBRANCH  50  69
BRANCH  62  75
ATOM     75  C   UNL A   1      44.935  33.259  28.830  1.00  0.00    -0.014 A 
ATOM     76  C   UNL A   1      44.673  34.335  27.969  1.00  0.00     0.009 A 
ATOM     77  C   UNL A   1      45.799  33.449  29.919  1.00  0.00     0.009 A 
ATOM     78  C   UNL A   1      45.288  35.570  28.181  1.00  0.00     0.001 A 
ATOM     79  C   UNL A   1      46.389  34.692  30.146  1.00  0.00     0.001 A 
ATOM     80  C   UNL A   1      46.139  35.748  29.273  1.00  0.00     0.000 A 
ENDBRANCH  62  75
ENDBRANCH  36  37
ENDBRANCH  29  31
ENDBRANCH  28  29
ENDBRANCH  27  28
ENDBRANCH   1  27
TORSDOF 17
ENDMDL
MODEL 2
REMARK VINA RESULT:     -10.5      3.808      8.726
REMARK SMILES COc1ccc(NC(=O)C[C@@H](C[NH+]2CCOCC2)C(=O)OCCOC(=O)c2ccc(-c3c4nc(c(-c5ccccc5)c5ccc([nH]5)c(-c5ccccc5)c5nc(c(-c6ccccc6)c6ccc3[nH]6)C=C5)C=C4)cc2)cc1
REMARK SMILES IDX 22 1 21 2 19 3 20 4 11 5 10 6 8 7 7 8 9 10 6 11 3 12 4 13
REMARK SMILES IDX 76 14 5 15 75 16 2 17 1 18 12 19 13 20 14 21 18 22 15 24
REMARK SMILES IDX 17 25 16 26 23 27 24 28 25 29 26 30 27 31 28 32 74 33 29 34
REMARK SMILES IDX 73 35 30 36 31 37 32 38 67 39 33 40 72 41 66 42 68 43 34 44
REMARK SMILES IDX 71 45 65 46 64 47 35 49 57 50 42 51 56 52 43 53 46 54 55 55
REMARK SMILES IDX 69 56 44 57 45 58 54 60 70 61 47 62 36 63 37 64 41 65 38 66
REMARK SMILES IDX 40 67 39 68 58 69 59 70 63 71 60 72 62 73 61 74 48 75 49 76
REMARK SMILES IDX 53 77 50 78 52 79 51 80
REMARK H PARENT 7 9 13 23 68 48 46 59
REMARK Flexibility Score: inf
ROOT
ATOM      1  C   UNL A   1      31.593  29.265  25.637  1.00  0.00     0.274 C 
ENDROOT
BRANCH   1   2
ATOM      2  O   UNL A   1      31.860  27.974  26.241  1.00  0.00    -0.462 OA
BRANCH   2   3
ATOM      3  C   UNL A   1      33.030  27.373  25.925  1.00  0.00     0.315 C 
ATOM      4  O   UNL A   1      34.089  27.573  26.511  1.00  0.00    -0.252 OA
BRANCH   3   5
ATOM      5  C   UNL A   1      32.957  26.542  24.655  1.00  0.00     0.163 C 
BRANCH   5   6
ATOM      6  C   UNL A   1      33.532  27.139  23.362  1.00  0.00     0.121 C 
BRANCH   6   7
ATOM      7  C   UNL A   1      32.854  26.628  22.095  1.00  0.00     0.225 C 
ATOM      8  N   UNL A   1      31.625  27.049  21.672  1.00  0.00    -0.326 N 
ATOM      9  H   UNL A   1      31.313  26.625  20.841  1.00  0.00     0.169 HD
ATOM     10  O   UNL A   1      33.473  25.857  21.350  1.00  0.00    -0.275 OA
BRANCH   8  11
ATOM     11  C   UNL A   1      30.733  27.981  22.216  1.00  0.00     0.041 A 
ATOM     12  C   UNL A   1      28.572  29.612  22.954  1.00  0.00     0.119 A 
ATOM     13  C   UNL A   1      29.689  30.169  22.335  1.00  0.00     0.048 A 
ATOM     14  C   UNL A   1      28.616  28.273  23.342  1.00  0.00     0.048 A 
ATOM     15  C   UNL A   1      30.763  29.346  21.944  1.00  0.00     0.030 A 
ATOM     16  C   UNL A   1      29.713  27.472  23.024  1.00  0.00     0.030 A 
BRANCH  12  17
ATOM     17  O   UNL A   1      27.349  30.193  23.113  1.00  0.00    -0.497 OA
ATOM     18  C   UNL A   1      27.231  31.386  23.869  1.00  0.00     0.278 C 
ENDBRANCH  12  17
ENDBRANCH   8  11
ENDBRANCH   6   7
ENDBRANCH   5   6
BRANCH   5  19
ATOM     19  C   UNL A   1      33.347  25.117  25.064  1.00  0.00     0.278 C 
BRANCH  19  20
ATOM     20  N   UNL A   1      34.518  24.387  24.591  1.00  0.00    -0.330 N 
ATOM     21  C   UNL A   1      34.220  23.301  23.657  1.00  0.00     0.291 C 
ATOM     22  C   UNL A   1      35.720  24.089  25.358  1.00  0.00     0.291 C 
ATOM     23  H   UNL A   1      34.871  25.252  24.182  1.00  0.00     0.348 HD
ATOM     24  C   UNL A   1      34.134  21.978  24.418  1.00  0.00     0.221 C 
ATOM     25  C   UNL A   1      35.895  22.651  25.870  1.00  0.00     0.221 C 
ATOM     26  O   UNL A   1      35.407  21.641  24.984  1.00  0.00    -0.370 OA
ENDBRANCH  19  20
ENDBRANCH   5  19
ENDBRANCH   3   5
ENDBRANCH   2   3
ENDBRANCH   1   2
BRANCH   1  27
ATOM     27  C   UNL A   1      31.867  30.381  26.645  1.00  0.00     0.275 C 
BRANCH  27  28
ATOM     28  O   UNL A   1      33.206  30.856  26.450  1.00  0.00    -0.458 OA
BRANCH  28  29
ATOM     29  C   UNL A   1      33.544  31.910  27.227  1.00  0.00     0.338 C 
ATOM     30  O   UNL A   1      32.852  32.872  27.511  1.00  0.00    -0.246 OA
BRANCH  29  31
ATOM     31  C   UNL A   1      34.790  31.540  27.925  1.00  0.00     0.060 A 
ATOM     32  C   UNL A   1      34.930  30.218  28.365  1.00  0.00     0.016 A 
ATOM     33  C   UNL A   1      35.837  32.455  28.059  1.00  0.00     0.016 A 
ATOM     34  C   UNL A   1      36.129  29.796  28.924  1.00  0.00     0.010 A 
ATOM     35  C   UNL A   1      37.027  32.040  28.645  1.00  0.00     0.010 A 
ATOM     36  C   UNL A   1      37.169  30.714  29.088  1.00  0.00    -0.014 A 
BRANCH  36  37
ATOM     37  C   UNL A   1      38.342  30.355  29.901  1.00  0.00     0.031 A 
ATOM     38  C   UNL A   1      39.365  29.455  29.278  1.00  0.00     0.074 A 
ATOM     39  C   UNL A   1      38.472  30.805  31.159  1.00  0.00     0.049 A 
ATOM     40  N   UNL A   1      40.398  28.873  29.822  1.00  0.00    -0.248 NA
ATOM     41  C   UNL A   1      39.188  29.164  27.844  1.00  0.00     0.031 C 
ATOM     42  C   UNL A   1      37.566  31.739  31.825  1.00  0.00     0.029 A 
ATOM     43  N   UNL A   1      39.420  30.518  32.105  1.00  0.00    -0.354 N 
ATOM     44  C   UNL A   1      40.979  28.127  28.805  1.00  0.00     0.074 A 
ATOM     45  C   UNL A   1      40.176  28.315  27.619  1.00  0.00     0.031 C 
ATOM     46  C   UNL A   1      37.996  31.937  33.084  1.00  0.00     0.029 A 
ATOM     47  C   UNL A   1      39.174  31.107  33.320  1.00  0.00     0.049 A 
ATOM     48  H   UNL A   1      40.202  29.945  31.930  1.00  0.00     0.167 HD
ATOM     49  C   UNL A   1      42.085  27.352  28.864  1.00  0.00     0.031 A 
ATOM     50  C   UNL A   1      39.814  30.954  34.493  1.00  0.00     0.031 A 
ATOM     51  C   UNL A   1      42.858  27.166  30.060  1.00  0.00     0.049 A 
ATOM     52  C   UNL A   1      40.993  30.017  34.555  1.00  0.00     0.074 A 
ATOM     53  C   UNL A   1      43.994  26.400  30.245  1.00  0.00     0.029 A 
ATOM     54  N   UNL A   1      42.564  27.757  31.281  1.00  0.00    -0.354 N 
ATOM     55  N   UNL A   1      41.537  29.308  33.595  1.00  0.00    -0.248 NA
ATOM     56  C   UNL A   1      41.642  29.858  35.863  1.00  0.00     0.031 C 
ATOM     57  C   UNL A   1      44.356  26.485  31.593  1.00  0.00     0.029 A 
ATOM     58  C   UNL A   1      43.482  27.354  32.232  1.00  0.00     0.049 A 
ATOM     59  H   UNL A   1      41.813  28.371  31.445  1.00  0.00     0.167 HD
ATOM     60  C   UNL A   1      42.609  28.641  34.174  1.00  0.00     0.074 A 
ATOM     61  C   UNL A   1      42.644  29.041  35.566  1.00  0.00     0.031 C 
ATOM     62  C   UNL A   1      43.490  27.777  33.609  1.00  0.00     0.031 A 
BRANCH  49  63
ATOM     63  C   UNL A   1      42.473  26.613  27.616  1.00  0.00    -0.014 A 
ATOM     64  C   UNL A   1      43.376  27.160  26.689  1.00  0.00     0.009 A 
ATOM     65  C   UNL A   1      41.918  25.351  27.357  1.00  0.00     0.009 A 
ATOM     66  C   UNL A   1      43.685  26.474  25.513  1.00  0.00     0.001 A 
ATOM     67  C   UNL A   1      42.251  24.654  26.195  1.00  0.00     0.001 A 
ATOM     68  C   UNL A   1      43.126  25.220  25.269  1.00  0.00     0.000 A 
ENDBRANCH  49  63
BRANCH  50  69
ATOM     69  C   UNL A   1      39.341  31.672  35.706  1.00  0.00    -0.014 A 
ATOM     70  C   UNL A   1      38.287  31.158  36.477  1.00  0.00     0.009 A 
ATOM     71  C   UNL A   1      39.933  32.885  36.095  1.00  0.00     0.009 A 
ATOM     72  C   UNL A   1      37.820  31.855  37.595  1.00  0.00     0.001 A 
ATOM     73  C   UNL A   1      39.484  33.565  37.230  1.00  0.00     0.001 A 
ATOM     74  C   UNL A   1      38.422  33.053  37.973  1.00  0.00     0.000 A 
ENDBRANCH  50  69
BRANCH  62  75
ATOM     75  C   UNL A   1      44.586  27.246  34.486  1.00  0.00    -0.014 A 
ATOM     76  C   UNL A   1      45.798  27.936  34.639  1.00  0.00     0.009 A 
ATOM     77  C   UNL A   1      44.376  26.065  35.215  1.00  0.00     0.009 A 
ATOM     78  C   UNL A   1      46.790  27.436  35.485  1.00  0.00     0.001 A 
ATOM     79  C   UNL A   1      45.356  25.584  36.082  1.00  0.00     0.001 A 
ATOM     80  C   UNL A   1      46.565  26.265  36.210  1.00  0.00     0.000 A 
ENDBRANCH  62  75
ENDBRANCH  36  37
ENDBRANCH  29  31
ENDBRANCH  28  29
ENDBRANCH  27  28
ENDBRANCH   1  27
TORSDOF 17
ENDMDL
MODEL 3
REMARK VINA RESULT:     -10.5      3.219      6.811
REMARK SMILES COc1ccc(NC(=O)C[C@@H](C[NH+]2CCOCC2)C(=O)OCCOC(=O)c2ccc(-c3c4nc(c(-c5ccccc5)c5ccc([nH]5)c(-c5ccccc5)c5nc(c(-c6ccccc6)c6ccc3[nH]6)C=C5)C=C4)cc2)cc1
REMARK SMILES IDX 22 1 21 2 19 3 20 4 11 5 10 6 8 7 7 8 9 10 6 11 3 12 4 13
REMARK SMILES IDX 76 14 5 15 75 16 2 17 1 18 12 19 13 20 14 21 18 22 15 24
REMARK SMILES IDX 17 25 16 26 23 27 24 28 25 29 26 30 27 31 28 32 74 33 29 34
REMARK SMILES IDX 73 35 30 36 31 37 32 38 67 39 33 40 72 41 66 42 68 43 34 44
REMARK SMILES IDX 71 45 65 46 64 47 35 49 57 50 42 51 56 52 43 53 46 54 55 55
REMARK SMILES IDX 69 56 44 57 45 58 54 60 70 61 47 62 36 63 37 64 41 65 38 66
REMARK SMILES IDX 40 67 39 68 58 69 59 70 63 71 60 72 62 73 61 74 48 75 49 76
REMARK SMILES IDX 53 77 50 78 52 79 51 80
REMARK H PARENT 7 9 13 23 68 48 46 59
REMARK Flexibility Score: inf
ROOT
ATOM      1  C   UNL A   1      36.374  21.988  24.704  1.00  0.00     0.274 C 
ENDROOT
BRANCH   1   2
ATOM      2  O   UNL A   1      35.946  23.374  24.687  1.00  0.00    -0.462 OA
BRANCH   2   3
ATOM      3  C   UNL A   1      35.011  23.721  23.773  1.00  0.00     0.315 C 
ATOM      4  O   UNL A   1      35.012  23.342  22.606  1.00  0.00    -0.252 OA
BRANCH   3   5
ATOM      5  C   UNL A   1      34.035  24.770  24.278  1.00  0.00     0.163 C 
BRANCH   5   6
ATOM      6  C   UNL A   1      32.888  25.200  23.351  1.00  0.00     0.121 C 
BRANCH   6   7
ATOM      7  C   UNL A   1      33.256  26.340  22.407  1.00  0.00     0.225 C 
ATOM      8  N   UNL A   1      33.277  27.655  22.781  1.00  0.00    -0.326 N 
ATOM      9  H   UNL A   1      33.526  28.279  22.061  1.00  0.00     0.169 HD
ATOM     10  O   UNL A   1      33.644  26.074  21.262  1.00  0.00    -0.275 OA
BRANCH   8  11
ATOM     11  C   UNL A   1      33.008  28.267  24.011  1.00  0.00     0.041 A 
ATOM     12  C   UNL A   1      32.497  29.975  26.178  1.00  0.00     0.119 A 
ATOM     13  C   UNL A   1      33.656  29.201  26.155  1.00  0.00     0.048 A 
ATOM     14  C   UNL A   1      31.531  29.767  25.195  1.00  0.00     0.048 A 
ATOM     15  C   UNL A   1      33.922  28.361  25.056  1.00  0.00     0.030 A 
ATOM     16  C   UNL A   1      31.758  28.878  24.144  1.00  0.00     0.030 A 
BRANCH  12  17
ATOM     17  O   UNL A   1      32.241  31.040  26.989  1.00  0.00    -0.497 OA
ATOM     18  C   UNL A   1      31.362  32.062  26.550  1.00  0.00     0.278 C 
ENDBRANCH  12  17
ENDBRANCH   8  11
ENDBRANCH   6   7
ENDBRANCH   5   6
BRANCH   5  19
ATOM     19  C   UNL A   1      33.727  24.393  25.731  1.00  0.00     0.278 C 
BRANCH  19  20
ATOM     20  N   UNL A   1      32.866  23.296  26.161  1.00  0.00    -0.330 N 
ATOM     21  C   UNL A   1      33.180  22.762  27.486  1.00  0.00     0.291 C 
ATOM     22  C   UNL A   1      32.297  22.259  25.311  1.00  0.00     0.291 C 
ATOM     23  H   UNL A   1      32.065  23.924  26.104  1.00  0.00     0.348 HD
ATOM     24  C   UNL A   1      34.084  21.537  27.345  1.00  0.00     0.221 C 
ATOM     25  C   UNL A   1      32.933  20.862  25.375  1.00  0.00     0.221 C 
ATOM     26  O   UNL A   1      33.392  20.477  26.673  1.00  0.00    -0.370 OA
ENDBRANCH  19  20
ENDBRANCH   5  19
ENDBRANCH   3   5
ENDBRANCH   2   3
ENDBRANCH   1   2
BRANCH   1  27
ATOM     27  C   UNL A   1      37.866  21.905  25.024  1.00  0.00     0.275 C 
BRANCH  27  28
ATOM     28  O   UNL A   1      38.165  22.846  26.064  1.00  0.00    -0.458 OA
BRANCH  28  29
ATOM     29  C   UNL A   1      39.472  22.906  26.405  1.00  0.00     0.338 C 
ATOM     30  O   UNL A   1      40.362  22.145  26.063  1.00  0.00    -0.246 OA
BRANCH  29  31
ATOM     31  C   UNL A   1      39.692  24.231  27.014  1.00  0.00     0.060 A 
ATOM     32  C   UNL A   1      40.328  25.212  26.243  1.00  0.00     0.016 A 
ATOM     33  C   UNL A   1      39.198  24.528  28.287  1.00  0.00     0.016 A 
ATOM     34  C   UNL A   1      40.454  26.505  26.732  1.00  0.00     0.010 A 
ATOM     35  C   UNL A   1      39.350  25.815  28.788  1.00  0.00     0.010 A 
ATOM     36  C   UNL A   1      39.988  26.801  28.016  1.00  0.00    -0.014 A 
BRANCH  36  37
ATOM     37  C   UNL A   1      40.338  28.085  28.645  1.00  0.00     0.031 A 
ATOM     38  C   UNL A   1      41.715  28.222  29.216  1.00  0.00     0.074 A 
ATOM     39  C   UNL A   1      39.442  29.082  28.717  1.00  0.00     0.049 A 
ATOM     40  N   UNL A   1      42.219  29.177  29.949  1.00  0.00    -0.248 NA
ATOM     41  C   UNL A   1      42.650  27.118  28.929  1.00  0.00     0.031 C 
ATOM     42  C   UNL A   1      38.104  29.068  28.130  1.00  0.00     0.029 A 
ATOM     43  N   UNL A   1      39.529  30.301  29.336  1.00  0.00    -0.354 N 
ATOM     44  C   UNL A   1      43.518  28.779  30.231  1.00  0.00     0.074 A 
ATOM     45  C   UNL A   1      43.722  27.492  29.609  1.00  0.00     0.031 C 
ATOM     46  C   UNL A   1      37.486  30.223  28.431  1.00  0.00     0.029 A 
ATOM     47  C   UNL A   1      38.368  31.030  29.269  1.00  0.00     0.049 A 
ATOM     48  H   UNL A   1      40.344  30.623  29.784  1.00  0.00     0.167 HD
ATOM     49  C   UNL A   1      44.455  29.436  30.951  1.00  0.00     0.031 A 
ATOM     50  C   UNL A   1      38.053  32.199  29.857  1.00  0.00     0.031 A 
ATOM     51  C   UNL A   1      44.225  30.708  31.576  1.00  0.00     0.049 A 
ATOM     52  C   UNL A   1      39.085  32.870  30.727  1.00  0.00     0.074 A 
ATOM     53  C   UNL A   1      45.094  31.469  32.336  1.00  0.00     0.029 A 
ATOM     54  N   UNL A   1      43.027  31.406  31.511  1.00  0.00    -0.354 N 
ATOM     55  N   UNL A   1      40.311  32.490  30.998  1.00  0.00    -0.248 NA
ATOM     56  C   UNL A   1      38.688  34.128  31.372  1.00  0.00     0.031 C 
ATOM     57  C   UNL A   1      44.403  32.601  32.776  1.00  0.00     0.029 A 
ATOM     58  C   UNL A   1      43.124  32.577  32.238  1.00  0.00     0.049 A 
ATOM     59  H   UNL A   1      42.227  31.110  31.020  1.00  0.00     0.167 HD
ATOM     60  C   UNL A   1      40.842  33.476  31.821  1.00  0.00     0.074 A 
ATOM     61  C   UNL A   1      39.806  34.475  31.993  1.00  0.00     0.031 C 
ATOM     62  C   UNL A   1      42.074  33.552  32.384  1.00  0.00     0.031 A 
BRANCH  49  63
ATOM     63  C   UNL A   1      45.779  28.753  31.140  1.00  0.00    -0.014 A 
ATOM     64  C   UNL A   1      46.834  28.931  30.230  1.00  0.00     0.009 A 
ATOM     65  C   UNL A   1      45.972  27.909  32.244  1.00  0.00     0.009 A 
ATOM     66  C   UNL A   1      48.040  28.250  30.402  1.00  0.00     0.001 A 
ATOM     67  C   UNL A   1      47.188  27.251  32.431  1.00  0.00     0.001 A 
ATOM     68  C   UNL A   1      48.218  27.414  31.504  1.00  0.00     0.000 A 
ENDBRANCH  49  63
BRANCH  50  69
ATOM     69  C   UNL A   1      36.702  32.791  29.675  1.00  0.00    -0.014 A 
ATOM     70  C   UNL A   1      36.416  33.593  28.559  1.00  0.00     0.009 A 
ATOM     71  C   UNL A   1      35.691  32.568  30.623  1.00  0.00     0.009 A 
ATOM     72  C   UNL A   1      35.155  34.179  28.411  1.00  0.00     0.001 A 
ATOM     73  C   UNL A   1      34.422  33.131  30.458  1.00  0.00     0.001 A 
ATOM     74  C   UNL A   1      34.160  33.944  29.356  1.00  0.00     0.000 A 
ENDBRANCH  50  69
BRANCH  62  75
ATOM     75  C   UNL A   1      42.379  34.777  33.198  1.00  0.00    -0.014 A 
ATOM     76  C   UNL A   1      43.057  35.872  32.642  1.00  0.00     0.009 A 
ATOM     77  C   UNL A   1      41.928  34.853  34.524  1.00  0.00     0.009 A 
ATOM     78  C   UNL A   1      43.302  37.011  33.412  1.00  0.00     0.001 A 
ATOM     79  C   UNL A   1      42.147  36.004  35.281  1.00  0.00     0.001 A 
ATOM     80  C   UNL A   1      42.841  37.077  34.727  1.00  0.00     0.000 A 
ENDBRANCH  62  75
ENDBRANCH  36  37
ENDBRANCH  29  31
ENDBRANCH  28  29
ENDBRANCH  27  28
ENDBRANCH   1  27
TORSDOF 17
ENDMDL
