MODEL 1
REMARK VINA RESULT:      -9.6      0.000      0.000
REMARK SMILES Cc1nnc(S[C@@H](C)CCO)c(C(=O)OCCOC(=O)c2ccc(-c3c4nc(c(-c5ccccc5)c5ccc([nH]5)c(-c5ccccc5)c5nc(c(-c6ccccc6)c6ccc3[nH]6)C=C5)C=C4)cc2)c1C
REMARK SMILES IDX 15 1 13 2 14 3 12 4 1 5 2 6 3 7 69 8 4 9 70 10 5 11 6 12
REMARK SMILES IDX 7 13 8 14 9 15 10 16 11 17 16 19 17 20 18 21 19 22 20 23
REMARK SMILES IDX 21 24 22 25 68 26 23 27 67 28 24 29 25 30 26 31 61 32 27 33
REMARK SMILES IDX 66 34 60 35 62 36 28 37 65 38 59 39 58 40 29 42 51 43 36 44
REMARK SMILES IDX 50 45 37 46 40 47 49 48 63 49 38 50 39 51 48 53 64 54 41 55
REMARK SMILES IDX 30 56 31 57 35 58 32 59 34 60 33 61 52 62 53 63 57 64 54 65
REMARK SMILES IDX 56 66 55 67 42 68 43 69 47 70 44 71 46 72 45 73
REMARK H PARENT 11 18 62 41 40 52
REMARK Flexibility Score: inf
ROOT
ATOM      1  O   UNL A   1      34.064  26.828  25.243  1.00  0.00    -0.458 OA
ENDROOT
BRANCH   1   2
ATOM      2  C   UNL A   1      33.557  25.759  24.579  1.00  0.00     0.341 C 
ATOM      3  O   UNL A   1      33.675  25.476  23.418  1.00  0.00    -0.246 OA
BRANCH   2   4
ATOM      4  C   UNL A   1      32.982  24.940  25.657  1.00  0.00     0.098 A 
ATOM      5  C   UNL A   1      33.956  21.910  27.789  1.00  0.00     0.069 C 
ATOM      6  C   UNL A   1      33.215  23.036  27.134  1.00  0.00     0.064 A 
ATOM      7  N   UNL A   1      31.908  23.135  27.414  1.00  0.00    -0.155 NA
ATOM      8  C   UNL A   1      33.813  23.949  26.275  1.00  0.00    -0.011 A 
ATOM      9  N   UNL A   1      31.144  24.154  26.862  1.00  0.00    -0.143 NA
ATOM     10  C   UNL A   1      35.289  23.844  25.973  1.00  0.00     0.047 C 
ATOM     11  C   UNL A   1      31.635  25.054  25.975  1.00  0.00     0.134 A 
BRANCH  11  12
ATOM     12  S   UNL A   1      30.437  26.331  25.726  1.00  0.00    -0.100 SA
BRANCH  12  13
ATOM     13  C   UNL A   1      30.098  27.067  24.031  1.00  0.00     0.052 C 
ATOM     14  C   UNL A   1      28.620  26.652  23.874  1.00  0.00     0.020 C 
BRANCH  13  15
ATOM     15  C   UNL A   1      30.210  28.545  23.648  1.00  0.00     0.043 C 
BRANCH  15  16
ATOM     16  C   UNL A   1      31.086  28.918  22.437  1.00  0.00     0.157 C 
BRANCH  16  17
ATOM     17  O   UNL A   1      30.636  30.053  21.724  1.00  0.00    -0.396 OA
ATOM     18  H   UNL A   1      29.856  29.817  21.197  1.00  0.00     0.210 HD
ENDBRANCH  16  17
ENDBRANCH  15  16
ENDBRANCH  13  15
ENDBRANCH  12  13
ENDBRANCH  11  12
ENDBRANCH   2   4
ENDBRANCH   1   2
BRANCH   1  19
ATOM     19  C   UNL A   1      33.745  28.152  24.812  1.00  0.00     0.275 C 
BRANCH  19  20
ATOM     20  C   UNL A   1      33.239  28.892  26.061  1.00  0.00     0.275 C 
BRANCH  20  21
ATOM     21  O   UNL A   1      34.175  28.808  27.165  1.00  0.00    -0.458 OA
BRANCH  21  22
ATOM     22  C   UNL A   1      34.654  29.954  27.723  1.00  0.00     0.338 C 
ATOM     23  O   UNL A   1      34.025  30.977  27.923  1.00  0.00    -0.246 OA
BRANCH  22  24
ATOM     24  C   UNL A   1      36.075  29.739  28.135  1.00  0.00     0.060 A 
ATOM     25  C   UNL A   1      37.104  29.841  27.192  1.00  0.00     0.016 A 
ATOM     26  C   UNL A   1      36.407  29.444  29.461  1.00  0.00     0.016 A 
ATOM     27  C   UNL A   1      38.448  29.750  27.591  1.00  0.00     0.010 A 
ATOM     28  C   UNL A   1      37.745  29.361  29.866  1.00  0.00     0.010 A 
ATOM     29  C   UNL A   1      38.780  29.512  28.935  1.00  0.00    -0.014 A 
BRANCH  29  30
ATOM     30  C   UNL A   1      40.168  29.141  29.316  1.00  0.00     0.031 A 
ATOM     31  C   UNL A   1      40.625  27.749  28.975  1.00  0.00     0.074 A 
ATOM     32  C   UNL A   1      41.008  29.965  29.974  1.00  0.00     0.049 A 
ATOM     33  N   UNL A   1      41.809  27.208  29.095  1.00  0.00    -0.248 NA
ATOM     34  C   UNL A   1      39.598  26.844  28.430  1.00  0.00     0.031 C 
ATOM     35  C   UNL A   1      40.704  31.324  30.417  1.00  0.00     0.029 A 
ATOM     36  N   UNL A   1      42.305  29.762  30.388  1.00  0.00    -0.354 N 
ATOM     37  C   UNL A   1      41.681  25.924  28.588  1.00  0.00     0.074 A 
ATOM     38  C   UNL A   1      40.294  25.736  28.230  1.00  0.00     0.031 C 
ATOM     39  C   UNL A   1      41.786  31.834  31.038  1.00  0.00     0.029 A 
ATOM     40  C   UNL A   1      42.864  30.844  31.028  1.00  0.00     0.049 A 
ATOM     41  H   UNL A   1      42.790  28.918  30.240  1.00  0.00     0.167 HD
ATOM     42  C   UNL A   1      42.636  24.987  28.401  1.00  0.00     0.031 A 
ATOM     43  C   UNL A   1      44.105  31.021  31.526  1.00  0.00     0.031 A 
ATOM     44  C   UNL A   1      44.002  25.128  28.802  1.00  0.00     0.049 A 
ATOM     45  C   UNL A   1      45.141  29.933  31.385  1.00  0.00     0.074 A 
ATOM     46  C   UNL A   1      45.042  24.233  28.640  1.00  0.00     0.029 A 
ATOM     47  N   UNL A   1      44.510  26.229  29.468  1.00  0.00    -0.354 N 
ATOM     48  N   UNL A   1      45.035  28.763  30.802  1.00  0.00    -0.248 NA
ATOM     49  C   UNL A   1      46.474  30.194  31.956  1.00  0.00     0.031 C 
ATOM     50  C   UNL A   1      46.177  24.775  29.247  1.00  0.00     0.029 A 
ATOM     51  C   UNL A   1      45.847  26.026  29.749  1.00  0.00     0.049 A 
ATOM     52  H   UNL A   1      43.998  27.036  29.705  1.00  0.00     0.167 HD
ATOM     53  C   UNL A   1      46.288  28.169  30.906  1.00  0.00     0.074 A 
ATOM     54  C   UNL A   1      47.141  29.098  31.613  1.00  0.00     0.031 C 
ATOM     55  C   UNL A   1      46.692  26.961  30.445  1.00  0.00     0.031 A 
BRANCH  42  56
ATOM     56  C   UNL A   1      42.215  23.729  27.707  1.00  0.00    -0.014 A 
ATOM     57  C   UNL A   1      41.640  22.680  28.443  1.00  0.00     0.009 A 
ATOM     58  C   UNL A   1      42.386  23.586  26.324  1.00  0.00     0.009 A 
ATOM     59  C   UNL A   1      41.269  21.495  27.808  1.00  0.00     0.001 A 
ATOM     60  C   UNL A   1      41.994  22.407  25.688  1.00  0.00     0.001 A 
ATOM     61  C   UNL A   1      41.444  21.363  26.431  1.00  0.00     0.000 A 
ENDBRANCH  42  56
BRANCH  43  62
ATOM     62  C   UNL A   1      44.473  32.311  32.171  1.00  0.00    -0.014 A 
ATOM     63  C   UNL A   1      45.020  33.353  31.405  1.00  0.00     0.009 A 
ATOM     64  C   UNL A   1      44.298  32.501  33.549  1.00  0.00     0.009 A 
ATOM     65  C   UNL A   1      45.396  34.555  32.011  1.00  0.00     0.001 A 
ATOM     66  C   UNL A   1      44.662  33.711  34.149  1.00  0.00     0.001 A 
ATOM     67  C   UNL A   1      45.214  34.735  33.380  1.00  0.00     0.000 A 
ENDBRANCH  43  62
BRANCH  55  68
ATOM     68  C   UNL A   1      48.117  26.543  30.656  1.00  0.00    -0.014 A 
ATOM     69  C   UNL A   1      48.475  25.748  31.754  1.00  0.00     0.009 A 
ATOM     70  C   UNL A   1      49.067  26.788  29.650  1.00  0.00     0.009 A 
ATOM     71  C   UNL A   1      49.755  25.195  31.834  1.00  0.00     0.001 A 
ATOM     72  C   UNL A   1      50.338  26.219  29.725  1.00  0.00     0.001 A 
ATOM     73  C   UNL A   1      50.679  25.419  30.814  1.00  0.00     0.000 A 
ENDBRANCH  55  68
ENDBRANCH  29  30
ENDBRANCH  22  24
ENDBRANCH  21  22
ENDBRANCH  20  21
ENDBRANCH  19  20
ENDBRANCH   1  19
TORSDOF 16
ENDMDL
MODEL 2
REMARK VINA RESULT:      -9.3      2.906      7.516
REMARK SMILES Cc1nnc(S[C@@H](C)CCO)c(C(=O)OCCOC(=O)c2ccc(-c3c4nc(c(-c5ccccc5)c5ccc([nH]5)c(-c5ccccc5)c5nc(c(-c6ccccc6)c6ccc3[nH]6)C=C5)C=C4)cc2)c1C
REMARK SMILES IDX 15 1 13 2 14 3 12 4 1 5 2 6 3 7 69 8 4 9 70 10 5 11 6 12
REMARK SMILES IDX 7 13 8 14 9 15 10 16 11 17 16 19 17 20 18 21 19 22 20 23
REMARK SMILES IDX 21 24 22 25 68 26 23 27 67 28 24 29 25 30 26 31 61 32 27 33
REMARK SMILES IDX 66 34 60 35 62 36 28 37 65 38 59 39 58 40 29 42 51 43 36 44
REMARK SMILES IDX 50 45 37 46 40 47 49 48 63 49 38 50 39 51 48 53 64 54 41 55
REMARK SMILES IDX 30 56 31 57 35 58 32 59 34 60 33 61 52 62 53 63 57 64 54 65
REMARK SMILES IDX 56 66 55 67 42 68 43 69 47 70 44 71 46 72 45 73
REMARK H PARENT 11 18 62 41 40 52
REMARK Flexibility Score: inf
ROOT
ATOM      1  O   UNL A   1      35.162  23.280  24.792  1.00  0.00    -0.458 OA
ENDROOT
BRANCH   1   2
ATOM      2  C   UNL A   1      34.356  23.995  23.965  1.00  0.00     0.341 C 
ATOM      3  O   UNL A   1      34.491  24.208  22.791  1.00  0.00    -0.246 OA
BRANCH   2   4
ATOM      4  C   UNL A   1      33.191  24.293  24.812  1.00  0.00     0.098 A 
ATOM      5  C   UNL A   1      31.794  27.227  26.840  1.00  0.00     0.069 C 
ATOM      6  C   UNL A   1      32.039  25.879  26.232  1.00  0.00     0.064 A 
ATOM      7  N   UNL A   1      31.267  24.875  26.672  1.00  0.00    -0.155 NA
ATOM      8  C   UNL A   1      33.006  25.640  25.264  1.00  0.00    -0.011 A 
ATOM      9  N   UNL A   1      31.416  23.595  26.157  1.00  0.00    -0.143 NA
ATOM     10  C   UNL A   1      33.864  26.776  24.760  1.00  0.00     0.047 C 
ATOM     11  C   UNL A   1      32.367  23.264  25.250  1.00  0.00     0.134 A 
BRANCH  11  12
ATOM     12  S   UNL A   1      32.053  21.628  24.654  1.00  0.00    -0.100 SA
BRANCH  12  13
ATOM     13  C   UNL A   1      33.399  20.321  24.565  1.00  0.00     0.052 C 
ATOM     14  C   UNL A   1      33.872  20.354  26.033  1.00  0.00     0.020 C 
BRANCH  13  15
ATOM     15  C   UNL A   1      33.210  18.854  24.168  1.00  0.00     0.043 C 
BRANCH  15  16
ATOM     16  C   UNL A   1      32.740  17.863  25.250  1.00  0.00     0.157 C 
BRANCH  16  17
ATOM     17  O   UNL A   1      31.629  17.076  24.871  1.00  0.00    -0.396 OA
ATOM     18  H   UNL A   1      31.074  17.576  24.251  1.00  0.00     0.210 HD
ENDBRANCH  16  17
ENDBRANCH  15  16
ENDBRANCH  13  15
ENDBRANCH  12  13
ENDBRANCH  11  12
ENDBRANCH   2   4
ENDBRANCH   1   2
BRANCH   1  19
ATOM     19  C   UNL A   1      36.425  23.813  25.192  1.00  0.00     0.275 C 
BRANCH  19  20
ATOM     20  C   UNL A   1      37.449  22.690  24.964  1.00  0.00     0.275 C 
BRANCH  20  21
ATOM     21  O   UNL A   1      38.136  22.318  26.185  1.00  0.00    -0.458 OA
BRANCH  21  22
ATOM     22  C   UNL A   1      39.470  22.563  26.301  1.00  0.00     0.338 C 
ATOM     23  O   UNL A   1      40.373  21.822  25.957  1.00  0.00    -0.246 OA
BRANCH  22  24
ATOM     24  C   UNL A   1      39.667  23.939  26.852  1.00  0.00     0.060 A 
ATOM     25  C   UNL A   1      40.317  24.916  26.090  1.00  0.00     0.016 A 
ATOM     26  C   UNL A   1      39.202  24.281  28.126  1.00  0.00     0.016 A 
ATOM     27  C   UNL A   1      40.408  26.239  26.555  1.00  0.00     0.010 A 
ATOM     28  C   UNL A   1      39.282  25.599  28.591  1.00  0.00     0.010 A 
ATOM     29  C   UNL A   1      39.887  26.592  27.810  1.00  0.00    -0.014 A 
BRANCH  29  30
ATOM     30  C   UNL A   1      40.220  27.905  28.424  1.00  0.00     0.031 A 
ATOM     31  C   UNL A   1      41.636  28.105  28.891  1.00  0.00     0.074 A 
ATOM     32  C   UNL A   1      39.321  28.891  28.614  1.00  0.00     0.049 A 
ATOM     33  N   UNL A   1      42.215  29.181  29.357  1.00  0.00    -0.248 NA
ATOM     34  C   UNL A   1      42.514  26.924  28.827  1.00  0.00     0.031 C 
ATOM     35  C   UNL A   1      37.904  28.838  28.262  1.00  0.00     0.029 A 
ATOM     36  N   UNL A   1      39.482  30.144  29.161  1.00  0.00    -0.354 N 
ATOM     37  C   UNL A   1      43.534  28.819  29.585  1.00  0.00     0.074 A 
ATOM     38  C   UNL A   1      43.657  27.412  29.283  1.00  0.00     0.031 C 
ATOM     39  C   UNL A   1      37.325  30.007  28.600  1.00  0.00     0.029 A 
ATOM     40  C   UNL A   1      38.331  30.897  29.181  1.00  0.00     0.049 A 
ATOM     41  H   UNL A   1      40.343  30.472  29.509  1.00  0.00     0.167 HD
ATOM     42  C   UNL A   1      44.570  29.593  29.980  1.00  0.00     0.031 A 
ATOM     43  C   UNL A   1      38.120  32.163  29.599  1.00  0.00     0.031 A 
ATOM     44  C   UNL A   1      44.460  30.973  30.343  1.00  0.00     0.049 A 
ATOM     45  C   UNL A   1      39.270  32.991  30.118  1.00  0.00     0.074 A 
ATOM     46  C   UNL A   1      45.460  31.838  30.743  1.00  0.00     0.029 A 
ATOM     47  N   UNL A   1      43.271  31.681  30.372  1.00  0.00    -0.354 N 
ATOM     48  N   UNL A   1      40.537  32.670  30.223  1.00  0.00    -0.248 NA
ATOM     49  C   UNL A   1      38.966  34.364  30.560  1.00  0.00     0.031 C 
ATOM     50  C   UNL A   1      44.870  33.065  31.056  1.00  0.00     0.029 A 
ATOM     51  C   UNL A   1      43.508  32.969  30.809  1.00  0.00     0.049 A 
ATOM     52  H   UNL A   1      42.390  31.322  30.118  1.00  0.00     0.167 HD
ATOM     53  C   UNL A   1      41.181  33.803  30.708  1.00  0.00     0.074 A 
ATOM     54  C   UNL A   1      40.169  34.822  30.885  1.00  0.00     0.031 C 
ATOM     55  C   UNL A   1      42.497  33.980  30.973  1.00  0.00     0.031 A 
BRANCH  42  56
ATOM     56  C   UNL A   1      45.918  28.944  30.016  1.00  0.00    -0.014 A 
ATOM     57  C   UNL A   1      46.328  28.239  31.159  1.00  0.00     0.009 A 
ATOM     58  C   UNL A   1      46.779  29.028  28.913  1.00  0.00     0.009 A 
ATOM     59  C   UNL A   1      47.592  27.653  31.209  1.00  0.00     0.001 A 
ATOM     60  C   UNL A   1      48.035  28.422  28.960  1.00  0.00     0.001 A 
ATOM     61  C   UNL A   1      48.442  27.743  30.108  1.00  0.00     0.000 A 
ENDBRANCH  42  56
BRANCH  43  62
ATOM     62  C   UNL A   1      36.763  32.764  29.501  1.00  0.00    -0.014 A 
ATOM     63  C   UNL A   1      35.880  32.698  30.591  1.00  0.00     0.009 A 
ATOM     64  C   UNL A   1      36.336  33.388  28.320  1.00  0.00     0.009 A 
ATOM     65  C   UNL A   1      34.593  33.233  30.495  1.00  0.00     0.001 A 
ATOM     66  C   UNL A   1      35.052  33.936  28.232  1.00  0.00     0.001 A 
ATOM     67  C   UNL A   1      34.180  33.855  29.318  1.00  0.00     0.000 A 
ENDBRANCH  43  62
BRANCH  55  68
ATOM     68  C   UNL A   1      42.965  35.317  31.469  1.00  0.00    -0.014 A 
ATOM     69  C   UNL A   1      43.024  35.590  32.843  1.00  0.00     0.009 A 
ATOM     70  C   UNL A   1      43.524  36.234  30.564  1.00  0.00     0.009 A 
ATOM     71  C   UNL A   1      43.650  36.750  33.302  1.00  0.00     0.001 A 
ATOM     72  C   UNL A   1      44.162  37.384  31.028  1.00  0.00     0.001 A 
ATOM     73  C   UNL A   1      44.229  37.639  32.397  1.00  0.00     0.000 A 
ENDBRANCH  55  68
ENDBRANCH  29  30
ENDBRANCH  22  24
ENDBRANCH  21  22
ENDBRANCH  20  21
ENDBRANCH  19  20
ENDBRANCH   1  19
TORSDOF 16
ENDMDL
MODEL 3
REMARK VINA RESULT:      -9.2      1.324      2.907
REMARK SMILES Cc1nnc(S[C@@H](C)CCO)c(C(=O)OCCOC(=O)c2ccc(-c3c4nc(c(-c5ccccc5)c5ccc([nH]5)c(-c5ccccc5)c5nc(c(-c6ccccc6)c6ccc3[nH]6)C=C5)C=C4)cc2)c1C
REMARK SMILES IDX 15 1 13 2 14 3 12 4 1 5 2 6 3 7 69 8 4 9 70 10 5 11 6 12
REMARK SMILES IDX 7 13 8 14 9 15 10 16 11 17 16 19 17 20 18 21 19 22 20 23
REMARK SMILES IDX 21 24 22 25 68 26 23 27 67 28 24 29 25 30 26 31 61 32 27 33
REMARK SMILES IDX 66 34 60 35 62 36 28 37 65 38 59 39 58 40 29 42 51 43 36 44
REMARK SMILES IDX 50 45 37 46 40 47 49 48 63 49 38 50 39 51 48 53 64 54 41 55
REMARK SMILES IDX 30 56 31 57 35 58 32 59 34 60 33 61 52 62 53 63 57 64 54 65
REMARK SMILES IDX 56 66 55 67 42 68 43 69 47 70 44 71 46 72 45 73
REMARK H PARENT 11 18 62 41 40 52
REMARK Flexibility Score: inf
ROOT
ATOM      1  O   UNL A   1      32.752  26.907  25.798  1.00  0.00    -0.458 OA
ENDROOT
BRANCH   1   2
ATOM      2  C   UNL A   1      32.072  26.386  24.744  1.00  0.00     0.341 C 
ATOM      3  O   UNL A   1      31.786  26.914  23.705  1.00  0.00    -0.246 OA
BRANCH   2   4
ATOM      4  C   UNL A   1      31.929  24.968  25.110  1.00  0.00     0.098 A 
ATOM      5  C   UNL A   1      29.592  22.766  27.198  1.00  0.00     0.069 C 
ATOM      6  C   UNL A   1      30.723  23.285  26.364  1.00  0.00     0.064 A 
ATOM      7  N   UNL A   1      31.739  22.438  26.141  1.00  0.00    -0.155 NA
ATOM      8  C   UNL A   1      30.758  24.568  25.833  1.00  0.00    -0.011 A 
ATOM      9  N   UNL A   1      32.824  22.829  25.369  1.00  0.00    -0.143 NA
ATOM     10  C   UNL A   1      29.606  25.514  26.073  1.00  0.00     0.047 C 
ATOM     11  C   UNL A   1      32.963  24.076  24.857  1.00  0.00     0.134 A 
BRANCH  11  12
ATOM     12  S   UNL A   1      34.323  24.089  23.727  1.00  0.00    -0.100 SA
BRANCH  12  13
ATOM     13  C   UNL A   1      35.998  23.361  24.168  1.00  0.00     0.052 C 
ATOM     14  C   UNL A   1      36.217  24.056  25.528  1.00  0.00     0.020 C 
BRANCH  13  15
ATOM     15  C   UNL A   1      36.321  21.876  24.345  1.00  0.00     0.043 C 
BRANCH  15  16
ATOM     16  C   UNL A   1      36.087  21.240  25.729  1.00  0.00     0.157 C 
BRANCH  16  17
ATOM     17  O   UNL A   1      34.744  20.878  25.982  1.00  0.00    -0.396 OA
ATOM     18  H   UNL A   1      34.585  20.872  26.939  1.00  0.00     0.210 HD
ENDBRANCH  16  17
ENDBRANCH  15  16
ENDBRANCH  13  15
ENDBRANCH  12  13
ENDBRANCH  11  12
ENDBRANCH   2   4
ENDBRANCH   1   2
BRANCH   1  19
ATOM     19  C   UNL A   1      32.374  28.176  26.333  1.00  0.00     0.275 C 
BRANCH  19  20
ATOM     20  C   UNL A   1      33.491  28.571  27.312  1.00  0.00     0.275 C 
BRANCH  20  21
ATOM     21  O   UNL A   1      34.159  29.795  26.916  1.00  0.00    -0.458 OA
BRANCH  21  22
ATOM     22  C   UNL A   1      34.668  30.618  27.874  1.00  0.00     0.338 C 
ATOM     23  O   UNL A   1      34.088  31.541  28.415  1.00  0.00    -0.246 OA
BRANCH  22  24
ATOM     24  C   UNL A   1      36.048  30.161  28.226  1.00  0.00     0.060 A 
ATOM     25  C   UNL A   1      36.326  29.689  29.513  1.00  0.00     0.016 A 
ATOM     26  C   UNL A   1      37.080  30.184  27.282  1.00  0.00     0.016 A 
ATOM     27  C   UNL A   1      37.589  29.155  29.819  1.00  0.00     0.010 A 
ATOM     28  C   UNL A   1      38.338  29.646  27.578  1.00  0.00     0.010 A 
ATOM     29  C   UNL A   1      38.606  29.127  28.851  1.00  0.00    -0.014 A 
BRANCH  29  30
ATOM     30  C   UNL A   1      40.010  28.826  29.239  1.00  0.00     0.031 A 
ATOM     31  C   UNL A   1      40.536  27.457  28.904  1.00  0.00     0.074 A 
ATOM     32  C   UNL A   1      40.805  29.692  29.898  1.00  0.00     0.049 A 
ATOM     33  N   UNL A   1      41.745  26.976  29.031  1.00  0.00    -0.248 NA
ATOM     34  C   UNL A   1      39.558  26.501  28.358  1.00  0.00     0.031 C 
ATOM     35  C   UNL A   1      40.433  31.035  30.335  1.00  0.00     0.029 A 
ATOM     36  N   UNL A   1      42.109  29.554  30.317  1.00  0.00    -0.354 N 
ATOM     37  C   UNL A   1      41.682  25.685  28.527  1.00  0.00     0.074 A 
ATOM     38  C   UNL A   1      40.308  25.428  28.164  1.00  0.00     0.031 C 
ATOM     39  C   UNL A   1      41.485  31.600  30.959  1.00  0.00     0.029 A 
ATOM     40  C   UNL A   1      42.611  30.664  30.956  1.00  0.00     0.049 A 
ATOM     41  H   UNL A   1      42.636  28.735  30.173  1.00  0.00     0.167 HD
ATOM     42  C   UNL A   1      42.683  24.796  28.346  1.00  0.00     0.031 A 
ATOM     43  C   UNL A   1      43.840  30.904  31.459  1.00  0.00     0.031 A 
ATOM     44  C   UNL A   1      44.039  25.005  28.752  1.00  0.00     0.049 A 
ATOM     45  C   UNL A   1      44.929  29.868  31.325  1.00  0.00     0.074 A 
ATOM     46  C   UNL A   1      45.123  24.163  28.596  1.00  0.00     0.029 A 
ATOM     47  N   UNL A   1      44.490  26.132  29.417  1.00  0.00    -0.354 N 
ATOM     48  N   UNL A   1      44.884  28.693  30.745  1.00  0.00    -0.248 NA
ATOM     49  C   UNL A   1      46.246  30.196  31.900  1.00  0.00     0.031 C 
ATOM     50  C   UNL A   1      46.227  24.762  29.206  1.00  0.00     0.029 A 
ATOM     51  C   UNL A   1      45.834  25.996  29.703  1.00  0.00     0.049 A 
ATOM     52  H   UNL A   1      43.937  26.913  29.650  1.00  0.00     0.167 HD
ATOM     53  C   UNL A   1      46.164  28.161  30.855  1.00  0.00     0.074 A 
ATOM     54  C   UNL A   1      46.967  29.134  31.563  1.00  0.00     0.031 C 
ATOM     55  C   UNL A   1      46.628  26.973  30.400  1.00  0.00     0.031 A 
BRANCH  42  56
ATOM     56  C   UNL A   1      42.328  23.516  27.654  1.00  0.00    -0.014 A 
ATOM     57  C   UNL A   1      42.450  23.416  26.258  1.00  0.00     0.009 A 
ATOM     58  C   UNL A   1      41.877  22.411  28.387  1.00  0.00     0.009 A 
ATOM     59  C   UNL A   1      42.097  22.236  25.604  1.00  0.00     0.001 A 
ATOM     60  C   UNL A   1      41.545  21.225  27.731  1.00  0.00     0.001 A 
ATOM     61  C   UNL A   1      41.649  21.142  26.342  1.00  0.00     0.000 A 
ENDBRANCH  42  56
BRANCH  43  62
ATOM     62  C   UNL A   1      44.141  32.212  32.101  1.00  0.00    -0.014 A 
ATOM     63  C   UNL A   1      44.638  33.278  31.334  1.00  0.00     0.009 A 
ATOM     64  C   UNL A   1      43.952  32.397  33.479  1.00  0.00     0.009 A 
ATOM     65  C   UNL A   1      44.952  34.499  31.937  1.00  0.00     0.001 A 
ATOM     66  C   UNL A   1      44.254  33.625  34.076  1.00  0.00     0.001 A 
ATOM     67  C   UNL A   1      44.757  34.674  33.306  1.00  0.00     0.000 A 
ENDBRANCH  43  62
BRANCH  55  68
ATOM     68  C   UNL A   1      48.072  26.627  30.617  1.00  0.00    -0.014 A 
ATOM     69  C   UNL A   1      48.463  25.843  31.713  1.00  0.00     0.009 A 
ATOM     70  C   UNL A   1      49.014  26.928  29.620  1.00  0.00     0.009 A 
ATOM     71  C   UNL A   1      49.768  25.355  31.796  1.00  0.00     0.001 A 
ATOM     72  C   UNL A   1      50.312  26.424  29.699  1.00  0.00     0.001 A 
ATOM     73  C   UNL A   1      50.687  25.634  30.785  1.00  0.00     0.000 A 
ENDBRANCH  55  68
ENDBRANCH  29  30
ENDBRANCH  22  24
ENDBRANCH  21  22
ENDBRANCH  20  21
ENDBRANCH  19  20
ENDBRANCH   1  19
TORSDOF 16
ENDMDL
