MODEL 1
REMARK VINA RESULT:     -10.6      0.000      0.000
REMARK SMILES COc1cc(OC(F)(F)F)cc2c1O[C@@H](C(F)(F)F)C(C(=O)OCCOC(=O)c1ccc(-c3c4nc(c(-c5ccccc5)c5ccc([nH]5)c(-c5ccccc5)c5nc(c(-c6ccccc6)c6ccc3[nH]6)C=C5)C=C4)cc1)=C2
REMARK SMILES IDX 24 1 23 2 21 3 22 4 20 5 3 6 4 7 13 8 5 9 12 10 14 11 11 12
REMARK SMILES IDX 77 13 15 14 2 15 1 16 6 17 7 18 8 19 9 20 10 21 16 22 17 23
REMARK SMILES IDX 18 24 19 25 25 26 26 27 27 28 28 29 29 30 30 31 76 32 31 33
REMARK SMILES IDX 75 34 32 35 33 36 34 37 69 38 35 39 74 40 68 41 70 42 36 43
REMARK SMILES IDX 73 44 67 45 66 46 37 48 59 49 44 50 58 51 45 52 48 53 57 54
REMARK SMILES IDX 71 55 46 56 47 57 56 59 72 60 49 61 38 62 39 63 43 64 40 65
REMARK SMILES IDX 42 66 41 67 60 68 61 69 65 70 62 71 64 72 63 73 50 74 51 75
REMARK SMILES IDX 55 76 52 77 54 78 53 79
REMARK H PARENT 70 47 48 58
REMARK Flexibility Score: inf
ROOT
ATOM      1  C   UNL A   1      42.609  21.216  25.822  1.00  0.00     0.275 C 
ENDROOT
BRANCH   1   2
ATOM      2  O   UNL A   1      41.414  22.020  25.719  1.00  0.00    -0.459 OA
BRANCH   2   3
ATOM      3  C   UNL A   1      40.495  21.840  26.705  1.00  0.00     0.338 C 
ATOM      4  O   UNL A   1      40.746  21.499  27.841  1.00  0.00    -0.246 OA
BRANCH   3   5
ATOM      5  C   UNL A   1      39.123  22.169  26.248  1.00  0.00     0.087 C 
ATOM      6  C   UNL A   1      35.297  23.337  25.045  1.00  0.00     0.165 A 
ATOM      7  C   UNL A   1      34.370  22.394  24.602  1.00  0.00     0.097 A 
ATOM      8  C   UNL A   1      36.536  22.928  25.541  1.00  0.00     0.170 A 
ATOM      9  C   UNL A   1      34.698  21.039  24.614  1.00  0.00     0.134 A 
ATOM     10  C   UNL A   1      36.908  21.582  25.493  1.00  0.00     0.025 A 
ATOM     11  O   UNL A   1      37.318  23.858  26.165  1.00  0.00    -0.471 OA
ATOM     12  C   UNL A   1      35.982  20.642  25.025  1.00  0.00     0.059 A 
ATOM     13  C   UNL A   1      38.239  21.194  25.969  1.00  0.00     0.027 C 
ATOM     14  C   UNL A   1      38.748  23.633  26.084  1.00  0.00     0.316 C 
BRANCH   6  15
ATOM     15  O   UNL A   1      34.907  24.651  25.016  1.00  0.00    -0.493 OA
ATOM     16  C   UNL A   1      33.691  24.846  25.743  1.00  0.00     0.278 C 
ENDBRANCH   6  15
BRANCH   9  17
ATOM     17  O   UNL A   1      33.867  20.015  24.250  1.00  0.00    -0.406 OA
BRANCH  17  18
ATOM     18  C   UNL A   1      32.782  19.718  25.119  1.00  0.00     0.573 C 
ATOM     19  F   UNL A   1      32.316  18.466  24.918  1.00  0.00    -0.132 F 
ATOM     20  F   UNL A   1      33.147  19.863  26.410  1.00  0.00    -0.132 F 
ATOM     21  F   UNL A   1      31.775  20.584  24.867  1.00  0.00    -0.132 F 
ENDBRANCH  17  18
ENDBRANCH   9  17
BRANCH  14  22
ATOM     22  C   UNL A   1      39.420  24.691  26.982  1.00  0.00     0.430 C 
ATOM     23  F   UNL A   1      40.438  25.319  26.352  1.00  0.00    -0.167 F 
ATOM     24  F   UNL A   1      38.529  25.675  27.288  1.00  0.00    -0.167 F 
ATOM     25  F   UNL A   1      39.865  24.186  28.150  1.00  0.00    -0.167 F 
ENDBRANCH  14  22
ENDBRANCH   3   5
ENDBRANCH   2   3
ENDBRANCH   1   2
BRANCH   1  26
ATOM     26  C   UNL A   1      43.790  21.842  25.076  1.00  0.00     0.275 C 
BRANCH  26  27
ATOM     27  O   UNL A   1      43.526  23.209  24.705  1.00  0.00    -0.458 OA
BRANCH  27  28
ATOM     28  C   UNL A   1      44.484  24.092  25.073  1.00  0.00     0.338 C 
ATOM     29  O   UNL A   1      45.567  24.263  24.535  1.00  0.00    -0.246 OA
BRANCH  28  30
ATOM     30  C   UNL A   1      43.975  24.995  26.125  1.00  0.00     0.060 A 
ATOM     31  C   UNL A   1      43.395  24.385  27.241  1.00  0.00     0.016 A 
ATOM     32  C   UNL A   1      44.035  26.388  26.042  1.00  0.00     0.016 A 
ATOM     33  C   UNL A   1      42.942  25.150  28.312  1.00  0.00     0.010 A 
ATOM     34  C   UNL A   1      43.524  27.163  27.094  1.00  0.00     0.010 A 
ATOM     35  C   UNL A   1      42.988  26.546  28.240  1.00  0.00    -0.014 A 
BRANCH  35  36
ATOM     36  C   UNL A   1      42.362  27.337  29.325  1.00  0.00     0.031 A 
ATOM     37  C   UNL A   1      43.031  27.393  30.669  1.00  0.00     0.074 A 
ATOM     38  C   UNL A   1      41.251  28.063  29.098  1.00  0.00     0.049 A 
ATOM     39  N   UNL A   1      42.679  28.051  31.744  1.00  0.00    -0.248 NA
ATOM     40  C   UNL A   1      44.275  26.619  30.812  1.00  0.00     0.031 C 
ATOM     41  C   UNL A   1      40.553  28.166  27.818  1.00  0.00     0.029 A 
ATOM     42  N   UNL A   1      40.524  28.862  29.946  1.00  0.00    -0.354 N 
ATOM     43  C   UNL A   1      43.661  27.782  32.687  1.00  0.00     0.074 A 
ATOM     44  C   UNL A   1      44.613  26.885  32.066  1.00  0.00     0.031 C 
ATOM     45  C   UNL A   1      39.487  28.974  27.968  1.00  0.00     0.029 A 
ATOM     46  C   UNL A   1      39.413  29.420  29.358  1.00  0.00     0.049 A 
ATOM     47  H   UNL A   1      40.773  29.019  30.884  1.00  0.00     0.167 HD
ATOM     48  C   UNL A   1      43.766  28.240  33.957  1.00  0.00     0.031 A 
ATOM     49  C   UNL A   1      38.441  30.187  29.891  1.00  0.00     0.031 A 
ATOM     50  C   UNL A   1      42.799  29.093  34.597  1.00  0.00     0.049 A 
ATOM     51  C   UNL A   1      38.514  30.573  31.347  1.00  0.00     0.074 A 
ATOM     52  C   UNL A   1      42.803  29.578  35.894  1.00  0.00     0.029 A 
ATOM     53  N   UNL A   1      41.649  29.574  33.993  1.00  0.00    -0.354 N 
ATOM     54  N   UNL A   1      39.454  30.323  32.227  1.00  0.00    -0.248 NA
ATOM     55  C   UNL A   1      37.392  31.362  31.879  1.00  0.00     0.031 C 
ATOM     56  C   UNL A   1      41.626  30.306  36.091  1.00  0.00     0.029 A 
ATOM     57  C   UNL A   1      40.924  30.331  34.898  1.00  0.00     0.049 A 
ATOM     58  H   UNL A   1      41.386  29.402  33.060  1.00  0.00     0.167 HD
ATOM     59  C   UNL A   1      39.056  30.955  33.399  1.00  0.00     0.074 A 
ATOM     60  C   UNL A   1      37.799  31.613  33.115  1.00  0.00     0.031 C 
ATOM     61  C   UNL A   1      39.678  30.992  34.603  1.00  0.00     0.031 A 
BRANCH  48  62
ATOM     62  C   UNL A   1      44.953  27.786  34.757  1.00  0.00    -0.014 A 
ATOM     63  C   UNL A   1      46.151  28.517  34.759  1.00  0.00     0.009 A 
ATOM     64  C   UNL A   1      44.858  26.631  35.548  1.00  0.00     0.009 A 
ATOM     65  C   UNL A   1      47.241  28.084  35.517  1.00  0.00     0.001 A 
ATOM     66  C   UNL A   1      45.941  26.215  36.326  1.00  0.00     0.001 A 
ATOM     67  C   UNL A   1      47.133  26.938  36.304  1.00  0.00     0.000 A 
ENDBRANCH  48  62
BRANCH  49  68
ATOM     68  C   UNL A   1      37.278  30.618  29.066  1.00  0.00    -0.014 A 
ATOM     69  C   UNL A   1      37.124  31.960  28.682  1.00  0.00     0.009 A 
ATOM     70  C   UNL A   1      36.274  29.699  28.725  1.00  0.00     0.009 A 
ATOM     71  C   UNL A   1      35.970  32.378  28.014  1.00  0.00     0.001 A 
ATOM     72  C   UNL A   1      35.137  30.113  28.027  1.00  0.00     0.001 A 
ATOM     73  C   UNL A   1      34.978  31.454  27.686  1.00  0.00     0.000 A 
ENDBRANCH  49  68
BRANCH  61  74
ATOM     74  C   UNL A   1      39.044  31.820  35.689  1.00  0.00    -0.014 A 
ATOM     75  C   UNL A   1      39.337  33.184  35.842  1.00  0.00     0.009 A 
ATOM     76  C   UNL A   1      38.108  31.227  36.550  1.00  0.00     0.009 A 
ATOM     77  C   UNL A   1      38.736  33.925  36.863  1.00  0.00     0.001 A 
ATOM     78  C   UNL A   1      37.483  31.977  37.548  1.00  0.00     0.001 A 
ATOM     79  C   UNL A   1      37.806  33.323  37.711  1.00  0.00     0.000 A 
ENDBRANCH  61  74
ENDBRANCH  35  36
ENDBRANCH  28  30
ENDBRANCH  27  28
ENDBRANCH  26  27
ENDBRANCH   1  26
TORSDOF 15
ENDMDL
MODEL 2
REMARK VINA RESULT:     -10.5      5.681     11.062
REMARK SMILES COc1cc(OC(F)(F)F)cc2c1O[C@@H](C(F)(F)F)C(C(=O)OCCOC(=O)c1ccc(-c3c4nc(c(-c5ccccc5)c5ccc([nH]5)c(-c5ccccc5)c5nc(c(-c6ccccc6)c6ccc3[nH]6)C=C5)C=C4)cc1)=C2
REMARK SMILES IDX 24 1 23 2 21 3 22 4 20 5 3 6 4 7 13 8 5 9 12 10 14 11 11 12
REMARK SMILES IDX 77 13 15 14 2 15 1 16 6 17 7 18 8 19 9 20 10 21 16 22 17 23
REMARK SMILES IDX 18 24 19 25 25 26 26 27 27 28 28 29 29 30 30 31 76 32 31 33
REMARK SMILES IDX 75 34 32 35 33 36 34 37 69 38 35 39 74 40 68 41 70 42 36 43
REMARK SMILES IDX 73 44 67 45 66 46 37 48 59 49 44 50 58 51 45 52 48 53 57 54
REMARK SMILES IDX 71 55 46 56 47 57 56 59 72 60 49 61 38 62 39 63 43 64 40 65
REMARK SMILES IDX 42 66 41 67 60 68 61 69 65 70 62 71 64 72 63 73 50 74 51 75
REMARK SMILES IDX 55 76 52 77 54 78 53 79
REMARK H PARENT 70 47 48 58
REMARK Flexibility Score: inf
ROOT
ATOM      1  C   UNL A   1      33.357  34.426  29.329  1.00  0.00     0.275 C 
ENDROOT
BRANCH   1   2
ATOM      2  O   UNL A   1      34.585  34.607  30.065  1.00  0.00    -0.459 OA
BRANCH   2   3
ATOM      3  C   UNL A   1      34.841  33.678  31.024  1.00  0.00     0.338 C 
ATOM      4  O   UNL A   1      34.121  32.743  31.302  1.00  0.00    -0.246 OA
BRANCH   3   5
ATOM      5  C   UNL A   1      36.156  33.901  31.672  1.00  0.00     0.087 C 
ATOM      6  C   UNL A   1      39.735  34.581  33.716  1.00  0.00     0.165 A 
ATOM      7  C   UNL A   1      40.949  34.632  33.032  1.00  0.00     0.097 A 
ATOM      8  C   UNL A   1      38.535  34.456  33.014  1.00  0.00     0.170 A 
ATOM      9  C   UNL A   1      40.968  34.515  31.642  1.00  0.00     0.134 A 
ATOM     10  C   UNL A   1      38.541  34.264  31.631  1.00  0.00     0.025 A 
ATOM     11  O   UNL A   1      37.367  34.633  33.701  1.00  0.00    -0.471 OA
ATOM     12  C   UNL A   1      39.765  34.293  30.950  1.00  0.00     0.059 A 
ATOM     13  C   UNL A   1      37.266  34.078  30.932  1.00  0.00     0.027 C 
ATOM     14  C   UNL A   1      36.223  33.904  33.190  1.00  0.00     0.316 C 
BRANCH   6  15
ATOM     15  O   UNL A   1      39.786  34.713  35.080  1.00  0.00    -0.493 OA
ATOM     16  C   UNL A   1      40.392  35.953  35.457  1.00  0.00     0.278 C 
ENDBRANCH   6  15
BRANCH   9  17
ATOM     17  O   UNL A   1      42.081  34.592  30.852  1.00  0.00    -0.406 OA
BRANCH  17  18
ATOM     18  C   UNL A   1      42.741  33.372  30.536  1.00  0.00     0.573 C 
ATOM     19  F   UNL A   1      43.731  33.564  29.638  1.00  0.00    -0.132 F 
ATOM     20  F   UNL A   1      43.244  32.797  31.649  1.00  0.00    -0.132 F 
ATOM     21  F   UNL A   1      41.842  32.521  29.993  1.00  0.00    -0.132 F 
ENDBRANCH  17  18
ENDBRANCH   9  17
BRANCH  14  22
ATOM     22  C   UNL A   1      34.996  34.373  34.000  1.00  0.00     0.430 C 
ATOM     23  F   UNL A   1      34.407  35.457  33.447  1.00  0.00    -0.167 F 
ATOM     24  F   UNL A   1      34.038  33.404  33.994  1.00  0.00    -0.167 F 
ATOM     25  F   UNL A   1      35.284  34.634  35.291  1.00  0.00    -0.167 F 
ENDBRANCH  14  22
ENDBRANCH   3   5
ENDBRANCH   2   3
ENDBRANCH   1   2
BRANCH   1  26
ATOM     26  C   UNL A   1      33.600  33.822  27.943  1.00  0.00     0.275 C 
BRANCH  26  27
ATOM     27  O   UNL A   1      34.799  33.025  27.909  1.00  0.00    -0.458 OA
BRANCH  27  28
ATOM     28  C   UNL A   1      34.595  31.688  27.989  1.00  0.00     0.338 C 
ATOM     29  O   UNL A   1      33.653  31.063  27.526  1.00  0.00    -0.246 OA
BRANCH  28  30
ATOM     30  C   UNL A   1      35.782  31.020  28.559  1.00  0.00     0.060 A 
ATOM     31  C   UNL A   1      37.025  31.561  28.219  1.00  0.00     0.016 A 
ATOM     32  C   UNL A   1      35.712  29.894  29.382  1.00  0.00     0.016 A 
ATOM     33  C   UNL A   1      38.197  31.037  28.756  1.00  0.00     0.010 A 
ATOM     34  C   UNL A   1      36.897  29.327  29.876  1.00  0.00     0.010 A 
ATOM     35  C   UNL A   1      38.144  29.905  29.576  1.00  0.00    -0.014 A 
BRANCH  35  36
ATOM     36  C   UNL A   1      39.414  29.278  30.009  1.00  0.00     0.031 A 
ATOM     37  C   UNL A   1      40.104  29.797  31.239  1.00  0.00     0.074 A 
ATOM     38  C   UNL A   1      39.911  28.207  29.363  1.00  0.00     0.049 A 
ATOM     39  N   UNL A   1      41.200  29.375  31.816  1.00  0.00    -0.248 NA
ATOM     40  C   UNL A   1      39.459  30.931  31.920  1.00  0.00     0.031 C 
ATOM     41  C   UNL A   1      39.296  27.551  28.210  1.00  0.00     0.029 A 
ATOM     42  N   UNL A   1      41.050  27.477  29.599  1.00  0.00    -0.354 N 
ATOM     43  C   UNL A   1      41.370  30.181  32.933  1.00  0.00     0.074 A 
ATOM     44  C   UNL A   1      40.279  31.130  32.943  1.00  0.00     0.031 C 
ATOM     45  C   UNL A   1      40.073  26.521  27.830  1.00  0.00     0.029 A 
ATOM     46  C   UNL A   1      41.251  26.462  28.693  1.00  0.00     0.049 A 
ATOM     47  H   UNL A   1      41.665  27.664  30.344  1.00  0.00     0.167 HD
ATOM     48  C   UNL A   1      42.347  30.135  33.870  1.00  0.00     0.031 A 
ATOM     49  C   UNL A   1      42.280  25.601  28.568  1.00  0.00     0.031 A 
ATOM     50  C   UNL A   1      43.462  29.226  33.840  1.00  0.00     0.049 A 
ATOM     51  C   UNL A   1      43.423  25.661  29.550  1.00  0.00     0.074 A 
ATOM     52  C   UNL A   1      44.520  29.132  34.728  1.00  0.00     0.029 A 
ATOM     53  N   UNL A   1      43.670  28.265  32.865  1.00  0.00    -0.354 N 
ATOM     54  N   UNL A   1      43.569  26.420  30.610  1.00  0.00    -0.248 NA
ATOM     55  C   UNL A   1      44.540  24.732  29.323  1.00  0.00     0.031 C 
ATOM     56  C   UNL A   1      45.399  28.151  34.257  1.00  0.00     0.029 A 
ATOM     57  C   UNL A   1      44.853  27.588  33.116  1.00  0.00     0.049 A 
ATOM     58  H   UNL A   1      43.068  28.089  32.106  1.00  0.00     0.167 HD
ATOM     59  C   UNL A   1      44.769  26.032  31.194  1.00  0.00     0.074 A 
ATOM     60  C   UNL A   1      45.305  24.962  30.380  1.00  0.00     0.031 C 
ATOM     61  C   UNL A   1      45.372  26.516  32.307  1.00  0.00     0.031 A 
BRANCH  48  62
ATOM     62  C   UNL A   1      42.275  31.136  34.988  1.00  0.00    -0.014 A 
ATOM     63  C   UNL A   1      41.483  30.902  36.122  1.00  0.00     0.009 A 
ATOM     64  C   UNL A   1      43.039  32.311  34.919  1.00  0.00     0.009 A 
ATOM     65  C   UNL A   1      41.438  31.841  37.156  1.00  0.00     0.001 A 
ATOM     66  C   UNL A   1      43.012  33.234  35.966  1.00  0.00     0.001 A 
ATOM     67  C   UNL A   1      42.206  33.002  37.080  1.00  0.00     0.000 A 
ENDBRANCH  48  62
BRANCH  49  68
ATOM     68  C   UNL A   1      42.316  24.622  27.446  1.00  0.00    -0.014 A 
ATOM     69  C   UNL A   1      41.807  23.323  27.605  1.00  0.00     0.009 A 
ATOM     70  C   UNL A   1      42.934  24.961  26.232  1.00  0.00     0.009 A 
ATOM     71  C   UNL A   1      41.956  22.374  26.589  1.00  0.00     0.001 A 
ATOM     72  C   UNL A   1      43.051  24.021  25.206  1.00  0.00     0.001 A 
ATOM     73  C   UNL A   1      42.576  22.724  25.391  1.00  0.00     0.000 A 
ENDBRANCH  49  68
BRANCH  61  74
ATOM     74  C   UNL A   1      46.649  25.852  32.750  1.00  0.00    -0.014 A 
ATOM     75  C   UNL A   1      47.900  26.260  32.260  1.00  0.00     0.009 A 
ATOM     76  C   UNL A   1      46.597  24.823  33.703  1.00  0.00     0.009 A 
ATOM     77  C   UNL A   1      49.068  25.621  32.687  1.00  0.00     0.001 A 
ATOM     78  C   UNL A   1      47.767  24.209  34.152  1.00  0.00     0.001 A 
ATOM     79  C   UNL A   1      49.001  24.600  33.635  1.00  0.00     0.000 A 
ENDBRANCH  61  74
ENDBRANCH  35  36
ENDBRANCH  28  30
ENDBRANCH  27  28
ENDBRANCH  26  27
ENDBRANCH   1  26
TORSDOF 15
ENDMDL
MODEL 3
REMARK VINA RESULT:     -10.5      3.359      8.456
REMARK SMILES COc1cc(OC(F)(F)F)cc2c1O[C@@H](C(F)(F)F)C(C(=O)OCCOC(=O)c1ccc(-c3c4nc(c(-c5ccccc5)c5ccc([nH]5)c(-c5ccccc5)c5nc(c(-c6ccccc6)c6ccc3[nH]6)C=C5)C=C4)cc1)=C2
REMARK SMILES IDX 24 1 23 2 21 3 22 4 20 5 3 6 4 7 13 8 5 9 12 10 14 11 11 12
REMARK SMILES IDX 77 13 15 14 2 15 1 16 6 17 7 18 8 19 9 20 10 21 16 22 17 23
REMARK SMILES IDX 18 24 19 25 25 26 26 27 27 28 28 29 29 30 30 31 76 32 31 33
REMARK SMILES IDX 75 34 32 35 33 36 34 37 69 38 35 39 74 40 68 41 70 42 36 43
REMARK SMILES IDX 73 44 67 45 66 46 37 48 59 49 44 50 58 51 45 52 48 53 57 54
REMARK SMILES IDX 71 55 46 56 47 57 56 59 72 60 49 61 38 62 39 63 43 64 40 65
REMARK SMILES IDX 42 66 41 67 60 68 61 69 65 70 62 71 64 72 63 73 50 74 51 75
REMARK SMILES IDX 55 76 52 77 54 78 53 79
REMARK H PARENT 70 47 48 58
REMARK Flexibility Score: inf
ROOT
ATOM      1  C   UNL A   1      31.852  29.633  25.836  1.00  0.00     0.275 C 
ENDROOT
BRANCH   1   2
ATOM      2  O   UNL A   1      32.471  28.329  25.811  1.00  0.00    -0.459 OA
BRANCH   2   3
ATOM      3  C   UNL A   1      32.898  27.902  24.592  1.00  0.00     0.338 C 
ATOM      4  O   UNL A   1      33.159  28.621  23.651  1.00  0.00    -0.246 OA
BRANCH   3   5
ATOM      5  C   UNL A   1      33.070  26.430  24.552  1.00  0.00     0.087 C 
ATOM      6  C   UNL A   1      33.311  22.263  24.369  1.00  0.00     0.165 A 
ATOM      7  C   UNL A   1      34.446  21.593  24.824  1.00  0.00     0.097 A 
ATOM      8  C   UNL A   1      33.196  23.646  24.527  1.00  0.00     0.170 A 
ATOM      9  C   UNL A   1      35.491  22.313  25.403  1.00  0.00     0.134 A 
ATOM     10  C   UNL A   1      34.263  24.390  25.037  1.00  0.00     0.025 A 
ATOM     11  O   UNL A   1      31.986  24.225  24.272  1.00  0.00    -0.471 OA
ATOM     12  C   UNL A   1      35.411  23.714  25.472  1.00  0.00     0.059 A 
ATOM     13  C   UNL A   1      34.132  25.846  25.137  1.00  0.00     0.027 C 
ATOM     14  C   UNL A   1      32.031  25.600  23.816  1.00  0.00     0.316 C 
BRANCH   6  15
ATOM     15  O   UNL A   1      32.316  21.495  23.820  1.00  0.00    -0.493 OA
ATOM     16  C   UNL A   1      32.526  20.107  24.090  1.00  0.00     0.278 C 
ENDBRANCH   6  15
BRANCH   9  17
ATOM     17  O   UNL A   1      36.634  21.775  25.927  1.00  0.00    -0.406 OA
BRANCH  17  18
ATOM     18  C   UNL A   1      37.699  21.505  25.024  1.00  0.00     0.573 C 
ATOM     19  F   UNL A   1      37.917  20.179  24.898  1.00  0.00    -0.132 F 
ATOM     20  F   UNL A   1      37.448  22.041  23.811  1.00  0.00    -0.132 F 
ATOM     21  F   UNL A   1      38.829  22.070  25.507  1.00  0.00    -0.132 F 
ENDBRANCH  17  18
ENDBRANCH   9  17
BRANCH  14  22
ATOM     22  C   UNL A   1      30.573  26.099  23.751  1.00  0.00     0.430 C 
ATOM     23  F   UNL A   1      30.168  26.640  24.922  1.00  0.00    -0.167 F 
ATOM     24  F   UNL A   1      30.467  27.104  22.838  1.00  0.00    -0.167 F 
ATOM     25  F   UNL A   1      29.703  25.138  23.381  1.00  0.00    -0.167 F 
ENDBRANCH  14  22
ENDBRANCH   3   5
ENDBRANCH   2   3
ENDBRANCH   1   2
BRANCH   1  26
ATOM     26  C   UNL A   1      32.497  30.556  26.874  1.00  0.00     0.275 C 
BRANCH  26  27
ATOM     27  O   UNL A   1      33.692  29.979  27.435  1.00  0.00    -0.458 OA
BRANCH  27  28
ATOM     28  C   UNL A   1      34.473  30.847  28.121  1.00  0.00     0.338 C 
ATOM     29  O   UNL A   1      34.111  31.865  28.690  1.00  0.00    -0.246 OA
BRANCH  28  30
ATOM     30  C   UNL A   1      35.838  30.303  28.271  1.00  0.00     0.060 A 
ATOM     31  C   UNL A   1      36.174  29.802  29.531  1.00  0.00     0.016 A 
ATOM     32  C   UNL A   1      36.780  30.288  27.239  1.00  0.00     0.016 A 
ATOM     33  C   UNL A   1      37.416  29.214  29.753  1.00  0.00     0.010 A 
ATOM     34  C   UNL A   1      38.054  29.750  27.477  1.00  0.00     0.010 A 
ATOM     35  C   UNL A   1      38.372  29.198  28.731  1.00  0.00    -0.014 A 
BRANCH  35  36
ATOM     36  C   UNL A   1      39.735  28.705  29.038  1.00  0.00     0.031 A 
ATOM     37  C   UNL A   1      40.669  29.581  29.826  1.00  0.00     0.074 A 
ATOM     38  C   UNL A   1      40.115  27.462  28.690  1.00  0.00     0.049 A 
ATOM     39  N   UNL A   1      41.887  29.335  30.237  1.00  0.00    -0.248 NA
ATOM     40  C   UNL A   1      40.150  30.900  30.220  1.00  0.00     0.031 C 
ATOM     41  C   UNL A   1      39.278  26.481  28.001  1.00  0.00     0.029 A 
ATOM     42  N   UNL A   1      41.309  26.811  28.882  1.00  0.00    -0.354 N 
ATOM     43  C   UNL A   1      42.277  30.462  30.947  1.00  0.00     0.074 A 
ATOM     44  C   UNL A   1      41.176  31.400  30.894  1.00  0.00     0.031 C 
ATOM     45  C   UNL A   1      39.990  25.355  27.817  1.00  0.00     0.029 A 
ATOM     46  C   UNL A   1      41.339  25.545  28.347  1.00  0.00     0.049 A 
ATOM     47  H   UNL A   1      42.071  27.214  29.356  1.00  0.00     0.167 HD
ATOM     48  C   UNL A   1      43.446  30.697  31.589  1.00  0.00     0.031 A 
ATOM     49  C   UNL A   1      42.347  24.654  28.279  1.00  0.00     0.031 A 
ATOM     50  C   UNL A   1      44.563  29.789  31.604  1.00  0.00     0.049 A 
ATOM     51  C   UNL A   1      43.684  24.997  28.888  1.00  0.00     0.074 A 
ATOM     52  C   UNL A   1      45.802  29.959  32.197  1.00  0.00     0.029 A 
ATOM     53  N   UNL A   1      44.581  28.550  30.986  1.00  0.00    -0.354 N 
ATOM     54  N   UNL A   1      44.039  26.061  29.567  1.00  0.00    -0.248 NA
ATOM     55  C   UNL A   1      44.758  24.005  28.729  1.00  0.00     0.031 C 
ATOM     56  C   UNL A   1      46.590  28.846  31.889  1.00  0.00     0.029 A 
ATOM     57  C   UNL A   1      45.818  27.954  31.164  1.00  0.00     0.049 A 
ATOM     58  H   UNL A   1      43.827  28.153  30.493  1.00  0.00     0.167 HD
ATOM     59  C   UNL A   1      45.358  25.847  29.949  1.00  0.00     0.074 A 
ATOM     60  C   UNL A   1      45.737  24.547  29.438  1.00  0.00     0.031 C 
ATOM     61  C   UNL A   1      46.182  26.654  30.661  1.00  0.00     0.031 A 
BRANCH  48  62
ATOM     62  C   UNL A   1      43.592  32.016  32.291  1.00  0.00    -0.014 A 
ATOM     63  C   UNL A   1      43.243  32.162  33.643  1.00  0.00     0.009 A 
ATOM     64  C   UNL A   1      44.121  33.117  31.600  1.00  0.00     0.009 A 
ATOM     65  C   UNL A   1      43.396  33.395  34.281  1.00  0.00     0.001 A 
ATOM     66  C   UNL A   1      44.297  34.341  32.249  1.00  0.00     0.001 A 
ATOM     67  C   UNL A   1      43.929  34.481  33.586  1.00  0.00     0.000 A 
ENDBRANCH  48  62
BRANCH  49  68
ATOM     68  C   UNL A   1      42.165  23.355  27.574  1.00  0.00    -0.014 A 
ATOM     69  C   UNL A   1      41.677  22.227  28.254  1.00  0.00     0.009 A 
ATOM     70  C   UNL A   1      42.553  23.218  26.232  1.00  0.00     0.009 A 
ATOM     71  C   UNL A   1      41.625  20.984  27.617  1.00  0.00     0.001 A 
ATOM     72  C   UNL A   1      42.468  21.983  25.588  1.00  0.00     0.001 A 
ATOM     73  C   UNL A   1      42.018  20.863  26.285  1.00  0.00     0.000 A 
ENDBRANCH  49  68
BRANCH  61  74
ATOM     74  C   UNL A   1      47.556  26.130  30.988  1.00  0.00    -0.014 A 
ATOM     75  C   UNL A   1      48.601  26.169  30.053  1.00  0.00     0.009 A 
ATOM     76  C   UNL A   1      47.813  25.620  32.271  1.00  0.00     0.009 A 
ATOM     77  C   UNL A   1      49.864  25.671  30.384  1.00  0.00     0.001 A 
ATOM     78  C   UNL A   1      49.083  25.153  32.610  1.00  0.00     0.001 A 
ATOM     79  C   UNL A   1      50.105  25.168  31.662  1.00  0.00     0.000 A 
ENDBRANCH  61  74
ENDBRANCH  35  36
ENDBRANCH  28  30
ENDBRANCH  27  28
ENDBRANCH  26  27
ENDBRANCH   1  26
TORSDOF 15
ENDMDL
