MODEL 1
REMARK VINA RESULT:     -12.7      0.000      0.000
REMARK SMILES Cc1ccc(C2=NN(C(=O)CCC(=O)OCCOC(=O)c3ccc(-c4c5nc(c(-c6ccccc6)c6ccc([nH]6)c(-c6ccccc6)c6nc(c(-c7ccccc7)c7ccc4[nH]7)C=C6)C=C5)cc3)[C@H](C[C@@H]3C=c4cccc(C)c4=NC3=O)C2)cc1
REMARK SMILES IDX 15 1 13 2 14 3 12 4 11 5 9 6 10 7 8 8 6 9 7 10 83 11 69 12
REMARK SMILES IDX 5 13 1 14 2 15 3 16 85 17 4 18 84 19 70 20 71 21 72 22 81 23
REMARK SMILES IDX 73 24 80 25 82 26 74 27 79 28 75 29 77 30 76 31 78 32 16 33
REMARK SMILES IDX 17 34 18 35 19 36 20 37 21 38 22 39 68 40 23 41 67 42 24 43
REMARK SMILES IDX 25 44 26 45 61 46 27 47 66 48 60 49 62 50 28 51 65 52 59 53
REMARK SMILES IDX 58 54 29 56 51 57 36 58 50 59 37 60 40 61 49 62 63 63 38 64
REMARK SMILES IDX 39 65 48 67 64 68 41 69 30 70 31 71 35 72 32 73 34 74 33 75
REMARK SMILES IDX 52 76 53 77 57 78 54 79 56 80 55 81 42 82 43 83 47 84 44 85
REMARK SMILES IDX 46 86 45 87
REMARK H PARENT 62 55 40 66
REMARK Flexibility Score: inf
ROOT
ATOM      1  O   UNL A   1      32.560  28.666  26.316  1.00  0.00    -0.462 OA
ENDROOT
BRANCH   1   2
ATOM      2  C   UNL A   1      31.836  27.784  27.025  1.00  0.00     0.306 C 
ATOM      3  O   UNL A   1      31.109  28.047  27.965  1.00  0.00    -0.252 OA
BRANCH   2   4
ATOM      4  C   UNL A   1      31.854  26.413  26.441  1.00  0.00     0.132 C 
BRANCH   4   5
ATOM      5  C   UNL A   1      33.300  26.104  26.106  1.00  0.00     0.114 C 
BRANCH   5   6
ATOM      6  C   UNL A   1      33.506  24.608  26.037  1.00  0.00     0.243 C 
ATOM      7  O   UNL A   1      32.747  23.909  26.722  1.00  0.00    -0.273 OA
BRANCH   6   8
ATOM      8  N   UNL A   1      34.566  24.059  25.317  1.00  0.00    -0.230 N 
ATOM      9  C   UNL A   1      36.643  23.460  25.434  1.00  0.00     0.070 C 
ATOM     10  N   UNL A   1      35.599  23.685  26.154  1.00  0.00    -0.174 NA
ATOM     11  C   UNL A   1      36.451  23.491  23.962  1.00  0.00     0.086 C 
ATOM     12  C   UNL A   1      35.041  24.095  23.892  1.00  0.00     0.118 C 
BRANCH   9  13
ATOM     13  C   UNL A   1      37.933  23.130  26.017  1.00  0.00    -0.002 A 
ATOM     14  C   UNL A   1      41.660  21.998  27.775  1.00  0.00     0.044 C 
ATOM     15  C   UNL A   1      40.350  22.410  27.172  1.00  0.00    -0.051 A 
ATOM     16  C   UNL A   1      39.664  21.508  26.345  1.00  0.00     0.004 A 
ATOM     17  C   UNL A   1      39.801  23.676  27.426  1.00  0.00     0.004 A 
ATOM     18  C   UNL A   1      38.452  21.864  25.769  1.00  0.00     0.010 A 
ATOM     19  C   UNL A   1      38.584  24.041  26.850  1.00  0.00     0.010 A 
ENDBRANCH   9  13
BRANCH  12  20
ATOM     20  C   UNL A   1      34.273  23.412  22.736  1.00  0.00     0.045 C 
BRANCH  20  21
ATOM     21  C   UNL A   1      33.060  24.170  22.190  1.00  0.00     0.106 C 
ATOM     22  C   UNL A   1      33.295  25.630  22.345  1.00  0.00    -0.003 C 
ATOM     23  C   UNL A   1      31.723  23.722  22.817  1.00  0.00     0.253 C 
ATOM     24  C   UNL A   1      32.335  26.505  22.605  1.00  0.00    -0.003 A 
ATOM     25  N   UNL A   1      30.756  24.668  23.095  1.00  0.00    -0.212 NA
ATOM     26  O   UNL A   1      31.520  22.527  23.029  1.00  0.00    -0.272 OA
ATOM     27  C   UNL A   1      32.554  27.922  22.489  1.00  0.00     0.010 A 
ATOM     28  C   UNL A   1      31.028  25.933  23.016  1.00  0.00     0.077 A 
ATOM     29  C   UNL A   1      31.569  28.770  22.792  1.00  0.00     0.001 A 
ATOM     30  C   UNL A   1      30.025  26.970  23.440  1.00  0.00    -0.025 A 
ATOM     31  C   UNL A   1      30.318  28.279  23.320  1.00  0.00     0.005 A 
ATOM     32  C   UNL A   1      28.780  26.472  24.099  1.00  0.00     0.047 C 
ENDBRANCH  20  21
ENDBRANCH  12  20
ENDBRANCH   6   8
ENDBRANCH   5   6
ENDBRANCH   4   5
ENDBRANCH   2   4
ENDBRANCH   1   2
BRANCH   1  33
ATOM     33  C   UNL A   1      32.342  30.096  26.323  1.00  0.00     0.274 C 
BRANCH  33  34
ATOM     34  C   UNL A   1      32.973  31.161  27.284  1.00  0.00     0.275 C 
BRANCH  34  35
ATOM     35  O   UNL A   1      32.716  32.601  27.326  1.00  0.00    -0.458 OA
BRANCH  35  36
ATOM     36  C   UNL A   1      33.172  33.629  28.112  1.00  0.00     0.338 C 
ATOM     37  O   UNL A   1      32.542  34.640  28.329  1.00  0.00    -0.246 OA
BRANCH  36  38
ATOM     38  C   UNL A   1      34.442  33.373  28.806  1.00  0.00     0.060 A 
ATOM     39  C   UNL A   1      34.468  32.737  30.068  1.00  0.00     0.016 A 
ATOM     40  C   UNL A   1      35.562  33.472  28.028  1.00  0.00     0.016 A 
ATOM     41  C   UNL A   1      35.594  31.989  30.447  1.00  0.00     0.010 A 
ATOM     42  C   UNL A   1      36.552  32.575  28.307  1.00  0.00     0.010 A 
ATOM     43  C   UNL A   1      36.620  31.846  29.521  1.00  0.00    -0.014 A 
BRANCH  43  44
ATOM     44  C   UNL A   1      37.926  31.196  29.701  1.00  0.00     0.031 A 
ATOM     45  C   UNL A   1      38.372  29.887  29.191  1.00  0.00     0.074 A 
ATOM     46  C   UNL A   1      38.828  32.048  30.241  1.00  0.00     0.049 A 
ATOM     47  N   UNL A   1      39.354  29.223  29.704  1.00  0.00    -0.248 NA
ATOM     48  C   UNL A   1      37.794  29.210  28.040  1.00  0.00     0.031 C 
ATOM     49  C   UNL A   1      40.273  32.034  30.269  1.00  0.00     0.029 A 
ATOM     50  N   UNL A   1      38.501  33.194  30.972  1.00  0.00    -0.354 N 
ATOM     51  C   UNL A   1      39.725  28.254  28.791  1.00  0.00     0.074 A 
ATOM     52  C   UNL A   1      38.643  28.193  27.840  1.00  0.00     0.031 C 
ATOM     53  C   UNL A   1      40.681  32.918  31.204  1.00  0.00     0.029 A 
ATOM     54  C   UNL A   1      39.492  33.404  31.904  1.00  0.00     0.049 A 
ATOM     55  H   UNL A   1      37.700  33.753  30.844  1.00  0.00     0.167 HD
ATOM     56  C   UNL A   1      40.990  27.744  28.813  1.00  0.00     0.031 A 
ATOM     57  C   UNL A   1      39.176  33.287  33.227  1.00  0.00     0.031 A 
ATOM     58  C   UNL A   1      41.800  28.412  29.824  1.00  0.00     0.049 A 
ATOM     59  C   UNL A   1      39.951  32.135  33.802  1.00  0.00     0.074 A 
ATOM     60  C   UNL A   1      42.734  29.430  29.739  1.00  0.00     0.029 A 
ATOM     61  N   UNL A   1      41.459  28.292  31.163  1.00  0.00    -0.354 N 
ATOM     62  N   UNL A   1      40.361  31.117  33.098  1.00  0.00    -0.248 NA
ATOM     63  C   UNL A   1      40.360  32.065  35.195  1.00  0.00     0.031 C 
ATOM     64  C   UNL A   1      42.891  29.982  31.036  1.00  0.00     0.029 A 
ATOM     65  C   UNL A   1      42.077  29.277  31.905  1.00  0.00     0.049 A 
ATOM     66  H   UNL A   1      40.860  27.603  31.532  1.00  0.00     0.167 HD
ATOM     67  C   UNL A   1      41.190  30.352  33.866  1.00  0.00     0.074 A 
ATOM     68  C   UNL A   1      41.113  30.951  35.186  1.00  0.00     0.031 C 
ATOM     69  C   UNL A   1      41.908  29.314  33.348  1.00  0.00     0.031 A 
BRANCH  56  70
ATOM     70  C   UNL A   1      41.594  26.864  27.741  1.00  0.00    -0.014 A 
ATOM     71  C   UNL A   1      42.610  25.946  28.084  1.00  0.00     0.009 A 
ATOM     72  C   UNL A   1      41.199  26.868  26.393  1.00  0.00     0.009 A 
ATOM     73  C   UNL A   1      43.241  25.132  27.134  1.00  0.00     0.001 A 
ATOM     74  C   UNL A   1      41.842  26.069  25.431  1.00  0.00     0.001 A 
ATOM     75  C   UNL A   1      42.868  25.207  25.801  1.00  0.00     0.000 A 
ENDBRANCH  56  70
BRANCH  57  76
ATOM     76  C   UNL A   1      37.737  33.611  33.549  1.00  0.00    -0.014 A 
ATOM     77  C   UNL A   1      37.209  34.839  33.084  1.00  0.00     0.009 A 
ATOM     78  C   UNL A   1      36.820  32.600  33.895  1.00  0.00     0.009 A 
ATOM     79  C   UNL A   1      35.833  35.017  32.888  1.00  0.00     0.001 A 
ATOM     80  C   UNL A   1      35.439  32.788  33.707  1.00  0.00     0.001 A 
ATOM     81  C   UNL A   1      34.949  33.983  33.182  1.00  0.00     0.000 A 
ENDBRANCH  57  76
BRANCH  69  82
ATOM     82  C   UNL A   1      42.596  28.247  34.150  1.00  0.00    -0.014 A 
ATOM     83  C   UNL A   1      43.882  28.388  34.679  1.00  0.00     0.009 A 
ATOM     84  C   UNL A   1      41.851  27.116  34.559  1.00  0.00     0.009 A 
ATOM     85  C   UNL A   1      44.409  27.431  35.552  1.00  0.00     0.001 A 
ATOM     86  C   UNL A   1      42.352  26.191  35.471  1.00  0.00     0.001 A 
ATOM     87  C   UNL A   1      43.640  26.346  35.961  1.00  0.00     0.000 A 
ENDBRANCH  69  82
ENDBRANCH  43  44
ENDBRANCH  36  38
ENDBRANCH  35  36
ENDBRANCH  34  35
ENDBRANCH  33  34
ENDBRANCH   1  33
TORSDOF 17
ENDMDL
MODEL 2
REMARK VINA RESULT:     -11.9      1.898      3.056
REMARK SMILES Cc1ccc(C2=NN(C(=O)CCC(=O)OCCOC(=O)c3ccc(-c4c5nc(c(-c6ccccc6)c6ccc([nH]6)c(-c6ccccc6)c6nc(c(-c7ccccc7)c7ccc4[nH]7)C=C6)C=C5)cc3)[C@H](C[C@@H]3C=c4cccc(C)c4=NC3=O)C2)cc1
REMARK SMILES IDX 15 1 13 2 14 3 12 4 11 5 9 6 10 7 8 8 6 9 7 10 83 11 69 12
REMARK SMILES IDX 5 13 1 14 2 15 3 16 85 17 4 18 84 19 70 20 71 21 72 22 81 23
REMARK SMILES IDX 73 24 80 25 82 26 74 27 79 28 75 29 77 30 76 31 78 32 16 33
REMARK SMILES IDX 17 34 18 35 19 36 20 37 21 38 22 39 68 40 23 41 67 42 24 43
REMARK SMILES IDX 25 44 26 45 61 46 27 47 66 48 60 49 62 50 28 51 65 52 59 53
REMARK SMILES IDX 58 54 29 56 51 57 36 58 50 59 37 60 40 61 49 62 63 63 38 64
REMARK SMILES IDX 39 65 48 67 64 68 41 69 30 70 31 71 35 72 32 73 34 74 33 75
REMARK SMILES IDX 52 76 53 77 57 78 54 79 56 80 55 81 42 82 43 83 47 84 44 85
REMARK SMILES IDX 46 86 45 87
REMARK H PARENT 62 55 40 66
REMARK Flexibility Score: inf
ROOT
ATOM      1  O   UNL A   1      32.602  29.127  27.394  1.00  0.00    -0.462 OA
ENDROOT
BRANCH   1   2
ATOM      2  C   UNL A   1      32.966  28.084  26.632  1.00  0.00     0.306 C 
ATOM      3  O   UNL A   1      34.021  27.967  26.035  1.00  0.00    -0.252 OA
BRANCH   2   4
ATOM      4  C   UNL A   1      32.009  26.944  26.708  1.00  0.00     0.132 C 
BRANCH   4   5
ATOM      5  C   UNL A   1      32.840  25.677  26.671  1.00  0.00     0.114 C 
BRANCH   5   6
ATOM      6  C   UNL A   1      31.970  24.500  26.291  1.00  0.00     0.243 C 
ATOM      7  O   UNL A   1      31.176  24.094  27.149  1.00  0.00    -0.273 OA
BRANCH   6   8
ATOM      8  N   UNL A   1      32.136  23.847  25.070  1.00  0.00    -0.230 N 
ATOM      9  C   UNL A   1      32.654  21.959  24.146  1.00  0.00     0.070 C 
ATOM     10  N   UNL A   1      32.220  22.479  25.241  1.00  0.00    -0.174 NA
ATOM     11  C   UNL A   1      32.789  22.876  22.986  1.00  0.00     0.086 C 
ATOM     12  C   UNL A   1      32.605  24.227  23.693  1.00  0.00     0.118 C 
BRANCH   9  13
ATOM     13  C   UNL A   1      32.940  20.539  24.019  1.00  0.00    -0.002 A 
ATOM     14  C   UNL A   1      33.953  16.406  23.631  1.00  0.00     0.044 C 
ATOM     15  C   UNL A   1      33.587  17.855  23.750  1.00  0.00    -0.051 A 
ATOM     16  C   UNL A   1      34.351  18.688  24.581  1.00  0.00     0.004 A 
ATOM     17  C   UNL A   1      32.499  18.389  23.042  1.00  0.00     0.004 A 
ATOM     18  C   UNL A   1      34.032  20.034  24.714  1.00  0.00     0.010 A 
ATOM     19  C   UNL A   1      32.172  19.740  23.172  1.00  0.00     0.010 A 
ENDBRANCH   9  13
BRANCH  12  20
ATOM     20  C   UNL A   1      31.797  25.161  22.763  1.00  0.00     0.045 C 
BRANCH  20  21
ATOM     21  C   UNL A   1      31.289  26.463  23.387  1.00  0.00     0.106 C 
ATOM     22  C   UNL A   1      29.807  26.406  23.481  1.00  0.00    -0.003 C 
ATOM     23  C   UNL A   1      31.782  27.728  22.655  1.00  0.00     0.253 C 
ATOM     24  C   UNL A   1      29.020  27.462  23.338  1.00  0.00    -0.003 A 
ATOM     25  N   UNL A   1      30.924  28.800  22.505  1.00  0.00    -0.212 NA
ATOM     26  O   UNL A   1      32.941  27.781  22.244  1.00  0.00    -0.272 OA
ATOM     27  C   UNL A   1      27.627  27.419  23.691  1.00  0.00     0.010 A 
ATOM     28  C   UNL A   1      29.667  28.685  22.799  1.00  0.00     0.077 A 
ATOM     29  C   UNL A   1      26.863  28.497  23.500  1.00  0.00     0.001 A 
ATOM     30  C   UNL A   1      28.701  29.803  22.519  1.00  0.00    -0.025 A 
ATOM     31  C   UNL A   1      27.404  29.673  22.861  1.00  0.00     0.005 A 
ATOM     32  C   UNL A   1      29.225  30.970  21.749  1.00  0.00     0.047 C 
ENDBRANCH  20  21
ENDBRANCH  12  20
ENDBRANCH   6   8
ENDBRANCH   5   6
ENDBRANCH   4   5
ENDBRANCH   2   4
ENDBRANCH   1   2
BRANCH   1  33
ATOM     33  C   UNL A   1      33.102  30.475  27.230  1.00  0.00     0.274 C 
BRANCH  33  34
ATOM     34  C   UNL A   1      32.290  31.814  27.271  1.00  0.00     0.275 C 
BRANCH  34  35
ATOM     35  O   UNL A   1      32.810  33.182  27.294  1.00  0.00    -0.458 OA
BRANCH  35  36
ATOM     36  C   UNL A   1      33.192  34.040  28.294  1.00  0.00     0.338 C 
ATOM     37  O   UNL A   1      32.524  34.980  28.666  1.00  0.00    -0.246 OA
BRANCH  36  38
ATOM     38  C   UNL A   1      34.425  33.671  29.003  1.00  0.00     0.060 A 
ATOM     39  C   UNL A   1      34.381  32.907  30.191  1.00  0.00     0.016 A 
ATOM     40  C   UNL A   1      35.577  33.810  28.281  1.00  0.00     0.016 A 
ATOM     41  C   UNL A   1      35.468  32.085  30.531  1.00  0.00     0.010 A 
ATOM     42  C   UNL A   1      36.527  32.856  28.500  1.00  0.00     0.010 A 
ATOM     43  C   UNL A   1      36.525  32.003  29.632  1.00  0.00    -0.014 A 
BRANCH  43  44
ATOM     44  C   UNL A   1      37.802  31.293  29.790  1.00  0.00     0.031 A 
ATOM     45  C   UNL A   1      38.175  29.962  29.279  1.00  0.00     0.074 A 
ATOM     46  C   UNL A   1      38.754  32.104  30.307  1.00  0.00     0.049 A 
ATOM     47  N   UNL A   1      39.136  29.254  29.777  1.00  0.00    -0.248 NA
ATOM     48  C   UNL A   1      37.542  29.306  28.145  1.00  0.00     0.031 C 
ATOM     49  C   UNL A   1      40.197  32.022  30.306  1.00  0.00     0.029 A 
ATOM     50  N   UNL A   1      38.496  33.268  31.037  1.00  0.00    -0.354 N 
ATOM     51  C   UNL A   1      39.441  28.264  28.863  1.00  0.00     0.074 A 
ATOM     52  C   UNL A   1      38.339  28.249  27.934  1.00  0.00     0.031 C 
ATOM     53  C   UNL A   1      40.666  32.891  31.226  1.00  0.00     0.029 A 
ATOM     54  C   UNL A   1      39.516  33.436  31.947  1.00  0.00     0.049 A 
ATOM     55  H   UNL A   1      37.721  33.864  30.921  1.00  0.00     0.167 HD
ATOM     56  C   UNL A   1      40.681  27.695  28.863  1.00  0.00     0.031 A 
ATOM     57  C   UNL A   1      39.221  33.342  33.277  1.00  0.00     0.031 A 
ATOM     58  C   UNL A   1      41.542  28.329  29.854  1.00  0.00     0.049 A 
ATOM     59  C   UNL A   1      39.952  32.157  33.844  1.00  0.00     0.074 A 
ATOM     60  C   UNL A   1      42.521  29.302  29.743  1.00  0.00     0.029 A 
ATOM     61  N   UNL A   1      41.223  28.233  31.200  1.00  0.00    -0.354 N 
ATOM     62  N   UNL A   1      40.299  31.117  33.138  1.00  0.00    -0.248 NA
ATOM     63  C   UNL A   1      40.386  32.076  35.229  1.00  0.00     0.031 C 
ATOM     64  C   UNL A   1      42.731  29.853  31.033  1.00  0.00     0.029 A 
ATOM     65  C   UNL A   1      41.902  29.192  31.923  1.00  0.00     0.049 A 
ATOM     66  H   UNL A   1      40.600  27.575  31.585  1.00  0.00     0.167 HD
ATOM     67  C   UNL A   1      41.107  30.318  33.894  1.00  0.00     0.074 A 
ATOM     68  C   UNL A   1      41.085  30.927  35.212  1.00  0.00     0.031 C 
ATOM     69  C   UNL A   1      41.764  29.244  33.369  1.00  0.00     0.031 A 
BRANCH  56  70
ATOM     70  C   UNL A   1      41.221  26.782  27.785  1.00  0.00    -0.014 A 
ATOM     71  C   UNL A   1      40.877  25.413  27.795  1.00  0.00     0.009 A 
ATOM     72  C   UNL A   1      42.044  27.200  26.727  1.00  0.00     0.009 A 
ATOM     73  C   UNL A   1      41.376  24.504  26.852  1.00  0.00     0.001 A 
ATOM     74  C   UNL A   1      42.565  26.291  25.789  1.00  0.00     0.001 A 
ATOM     75  C   UNL A   1      42.236  24.942  25.857  1.00  0.00     0.000 A 
ENDBRANCH  56  70
BRANCH  57  76
ATOM     76  C   UNL A   1      37.806  33.735  33.626  1.00  0.00    -0.014 A 
ATOM     77  C   UNL A   1      37.268  34.896  33.020  1.00  0.00     0.009 A 
ATOM     78  C   UNL A   1      36.898  32.801  34.159  1.00  0.00     0.009 A 
ATOM     79  C   UNL A   1      35.884  35.071  32.874  1.00  0.00     0.001 A 
ATOM     80  C   UNL A   1      35.511  32.987  34.020  1.00  0.00     0.001 A 
ATOM     81  C   UNL A   1      35.006  34.105  33.357  1.00  0.00     0.000 A 
ENDBRANCH  57  76
BRANCH  69  82
ATOM     82  C   UNL A   1      42.417  28.150  34.163  1.00  0.00    -0.014 A 
ATOM     83  C   UNL A   1      41.759  26.980  34.552  1.00  0.00     0.009 A 
ATOM     84  C   UNL A   1      43.815  28.203  34.372  1.00  0.00     0.009 A 
ATOM     85  C   UNL A   1      42.458  25.925  35.147  1.00  0.00     0.001 A 
ATOM     86  C   UNL A   1      44.522  27.133  34.914  1.00  0.00     0.001 A 
ATOM     87  C   UNL A   1      43.838  25.994  35.311  1.00  0.00     0.000 A 
ENDBRANCH  69  82
ENDBRANCH  43  44
ENDBRANCH  36  38
ENDBRANCH  35  36
ENDBRANCH  34  35
ENDBRANCH  33  34
ENDBRANCH   1  33
TORSDOF 17
ENDMDL
MODEL 3
REMARK VINA RESULT:     -11.8      1.613      4.984
REMARK SMILES Cc1ccc(C2=NN(C(=O)CCC(=O)OCCOC(=O)c3ccc(-c4c5nc(c(-c6ccccc6)c6ccc([nH]6)c(-c6ccccc6)c6nc(c(-c7ccccc7)c7ccc4[nH]7)C=C6)C=C5)cc3)[C@H](C[C@@H]3C=c4cccc(C)c4=NC3=O)C2)cc1
REMARK SMILES IDX 15 1 13 2 14 3 12 4 11 5 9 6 10 7 8 8 6 9 7 10 83 11 69 12
REMARK SMILES IDX 5 13 1 14 2 15 3 16 85 17 4 18 84 19 70 20 71 21 72 22 81 23
REMARK SMILES IDX 73 24 80 25 82 26 74 27 79 28 75 29 77 30 76 31 78 32 16 33
REMARK SMILES IDX 17 34 18 35 19 36 20 37 21 38 22 39 68 40 23 41 67 42 24 43
REMARK SMILES IDX 25 44 26 45 61 46 27 47 66 48 60 49 62 50 28 51 65 52 59 53
REMARK SMILES IDX 58 54 29 56 51 57 36 58 50 59 37 60 40 61 49 62 63 63 38 64
REMARK SMILES IDX 39 65 48 67 64 68 41 69 30 70 31 71 35 72 32 73 34 74 33 75
REMARK SMILES IDX 52 76 53 77 57 78 54 79 56 80 55 81 42 82 43 83 47 84 44 85
REMARK SMILES IDX 46 86 45 87
REMARK H PARENT 62 55 40 66
REMARK Flexibility Score: inf
ROOT
ATOM      1  O   UNL A   1      32.278  29.832  26.612  1.00  0.00    -0.462 OA
ENDROOT
BRANCH   1   2
ATOM      2  C   UNL A   1      32.373  28.597  27.130  1.00  0.00     0.306 C 
ATOM      3  O   UNL A   1      31.508  28.016  27.759  1.00  0.00    -0.252 OA
BRANCH   2   4
ATOM      4  C   UNL A   1      33.614  27.884  26.713  1.00  0.00     0.132 C 
BRANCH   4   5
ATOM      5  C   UNL A   1      33.185  26.510  26.236  1.00  0.00     0.114 C 
BRANCH   5   6
ATOM      6  C   UNL A   1      33.103  26.489  24.727  1.00  0.00     0.243 C 
ATOM      7  O   UNL A   1      34.171  26.366  24.113  1.00  0.00    -0.273 OA
BRANCH   6   8
ATOM      8  N   UNL A   1      31.892  26.701  24.068  1.00  0.00    -0.230 N 
ATOM      9  C   UNL A   1      30.468  28.213  23.460  1.00  0.00     0.070 C 
ATOM     10  N   UNL A   1      31.699  28.041  23.797  1.00  0.00    -0.174 NA
ATOM     11  C   UNL A   1      29.650  26.985  23.292  1.00  0.00     0.086 C 
ATOM     12  C   UNL A   1      30.603  25.947  23.901  1.00  0.00     0.118 C 
BRANCH   9  13
ATOM     13  C   UNL A   1      29.911  29.530  23.193  1.00  0.00    -0.002 A 
ATOM     14  C   UNL A   1      28.195  33.393  22.568  1.00  0.00     0.044 C 
ATOM     15  C   UNL A   1      28.787  32.030  22.772  1.00  0.00    -0.051 A 
ATOM     16  C   UNL A   1      29.356  31.710  24.014  1.00  0.00     0.004 A 
ATOM     17  C   UNL A   1      28.775  31.073  21.745  1.00  0.00     0.004 A 
ATOM     18  C   UNL A   1      29.916  30.457  24.229  1.00  0.00     0.010 A 
ATOM     19  C   UNL A   1      29.336  29.813  21.954  1.00  0.00     0.010 A 
ENDBRANCH   9  13
BRANCH  12  20
ATOM     20  C   UNL A   1      30.498  24.643  23.078  1.00  0.00     0.045 C 
BRANCH  20  21
ATOM     21  C   UNL A   1      31.286  23.442  23.609  1.00  0.00     0.106 C 
ATOM     22  C   UNL A   1      31.202  23.430  25.094  1.00  0.00    -0.003 C 
ATOM     23  C   UNL A   1      32.743  23.393  23.104  1.00  0.00     0.253 C 
ATOM     24  C   UNL A   1      32.184  23.020  25.882  1.00  0.00    -0.003 A 
ATOM     25  N   UNL A   1      33.743  22.982  23.964  1.00  0.00    -0.212 NA
ATOM     26  O   UNL A   1      32.992  23.685  21.935  1.00  0.00    -0.272 OA
ATOM     27  C   UNL A   1      31.976  22.778  27.284  1.00  0.00     0.010 A 
ATOM     28  C   UNL A   1      33.503  22.824  25.227  1.00  0.00     0.077 A 
ATOM     29  C   UNL A   1      33.002  22.397  28.048  1.00  0.00     0.001 A 
ATOM     30  C   UNL A   1      34.611  22.503  26.193  1.00  0.00    -0.025 A 
ATOM     31  C   UNL A   1      34.333  22.312  27.497  1.00  0.00     0.005 A 
ATOM     32  C   UNL A   1      36.003  22.535  25.654  1.00  0.00     0.047 C 
ENDBRANCH  20  21
ENDBRANCH  12  20
ENDBRANCH   6   8
ENDBRANCH   5   6
ENDBRANCH   4   5
ENDBRANCH   2   4
ENDBRANCH   1   2
BRANCH   1  33
ATOM     33  C   UNL A   1      32.851  31.017  27.212  1.00  0.00     0.274 C 
BRANCH  33  34
ATOM     34  C   UNL A   1      32.261  32.468  27.229  1.00  0.00     0.275 C 
BRANCH  34  35
ATOM     35  O   UNL A   1      32.977  33.730  27.420  1.00  0.00    -0.458 OA
BRANCH  35  36
ATOM     36  C   UNL A   1      33.365  34.450  28.521  1.00  0.00     0.338 C 
ATOM     37  O   UNL A   1      32.747  35.395  28.958  1.00  0.00    -0.246 OA
BRANCH  36  38
ATOM     38  C   UNL A   1      34.527  33.916  29.244  1.00  0.00     0.060 A 
ATOM     39  C   UNL A   1      34.391  32.841  30.152  1.00  0.00     0.016 A 
ATOM     40  C   UNL A   1      35.745  34.281  28.741  1.00  0.00     0.016 A 
ATOM     41  C   UNL A   1      35.475  31.978  30.377  1.00  0.00     0.010 A 
ATOM     42  C   UNL A   1      36.715  33.323  28.797  1.00  0.00     0.010 A 
ATOM     43  C   UNL A   1      36.630  32.180  29.631  1.00  0.00    -0.014 A 
BRANCH  43  44
ATOM     44  C   UNL A   1      37.918  31.480  29.739  1.00  0.00     0.031 A 
ATOM     45  C   UNL A   1      38.353  30.256  29.042  1.00  0.00     0.074 A 
ATOM     46  C   UNL A   1      38.821  32.216  30.427  1.00  0.00     0.049 A 
ATOM     47  N   UNL A   1      39.309  29.497  29.469  1.00  0.00    -0.248 NA
ATOM     48  C   UNL A   1      37.794  29.780  27.786  1.00  0.00     0.031 C 
ATOM     49  C   UNL A   1      40.264  32.164  30.488  1.00  0.00     0.029 A 
ATOM     50  N   UNL A   1      38.496  33.242  31.320  1.00  0.00    -0.354 N 
ATOM     51  C   UNL A   1      39.685  28.674  28.425  1.00  0.00     0.074 A 
ATOM     52  C   UNL A   1      38.630  28.787  27.450  1.00  0.00     0.031 C 
ATOM     53  C   UNL A   1      40.664  32.883  31.559  1.00  0.00     0.029 A 
ATOM     54  C   UNL A   1      39.465  33.281  32.297  1.00  0.00     0.049 A 
ATOM     55  H   UNL A   1      37.710  33.833  31.261  1.00  0.00     0.167 HD
ATOM     56  C   UNL A   1      40.939  28.138  28.398  1.00  0.00     0.031 A 
ATOM     57  C   UNL A   1      39.111  32.968  33.577  1.00  0.00     0.031 A 
ATOM     58  C   UNL A   1      41.734  28.621  29.521  1.00  0.00     0.049 A 
ATOM     59  C   UNL A   1      39.848  31.722  33.985  1.00  0.00     0.074 A 
ATOM     60  C   UNL A   1      42.690  29.619  29.617  1.00  0.00     0.029 A 
ATOM     61  N   UNL A   1      41.354  28.303  30.816  1.00  0.00    -0.354 N 
ATOM     62  N   UNL A   1      40.257  30.817  33.140  1.00  0.00    -0.248 NA
ATOM     63  C   UNL A   1      40.217  31.428  35.359  1.00  0.00     0.031 C 
ATOM     64  C   UNL A   1      42.821  29.959  30.988  1.00  0.00     0.029 A 
ATOM     65  C   UNL A   1      41.970  29.146  31.717  1.00  0.00     0.049 A 
ATOM     66  H   UNL A   1      40.732  27.578  31.058  1.00  0.00     0.167 HD
ATOM     67  C   UNL A   1      41.050  29.923  33.799  1.00  0.00     0.074 A 
ATOM     68  C   UNL A   1      40.948  30.311  35.195  1.00  0.00     0.031 C 
ATOM     69  C   UNL A   1      41.762  28.962  33.144  1.00  0.00     0.031 A 
BRANCH  56  70
ATOM     70  C   UNL A   1      41.556  27.422  27.217  1.00  0.00    -0.014 A 
ATOM     71  C   UNL A   1      41.200  26.082  26.952  1.00  0.00     0.009 A 
ATOM     72  C   UNL A   1      42.465  28.005  26.319  1.00  0.00     0.009 A 
ATOM     73  C   UNL A   1      41.765  25.347  25.901  1.00  0.00     0.001 A 
ATOM     74  C   UNL A   1      43.051  27.268  25.275  1.00  0.00     0.001 A 
ATOM     75  C   UNL A   1      42.707  25.937  25.071  1.00  0.00     0.000 A 
ENDBRANCH  56  70
BRANCH  57  76
ATOM     76  C   UNL A   1      37.670  33.270  33.911  1.00  0.00    -0.014 A 
ATOM     77  C   UNL A   1      37.254  34.624  33.906  1.00  0.00     0.009 A 
ATOM     78  C   UNL A   1      36.671  32.284  33.802  1.00  0.00     0.009 A 
ATOM     79  C   UNL A   1      35.911  34.976  33.709  1.00  0.00     0.001 A 
ATOM     80  C   UNL A   1      35.324  32.644  33.616  1.00  0.00     0.001 A 
ATOM     81  C   UNL A   1      34.949  33.985  33.545  1.00  0.00     0.000 A 
ENDBRANCH  57  76
BRANCH  69  82
ATOM     82  C   UNL A   1      42.407  27.768  33.785  1.00  0.00    -0.014 A 
ATOM     83  C   UNL A   1      41.808  27.021  34.804  1.00  0.00     0.009 A 
ATOM     84  C   UNL A   1      43.591  27.245  33.214  1.00  0.00     0.009 A 
ATOM     85  C   UNL A   1      42.380  25.826  35.251  1.00  0.00     0.001 A 
ATOM     86  C   UNL A   1      44.133  26.029  33.619  1.00  0.00     0.001 A 
ATOM     87  C   UNL A   1      43.529  25.322  34.648  1.00  0.00     0.000 A 
ENDBRANCH  69  82
ENDBRANCH  43  44
ENDBRANCH  36  38
ENDBRANCH  35  36
ENDBRANCH  34  35
ENDBRANCH  33  34
ENDBRANCH   1  33
TORSDOF 17
ENDMDL
