MODEL 1
REMARK VINA RESULT:     -11.1      0.000      0.000
REMARK SMILES C[C@@]1(CN2C(=O)c3ccc(C(=O)OCCOC(=O)c4ccc(-c5c6nc(c(-c7ccccc7)c7ccc([nH]7)c(-c7ccccc7)c7nc(c(-c8ccccc8)c8ccc5[nH]8)C=C7)C=C6)cc4)cc3C2=O)CCCO1
REMARK SMILES IDX 14 1 13 2 11 3 12 4 10 5 4 6 5 7 69 8 6 9 7 10 68 11 70 12
REMARK SMILES IDX 8 13 67 14 9 15 3 16 2 17 1 18 71 19 74 20 72 21 73 22 15 23
REMARK SMILES IDX 16 24 17 25 18 26 19 27 20 28 66 29 21 30 65 31 22 32 23 33
REMARK SMILES IDX 24 34 59 35 25 36 64 37 58 38 60 39 26 40 63 41 57 42 56 43
REMARK SMILES IDX 27 45 49 46 34 47 48 48 35 49 38 50 47 51 61 52 36 53 37 54
REMARK SMILES IDX 46 56 62 57 39 58 28 59 29 60 33 61 30 62 32 63 31 64 50 65
REMARK SMILES IDX 51 66 55 67 52 68 54 69 53 70 40 71 41 72 45 73 42 74 44 75
REMARK SMILES IDX 43 76
REMARK H PARENT 60 44 38 55
REMARK Flexibility Score: inf
ROOT
ATOM      1  C   UNL A   1      33.802  35.261  28.740  1.00  0.00     0.275 C 
ENDROOT
BRANCH   1   2
ATOM      2  O   UNL A   1      33.975  33.913  29.230  1.00  0.00    -0.458 OA
BRANCH   2   3
ATOM      3  C   UNL A   1      35.098  33.271  28.824  1.00  0.00     0.338 C 
ATOM      4  O   UNL A   1      36.248  33.630  29.013  1.00  0.00    -0.246 OA
BRANCH   3   5
ATOM      5  C   UNL A   1      34.766  31.962  28.202  1.00  0.00     0.060 A 
ATOM      6  N   UNL A   1      32.284  28.969  25.744  1.00  0.00    -0.271 N 
ATOM      7  C   UNL A   1      33.500  28.506  26.172  1.00  0.00     0.261 C 
ATOM      8  C   UNL A   1      32.091  30.275  26.100  1.00  0.00     0.261 C 
ATOM      9  O   UNL A   1      34.034  27.431  25.966  1.00  0.00    -0.269 OA
ATOM     10  C   UNL A   1      34.115  29.583  26.948  1.00  0.00     0.053 A 
ATOM     11  C   UNL A   1      33.245  30.650  26.916  1.00  0.00     0.054 A 
ATOM     12  O   UNL A   1      31.215  31.054  25.782  1.00  0.00    -0.269 OA
ATOM     13  C   UNL A   1      35.320  29.648  27.624  1.00  0.00     0.015 A 
ATOM     14  C   UNL A   1      33.522  31.834  27.564  1.00  0.00     0.030 A 
ATOM     15  C   UNL A   1      35.654  30.864  28.244  1.00  0.00     0.016 A 
BRANCH   6  16
ATOM     16  C   UNL A   1      31.344  28.201  24.937  1.00  0.00     0.164 C 
BRANCH  16  17
ATOM     17  C   UNL A   1      31.481  28.433  23.404  1.00  0.00     0.084 C 
ATOM     18  C   UNL A   1      30.359  29.301  22.836  1.00  0.00     0.044 C 
ATOM     19  C   UNL A   1      31.548  27.094  22.658  1.00  0.00     0.039 C 
ATOM     20  O   UNL A   1      32.737  29.095  23.137  1.00  0.00    -0.373 OA
ATOM     21  C   UNL A   1      33.027  26.804  22.599  1.00  0.00     0.031 C 
ATOM     22  C   UNL A   1      33.619  28.187  22.461  1.00  0.00     0.161 C 
ENDBRANCH  16  17
ENDBRANCH   6  16
ENDBRANCH   3   5
ENDBRANCH   2   3
ENDBRANCH   1   2
BRANCH   1  23
ATOM     23  C   UNL A   1      32.910  36.095  29.666  1.00  0.00     0.275 C 
BRANCH  23  24
ATOM     24  O   UNL A   1      32.470  35.322  30.798  1.00  0.00    -0.458 OA
BRANCH  24  25
ATOM     25  C   UNL A   1      32.745  35.872  32.001  1.00  0.00     0.338 C 
ATOM     26  O   UNL A   1      32.153  36.783  32.555  1.00  0.00    -0.246 OA
BRANCH  25  27
ATOM     27  C   UNL A   1      33.822  35.132  32.670  1.00  0.00     0.060 A 
ATOM     28  C   UNL A   1      35.093  35.687  32.615  1.00  0.00     0.016 A 
ATOM     29  C   UNL A   1      33.648  33.832  33.133  1.00  0.00     0.016 A 
ATOM     30  C   UNL A   1      36.214  34.911  32.878  1.00  0.00     0.010 A 
ATOM     31  C   UNL A   1      34.772  33.094  33.534  1.00  0.00     0.010 A 
ATOM     32  C   UNL A   1      36.074  33.607  33.368  1.00  0.00    -0.014 A 
BRANCH  32  33
ATOM     33  C   UNL A   1      37.285  32.790  33.678  1.00  0.00     0.031 A 
ATOM     34  C   UNL A   1      38.021  32.973  34.983  1.00  0.00     0.074 A 
ATOM     35  C   UNL A   1      37.726  31.866  32.799  1.00  0.00     0.049 A 
ATOM     36  N   UNL A   1      39.177  32.481  35.360  1.00  0.00    -0.248 NA
ATOM     37  C   UNL A   1      37.385  33.836  35.991  1.00  0.00     0.031 C 
ATOM     38  C   UNL A   1      37.089  31.531  31.522  1.00  0.00     0.029 A 
ATOM     39  N   UNL A   1      38.813  31.026  32.850  1.00  0.00    -0.354 N 
ATOM     40  C   UNL A   1      39.429  33.018  36.618  1.00  0.00     0.074 A 
ATOM     41  C   UNL A   1      38.315  33.887  36.934  1.00  0.00     0.031 C 
ATOM     42  C   UNL A   1      37.762  30.529  30.940  1.00  0.00     0.029 A 
ATOM     43  C   UNL A   1      38.939  30.222  31.741  1.00  0.00     0.049 A 
ATOM     44  H   UNL A   1      39.440  31.001  33.608  1.00  0.00     0.167 HD
ATOM     45  C   UNL A   1      40.489  32.806  37.436  1.00  0.00     0.031 A 
ATOM     46  C   UNL A   1      39.914  29.370  31.373  1.00  0.00     0.031 A 
ATOM     47  C   UNL A   1      41.579  31.913  37.132  1.00  0.00     0.049 A 
ATOM     48  C   UNL A   1      41.112  29.207  32.262  1.00  0.00     0.074 A 
ATOM     49  C   UNL A   1      42.693  31.620  37.902  1.00  0.00     0.029 A 
ATOM     50  N   UNL A   1      41.688  31.162  35.973  1.00  0.00    -0.354 N 
ATOM     51  N   UNL A   1      41.356  29.753  33.428  1.00  0.00    -0.248 NA
ATOM     52  C   UNL A   1      42.176  28.319  31.775  1.00  0.00     0.031 C 
ATOM     53  C   UNL A   1      43.505  30.740  37.180  1.00  0.00     0.029 A 
ATOM     54  C   UNL A   1      42.862  30.426  35.993  1.00  0.00     0.049 A 
ATOM     55  H   UNL A   1      41.028  31.152  35.242  1.00  0.00     0.167 HD
ATOM     56  C   UNL A   1      42.589  29.255  33.827  1.00  0.00     0.074 A 
ATOM     57  C   UNL A   1      43.031  28.348  32.788  1.00  0.00     0.031 C 
ATOM     58  C   UNL A   1      43.292  29.527  34.954  1.00  0.00     0.031 A 
BRANCH  45  59
ATOM     59  C   UNL A   1      40.550  33.589  38.721  1.00  0.00    -0.014 A 
ATOM     60  C   UNL A   1      40.006  33.095  39.918  1.00  0.00     0.009 A 
ATOM     61  C   UNL A   1      41.203  34.833  38.740  1.00  0.00     0.009 A 
ATOM     62  C   UNL A   1      40.078  33.849  41.092  1.00  0.00     0.001 A 
ATOM     63  C   UNL A   1      41.304  35.568  39.923  1.00  0.00     0.001 A 
ATOM     64  C   UNL A   1      40.732  35.081  41.096  1.00  0.00     0.000 A 
ENDBRANCH  45  59
BRANCH  46  65
ATOM     65  C   UNL A   1      39.824  28.649  30.074  1.00  0.00    -0.014 A 
ATOM     66  C   UNL A   1      39.317  27.343  30.013  1.00  0.00     0.009 A 
ATOM     67  C   UNL A   1      40.250  29.265  28.885  1.00  0.00     0.009 A 
ATOM     68  C   UNL A   1      39.262  26.661  28.793  1.00  0.00     0.001 A 
ATOM     69  C   UNL A   1      40.156  28.597  27.664  1.00  0.00     0.001 A 
ATOM     70  C   UNL A   1      39.674  27.291  27.620  1.00  0.00     0.000 A 
ENDBRANCH  46  65
BRANCH  58  71
ATOM     71  C   UNL A   1      44.591  28.795  35.142  1.00  0.00    -0.014 A 
ATOM     72  C   UNL A   1      45.809  29.335  34.702  1.00  0.00     0.009 A 
ATOM     73  C   UNL A   1      44.594  27.552  35.796  1.00  0.00     0.009 A 
ATOM     74  C   UNL A   1      46.999  28.626  34.877  1.00  0.00     0.001 A 
ATOM     75  C   UNL A   1      45.789  26.863  36.002  1.00  0.00     0.001 A 
ATOM     76  C   UNL A   1      46.989  27.394  35.532  1.00  0.00     0.000 A 
ENDBRANCH  58  71
ENDBRANCH  32  33
ENDBRANCH  25  27
ENDBRANCH  24  25
ENDBRANCH  23  24
ENDBRANCH   1  23
TORSDOF 13
ENDMDL
MODEL 2
REMARK VINA RESULT:     -10.9      7.260     12.529
REMARK SMILES C[C@@]1(CN2C(=O)c3ccc(C(=O)OCCOC(=O)c4ccc(-c5c6nc(c(-c7ccccc7)c7ccc([nH]7)c(-c7ccccc7)c7nc(c(-c8ccccc8)c8ccc5[nH]8)C=C7)C=C6)cc4)cc3C2=O)CCCO1
REMARK SMILES IDX 14 1 13 2 11 3 12 4 10 5 4 6 5 7 69 8 6 9 7 10 68 11 70 12
REMARK SMILES IDX 8 13 67 14 9 15 3 16 2 17 1 18 71 19 74 20 72 21 73 22 15 23
REMARK SMILES IDX 16 24 17 25 18 26 19 27 20 28 66 29 21 30 65 31 22 32 23 33
REMARK SMILES IDX 24 34 59 35 25 36 64 37 58 38 60 39 26 40 63 41 57 42 56 43
REMARK SMILES IDX 27 45 49 46 34 47 48 48 35 49 38 50 47 51 61 52 36 53 37 54
REMARK SMILES IDX 46 56 62 57 39 58 28 59 29 60 33 61 30 62 32 63 31 64 50 65
REMARK SMILES IDX 51 66 55 67 52 68 54 69 53 70 40 71 41 72 45 73 42 74 44 75
REMARK SMILES IDX 43 76
REMARK H PARENT 60 44 38 55
REMARK Flexibility Score: inf
ROOT
ATOM      1  C   UNL A   1      42.286  19.254  26.853  1.00  0.00     0.275 C 
ENDROOT
BRANCH   1   2
ATOM      2  O   UNL A   1      41.213  20.063  26.322  1.00  0.00    -0.458 OA
BRANCH   2   3
ATOM      3  C   UNL A   1      41.239  21.378  26.649  1.00  0.00     0.338 C 
ATOM      4  O   UNL A   1      42.211  22.013  27.026  1.00  0.00    -0.246 OA
BRANCH   3   5
ATOM      5  C   UNL A   1      39.928  22.022  26.372  1.00  0.00     0.060 A 
ATOM      6  N   UNL A   1      35.523  22.226  25.062  1.00  0.00    -0.271 N 
ATOM      7  C   UNL A   1      36.033  23.388  25.577  1.00  0.00     0.261 C 
ATOM      8  C   UNL A   1      36.442  21.214  25.104  1.00  0.00     0.261 C 
ATOM      9  O   UNL A   1      35.481  24.456  25.771  1.00  0.00    -0.269 OA
ATOM     10  C   UNL A   1      37.435  23.128  25.904  1.00  0.00     0.053 A 
ATOM     11  C   UNL A   1      37.683  21.808  25.597  1.00  0.00     0.054 A 
ATOM     12  O   UNL A   1      36.313  20.027  24.874  1.00  0.00    -0.269 OA
ATOM     13  C   UNL A   1      38.420  23.949  26.424  1.00  0.00     0.015 A 
ATOM     14  C   UNL A   1      38.924  21.238  25.781  1.00  0.00     0.030 A 
ATOM     15  C   UNL A   1      39.678  23.379  26.676  1.00  0.00     0.016 A 
BRANCH   6  16
ATOM     16  C   UNL A   1      34.150  22.057  24.604  1.00  0.00     0.164 C 
BRANCH  16  17
ATOM     17  C   UNL A   1      33.203  21.407  25.654  1.00  0.00     0.084 C 
ATOM     18  C   UNL A   1      32.803  19.979  25.283  1.00  0.00     0.044 C 
ATOM     19  C   UNL A   1      31.953  22.272  25.864  1.00  0.00     0.039 C 
ATOM     20  O   UNL A   1      33.872  21.366  26.934  1.00  0.00    -0.373 OA
ATOM     21  C   UNL A   1      32.349  23.182  27.000  1.00  0.00     0.031 C 
ATOM     22  C   UNL A   1      33.237  22.287  27.832  1.00  0.00     0.161 C 
ENDBRANCH  16  17
ENDBRANCH   6  16
ENDBRANCH   3   5
ENDBRANCH   2   3
ENDBRANCH   1   2
BRANCH   1  23
ATOM     23  C   UNL A   1      43.030  18.498  25.748  1.00  0.00     0.275 C 
BRANCH  23  24
ATOM     24  O   UNL A   1      44.365  19.010  25.574  1.00  0.00    -0.458 OA
BRANCH  24  25
ATOM     25  C   UNL A   1      44.589  19.617  24.388  1.00  0.00     0.338 C 
ATOM     26  O   UNL A   1      44.402  19.161  23.273  1.00  0.00    -0.246 OA
BRANCH  25  27
ATOM     27  C   UNL A   1      44.988  21.014  24.594  1.00  0.00     0.060 A 
ATOM     28  C   UNL A   1      45.618  21.318  25.793  1.00  0.00     0.016 A 
ATOM     29  C   UNL A   1      44.559  22.036  23.754  1.00  0.00     0.016 A 
ATOM     30  C   UNL A   1      45.696  22.631  26.237  1.00  0.00     0.010 A 
ATOM     31  C   UNL A   1      44.765  23.369  24.140  1.00  0.00     0.010 A 
ATOM     32  C   UNL A   1      45.294  23.685  25.407  1.00  0.00    -0.014 A 
BRANCH  32  33
ATOM     33  C   UNL A   1      45.410  25.096  25.881  1.00  0.00     0.031 A 
ATOM     34  C   UNL A   1      46.730  25.823  25.812  1.00  0.00     0.074 A 
ATOM     35  C   UNL A   1      44.328  25.743  26.363  1.00  0.00     0.049 A 
ATOM     36  N   UNL A   1      47.067  26.983  26.322  1.00  0.00    -0.248 NA
ATOM     37  C   UNL A   1      47.823  25.152  25.090  1.00  0.00     0.031 C 
ATOM     38  C   UNL A   1      42.971  25.196  26.440  1.00  0.00     0.029 A 
ATOM     39  N   UNL A   1      44.195  27.013  26.872  1.00  0.00    -0.354 N 
ATOM     40  C   UNL A   1      48.416  27.152  26.031  1.00  0.00     0.074 A 
ATOM     41  C   UNL A   1      48.843  25.968  25.316  1.00  0.00     0.031 C 
ATOM     42  C   UNL A   1      42.139  26.134  26.913  1.00  0.00     0.029 A 
ATOM     43  C   UNL A   1      42.915  27.311  27.278  1.00  0.00     0.049 A 
ATOM     44  H   UNL A   1      44.944  27.649  26.939  1.00  0.00     0.167 HD
ATOM     45  C   UNL A   1      49.226  28.196  26.332  1.00  0.00     0.031 A 
ATOM     46  C   UNL A   1      42.420  28.385  27.921  1.00  0.00     0.031 A 
ATOM     47  C   UNL A   1      48.790  29.389  27.014  1.00  0.00     0.049 A 
ATOM     48  C   UNL A   1      43.351  29.497  28.307  1.00  0.00     0.074 A 
ATOM     49  C   UNL A   1      49.531  30.509  27.353  1.00  0.00     0.029 A 
ATOM     50  N   UNL A   1      47.496  29.621  27.453  1.00  0.00    -0.354 N 
ATOM     51  N   UNL A   1      44.632  29.623  28.063  1.00  0.00    -0.248 NA
ATOM     52  C   UNL A   1      42.768  30.609  29.069  1.00  0.00     0.031 C 
ATOM     53  C   UNL A   1      48.700  31.390  28.051  1.00  0.00     0.029 A 
ATOM     54  C   UNL A   1      47.423  30.854  28.083  1.00  0.00     0.049 A 
ATOM     55  H   UNL A   1      46.739  29.002  27.335  1.00  0.00     0.167 HD
ATOM     56  C   UNL A   1      45.005  30.839  28.618  1.00  0.00     0.074 A 
ATOM     57  C   UNL A   1      43.808  31.421  29.193  1.00  0.00     0.031 C 
ATOM     58  C   UNL A   1      46.228  31.422  28.650  1.00  0.00     0.031 A 
BRANCH  45  59
ATOM     59  C   UNL A   1      50.684  28.080  25.968  1.00  0.00    -0.014 A 
ATOM     60  C   UNL A   1      51.180  28.543  24.738  1.00  0.00     0.009 A 
ATOM     61  C   UNL A   1      51.584  27.531  26.896  1.00  0.00     0.009 A 
ATOM     62  C   UNL A   1      52.538  28.418  24.431  1.00  0.00     0.001 A 
ATOM     63  C   UNL A   1      52.946  27.440  26.600  1.00  0.00     0.001 A 
ATOM     64  C   UNL A   1      53.420  27.872  25.363  1.00  0.00     0.000 A 
ENDBRANCH  45  59
BRANCH  46  65
ATOM     65  C   UNL A   1      40.979  28.433  28.293  1.00  0.00    -0.014 A 
ATOM     66  C   UNL A   1      40.528  27.852  29.487  1.00  0.00     0.009 A 
ATOM     67  C   UNL A   1      40.045  29.057  27.450  1.00  0.00     0.009 A 
ATOM     68  C   UNL A   1      39.170  27.875  29.816  1.00  0.00     0.001 A 
ATOM     69  C   UNL A   1      38.695  29.113  27.800  1.00  0.00     0.001 A 
ATOM     70  C   UNL A   1      38.257  28.512  28.977  1.00  0.00     0.000 A 
ENDBRANCH  46  65
BRANCH  58  71
ATOM     71  C   UNL A   1      46.322  32.780  29.287  1.00  0.00    -0.014 A 
ATOM     72  C   UNL A   1      46.627  32.934  30.648  1.00  0.00     0.009 A 
ATOM     73  C   UNL A   1      46.127  33.926  28.499  1.00  0.00     0.009 A 
ATOM     74  C   UNL A   1      46.694  34.208  31.216  1.00  0.00     0.001 A 
ATOM     75  C   UNL A   1      46.230  35.199  29.062  1.00  0.00     0.001 A 
ATOM     76  C   UNL A   1      46.501  35.339  30.422  1.00  0.00     0.000 A 
ENDBRANCH  58  71
ENDBRANCH  32  33
ENDBRANCH  25  27
ENDBRANCH  24  25
ENDBRANCH  23  24
ENDBRANCH   1  23
TORSDOF 13
ENDMDL
MODEL 3
REMARK VINA RESULT:     -10.8      4.280      9.472
REMARK SMILES C[C@@]1(CN2C(=O)c3ccc(C(=O)OCCOC(=O)c4ccc(-c5c6nc(c(-c7ccccc7)c7ccc([nH]7)c(-c7ccccc7)c7nc(c(-c8ccccc8)c8ccc5[nH]8)C=C7)C=C6)cc4)cc3C2=O)CCCO1
REMARK SMILES IDX 14 1 13 2 11 3 12 4 10 5 4 6 5 7 69 8 6 9 7 10 68 11 70 12
REMARK SMILES IDX 8 13 67 14 9 15 3 16 2 17 1 18 71 19 74 20 72 21 73 22 15 23
REMARK SMILES IDX 16 24 17 25 18 26 19 27 20 28 66 29 21 30 65 31 22 32 23 33
REMARK SMILES IDX 24 34 59 35 25 36 64 37 58 38 60 39 26 40 63 41 57 42 56 43
REMARK SMILES IDX 27 45 49 46 34 47 48 48 35 49 38 50 47 51 61 52 36 53 37 54
REMARK SMILES IDX 46 56 62 57 39 58 28 59 29 60 33 61 30 62 32 63 31 64 50 65
REMARK SMILES IDX 51 66 55 67 52 68 54 69 53 70 40 71 41 72 45 73 42 74 44 75
REMARK SMILES IDX 43 76
REMARK H PARENT 60 44 38 55
REMARK Flexibility Score: inf
ROOT
ATOM      1  C   UNL A   1      42.429  20.062  25.856  1.00  0.00     0.275 C 
ENDROOT
BRANCH   1   2
ATOM      2  O   UNL A   1      41.124  20.633  25.612  1.00  0.00    -0.458 OA
BRANCH   2   3
ATOM      3  C   UNL A   1      40.437  21.039  26.708  1.00  0.00     0.338 C 
ATOM      4  O   UNL A   1      40.769  20.882  27.871  1.00  0.00    -0.246 OA
BRANCH   3   5
ATOM      5  C   UNL A   1      39.244  21.837  26.322  1.00  0.00     0.060 A 
ATOM      6  N   UNL A   1      34.998  22.564  24.707  1.00  0.00    -0.271 N 
ATOM      7  C   UNL A   1      35.625  23.669  25.220  1.00  0.00     0.261 C 
ATOM      8  C   UNL A   1      35.769  21.443  24.843  1.00  0.00     0.261 C 
ATOM      9  O   UNL A   1      35.208  24.807  25.343  1.00  0.00    -0.269 OA
ATOM     10  C   UNL A   1      36.956  23.241  25.650  1.00  0.00     0.053 A 
ATOM     11  C   UNL A   1      37.045  21.889  25.402  1.00  0.00     0.054 A 
ATOM     12  O   UNL A   1      35.499  20.275  24.642  1.00  0.00    -0.269 OA
ATOM     13  C   UNL A   1      38.006  23.946  26.211  1.00  0.00     0.015 A 
ATOM     14  C   UNL A   1      38.184  21.169  25.687  1.00  0.00     0.030 A 
ATOM     15  C   UNL A   1      39.158  23.226  26.566  1.00  0.00     0.016 A 
BRANCH   6  16
ATOM     16  C   UNL A   1      33.647  22.559  24.162  1.00  0.00     0.164 C 
BRANCH  16  17
ATOM     17  C   UNL A   1      32.558  22.073  25.161  1.00  0.00     0.084 C 
ATOM     18  C   UNL A   1      32.154  20.617  24.933  1.00  0.00     0.044 C 
ATOM     19  C   UNL A   1      31.323  22.983  25.100  1.00  0.00     0.039 C 
ATOM     20  O   UNL A   1      33.065  22.191  26.508  1.00  0.00    -0.373 OA
ATOM     21  C   UNL A   1      31.612  24.029  26.148  1.00  0.00     0.031 C 
ATOM     22  C   UNL A   1      32.361  23.235  27.193  1.00  0.00     0.161 C 
ENDBRANCH  16  17
ENDBRANCH   6  16
ENDBRANCH   3   5
ENDBRANCH   2   3
ENDBRANCH   1   2
BRANCH   1  23
ATOM     23  C   UNL A   1      43.545  21.099  25.691  1.00  0.00     0.275 C 
BRANCH  23  24
ATOM     24  O   UNL A   1      43.064  22.279  25.021  1.00  0.00    -0.458 OA
BRANCH  24  25
ATOM     25  C   UNL A   1      43.769  23.403  25.277  1.00  0.00     0.338 C 
ATOM     26  O   UNL A   1      44.822  23.752  24.770  1.00  0.00    -0.246 OA
BRANCH  25  27
ATOM     27  C   UNL A   1      43.029  24.276  26.195  1.00  0.00     0.060 A 
ATOM     28  C   UNL A   1      43.125  25.643  25.977  1.00  0.00     0.016 A 
ATOM     29  C   UNL A   1      42.452  23.795  27.366  1.00  0.00     0.016 A 
ATOM     30  C   UNL A   1      42.785  26.543  26.978  1.00  0.00     0.010 A 
ATOM     31  C   UNL A   1      41.978  24.710  28.319  1.00  0.00     0.010 A 
ATOM     32  C   UNL A   1      42.181  26.095  28.159  1.00  0.00    -0.014 A 
BRANCH  32  33
ATOM     33  C   UNL A   1      41.790  27.073  29.217  1.00  0.00     0.031 A 
ATOM     34  C   UNL A   1      42.612  27.216  30.474  1.00  0.00     0.074 A 
ATOM     35  C   UNL A   1      40.702  27.855  29.053  1.00  0.00     0.049 A 
ATOM     36  N   UNL A   1      42.346  27.884  31.570  1.00  0.00    -0.248 NA
ATOM     37  C   UNL A   1      43.897  26.499  30.514  1.00  0.00     0.031 C 
ATOM     38  C   UNL A   1      39.838  27.877  27.868  1.00  0.00     0.029 A 
ATOM     39  N   UNL A   1      40.138  28.795  29.882  1.00  0.00    -0.354 N 
ATOM     40  C   UNL A   1      43.396  27.623  32.443  1.00  0.00     0.074 A 
ATOM     41  C   UNL A   1      44.296  26.720  31.758  1.00  0.00     0.031 C 
ATOM     42  C   UNL A   1      38.893  28.813  28.025  1.00  0.00     0.029 A 
ATOM     43  C   UNL A   1      39.010  29.383  29.360  1.00  0.00     0.049 A 
ATOM     44  H   UNL A   1      40.507  29.026  30.765  1.00  0.00     0.167 HD
ATOM     45  C   UNL A   1      43.593  28.091  33.700  1.00  0.00     0.031 A 
ATOM     46  C   UNL A   1      38.130  30.245  29.904  1.00  0.00     0.031 A 
ATOM     47  C   UNL A   1      42.711  29.016  34.366  1.00  0.00     0.049 A 
ATOM     48  C   UNL A   1      38.331  30.693  31.322  1.00  0.00     0.074 A 
ATOM     49  C   UNL A   1      42.831  29.560  35.634  1.00  0.00     0.029 A 
ATOM     50  N   UNL A   1      41.553  29.542  33.816  1.00  0.00    -0.354 N 
ATOM     51  N   UNL A   1      39.305  30.404  32.149  1.00  0.00    -0.248 NA
ATOM     52  C   UNL A   1      37.301  31.576  31.885  1.00  0.00     0.031 C 
ATOM     53  C   UNL A   1      41.713  30.365  35.873  1.00  0.00     0.029 A 
ATOM     54  C   UNL A   1      40.934  30.383  34.728  1.00  0.00     0.049 A 
ATOM     55  H   UNL A   1      41.218  29.347  32.910  1.00  0.00     0.167 HD
ATOM     56  C   UNL A   1      39.021  31.090  33.322  1.00  0.00     0.074 A 
ATOM     57  C   UNL A   1      37.794  31.825  33.090  1.00  0.00     0.031 C 
ATOM     58  C   UNL A   1      39.714  31.108  34.486  1.00  0.00     0.031 A 
BRANCH  45  59
ATOM     59  C   UNL A   1      44.786  27.575  34.461  1.00  0.00    -0.014 A 
ATOM     60  C   UNL A   1      46.083  28.059  34.225  1.00  0.00     0.009 A 
ATOM     61  C   UNL A   1      44.598  26.609  35.464  1.00  0.00     0.009 A 
ATOM     62  C   UNL A   1      47.168  27.557  34.948  1.00  0.00     0.001 A 
ATOM     63  C   UNL A   1      45.680  26.134  36.209  1.00  0.00     0.001 A 
ATOM     64  C   UNL A   1      46.966  26.600  35.943  1.00  0.00     0.000 A 
ENDBRANCH  45  59
BRANCH  46  65
ATOM     65  C   UNL A   1      36.946  30.694  29.122  1.00  0.00    -0.014 A 
ATOM     66  C   UNL A   1      35.919  29.796  28.797  1.00  0.00     0.009 A 
ATOM     67  C   UNL A   1      36.839  32.027  28.691  1.00  0.00     0.009 A 
ATOM     68  C   UNL A   1      34.823  30.217  28.038  1.00  0.00     0.001 A 
ATOM     69  C   UNL A   1      35.725  32.455  27.968  1.00  0.00     0.001 A 
ATOM     70  C   UNL A   1      34.723  31.547  27.631  1.00  0.00     0.000 A 
ENDBRANCH  46  65
BRANCH  58  71
ATOM     71  C   UNL A   1      39.185  31.991  35.583  1.00  0.00    -0.014 A 
ATOM     72  C   UNL A   1      39.588  33.329  35.707  1.00  0.00     0.009 A 
ATOM     73  C   UNL A   1      38.244  31.475  36.489  1.00  0.00     0.009 A 
ATOM     74  C   UNL A   1      39.090  34.121  36.744  1.00  0.00     0.001 A 
ATOM     75  C   UNL A   1      37.722  32.280  37.502  1.00  0.00     0.001 A 
ATOM     76  C   UNL A   1      38.154  33.598  37.636  1.00  0.00     0.000 A 
ENDBRANCH  58  71
ENDBRANCH  32  33
ENDBRANCH  25  27
ENDBRANCH  24  25
ENDBRANCH  23  24
ENDBRANCH   1  23
TORSDOF 13
ENDMDL
