MODEL 1
REMARK VINA RESULT:     -10.3      0.000      0.000
REMARK SMILES CC[C@@](C)(NC(=O)/C=C/c1cccc(F)c1)C(=O)OCCOC(=O)c1ccc(-c2c3nc(c(-c4ccccc4)c4ccc([nH]4)c(-c4ccccc4)c4nc(c(-c5ccccc5)c5ccc2[nH]5)C=C4)C=C3)cc1
REMARK SMILES IDX 20 1 19 2 17 3 18 4 3 5 4 6 2 7 1 8 5 9 6 10 7 12 8 13 9 14
REMARK SMILES IDX 10 15 11 16 16 17 12 18 14 19 13 20 15 21 21 22 22 23 23 24
REMARK SMILES IDX 24 25 25 26 26 27 72 28 27 29 71 30 28 31 29 32 30 33 65 34
REMARK SMILES IDX 31 35 70 36 64 37 66 38 32 39 69 40 63 41 62 42 33 44 55 45
REMARK SMILES IDX 40 46 54 47 41 48 44 49 53 50 67 51 42 52 43 53 52 55 68 56
REMARK SMILES IDX 45 57 34 58 35 59 39 60 36 61 38 62 37 63 56 64 57 65 61 66
REMARK SMILES IDX 58 67 60 68 59 69 46 70 47 71 51 72 48 73 50 74 49 75
REMARK H PARENT 5 11 66 43 44 54
REMARK Flexibility Score: inf
ROOT
ATOM      1  C   UNL A   1      32.480  28.705  25.430  1.00  0.00     0.274 C 
ENDROOT
BRANCH   1   2
ATOM      2  O   UNL A   1      32.152  27.256  25.351  1.00  0.00    -0.460 OA
BRANCH   2   3
ATOM      3  C   UNL A   1      31.061  26.648  26.000  1.00  0.00     0.331 C 
ATOM      4  O   UNL A   1      30.728  26.904  27.148  1.00  0.00    -0.249 OA
BRANCH   3   5
ATOM      5  C   UNL A   1      30.311  25.536  25.053  1.00  0.00     0.135 C 
ATOM      6  C   UNL A   1      29.092  26.231  24.432  1.00  0.00     0.047 C 
BRANCH   5   7
ATOM      7  C   UNL A   1      30.951  24.667  23.912  1.00  0.00     0.037 C 
ATOM      8  C   UNL A   1      31.671  25.288  22.743  1.00  0.00     0.007 C 
ENDBRANCH   5   7
BRANCH   5   9
ATOM      9  N   UNL A   1      29.915  24.502  25.986  1.00  0.00    -0.337 N 
ATOM     10  C   UNL A   1      30.792  23.527  26.406  1.00  0.00     0.244 C 
ATOM     11  H   UNL A   1      28.992  24.496  26.328  1.00  0.00     0.164 HD
ATOM     12  O   UNL A   1      30.397  22.772  27.249  1.00  0.00    -0.270 OA
BRANCH  10  13
ATOM     13  C   UNL A   1      32.289  23.760  26.088  1.00  0.00     0.072 C 
ATOM     14  C   UNL A   1      33.564  23.786  26.532  1.00  0.00     0.014 C 
BRANCH  14  15
ATOM     15  C   UNL A   1      34.722  23.640  25.572  1.00  0.00    -0.023 A 
ATOM     16  C   UNL A   1      34.575  23.335  24.213  1.00  0.00     0.008 A 
ATOM     17  C   UNL A   1      36.040  23.691  26.048  1.00  0.00     0.047 A 
ATOM     18  C   UNL A   1      35.660  22.986  23.386  1.00  0.00     0.004 A 
ATOM     19  C   UNL A   1      37.127  23.356  25.225  1.00  0.00     0.123 A 
ATOM     20  C   UNL A   1      36.946  22.984  23.902  1.00  0.00     0.039 A 
ATOM     21  F   UNL A   1      38.367  23.359  25.733  1.00  0.00    -0.207 F 
ENDBRANCH  14  15
ENDBRANCH  10  13
ENDBRANCH   5   9
ENDBRANCH   3   5
ENDBRANCH   2   3
ENDBRANCH   1   2
BRANCH   1  22
ATOM     22  C   UNL A   1      33.735  29.079  26.408  1.00  0.00     0.275 C 
BRANCH  22  23
ATOM     23  O   UNL A   1      33.456  29.980  27.582  1.00  0.00    -0.458 OA
BRANCH  23  24
ATOM     24  C   UNL A   1      34.411  30.863  28.065  1.00  0.00     0.338 C 
ATOM     25  O   UNL A   1      34.170  32.010  28.402  1.00  0.00    -0.246 OA
BRANCH  24  26
ATOM     26  C   UNL A   1      35.777  30.203  28.345  1.00  0.00     0.060 A 
ATOM     27  C   UNL A   1      36.716  30.129  27.310  1.00  0.00     0.016 A 
ATOM     28  C   UNL A   1      36.191  29.643  29.557  1.00  0.00     0.016 A 
ATOM     29  C   UNL A   1      38.073  29.795  27.500  1.00  0.00     0.010 A 
ATOM     30  C   UNL A   1      37.538  29.174  29.733  1.00  0.00     0.010 A 
ATOM     31  C   UNL A   1      38.514  29.287  28.719  1.00  0.00    -0.014 A 
BRANCH  31  32
ATOM     32  C   UNL A   1      39.895  28.682  28.798  1.00  0.00     0.031 A 
ATOM     33  C   UNL A   1      41.035  29.545  29.302  1.00  0.00     0.074 A 
ATOM     34  C   UNL A   1      40.182  27.380  28.570  1.00  0.00     0.049 A 
ATOM     35  N   UNL A   1      42.321  29.286  29.358  1.00  0.00    -0.248 NA
ATOM     36  C   UNL A   1      40.669  30.862  29.844  1.00  0.00     0.031 C 
ATOM     37  C   UNL A   1      39.219  26.322  28.273  1.00  0.00     0.029 A 
ATOM     38  N   UNL A   1      41.401  26.718  28.571  1.00  0.00    -0.354 N 
ATOM     39  C   UNL A   1      42.913  30.414  29.914  1.00  0.00     0.074 A 
ATOM     40  C   UNL A   1      41.847  31.346  30.208  1.00  0.00     0.031 C 
ATOM     41  C   UNL A   1      39.881  25.160  28.099  1.00  0.00     0.029 A 
ATOM     42  C   UNL A   1      41.324  25.389  28.215  1.00  0.00     0.049 A 
ATOM     43  H   UNL A   1      42.247  27.160  28.808  1.00  0.00     0.167 HD
ATOM     44  C   UNL A   1      44.222  30.679  30.143  1.00  0.00     0.031 A 
ATOM     45  C   UNL A   1      42.290  24.476  27.959  1.00  0.00     0.031 A 
ATOM     46  C   UNL A   1      45.319  29.793  29.868  1.00  0.00     0.049 A 
ATOM     47  C   UNL A   1      43.756  24.853  28.037  1.00  0.00     0.074 A 
ATOM     48  C   UNL A   1      46.674  30.026  30.038  1.00  0.00     0.029 A 
ATOM     49  N   UNL A   1      45.195  28.513  29.363  1.00  0.00    -0.354 N 
ATOM     50  N   UNL A   1      44.307  25.953  28.485  1.00  0.00    -0.248 NA
ATOM     51  C   UNL A   1      44.735  23.863  27.543  1.00  0.00     0.031 C 
ATOM     52  C   UNL A   1      47.375  28.907  29.579  1.00  0.00     0.029 A 
ATOM     53  C   UNL A   1      46.451  27.961  29.173  1.00  0.00     0.049 A 
ATOM     54  H   UNL A   1      44.342  28.062  29.168  1.00  0.00     0.167 HD
ATOM     55  C   UNL A   1      45.682  25.781  28.337  1.00  0.00     0.074 A 
ATOM     56  C   UNL A   1      45.892  24.464  27.783  1.00  0.00     0.031 C 
ATOM     57  C   UNL A   1      46.679  26.652  28.626  1.00  0.00     0.031 A 
BRANCH  44  58
ATOM     58  C   UNL A   1      44.564  32.049  30.646  1.00  0.00    -0.014 A 
ATOM     59  C   UNL A   1      44.714  32.315  32.013  1.00  0.00     0.009 A 
ATOM     60  C   UNL A   1      44.798  33.074  29.715  1.00  0.00     0.009 A 
ATOM     61  C   UNL A   1      45.081  33.593  32.439  1.00  0.00     0.001 A 
ATOM     62  C   UNL A   1      45.183  34.342  30.142  1.00  0.00     0.001 A 
ATOM     63  C   UNL A   1      45.320  34.603  31.505  1.00  0.00     0.000 A 
ENDBRANCH  44  58
BRANCH  45  64
ATOM     64  C   UNL A   1      41.944  23.109  27.461  1.00  0.00    -0.014 A 
ATOM     65  C   UNL A   1      41.684  22.051  28.347  1.00  0.00     0.009 A 
ATOM     66  C   UNL A   1      42.015  22.830  26.085  1.00  0.00     0.009 A 
ATOM     67  C   UNL A   1      41.535  20.743  27.871  1.00  0.00     0.001 A 
ATOM     68  C   UNL A   1      41.835  21.529  25.610  1.00  0.00     0.001 A 
ATOM     69  C   UNL A   1      41.609  20.484  26.504  1.00  0.00     0.000 A 
ENDBRANCH  45  64
BRANCH  57  70
ATOM     70  C   UNL A   1      48.099  26.226  28.369  1.00  0.00    -0.014 A 
ATOM     71  C   UNL A   1      48.860  25.600  29.369  1.00  0.00     0.009 A 
ATOM     72  C   UNL A   1      48.661  26.384  27.092  1.00  0.00     0.009 A 
ATOM     73  C   UNL A   1      50.159  25.159  29.100  1.00  0.00     0.001 A 
ATOM     74  C   UNL A   1      49.951  25.921  26.819  1.00  0.00     0.001 A 
ATOM     75  C   UNL A   1      50.701  25.315  27.826  1.00  0.00     0.000 A 
ENDBRANCH  57  70
ENDBRANCH  31  32
ENDBRANCH  24  26
ENDBRANCH  23  24
ENDBRANCH  22  23
ENDBRANCH   1  22
TORSDOF 15
ENDMDL
MODEL 2
REMARK VINA RESULT:     -10.0      3.419      7.773
REMARK SMILES CC[C@@](C)(NC(=O)/C=C/c1cccc(F)c1)C(=O)OCCOC(=O)c1ccc(-c2c3nc(c(-c4ccccc4)c4ccc([nH]4)c(-c4ccccc4)c4nc(c(-c5ccccc5)c5ccc2[nH]5)C=C4)C=C3)cc1
REMARK SMILES IDX 20 1 19 2 17 3 18 4 3 5 4 6 2 7 1 8 5 9 6 10 7 12 8 13 9 14
REMARK SMILES IDX 10 15 11 16 16 17 12 18 14 19 13 20 15 21 21 22 22 23 23 24
REMARK SMILES IDX 24 25 25 26 26 27 72 28 27 29 71 30 28 31 29 32 30 33 65 34
REMARK SMILES IDX 31 35 70 36 64 37 66 38 32 39 69 40 63 41 62 42 33 44 55 45
REMARK SMILES IDX 40 46 54 47 41 48 44 49 53 50 67 51 42 52 43 53 52 55 68 56
REMARK SMILES IDX 45 57 34 58 35 59 39 60 36 61 38 62 37 63 56 64 57 65 61 66
REMARK SMILES IDX 58 67 60 68 59 69 46 70 47 71 51 72 48 73 50 74 49 75
REMARK H PARENT 5 11 66 43 44 54
REMARK Flexibility Score: inf
ROOT
ATOM      1  C   UNL A   1      37.744  19.926  24.661  1.00  0.00     0.274 C 
ENDROOT
BRANCH   1   2
ATOM      2  O   UNL A   1      36.589  20.799  25.006  1.00  0.00    -0.460 OA
BRANCH   2   3
ATOM      3  C   UNL A   1      36.258  21.990  24.332  1.00  0.00     0.331 C 
ATOM      4  O   UNL A   1      36.821  22.371  23.315  1.00  0.00    -0.249 OA
BRANCH   3   5
ATOM      5  C   UNL A   1      35.059  22.821  25.084  1.00  0.00     0.135 C 
ATOM      6  C   UNL A   1      34.408  21.855  26.083  1.00  0.00     0.047 C 
BRANCH   5   7
ATOM      7  C   UNL A   1      35.170  24.205  25.818  1.00  0.00     0.037 C 
ATOM      8  C   UNL A   1      34.386  25.411  25.371  1.00  0.00     0.007 C 
ENDBRANCH   5   7
BRANCH   5   9
ATOM      9  N   UNL A   1      34.151  23.161  24.008  1.00  0.00    -0.337 N 
ATOM     10  C   UNL A   1      33.365  22.214  23.392  1.00  0.00     0.244 C 
ATOM     11  H   UNL A   1      34.096  24.098  23.709  1.00  0.00     0.164 HD
ATOM     12  O   UNL A   1      32.580  22.610  22.577  1.00  0.00    -0.270 OA
BRANCH  10  13
ATOM     13  C   UNL A   1      33.260  20.839  24.097  1.00  0.00     0.072 C 
ATOM     14  C   UNL A   1      32.514  19.747  24.373  1.00  0.00     0.014 C 
BRANCH  14  15
ATOM     15  C   UNL A   1      33.168  18.445  24.776  1.00  0.00    -0.023 A 
ATOM     16  C   UNL A   1      34.460  18.067  24.389  1.00  0.00     0.008 A 
ATOM     17  C   UNL A   1      32.434  17.481  25.482  1.00  0.00     0.047 A 
ATOM     18  C   UNL A   1      34.967  16.769  24.585  1.00  0.00     0.004 A 
ATOM     19  C   UNL A   1      32.940  16.188  25.691  1.00  0.00     0.123 A 
ATOM     20  C   UNL A   1      34.194  15.817  25.231  1.00  0.00     0.039 A 
ATOM     21  F   UNL A   1      32.185  15.276  26.319  1.00  0.00    -0.207 F 
ENDBRANCH  14  15
ENDBRANCH  10  13
ENDBRANCH   5   9
ENDBRANCH   3   5
ENDBRANCH   2   3
ENDBRANCH   1   2
BRANCH   1  22
ATOM     22  C   UNL A   1      39.056  20.103  25.618  1.00  0.00     0.275 C 
BRANCH  22  23
ATOM     23  O   UNL A   1      40.048  18.970  25.653  1.00  0.00    -0.458 OA
BRANCH  23  24
ATOM     24  C   UNL A   1      41.386  19.183  25.949  1.00  0.00     0.338 C 
ATOM     25  O   UNL A   1      42.285  18.424  25.627  1.00  0.00    -0.246 OA
BRANCH  24  26
ATOM     26  C   UNL A   1      41.673  20.578  26.541  1.00  0.00     0.060 A 
ATOM     27  C   UNL A   1      42.148  21.587  25.694  1.00  0.00     0.016 A 
ATOM     28  C   UNL A   1      41.515  20.958  27.877  1.00  0.00     0.016 A 
ATOM     29  C   UNL A   1      42.199  22.952  26.045  1.00  0.00     0.010 A 
ATOM     30  C   UNL A   1      41.691  22.325  28.283  1.00  0.00     0.010 A 
ATOM     31  C   UNL A   1      41.991  23.353  27.361  1.00  0.00    -0.014 A 
BRANCH  31  32
ATOM     32  C   UNL A   1      42.328  24.772  27.752  1.00  0.00     0.031 A 
ATOM     33  C   UNL A   1      43.787  25.176  27.823  1.00  0.00     0.074 A 
ATOM     34  C   UNL A   1      41.421  25.760  27.928  1.00  0.00     0.049 A 
ATOM     35  N   UNL A   1      44.326  26.299  28.238  1.00  0.00    -0.248 NA
ATOM     36  C   UNL A   1      44.763  24.192  27.332  1.00  0.00     0.031 C 
ATOM     37  C   UNL A   1      39.979  25.658  27.713  1.00  0.00     0.029 A 
ATOM     38  N   UNL A   1      41.598  27.078  28.322  1.00  0.00    -0.354 N 
ATOM     39  C   UNL A   1      45.699  26.143  28.080  1.00  0.00     0.074 A 
ATOM     40  C   UNL A   1      45.910  24.834  27.504  1.00  0.00     0.031 C 
ATOM     41  C   UNL A   1      39.406  26.846  27.998  1.00  0.00     0.029 A 
ATOM     42  C   UNL A   1      40.426  27.787  28.472  1.00  0.00     0.049 A 
ATOM     43  H   UNL A   1      42.485  27.473  28.479  1.00  0.00     0.167 HD
ATOM     44  C   UNL A   1      46.707  26.989  28.402  1.00  0.00     0.031 A 
ATOM     45  C   UNL A   1      40.186  29.020  28.977  1.00  0.00     0.031 A 
ATOM     46  C   UNL A   1      46.554  28.297  28.978  1.00  0.00     0.049 A 
ATOM     47  C   UNL A   1      41.318  29.874  29.510  1.00  0.00     0.074 A 
ATOM     48  C   UNL A   1      47.546  29.183  29.368  1.00  0.00     0.029 A 
ATOM     49  N   UNL A   1      45.345  28.904  29.252  1.00  0.00    -0.354 N 
ATOM     50  N   UNL A   1      42.611  29.682  29.432  1.00  0.00    -0.248 NA
ATOM     51  C   UNL A   1      40.949  31.111  30.230  1.00  0.00     0.031 C 
ATOM     52  C   UNL A   1      46.935  30.306  29.934  1.00  0.00     0.029 A 
ATOM     53  C   UNL A   1      45.564  30.137  29.847  1.00  0.00     0.049 A 
ATOM     54  H   UNL A   1      44.461  28.521  29.053  1.00  0.00     0.167 HD
ATOM     55  C   UNL A   1      43.200  30.767  30.078  1.00  0.00     0.074 A 
ATOM     56  C   UNL A   1      42.133  31.633  30.521  1.00  0.00     0.031 C 
ATOM     57  C   UNL A   1      44.516  31.011  30.292  1.00  0.00     0.031 A 
BRANCH  44  58
ATOM     58  C   UNL A   1      48.107  26.483  28.224  1.00  0.00    -0.014 A 
ATOM     59  C   UNL A   1      48.756  25.747  29.224  1.00  0.00     0.009 A 
ATOM     60  C   UNL A   1      48.755  26.702  26.998  1.00  0.00     0.009 A 
ATOM     61  C   UNL A   1      50.042  25.251  29.001  1.00  0.00     0.001 A 
ATOM     62  C   UNL A   1      50.030  26.188  26.771  1.00  0.00     0.001 A 
ATOM     63  C   UNL A   1      50.675  25.467  27.775  1.00  0.00     0.000 A 
ENDBRANCH  44  58
BRANCH  45  64
ATOM     64  C   UNL A   1      38.788  29.522  29.150  1.00  0.00    -0.014 A 
ATOM     65  C   UNL A   1      38.034  29.206  30.293  1.00  0.00     0.009 A 
ATOM     66  C   UNL A   1      38.155  30.203  28.096  1.00  0.00     0.009 A 
ATOM     67  C   UNL A   1      36.675  29.533  30.361  1.00  0.00     0.001 A 
ATOM     68  C   UNL A   1      36.807  30.556  28.180  1.00  0.00     0.001 A 
ATOM     69  C   UNL A   1      36.063  30.209  29.307  1.00  0.00     0.000 A 
ENDBRANCH  45  64
BRANCH  57  70
ATOM     70  C   UNL A   1      44.900  32.267  31.026  1.00  0.00    -0.014 A 
ATOM     71  C   UNL A   1      45.088  33.478  30.341  1.00  0.00     0.009 A 
ATOM     72  C   UNL A   1      45.006  32.260  32.426  1.00  0.00     0.009 A 
ATOM     73  C   UNL A   1      45.392  34.650  31.041  1.00  0.00     0.001 A 
ATOM     74  C   UNL A   1      45.286  33.437  33.126  1.00  0.00     0.001 A 
ATOM     75  C   UNL A   1      45.485  34.629  32.432  1.00  0.00     0.000 A 
ENDBRANCH  57  70
ENDBRANCH  31  32
ENDBRANCH  24  26
ENDBRANCH  23  24
ENDBRANCH  22  23
ENDBRANCH   1  22
TORSDOF 15
ENDMDL
MODEL 3
REMARK VINA RESULT:     -10.0      3.108      8.071
REMARK SMILES CC[C@@](C)(NC(=O)/C=C/c1cccc(F)c1)C(=O)OCCOC(=O)c1ccc(-c2c3nc(c(-c4ccccc4)c4ccc([nH]4)c(-c4ccccc4)c4nc(c(-c5ccccc5)c5ccc2[nH]5)C=C4)C=C3)cc1
REMARK SMILES IDX 20 1 19 2 17 3 18 4 3 5 4 6 2 7 1 8 5 9 6 10 7 12 8 13 9 14
REMARK SMILES IDX 10 15 11 16 16 17 12 18 14 19 13 20 15 21 21 22 22 23 23 24
REMARK SMILES IDX 24 25 25 26 26 27 72 28 27 29 71 30 28 31 29 32 30 33 65 34
REMARK SMILES IDX 31 35 70 36 64 37 66 38 32 39 69 40 63 41 62 42 33 44 55 45
REMARK SMILES IDX 40 46 54 47 41 48 44 49 53 50 67 51 42 52 43 53 52 55 68 56
REMARK SMILES IDX 45 57 34 58 35 59 39 60 36 61 38 62 37 63 56 64 57 65 61 66
REMARK SMILES IDX 58 67 60 68 59 69 46 70 47 71 51 72 48 73 50 74 49 75
REMARK H PARENT 5 11 66 43 44 54
REMARK Flexibility Score: inf
ROOT
ATOM      1  C   UNL A   1      36.097  20.752  25.055  1.00  0.00     0.274 C 
ENDROOT
BRANCH   1   2
ATOM      2  O   UNL A   1      34.968  21.706  24.881  1.00  0.00    -0.460 OA
BRANCH   2   3
ATOM      3  C   UNL A   1      34.182  22.213  25.933  1.00  0.00     0.331 C 
ATOM      4  O   UNL A   1      34.156  21.727  27.054  1.00  0.00    -0.249 OA
BRANCH   3   5
ATOM      5  C   UNL A   1      33.283  23.507  25.472  1.00  0.00     0.135 C 
ATOM      6  C   UNL A   1      33.988  24.756  26.019  1.00  0.00     0.047 C 
BRANCH   5   7
ATOM      7  C   UNL A   1      32.806  23.871  24.020  1.00  0.00     0.037 C 
ATOM      8  C   UNL A   1      33.340  25.071  23.282  1.00  0.00     0.007 C 
ENDBRANCH   5   7
BRANCH   5   9
ATOM      9  N   UNL A   1      32.009  23.290  26.124  1.00  0.00    -0.337 N 
ATOM     10  C   UNL A   1      31.306  24.319  26.710  1.00  0.00     0.244 C 
ATOM     11  H   UNL A   1      31.635  22.379  26.150  1.00  0.00     0.164 HD
ATOM     12  O   UNL A   1      30.220  24.054  27.142  1.00  0.00    -0.270 OA
BRANCH  10  13
ATOM     13  C   UNL A   1      31.777  25.756  26.375  1.00  0.00     0.072 C 
ATOM     14  C   UNL A   1      31.455  26.996  25.947  1.00  0.00     0.014 C 
BRANCH  14  15
ATOM     15  C   UNL A   1      32.335  28.180  26.274  1.00  0.00    -0.023 A 
ATOM     16  C   UNL A   1      33.689  28.074  26.620  1.00  0.00     0.008 A 
ATOM     17  C   UNL A   1      31.780  29.465  26.362  1.00  0.00     0.047 A 
ATOM     18  C   UNL A   1      34.433  29.153  27.134  1.00  0.00     0.004 A 
ATOM     19  C   UNL A   1      32.521  30.547  26.863  1.00  0.00     0.123 A 
ATOM     20  C   UNL A   1      33.838  30.398  27.269  1.00  0.00     0.039 A 
ATOM     21  F   UNL A   1      31.937  31.747  26.987  1.00  0.00    -0.207 F 
ENDBRANCH  14  15
ENDBRANCH  10  13
ENDBRANCH   5   9
ENDBRANCH   3   5
ENDBRANCH   2   3
ENDBRANCH   1   2
BRANCH   1  22
ATOM     22  C   UNL A   1      37.586  21.402  24.881  1.00  0.00     0.275 C 
BRANCH  22  23
ATOM     23  O   UNL A   1      37.946  22.562  25.771  1.00  0.00    -0.458 OA
BRANCH  23  24
ATOM     24  C   UNL A   1      39.205  22.678  26.342  1.00  0.00     0.338 C 
ATOM     25  O   UNL A   1      40.047  21.796  26.320  1.00  0.00    -0.246 OA
BRANCH  24  26
ATOM     26  C   UNL A   1      39.535  24.105  26.827  1.00  0.00     0.060 A 
ATOM     27  C   UNL A   1      39.133  24.492  28.111  1.00  0.00     0.016 A 
ATOM     28  C   UNL A   1      40.204  25.092  26.097  1.00  0.00     0.016 A 
ATOM     29  C   UNL A   1      39.592  25.655  28.763  1.00  0.00     0.010 A 
ATOM     30  C   UNL A   1      40.569  26.342  26.705  1.00  0.00     0.010 A 
ATOM     31  C   UNL A   1      40.308  26.624  28.065  1.00  0.00    -0.014 A 
BRANCH  31  32
ATOM     32  C   UNL A   1      40.536  27.968  28.712  1.00  0.00     0.031 A 
ATOM     33  C   UNL A   1      41.913  28.281  29.266  1.00  0.00     0.074 A 
ATOM     34  C   UNL A   1      39.637  28.978  28.732  1.00  0.00     0.049 A 
ATOM     35  N   UNL A   1      42.322  29.318  29.959  1.00  0.00    -0.248 NA
ATOM     36  C   UNL A   1      42.974  27.307  28.968  1.00  0.00     0.031 C 
ATOM     37  C   UNL A   1      38.326  28.981  28.086  1.00  0.00     0.029 A 
ATOM     38  N   UNL A   1      39.710  30.231  29.322  1.00  0.00    -0.354 N 
ATOM     39  C   UNL A   1      43.674  29.106  30.199  1.00  0.00     0.074 A 
ATOM     40  C   UNL A   1      44.026  27.861  29.553  1.00  0.00     0.031 C 
ATOM     41  C   UNL A   1      37.715  30.158  28.334  1.00  0.00     0.029 A 
ATOM     42  C   UNL A   1      38.560  30.981  29.204  1.00  0.00     0.049 A 
ATOM     43  H   UNL A   1      40.516  30.556  29.785  1.00  0.00     0.167 HD
ATOM     44  C   UNL A   1      44.553  29.853  30.910  1.00  0.00     0.031 A 
ATOM     45  C   UNL A   1      38.202  32.161  29.764  1.00  0.00     0.031 A 
ATOM     46  C   UNL A   1      44.257  31.093  31.573  1.00  0.00     0.049 A 
ATOM     47  C   UNL A   1      39.135  32.885  30.712  1.00  0.00     0.074 A 
ATOM     48  C   UNL A   1      45.100  31.873  32.348  1.00  0.00     0.029 A 
ATOM     49  N   UNL A   1      43.033  31.731  31.548  1.00  0.00    -0.354 N 
ATOM     50  N   UNL A   1      40.387  32.632  31.001  1.00  0.00    -0.248 NA
ATOM     51  C   UNL A   1      38.588  34.051  31.439  1.00  0.00     0.031 C 
ATOM     52  C   UNL A   1      44.366  32.956  32.842  1.00  0.00     0.029 A 
ATOM     53  C   UNL A   1      43.084  32.874  32.331  1.00  0.00     0.049 A 
ATOM     54  H   UNL A   1      42.243  31.422  31.048  1.00  0.00     0.167 HD
ATOM     55  C   UNL A   1      40.773  33.603  31.923  1.00  0.00     0.074 A 
ATOM     56  C   UNL A   1      39.637  34.470  32.132  1.00  0.00     0.031 C 
ATOM     57  C   UNL A   1      41.966  33.749  32.548  1.00  0.00     0.031 A 
BRANCH  44  58
ATOM     58  C   UNL A   1      45.932  29.294  31.095  1.00  0.00    -0.014 A 
ATOM     59  C   UNL A   1      46.982  29.624  30.229  1.00  0.00     0.009 A 
ATOM     60  C   UNL A   1      46.185  28.468  32.202  1.00  0.00     0.009 A 
ATOM     61  C   UNL A   1      48.263  29.122  30.463  1.00  0.00     0.001 A 
ATOM     62  C   UNL A   1      47.469  27.985  32.444  1.00  0.00     0.001 A 
ATOM     63  C   UNL A   1      48.507  28.308  31.571  1.00  0.00     0.000 A 
ENDBRANCH  44  58
BRANCH  45  64
ATOM     64  C   UNL A   1      36.826  32.715  29.574  1.00  0.00    -0.014 A 
ATOM     65  C   UNL A   1      35.776  32.383  30.446  1.00  0.00     0.009 A 
ATOM     66  C   UNL A   1      36.531  33.470  28.426  1.00  0.00     0.009 A 
ATOM     67  C   UNL A   1      34.462  32.767  30.156  1.00  0.00     0.001 A 
ATOM     68  C   UNL A   1      35.223  33.879  28.155  1.00  0.00     0.001 A 
ATOM     69  C   UNL A   1      34.187  33.515  29.013  1.00  0.00     0.000 A 
ENDBRANCH  45  64
BRANCH  57  70
ATOM     70  C   UNL A   1      42.133  34.889  33.514  1.00  0.00    -0.014 A 
ATOM     71  C   UNL A   1      41.733  34.768  34.855  1.00  0.00     0.009 A 
ATOM     72  C   UNL A   1      42.763  36.075  33.102  1.00  0.00     0.009 A 
ATOM     73  C   UNL A   1      41.944  35.816  35.756  1.00  0.00     0.001 A 
ATOM     74  C   UNL A   1      42.993  37.112  34.011  1.00  0.00     0.001 A 
ATOM     75  C   UNL A   1      42.578  36.984  35.335  1.00  0.00     0.000 A 
ENDBRANCH  57  70
ENDBRANCH  31  32
ENDBRANCH  24  26
ENDBRANCH  23  24
ENDBRANCH  22  23
ENDBRANCH   1  22
TORSDOF 15
ENDMDL
