MODEL 1
REMARK VINA RESULT:     -11.4      0.000      0.000
REMARK SMILES O=C(OCCOC(=O)c1cc(F)ccc1N1CCCc2ccccc21)c1ccc(-c2c3nc(c(-c4ccccc4)c4ccc([nH]4)c(-c4ccccc4)c4nc(c(-c5ccccc5)c5ccc2[nH]5)C=C4)C=C3)cc1
REMARK SMILES IDX 4 1 3 2 2 3 1 4 26 5 27 6 73 7 28 8 72 9 29 10 30 11 31 12
REMARK SMILES IDX 66 13 32 14 71 15 65 16 67 17 33 18 70 19 64 20 63 21 34 23
REMARK SMILES IDX 56 24 41 25 55 26 42 27 45 28 54 29 68 30 43 31 44 32 53 34
REMARK SMILES IDX 69 35 46 36 35 37 36 38 40 39 37 40 39 41 38 42 57 43 58 44
REMARK SMILES IDX 62 45 59 46 61 47 60 48 47 49 48 50 52 51 49 52 51 53 50 54
REMARK SMILES IDX 5 55 6 56 7 57 8 58 9 59 10 60 15 61 11 62 14 63 12 64 13 65
REMARK SMILES IDX 16 66 17 67 25 68 18 69 20 70 24 71 19 72 21 73 23 74 22 75
REMARK H PARENT 67 22 45 33
REMARK Flexibility Score: inf
ROOT
ATOM      1  C   UNL A   1      38.742  19.980  25.197  1.00  0.00     0.275 C 
ENDROOT
BRANCH   1   2
ATOM      2  O   UNL A   1      39.595  19.652  26.296  1.00  0.00    -0.458 OA
BRANCH   2   3
ATOM      3  C   UNL A   1      40.920  19.619  26.063  1.00  0.00     0.338 C 
ATOM      4  O   UNL A   1      41.556  18.653  25.663  1.00  0.00    -0.246 OA
BRANCH   3   5
ATOM      5  C   UNL A   1      41.478  20.904  26.569  1.00  0.00     0.060 A 
ATOM      6  C   UNL A   1      41.942  21.858  25.646  1.00  0.00     0.016 A 
ATOM      7  C   UNL A   1      41.375  21.245  27.918  1.00  0.00     0.016 A 
ATOM      8  C   UNL A   1      42.270  23.135  26.054  1.00  0.00     0.010 A 
ATOM      9  C   UNL A   1      41.618  22.557  28.316  1.00  0.00     0.010 A 
ATOM     10  C   UNL A   1      42.095  23.494  27.387  1.00  0.00    -0.014 A 
BRANCH  10  11
ATOM     11  C   UNL A   1      42.607  24.797  27.836  1.00  0.00     0.031 A 
ATOM     12  C   UNL A   1      41.607  25.892  28.043  1.00  0.00     0.074 A 
ATOM     13  C   UNL A   1      43.915  24.967  28.099  1.00  0.00     0.049 A 
ATOM     14  N   UNL A   1      41.803  27.118  28.439  1.00  0.00    -0.248 NA
ATOM     15  C   UNL A   1      40.191  25.562  27.782  1.00  0.00     0.031 C 
ATOM     16  C   UNL A   1      44.945  23.933  27.995  1.00  0.00     0.029 A 
ATOM     17  N   UNL A   1      44.611  26.082  28.480  1.00  0.00    -0.354 N 
ATOM     18  C   UNL A   1      40.541  27.690  28.493  1.00  0.00     0.074 A 
ATOM     19  C   UNL A   1      39.595  26.722  27.998  1.00  0.00     0.031 C 
ATOM     20  C   UNL A   1      46.152  24.483  28.210  1.00  0.00     0.029 A 
ATOM     21  C   UNL A   1      45.974  25.899  28.486  1.00  0.00     0.049 A 
ATOM     22  H   UNL A   1      44.179  26.931  28.726  1.00  0.00     0.167 HD
ATOM     23  C   UNL A   1      40.200  28.903  28.975  1.00  0.00     0.031 A 
ATOM     24  C   UNL A   1      46.962  26.792  28.674  1.00  0.00     0.031 A 
ATOM     25  C   UNL A   1      41.161  29.835  29.482  1.00  0.00     0.049 A 
ATOM     26  C   UNL A   1      46.566  28.185  29.074  1.00  0.00     0.074 A 
ATOM     27  C   UNL A   1      40.943  31.066  30.068  1.00  0.00     0.029 A 
ATOM     28  N   UNL A   1      42.533  29.632  29.448  1.00  0.00    -0.354 N 
ATOM     29  N   UNL A   1      45.360  28.682  29.230  1.00  0.00    -0.248 NA
ATOM     30  C   UNL A   1      47.651  29.124  29.375  1.00  0.00     0.031 C 
ATOM     31  C   UNL A   1      42.192  31.637  30.329  1.00  0.00     0.029 A 
ATOM     32  C   UNL A   1      43.182  30.739  29.957  1.00  0.00     0.049 A 
ATOM     33  H   UNL A   1      42.977  28.820  29.113  1.00  0.00     0.167 HD
ATOM     34  C   UNL A   1      45.541  29.971  29.703  1.00  0.00     0.074 A 
ATOM     35  C   UNL A   1      46.973  30.181  29.802  1.00  0.00     0.031 C 
ATOM     36  C   UNL A   1      44.611  30.897  30.043  1.00  0.00     0.031 A 
BRANCH  23  37
ATOM     37  C   UNL A   1      38.743  29.261  28.968  1.00  0.00    -0.014 A 
ATOM     38  C   UNL A   1      37.939  29.067  30.104  1.00  0.00     0.009 A 
ATOM     39  C   UNL A   1      38.164  29.787  27.806  1.00  0.00     0.009 A 
ATOM     40  C   UNL A   1      36.575  29.361  30.064  1.00  0.00     0.001 A 
ATOM     41  C   UNL A   1      36.804  30.107  27.778  1.00  0.00     0.001 A 
ATOM     42  C   UNL A   1      36.011  29.885  28.903  1.00  0.00     0.000 A 
ENDBRANCH  23  37
BRANCH  24  43
ATOM     43  C   UNL A   1      48.386  26.409  28.485  1.00  0.00    -0.014 A 
ATOM     44  C   UNL A   1      49.003  26.488  27.228  1.00  0.00     0.009 A 
ATOM     45  C   UNL A   1      49.133  25.922  29.572  1.00  0.00     0.009 A 
ATOM     46  C   UNL A   1      50.318  26.046  27.053  1.00  0.00     0.001 A 
ATOM     47  C   UNL A   1      50.454  25.503  29.399  1.00  0.00     0.001 A 
ATOM     48  C   UNL A   1      51.042  25.552  28.137  1.00  0.00     0.000 A 
ENDBRANCH  24  43
BRANCH  36  49
ATOM     49  C   UNL A   1      45.117  32.199  30.585  1.00  0.00    -0.014 A 
ATOM     50  C   UNL A   1      45.343  33.293  29.740  1.00  0.00     0.009 A 
ATOM     51  C   UNL A   1      45.290  32.347  31.970  1.00  0.00     0.009 A 
ATOM     52  C   UNL A   1      45.753  34.514  30.273  1.00  0.00     0.001 A 
ATOM     53  C   UNL A   1      45.667  33.577  32.502  1.00  0.00     0.001 A 
ATOM     54  C   UNL A   1      45.904  34.658  31.653  1.00  0.00     0.000 A 
ENDBRANCH  36  49
ENDBRANCH  10  11
ENDBRANCH   3   5
ENDBRANCH   2   3
ENDBRANCH   1   2
BRANCH   1  55
ATOM     55  C   UNL A   1      37.821  21.221  25.320  1.00  0.00     0.275 C 
BRANCH  55  56
ATOM     56  O   UNL A   1      36.545  21.129  24.656  1.00  0.00    -0.458 OA
BRANCH  56  57
ATOM     57  C   UNL A   1      35.434  21.048  25.440  1.00  0.00     0.340 C 
ATOM     58  O   UNL A   1      35.309  21.477  26.573  1.00  0.00    -0.246 OA
BRANCH  57  59
ATOM     59  C   UNL A   1      34.442  20.195  24.749  1.00  0.00     0.086 A 
ATOM     60  C   UNL A   1      34.774  18.837  24.616  1.00  0.00     0.057 A 
ATOM     61  C   UNL A   1      33.162  20.639  24.360  1.00  0.00     0.056 A 
ATOM     62  C   UNL A   1      33.867  17.957  24.034  1.00  0.00     0.124 A 
ATOM     63  C   UNL A   1      32.331  19.741  23.649  1.00  0.00     0.030 A 
ATOM     64  F   UNL A   1      34.135  16.645  24.028  1.00  0.00    -0.207 F 
ATOM     65  C   UNL A   1      32.680  18.405  23.484  1.00  0.00     0.041 A 
BRANCH  61  66
ATOM     66  N   UNL A   1      32.573  21.837  24.806  1.00  0.00    -0.341 N 
ATOM     67  C   UNL A   1      31.738  21.821  26.002  1.00  0.00     0.123 C 
ATOM     68  C   UNL A   1      33.015  23.119  24.397  1.00  0.00     0.044 A 
ATOM     69  C   UNL A   1      32.402  22.623  27.114  1.00  0.00     0.027 C 
ATOM     70  C   UNL A   1      32.972  24.224  25.269  1.00  0.00    -0.024 A 
ATOM     71  C   UNL A   1      33.543  23.298  23.107  1.00  0.00     0.026 A 
ATOM     72  C   UNL A   1      32.470  24.082  26.684  1.00  0.00     0.039 C 
ATOM     73  C   UNL A   1      33.401  25.481  24.819  1.00  0.00     0.006 A 
ATOM     74  C   UNL A   1      33.989  24.544  22.677  1.00  0.00     0.002 A 
ATOM     75  C   UNL A   1      33.907  25.638  23.530  1.00  0.00     0.000 A 
ENDBRANCH  61  66
ENDBRANCH  57  59
ENDBRANCH  56  57
ENDBRANCH  55  56
ENDBRANCH   1  55
TORSDOF 12
ENDMDL
MODEL 2
REMARK VINA RESULT:     -11.3      1.671      2.270
REMARK SMILES O=C(OCCOC(=O)c1cc(F)ccc1N1CCCc2ccccc21)c1ccc(-c2c3nc(c(-c4ccccc4)c4ccc([nH]4)c(-c4ccccc4)c4nc(c(-c5ccccc5)c5ccc2[nH]5)C=C4)C=C3)cc1
REMARK SMILES IDX 4 1 3 2 2 3 1 4 26 5 27 6 73 7 28 8 72 9 29 10 30 11 31 12
REMARK SMILES IDX 66 13 32 14 71 15 65 16 67 17 33 18 70 19 64 20 63 21 34 23
REMARK SMILES IDX 56 24 41 25 55 26 42 27 45 28 54 29 68 30 43 31 44 32 53 34
REMARK SMILES IDX 69 35 46 36 35 37 36 38 40 39 37 40 39 41 38 42 57 43 58 44
REMARK SMILES IDX 62 45 59 46 61 47 60 48 47 49 48 50 52 51 49 52 51 53 50 54
REMARK SMILES IDX 5 55 6 56 7 57 8 58 9 59 10 60 15 61 11 62 14 63 12 64 13 65
REMARK SMILES IDX 16 66 17 67 25 68 18 69 20 70 24 71 19 72 21 73 23 74 22 75
REMARK H PARENT 67 22 45 33
REMARK Flexibility Score: inf
ROOT
ATOM      1  C   UNL A   1      38.586  20.232  25.297  1.00  0.00     0.275 C 
ENDROOT
BRANCH   1   2
ATOM      2  O   UNL A   1      39.458  19.736  26.315  1.00  0.00    -0.458 OA
BRANCH   2   3
ATOM      3  C   UNL A   1      40.778  19.737  26.055  1.00  0.00     0.338 C 
ATOM      4  O   UNL A   1      41.423  18.800  25.604  1.00  0.00    -0.246 OA
BRANCH   3   5
ATOM      5  C   UNL A   1      41.324  21.010  26.602  1.00  0.00     0.060 A 
ATOM      6  C   UNL A   1      41.845  21.968  25.714  1.00  0.00     0.016 A 
ATOM      7  C   UNL A   1      41.157  21.340  27.948  1.00  0.00     0.016 A 
ATOM      8  C   UNL A   1      42.165  23.237  26.150  1.00  0.00     0.010 A 
ATOM      9  C   UNL A   1      41.394  22.644  28.371  1.00  0.00     0.010 A 
ATOM     10  C   UNL A   1      41.928  23.586  27.477  1.00  0.00    -0.014 A 
BRANCH  10  11
ATOM     11  C   UNL A   1      42.430  24.878  27.965  1.00  0.00     0.031 A 
ATOM     12  C   UNL A   1      41.433  25.982  28.132  1.00  0.00     0.074 A 
ATOM     13  C   UNL A   1      43.725  25.030  28.296  1.00  0.00     0.049 A 
ATOM     14  N   UNL A   1      41.623  27.202  28.550  1.00  0.00    -0.248 NA
ATOM     15  C   UNL A   1      40.029  25.671  27.797  1.00  0.00     0.031 C 
ATOM     16  C   UNL A   1      44.748  23.985  28.232  1.00  0.00     0.029 A 
ATOM     17  N   UNL A   1      44.414  26.133  28.723  1.00  0.00    -0.354 N 
ATOM     18  C   UNL A   1      40.366  27.788  28.546  1.00  0.00     0.074 A 
ATOM     19  C   UNL A   1      39.436  26.835  27.994  1.00  0.00     0.031 C 
ATOM     20  C   UNL A   1      45.948  24.519  28.514  1.00  0.00     0.029 A 
ATOM     21  C   UNL A   1      45.772  25.934  28.796  1.00  0.00     0.049 A 
ATOM     22  H   UNL A   1      43.979  26.985  28.955  1.00  0.00     0.167 HD
ATOM     23  C   UNL A   1      40.014  29.001  29.023  1.00  0.00     0.031 A 
ATOM     24  C   UNL A   1      46.759  26.814  29.043  1.00  0.00     0.031 A 
ATOM     25  C   UNL A   1      40.959  29.916  29.587  1.00  0.00     0.049 A 
ATOM     26  C   UNL A   1      46.359  28.208  29.436  1.00  0.00     0.074 A 
ATOM     27  C   UNL A   1      40.725  31.144  30.174  1.00  0.00     0.029 A 
ATOM     28  N   UNL A   1      42.329  29.697  29.621  1.00  0.00    -0.354 N 
ATOM     29  N   UNL A   1      45.153  28.717  29.537  1.00  0.00    -0.248 NA
ATOM     30  C   UNL A   1      47.438  29.131  29.802  1.00  0.00     0.031 C 
ATOM     31  C   UNL A   1      41.966  31.698  30.504  1.00  0.00     0.029 A 
ATOM     32  C   UNL A   1      42.963  30.792  30.174  1.00  0.00     0.049 A 
ATOM     33  H   UNL A   1      42.780  28.883  29.300  1.00  0.00     0.167 HD
ATOM     34  C   UNL A   1      45.323  29.999  30.031  1.00  0.00     0.074 A 
ATOM     35  C   UNL A   1      46.750  30.191  30.204  1.00  0.00     0.031 C 
ATOM     36  C   UNL A   1      44.388  30.933  30.333  1.00  0.00     0.031 A 
BRANCH  23  37
ATOM     37  C   UNL A   1      38.564  29.375  28.946  1.00  0.00    -0.014 A 
ATOM     38  C   UNL A   1      37.704  29.191  30.042  1.00  0.00     0.009 A 
ATOM     39  C   UNL A   1      38.047  29.907  27.757  1.00  0.00     0.009 A 
ATOM     40  C   UNL A   1      36.347  29.500  29.936  1.00  0.00     0.001 A 
ATOM     41  C   UNL A   1      36.695  30.243  27.664  1.00  0.00     0.001 A 
ATOM     42  C   UNL A   1      35.845  30.031  28.749  1.00  0.00     0.000 A 
ENDBRANCH  23  37
BRANCH  24  43
ATOM     43  C   UNL A   1      48.186  26.416  28.921  1.00  0.00    -0.014 A 
ATOM     44  C   UNL A   1      48.880  26.540  27.709  1.00  0.00     0.009 A 
ATOM     45  C   UNL A   1      48.860  25.869  30.028  1.00  0.00     0.009 A 
ATOM     46  C   UNL A   1      50.197  26.084  27.593  1.00  0.00     0.001 A 
ATOM     47  C   UNL A   1      50.183  25.437  29.916  1.00  0.00     0.001 A 
ATOM     48  C   UNL A   1      50.847  25.532  28.695  1.00  0.00     0.000 A 
ENDBRANCH  24  43
BRANCH  36  49
ATOM     49  C   UNL A   1      44.880  32.223  30.914  1.00  0.00    -0.014 A 
ATOM     50  C   UNL A   1      45.158  33.323  30.093  1.00  0.00     0.009 A 
ATOM     51  C   UNL A   1      44.987  32.355  32.307  1.00  0.00     0.009 A 
ATOM     52  C   UNL A   1      45.555  34.534  30.659  1.00  0.00     0.001 A 
ATOM     53  C   UNL A   1      45.350  33.575  32.870  1.00  0.00     0.001 A 
ATOM     54  C   UNL A   1      45.640  34.662  32.045  1.00  0.00     0.000 A 
ENDBRANCH  36  49
ENDBRANCH  10  11
ENDBRANCH   3   5
ENDBRANCH   2   3
ENDBRANCH   1   2
BRANCH   1  55
ATOM     55  C   UNL A   1      38.098  21.701  25.390  1.00  0.00     0.275 C 
BRANCH  55  56
ATOM     56  O   UNL A   1      36.734  21.888  25.812  1.00  0.00    -0.458 OA
BRANCH  56  57
ATOM     57  C   UNL A   1      36.232  23.154  25.773  1.00  0.00     0.340 C 
ATOM     58  O   UNL A   1      36.870  24.187  25.687  1.00  0.00    -0.246 OA
BRANCH  57  59
ATOM     59  C   UNL A   1      34.776  23.082  26.027  1.00  0.00     0.086 A 
ATOM     60  C   UNL A   1      34.381  22.432  27.207  1.00  0.00     0.057 A 
ATOM     61  C   UNL A   1      33.810  23.738  25.238  1.00  0.00     0.056 A 
ATOM     62  C   UNL A   1      33.033  22.378  27.550  1.00  0.00     0.124 A 
ATOM     63  C   UNL A   1      32.444  23.538  25.549  1.00  0.00     0.030 A 
ATOM     64  F   UNL A   1      32.676  21.873  28.737  1.00  0.00    -0.207 F 
ATOM     65  C   UNL A   1      32.055  22.859  26.699  1.00  0.00     0.041 A 
BRANCH  61  66
ATOM     66  N   UNL A   1      34.109  24.740  24.295  1.00  0.00    -0.341 N 
ATOM     67  C   UNL A   1      34.263  24.377  22.891  1.00  0.00     0.123 C 
ATOM     68  C   UNL A   1      33.914  26.120  24.542  1.00  0.00     0.044 A 
ATOM     69  C   UNL A   1      33.144  24.995  22.064  1.00  0.00     0.027 C 
ATOM     70  C   UNL A   1      33.528  27.004  23.516  1.00  0.00    -0.024 A 
ATOM     71  C   UNL A   1      34.072  26.628  25.843  1.00  0.00     0.026 A 
ATOM     72  C   UNL A   1      33.287  26.511  22.111  1.00  0.00     0.039 C 
ATOM     73  C   UNL A   1      33.365  28.369  23.798  1.00  0.00     0.006 A 
ATOM     74  C   UNL A   1      33.884  27.979  26.120  1.00  0.00     0.002 A 
ATOM     75  C   UNL A   1      33.542  28.851  25.094  1.00  0.00     0.000 A 
ENDBRANCH  61  66
ENDBRANCH  57  59
ENDBRANCH  56  57
ENDBRANCH  55  56
ENDBRANCH   1  55
TORSDOF 12
ENDMDL
MODEL 3
REMARK VINA RESULT:     -11.3      2.894      7.317
REMARK SMILES O=C(OCCOC(=O)c1cc(F)ccc1N1CCCc2ccccc21)c1ccc(-c2c3nc(c(-c4ccccc4)c4ccc([nH]4)c(-c4ccccc4)c4nc(c(-c5ccccc5)c5ccc2[nH]5)C=C4)C=C3)cc1
REMARK SMILES IDX 4 1 3 2 2 3 1 4 26 5 27 6 73 7 28 8 72 9 29 10 30 11 31 12
REMARK SMILES IDX 66 13 32 14 71 15 65 16 67 17 33 18 70 19 64 20 63 21 34 23
REMARK SMILES IDX 56 24 41 25 55 26 42 27 45 28 54 29 68 30 43 31 44 32 53 34
REMARK SMILES IDX 69 35 46 36 35 37 36 38 40 39 37 40 39 41 38 42 57 43 58 44
REMARK SMILES IDX 62 45 59 46 61 47 60 48 47 49 48 50 52 51 49 52 51 53 50 54
REMARK SMILES IDX 5 55 6 56 7 57 8 58 9 59 10 60 15 61 11 62 14 63 12 64 13 65
REMARK SMILES IDX 16 66 17 67 25 68 18 69 20 70 24 71 19 72 21 73 23 74 22 75
REMARK H PARENT 67 22 45 33
REMARK Flexibility Score: inf
ROOT
ATOM      1  C   UNL A   1      32.547  29.544  27.265  1.00  0.00     0.275 C 
ENDROOT
BRANCH   1   2
ATOM      2  O   UNL A   1      33.942  29.802  27.099  1.00  0.00    -0.458 OA
BRANCH   2   3
ATOM      3  C   UNL A   1      34.528  30.630  27.983  1.00  0.00     0.338 C 
ATOM      4  O   UNL A   1      34.105  31.724  28.333  1.00  0.00    -0.246 OA
BRANCH   3   5
ATOM      5  C   UNL A   1      35.866  30.054  28.294  1.00  0.00     0.060 A 
ATOM      6  C   UNL A   1      36.873  30.098  27.314  1.00  0.00     0.016 A 
ATOM      7  C   UNL A   1      36.185  29.647  29.590  1.00  0.00     0.016 A 
ATOM      8  C   UNL A   1      38.177  29.771  27.624  1.00  0.00     0.010 A 
ATOM      9  C   UNL A   1      37.513  29.405  29.927  1.00  0.00     0.010 A 
ATOM     10  C   UNL A   1      38.506  29.437  28.935  1.00  0.00    -0.014 A 
BRANCH  10  11
ATOM     11  C   UNL A   1      39.857  28.929  29.213  1.00  0.00     0.031 A 
ATOM     12  C   UNL A   1      40.831  29.878  29.837  1.00  0.00     0.074 A 
ATOM     13  C   UNL A   1      40.173  27.646  28.961  1.00  0.00     0.049 A 
ATOM     14  N   UNL A   1      42.071  29.672  30.183  1.00  0.00    -0.248 NA
ATOM     15  C   UNL A   1      40.345  31.243  30.124  1.00  0.00     0.031 C 
ATOM     16  C   UNL A   1      39.261  26.635  28.422  1.00  0.00     0.029 A 
ATOM     17  N   UNL A   1      41.357  26.975  29.097  1.00  0.00    -0.354 N 
ATOM     18  C   UNL A   1      42.498  30.867  30.743  1.00  0.00     0.074 A 
ATOM     19  C   UNL A   1      41.430  31.825  30.605  1.00  0.00     0.031 C 
ATOM     20  C   UNL A   1      39.942  25.503  28.183  1.00  0.00     0.029 A 
ATOM     21  C   UNL A   1      41.329  25.705  28.571  1.00  0.00     0.049 A 
ATOM     22  H   UNL A   1      42.152  27.364  29.528  1.00  0.00     0.167 HD
ATOM     23  C   UNL A   1      43.663  31.118  31.374  1.00  0.00     0.031 A 
ATOM     24  C   UNL A   1      42.327  24.819  28.407  1.00  0.00     0.031 A 
ATOM     25  C   UNL A   1      44.696  30.137  31.515  1.00  0.00     0.049 A 
ATOM     26  C   UNL A   1      43.666  25.170  28.991  1.00  0.00     0.074 A 
ATOM     27  C   UNL A   1      45.893  30.237  32.196  1.00  0.00     0.029 A 
ATOM     28  N   UNL A   1      44.649  28.871  30.949  1.00  0.00    -0.354 N 
ATOM     29  N   UNL A   1      44.023  26.266  29.620  1.00  0.00    -0.248 NA
ATOM     30  C   UNL A   1      44.721  24.156  28.896  1.00  0.00     0.031 C 
ATOM     31  C   UNL A   1      46.601  29.050  31.984  1.00  0.00     0.029 A 
ATOM     32  C   UNL A   1      45.820  28.194  31.220  1.00  0.00     0.049 A 
ATOM     33  H   UNL A   1      43.892  28.510  30.432  1.00  0.00     0.167 HD
ATOM     34  C   UNL A   1      45.324  26.051  30.046  1.00  0.00     0.074 A 
ATOM     35  C   UNL A   1      45.693  24.722  29.597  1.00  0.00     0.031 C 
ATOM     36  C   UNL A   1      46.138  26.867  30.759  1.00  0.00     0.031 A 
BRANCH  23  37
ATOM     37  C   UNL A   1      43.854  32.493  31.943  1.00  0.00    -0.014 A 
ATOM     38  C   UNL A   1      44.396  33.533  31.170  1.00  0.00     0.009 A 
ATOM     39  C   UNL A   1      43.499  32.747  33.274  1.00  0.00     0.009 A 
ATOM     40  C   UNL A   1      44.610  34.794  31.730  1.00  0.00     0.001 A 
ATOM     41  C   UNL A   1      43.688  34.017  33.824  1.00  0.00     0.001 A 
ATOM     42  C   UNL A   1      44.251  35.035  33.055  1.00  0.00     0.000 A 
ENDBRANCH  23  37
BRANCH  24  43
ATOM     43  C   UNL A   1      42.107  23.547  27.668  1.00  0.00    -0.014 A 
ATOM     44  C   UNL A   1      41.616  22.402  28.312  1.00  0.00     0.009 A 
ATOM     45  C   UNL A   1      42.426  23.465  26.301  1.00  0.00     0.009 A 
ATOM     46  C   UNL A   1      41.494  21.194  27.619  1.00  0.00     0.001 A 
ATOM     47  C   UNL A   1      42.281  22.263  25.605  1.00  0.00     0.001 A 
ATOM     48  C   UNL A   1      41.828  21.124  26.267  1.00  0.00     0.000 A 
ENDBRANCH  24  43
BRANCH  36  49
ATOM     49  C   UNL A   1      47.487  26.328  31.124  1.00  0.00    -0.014 A 
ATOM     50  C   UNL A   1      47.709  25.723  32.368  1.00  0.00     0.009 A 
ATOM     51  C   UNL A   1      48.521  26.359  30.176  1.00  0.00     0.009 A 
ATOM     52  C   UNL A   1      48.955  25.171  32.664  1.00  0.00     0.001 A 
ATOM     53  C   UNL A   1      49.753  25.777  30.462  1.00  0.00     0.001 A 
ATOM     54  C   UNL A   1      49.971  25.189  31.708  1.00  0.00     0.000 A 
ENDBRANCH  36  49
ENDBRANCH  10  11
ENDBRANCH   3   5
ENDBRANCH   2   3
ENDBRANCH   1   2
BRANCH   1  55
ATOM     55  C   UNL A   1      32.074  28.071  27.375  1.00  0.00     0.275 C 
BRANCH  55  56
ATOM     56  O   UNL A   1      32.899  27.092  26.714  1.00  0.00    -0.458 OA
BRANCH  56  57
ATOM     57  C   UNL A   1      32.274  26.018  26.156  1.00  0.00     0.340 C 
ATOM     58  O   UNL A   1      31.605  25.182  26.736  1.00  0.00    -0.246 OA
BRANCH  57  59
ATOM     59  C   UNL A   1      32.683  25.932  24.736  1.00  0.00     0.086 A 
ATOM     60  C   UNL A   1      32.791  27.150  24.045  1.00  0.00     0.057 A 
ATOM     61  C   UNL A   1      33.092  24.739  24.109  1.00  0.00     0.056 A 
ATOM     62  C   UNL A   1      33.231  27.160  22.725  1.00  0.00     0.124 A 
ATOM     63  C   UNL A   1      33.398  24.780  22.728  1.00  0.00     0.030 A 
ATOM     64  F   UNL A   1      33.456  28.331  22.116  1.00  0.00    -0.207 F 
ATOM     65  C   UNL A   1      33.466  25.985  22.036  1.00  0.00     0.041 A 
BRANCH  61  66
ATOM     66  N   UNL A   1      33.418  23.556  24.799  1.00  0.00    -0.341 N 
ATOM     67  C   UNL A   1      32.443  22.473  24.861  1.00  0.00     0.123 C 
ATOM     68  C   UNL A   1      34.746  23.190  25.128  1.00  0.00     0.044 A 
ATOM     69  C   UNL A   1      32.954  21.263  24.090  1.00  0.00     0.027 C 
ATOM     70  C   UNL A   1      35.156  21.843  25.143  1.00  0.00    -0.024 A 
ATOM     71  C   UNL A   1      35.696  24.186  25.413  1.00  0.00     0.026 A 
ATOM     72  C   UNL A   1      34.198  20.732  24.790  1.00  0.00     0.039 C 
ATOM     73  C   UNL A   1      36.476  21.521  25.493  1.00  0.00     0.006 A 
ATOM     74  C   UNL A   1      37.010  23.860  25.736  1.00  0.00     0.002 A 
ATOM     75  C   UNL A   1      37.396  22.527  25.788  1.00  0.00     0.000 A 
ENDBRANCH  61  66
ENDBRANCH  57  59
ENDBRANCH  56  57
ENDBRANCH  55  56
ENDBRANCH   1  55
TORSDOF 12
ENDMDL
