MODEL 1
REMARK VINA RESULT:     -10.5      0.000      0.000
REMARK SMILES C[C@@H]1SCCC[C@H]1Nc1cccc(C(=O)OCCOC(=O)c2ccc(-c3c4nc(c(-c5ccccc5)c5ccc([nH]5)c(-c5ccccc5)c5nc(c(-c6ccccc6)c6ccc3[nH]6)C=C5)C=C4)cc2)c1
REMARK SMILES IDX 17 1 16 2 14 3 15 4 13 5 9 6 10 7 70 8 11 9 12 10 8 11 7 13
REMARK SMILES IDX 1 14 2 15 3 16 4 17 6 18 5 19 18 20 19 21 20 22 21 23 22 24
REMARK SMILES IDX 23 25 69 26 24 27 68 28 25 29 26 30 27 31 62 32 28 33 67 34
REMARK SMILES IDX 61 35 63 36 29 37 66 38 60 39 59 40 30 42 52 43 37 44 51 45
REMARK SMILES IDX 38 46 41 47 50 48 64 49 39 50 40 51 49 53 65 54 42 55 31 56
REMARK SMILES IDX 32 57 36 58 33 59 35 60 34 61 53 62 54 63 58 64 55 65 57 66
REMARK SMILES IDX 56 67 43 68 44 69 48 70 45 71 47 72 46 73
REMARK H PARENT 8 12 63 41 41 52
REMARK Flexibility Score: inf
ROOT
ATOM      1  C   UNL A   1      42.408  19.291  26.718  1.00  0.00     0.275 C 
ENDROOT
BRANCH   1   2
ATOM      2  O   UNL A   1      41.694  20.321  26.005  1.00  0.00    -0.458 OA
BRANCH   2   3
ATOM      3  C   UNL A   1      40.354  20.150  25.877  1.00  0.00     0.338 C 
ATOM      4  O   UNL A   1      39.771  19.098  25.666  1.00  0.00    -0.246 OA
BRANCH   3   5
ATOM      5  C   UNL A   1      39.645  21.423  26.156  1.00  0.00     0.062 A 
ATOM      6  C   UNL A   1      37.766  22.928  25.839  1.00  0.00     0.035 A 
ATOM      7  C   UNL A   1      38.420  23.884  26.623  1.00  0.00     0.026 A 
ATOM      8  C   UNL A   1      38.398  21.706  25.592  1.00  0.00     0.041 A 
ATOM      9  C   UNL A   1      39.653  23.602  27.211  1.00  0.00     0.003 A 
ATOM     10  C   UNL A   1      40.246  22.360  27.005  1.00  0.00     0.016 A 
BRANCH   6  11
ATOM     11  N   UNL A   1      36.462  23.159  25.423  1.00  0.00    -0.381 N 
ATOM     12  H   UNL A   1      36.254  23.905  24.816  1.00  0.00     0.160 HD
BRANCH  11  13
ATOM     13  C   UNL A   1      35.399  22.268  25.909  1.00  0.00     0.092 C 
ATOM     14  C   UNL A   1      33.527  22.141  27.653  1.00  0.00     0.021 C 
ATOM     15  C   UNL A   1      34.465  23.055  26.864  1.00  0.00     0.066 C 
ATOM     16  S   UNL A   1      33.519  24.363  25.990  1.00  0.00    -0.157 SA
ATOM     17  C   UNL A   1      32.823  23.375  24.637  1.00  0.00     0.070 C 
ATOM     18  C   UNL A   1      34.688  21.643  24.699  1.00  0.00     0.027 C 
ATOM     19  C   UNL A   1      33.900  22.641  23.854  1.00  0.00     0.013 C 
ENDBRANCH  11  13
ENDBRANCH   6  11
ENDBRANCH   3   5
ENDBRANCH   2   3
ENDBRANCH   1   2
BRANCH   1  20
ATOM     20  C   UNL A   1      43.307  18.514  25.757  1.00  0.00     0.275 C 
BRANCH  20  21
ATOM     21  O   UNL A   1      43.527  19.310  24.580  1.00  0.00    -0.458 OA
BRANCH  21  22
ATOM     22  C   UNL A   1      44.812  19.599  24.283  1.00  0.00     0.338 C 
ATOM     23  O   UNL A   1      45.658  18.857  23.808  1.00  0.00    -0.246 OA
BRANCH  22  24
ATOM     24  C   UNL A   1      45.066  21.008  24.620  1.00  0.00     0.060 A 
ATOM     25  C   UNL A   1      45.628  21.321  25.856  1.00  0.00     0.016 A 
ATOM     26  C   UNL A   1      44.675  22.024  23.752  1.00  0.00     0.016 A 
ATOM     27  C   UNL A   1      45.759  22.648  26.258  1.00  0.00     0.010 A 
ATOM     28  C   UNL A   1      44.871  23.358  24.126  1.00  0.00     0.010 A 
ATOM     29  C   UNL A   1      45.390  23.685  25.394  1.00  0.00    -0.014 A 
BRANCH  29  30
ATOM     30  C   UNL A   1      45.482  25.104  25.834  1.00  0.00     0.031 A 
ATOM     31  C   UNL A   1      46.798  25.831  25.748  1.00  0.00     0.074 A 
ATOM     32  C   UNL A   1      44.397  25.756  26.297  1.00  0.00     0.049 A 
ATOM     33  N   UNL A   1      47.129  27.004  26.229  1.00  0.00    -0.248 NA
ATOM     34  C   UNL A   1      47.888  25.142  25.039  1.00  0.00     0.031 C 
ATOM     35  C   UNL A   1      43.046  25.202  26.389  1.00  0.00     0.029 A 
ATOM     36  N   UNL A   1      44.265  27.036  26.777  1.00  0.00    -0.354 N 
ATOM     37  C   UNL A   1      48.478  27.163  25.937  1.00  0.00     0.074 A 
ATOM     38  C   UNL A   1      48.903  25.972  25.233  1.00  0.00     0.031 C 
ATOM     39  C   UNL A   1      42.217  26.145  26.865  1.00  0.00     0.029 A 
ATOM     40  C   UNL A   1      42.989  27.342  27.183  1.00  0.00     0.049 A 
ATOM     41  H   UNL A   1      45.013  27.674  26.824  1.00  0.00     0.167 HD
ATOM     42  C   UNL A   1      49.293  28.204  26.233  1.00  0.00     0.031 A 
ATOM     43  C   UNL A   1      42.498  28.444  27.781  1.00  0.00     0.031 A 
ATOM     44  C   UNL A   1      48.866  29.411  26.889  1.00  0.00     0.049 A 
ATOM     45  C   UNL A   1      43.423  29.579  28.118  1.00  0.00     0.074 A 
ATOM     46  C   UNL A   1      49.617  30.527  27.215  1.00  0.00     0.029 A 
ATOM     47  N   UNL A   1      47.569  29.665  27.305  1.00  0.00    -0.354 N 
ATOM     48  N   UNL A   1      44.707  29.694  27.883  1.00  0.00    -0.248 NA
ATOM     49  C   UNL A   1      42.832  30.728  28.819  1.00  0.00     0.031 C 
ATOM     50  C   UNL A   1      48.781  31.445  27.859  1.00  0.00     0.029 A 
ATOM     51  C   UNL A   1      47.501  30.915  27.896  1.00  0.00     0.049 A 
ATOM     52  H   UNL A   1      46.810  29.049  27.197  1.00  0.00     0.167 HD
ATOM     53  C   UNL A   1      45.076  30.927  28.402  1.00  0.00     0.074 A 
ATOM     54  C   UNL A   1      43.877  31.534  28.944  1.00  0.00     0.031 C 
ATOM     55  C   UNL A   1      46.303  31.503  28.436  1.00  0.00     0.031 A 
BRANCH  42  56
ATOM     56  C   UNL A   1      50.747  28.060  25.889  1.00  0.00    -0.014 A 
ATOM     57  C   UNL A   1      51.659  27.464  26.773  1.00  0.00     0.009 A 
ATOM     58  C   UNL A   1      51.205  28.512  24.640  1.00  0.00     0.009 A 
ATOM     59  C   UNL A   1      53.007  27.354  26.426  1.00  0.00     0.001 A 
ATOM     60  C   UNL A   1      52.549  28.378  24.287  1.00  0.00     0.001 A 
ATOM     61  C   UNL A   1      53.450  27.806  25.184  1.00  0.00     0.000 A 
ENDBRANCH  42  56
BRANCH  43  62
ATOM     62  C   UNL A   1      41.060  28.507  28.148  1.00  0.00    -0.014 A 
ATOM     63  C   UNL A   1      40.597  27.912  29.332  1.00  0.00     0.009 A 
ATOM     64  C   UNL A   1      40.143  29.169  27.316  1.00  0.00     0.009 A 
ATOM     65  C   UNL A   1      39.243  27.970  29.667  1.00  0.00     0.001 A 
ATOM     66  C   UNL A   1      38.794  29.249  27.668  1.00  0.00     0.001 A 
ATOM     67  C   UNL A   1      38.344  28.643  28.839  1.00  0.00     0.000 A 
ENDBRANCH  43  62
BRANCH  55  68
ATOM     68  C   UNL A   1      46.403  32.863  29.061  1.00  0.00    -0.014 A 
ATOM     69  C   UNL A   1      46.203  34.025  28.300  1.00  0.00     0.009 A 
ATOM     70  C   UNL A   1      46.666  32.981  30.434  1.00  0.00     0.009 A 
ATOM     71  C   UNL A   1      46.295  35.282  28.899  1.00  0.00     0.001 A 
ATOM     72  C   UNL A   1      46.735  34.240  31.034  1.00  0.00     0.001 A 
ATOM     73  C   UNL A   1      46.557  35.389  30.264  1.00  0.00     0.000 A 
ENDBRANCH  55  68
ENDBRANCH  29  30
ENDBRANCH  22  24
ENDBRANCH  21  22
ENDBRANCH  20  21
ENDBRANCH   1  20
TORSDOF 13
ENDMDL
MODEL 2
REMARK VINA RESULT:     -10.3      4.511      6.683
REMARK SMILES C[C@@H]1SCCC[C@H]1Nc1cccc(C(=O)OCCOC(=O)c2ccc(-c3c4nc(c(-c5ccccc5)c5ccc([nH]5)c(-c5ccccc5)c5nc(c(-c6ccccc6)c6ccc3[nH]6)C=C5)C=C4)cc2)c1
REMARK SMILES IDX 17 1 16 2 14 3 15 4 13 5 9 6 10 7 70 8 11 9 12 10 8 11 7 13
REMARK SMILES IDX 1 14 2 15 3 16 4 17 6 18 5 19 18 20 19 21 20 22 21 23 22 24
REMARK SMILES IDX 23 25 69 26 24 27 68 28 25 29 26 30 27 31 62 32 28 33 67 34
REMARK SMILES IDX 61 35 63 36 29 37 66 38 60 39 59 40 30 42 52 43 37 44 51 45
REMARK SMILES IDX 38 46 41 47 50 48 64 49 39 50 40 51 49 53 65 54 42 55 31 56
REMARK SMILES IDX 32 57 36 58 33 59 35 60 34 61 53 62 54 63 58 64 55 65 57 66
REMARK SMILES IDX 56 67 43 68 44 69 48 70 45 71 47 72 46 73
REMARK H PARENT 8 12 63 41 41 52
REMARK Flexibility Score: inf
ROOT
ATOM      1  C   UNL A   1      42.922  20.509  25.916  1.00  0.00     0.275 C 
ENDROOT
BRANCH   1   2
ATOM      2  O   UNL A   1      41.612  21.031  25.615  1.00  0.00    -0.458 OA
BRANCH   2   3
ATOM      3  C   UNL A   1      40.670  20.896  26.583  1.00  0.00     0.338 C 
ATOM      4  O   UNL A   1      40.707  20.131  27.533  1.00  0.00    -0.246 OA
BRANCH   3   5
ATOM      5  C   UNL A   1      39.606  21.916  26.409  1.00  0.00     0.062 A 
ATOM      6  C   UNL A   1      37.436  22.607  25.565  1.00  0.00     0.035 A 
ATOM      7  C   UNL A   1      37.697  23.908  26.009  1.00  0.00     0.026 A 
ATOM      8  C   UNL A   1      38.410  21.620  25.750  1.00  0.00     0.041 A 
ATOM      9  C   UNL A   1      38.877  24.207  26.689  1.00  0.00     0.003 A 
ATOM     10  C   UNL A   1      39.813  23.203  26.919  1.00  0.00     0.016 A 
BRANCH   6  11
ATOM     11  N   UNL A   1      36.182  22.293  25.062  1.00  0.00    -0.381 N 
ATOM     12  H   UNL A   1      36.091  21.774  24.231  1.00  0.00     0.160 HD
BRANCH  11  13
ATOM     13  C   UNL A   1      34.993  22.754  25.793  1.00  0.00     0.092 C 
ATOM     14  C   UNL A   1      32.947  24.274  25.541  1.00  0.00     0.021 C 
ATOM     15  C   UNL A   1      34.045  23.497  24.816  1.00  0.00     0.066 C 
ATOM     16  S   UNL A   1      33.325  22.373  23.556  1.00  0.00    -0.157 SA
ATOM     17  C   UNL A   1      32.683  21.073  24.646  1.00  0.00     0.070 C 
ATOM     18  C   UNL A   1      34.355  21.552  26.505  1.00  0.00     0.027 C 
ATOM     19  C   UNL A   1      33.760  20.511  25.560  1.00  0.00     0.013 C 
ENDBRANCH  11  13
ENDBRANCH   6  11
ENDBRANCH   3   5
ENDBRANCH   2   3
ENDBRANCH   1   2
BRANCH   1  20
ATOM     20  C   UNL A   1      43.998  21.398  25.294  1.00  0.00     0.275 C 
BRANCH  20  21
ATOM     21  O   UNL A   1      43.380  22.600  24.802  1.00  0.00    -0.458 OA
BRANCH  21  22
ATOM     22  C   UNL A   1      44.111  23.731  24.897  1.00  0.00     0.338 C 
ATOM     23  O   UNL A   1      45.122  24.026  24.276  1.00  0.00    -0.246 OA
BRANCH  22  24
ATOM     24  C   UNL A   1      43.487  24.611  25.897  1.00  0.00     0.060 A 
ATOM     25  C   UNL A   1      43.514  25.990  25.700  1.00  0.00     0.016 A 
ATOM     26  C   UNL A   1      42.948  24.080  27.066  1.00  0.00     0.016 A 
ATOM     27  C   UNL A   1      43.049  26.855  26.689  1.00  0.00     0.010 A 
ATOM     28  C   UNL A   1      42.417  24.945  28.029  1.00  0.00     0.010 A 
ATOM     29  C   UNL A   1      42.487  26.342  27.864  1.00  0.00    -0.014 A 
BRANCH  29  30
ATOM     30  C   UNL A   1      42.032  27.259  28.945  1.00  0.00     0.031 A 
ATOM     31  C   UNL A   1      42.844  27.393  30.206  1.00  0.00     0.074 A 
ATOM     32  C   UNL A   1      40.905  27.984  28.806  1.00  0.00     0.049 A 
ATOM     33  N   UNL A   1      42.541  28.002  31.326  1.00  0.00    -0.248 NA
ATOM     34  C   UNL A   1      44.166  26.746  30.211  1.00  0.00     0.031 C 
ATOM     35  C   UNL A   1      40.042  28.001  27.624  1.00  0.00     0.029 A 
ATOM     36  N   UNL A   1      40.292  28.854  29.676  1.00  0.00    -0.354 N 
ATOM     37  C   UNL A   1      43.604  27.757  32.186  1.00  0.00     0.074 A 
ATOM     38  C   UNL A   1      44.561  26.951  31.459  1.00  0.00     0.031 C 
ATOM     39  C   UNL A   1      39.031  28.860  27.830  1.00  0.00     0.029 A 
ATOM     40  C   UNL A   1      39.131  29.397  29.184  1.00  0.00     0.049 A 
ATOM     41  H   UNL A   1      40.653  29.069  30.566  1.00  0.00     0.167 HD
ATOM     42  C   UNL A   1      43.767  28.162  33.468  1.00  0.00     0.031 A 
ATOM     43  C   UNL A   1      38.223  30.204  29.765  1.00  0.00     0.031 A 
ATOM     44  C   UNL A   1      42.843  29.003  34.181  1.00  0.00     0.049 A 
ATOM     45  C   UNL A   1      38.413  30.624  31.194  1.00  0.00     0.074 A 
ATOM     46  C   UNL A   1      42.932  29.478  35.478  1.00  0.00     0.029 A 
ATOM     47  N   UNL A   1      41.666  29.508  33.650  1.00  0.00    -0.354 N 
ATOM     48  N   UNL A   1      39.397  30.343  32.013  1.00  0.00    -0.248 NA
ATOM     49  C   UNL A   1      37.357  31.460  31.785  1.00  0.00     0.031 C 
ATOM     50  C   UNL A   1      41.792  30.245  35.743  1.00  0.00     0.029 A 
ATOM     51  C   UNL A   1      41.015  30.279  34.597  1.00  0.00     0.049 A 
ATOM     52  H   UNL A   1      41.342  29.341  32.736  1.00  0.00     0.167 HD
ATOM     53  C   UNL A   1      39.081  30.969  33.211  1.00  0.00     0.074 A 
ATOM     54  C   UNL A   1      37.827  31.665  33.007  1.00  0.00     0.031 C 
ATOM     55  C   UNL A   1      39.766  30.960  34.381  1.00  0.00     0.031 A 
BRANCH  42  56
ATOM     56  C   UNL A   1      44.975  27.655  34.203  1.00  0.00    -0.014 A 
ATOM     57  C   UNL A   1      46.219  28.296  34.105  1.00  0.00     0.009 A 
ATOM     58  C   UNL A   1      44.853  26.525  35.028  1.00  0.00     0.009 A 
ATOM     59  C   UNL A   1      47.326  27.794  34.794  1.00  0.00     0.001 A 
ATOM     60  C   UNL A   1      45.955  26.041  35.734  1.00  0.00     0.001 A 
ATOM     61  C   UNL A   1      47.192  26.670  35.609  1.00  0.00     0.000 A 
ENDBRANCH  42  56
BRANCH  43  62
ATOM     62  C   UNL A   1      37.018  30.628  29.006  1.00  0.00    -0.014 A 
ATOM     63  C   UNL A   1      36.019  29.701  28.674  1.00  0.00     0.009 A 
ATOM     64  C   UNL A   1      36.860  31.967  28.616  1.00  0.00     0.009 A 
ATOM     65  C   UNL A   1      34.892  30.106  27.956  1.00  0.00     0.001 A 
ATOM     66  C   UNL A   1      35.719  32.374  27.921  1.00  0.00     0.001 A 
ATOM     67  C   UNL A   1      34.740  31.442  27.585  1.00  0.00     0.000 A 
ENDBRANCH  43  62
BRANCH  55  68
ATOM     68  C   UNL A   1      39.181  31.742  35.520  1.00  0.00    -0.014 A 
ATOM     69  C   UNL A   1      39.488  33.100  35.697  1.00  0.00     0.009 A 
ATOM     70  C   UNL A   1      38.288  31.121  36.407  1.00  0.00     0.009 A 
ATOM     71  C   UNL A   1      38.931  33.814  36.759  1.00  0.00     0.001 A 
ATOM     72  C   UNL A   1      37.717  31.844  37.455  1.00  0.00     0.001 A 
ATOM     73  C   UNL A   1      38.045  33.188  37.635  1.00  0.00     0.000 A 
ENDBRANCH  55  68
ENDBRANCH  29  30
ENDBRANCH  22  24
ENDBRANCH  21  22
ENDBRANCH  20  21
ENDBRANCH   1  20
TORSDOF 13
ENDMDL
MODEL 3
REMARK VINA RESULT:     -10.2      7.958     12.851
REMARK SMILES C[C@@H]1SCCC[C@H]1Nc1cccc(C(=O)OCCOC(=O)c2ccc(-c3c4nc(c(-c5ccccc5)c5ccc([nH]5)c(-c5ccccc5)c5nc(c(-c6ccccc6)c6ccc3[nH]6)C=C5)C=C4)cc2)c1
REMARK SMILES IDX 17 1 16 2 14 3 15 4 13 5 9 6 10 7 70 8 11 9 12 10 8 11 7 13
REMARK SMILES IDX 1 14 2 15 3 16 4 17 6 18 5 19 18 20 19 21 20 22 21 23 22 24
REMARK SMILES IDX 23 25 69 26 24 27 68 28 25 29 26 30 27 31 62 32 28 33 67 34
REMARK SMILES IDX 61 35 63 36 29 37 66 38 60 39 59 40 30 42 52 43 37 44 51 45
REMARK SMILES IDX 38 46 41 47 50 48 64 49 39 50 40 51 49 53 65 54 42 55 31 56
REMARK SMILES IDX 32 57 36 58 33 59 35 60 34 61 53 62 54 63 58 64 55 65 57 66
REMARK SMILES IDX 56 67 43 68 44 69 48 70 45 71 47 72 46 73
REMARK H PARENT 8 12 63 41 41 52
REMARK Flexibility Score: inf
ROOT
ATOM      1  C   UNL A   1      33.791  35.769  28.986  1.00  0.00     0.275 C 
ENDROOT
BRANCH   1   2
ATOM      2  O   UNL A   1      34.085  34.361  29.090  1.00  0.00    -0.458 OA
BRANCH   2   3
ATOM      3  C   UNL A   1      33.443  33.543  28.217  1.00  0.00     0.338 C 
ATOM      4  O   UNL A   1      32.401  33.781  27.628  1.00  0.00    -0.246 OA
BRANCH   3   5
ATOM      5  C   UNL A   1      34.256  32.329  27.961  1.00  0.00     0.062 A 
ATOM      6  C   UNL A   1      34.447  29.954  27.488  1.00  0.00     0.035 A 
ATOM      7  C   UNL A   1      35.837  30.060  27.607  1.00  0.00     0.026 A 
ATOM      8  C   UNL A   1      33.662  31.094  27.690  1.00  0.00     0.041 A 
ATOM      9  C   UNL A   1      36.441  31.292  27.851  1.00  0.00     0.003 A 
ATOM     10  C   UNL A   1      35.652  32.430  27.993  1.00  0.00     0.016 A 
BRANCH   6  11
ATOM     11  N   UNL A   1      33.884  28.761  27.059  1.00  0.00    -0.381 N 
ATOM     12  H   UNL A   1      34.399  27.923  27.091  1.00  0.00     0.160 HD
BRANCH  11  13
ATOM     13  C   UNL A   1      32.504  28.774  26.554  1.00  0.00     0.092 C 
ATOM     14  C   UNL A   1      31.121  29.464  24.511  1.00  0.00     0.021 C 
ATOM     15  C   UNL A   1      32.513  29.123  25.043  1.00  0.00     0.066 C 
ATOM     16  S   UNL A   1      33.294  27.807  24.030  1.00  0.00    -0.157 SA
ATOM     17  C   UNL A   1      32.363  26.372  24.633  1.00  0.00     0.070 C 
ATOM     18  C   UNL A   1      31.843  27.429  26.890  1.00  0.00     0.027 C 
ATOM     19  C   UNL A   1      32.439  26.237  26.146  1.00  0.00     0.013 C 
ENDBRANCH  11  13
ENDBRANCH   6  11
ENDBRANCH   3   5
ENDBRANCH   2   3
ENDBRANCH   1   2
BRANCH   1  20
ATOM     20  C   UNL A   1      32.559  36.112  29.824  1.00  0.00     0.275 C 
BRANCH  20  21
ATOM     21  O   UNL A   1      32.990  36.602  31.104  1.00  0.00    -0.458 OA
BRANCH  21  22
ATOM     22  C   UNL A   1      32.622  35.875  32.181  1.00  0.00     0.338 C 
ATOM     23  O   UNL A   1      31.520  35.819  32.707  1.00  0.00    -0.246 OA
BRANCH  22  24
ATOM     24  C   UNL A   1      33.787  35.113  32.654  1.00  0.00     0.060 A 
ATOM     25  C   UNL A   1      35.056  35.682  32.556  1.00  0.00     0.016 A 
ATOM     26  C   UNL A   1      33.638  33.809  33.117  1.00  0.00     0.016 A 
ATOM     27  C   UNL A   1      36.191  34.938  32.873  1.00  0.00     0.010 A 
ATOM     28  C   UNL A   1      34.772  33.085  33.502  1.00  0.00     0.010 A 
ATOM     29  C   UNL A   1      36.063  33.632  33.358  1.00  0.00    -0.014 A 
BRANCH  29  30
ATOM     30  C   UNL A   1      37.271  32.814  33.654  1.00  0.00     0.031 A 
ATOM     31  C   UNL A   1      37.992  32.988  34.964  1.00  0.00     0.074 A 
ATOM     32  C   UNL A   1      37.724  31.906  32.767  1.00  0.00     0.049 A 
ATOM     33  N   UNL A   1      39.146  32.501  35.346  1.00  0.00    -0.248 NA
ATOM     34  C   UNL A   1      37.331  33.831  35.974  1.00  0.00     0.031 C 
ATOM     35  C   UNL A   1      37.103  31.588  31.481  1.00  0.00     0.029 A 
ATOM     36  N   UNL A   1      38.820  31.079  32.820  1.00  0.00    -0.354 N 
ATOM     37  C   UNL A   1      39.378  33.029  36.609  1.00  0.00     0.074 A 
ATOM     38  C   UNL A   1      38.245  33.868  36.933  1.00  0.00     0.031 C 
ATOM     39  C   UNL A   1      37.809  30.615  30.881  1.00  0.00     0.029 A 
ATOM     40  C   UNL A   1      38.972  30.295  31.703  1.00  0.00     0.049 A 
ATOM     41  H   UNL A   1      39.437  31.050  33.587  1.00  0.00     0.167 HD
ATOM     42  C   UNL A   1      40.442  32.838  37.426  1.00  0.00     0.031 A 
ATOM     43  C   UNL A   1      39.955  29.442  31.355  1.00  0.00     0.031 A 
ATOM     44  C   UNL A   1      41.549  31.968  37.131  1.00  0.00     0.049 A 
ATOM     45  C   UNL A   1      41.135  29.261  32.266  1.00  0.00     0.074 A 
ATOM     46  C   UNL A   1      42.665  31.698  37.906  1.00  0.00     0.029 A 
ATOM     47  N   UNL A   1      41.673  31.213  35.976  1.00  0.00    -0.354 N 
ATOM     48  N   UNL A   1      41.367  29.807  33.435  1.00  0.00    -0.248 NA
ATOM     49  C   UNL A   1      42.198  28.358  31.800  1.00  0.00     0.031 C 
ATOM     50  C   UNL A   1      43.480  30.804  37.203  1.00  0.00     0.029 A 
ATOM     51  C   UNL A   1      42.851  30.487  36.010  1.00  0.00     0.049 A 
ATOM     52  H   UNL A   1      41.019  31.196  35.240  1.00  0.00     0.167 HD
ATOM     53  C   UNL A   1      42.597  29.312  33.845  1.00  0.00     0.074 A 
ATOM     54  C   UNL A   1      43.052  28.403  32.813  1.00  0.00     0.031 C 
ATOM     55  C   UNL A   1      43.293  29.592  34.974  1.00  0.00     0.031 A 
BRANCH  42  56
ATOM     56  C   UNL A   1      40.482  33.628  38.702  1.00  0.00    -0.014 A 
ATOM     57  C   UNL A   1      41.065  34.903  38.763  1.00  0.00     0.009 A 
ATOM     58  C   UNL A   1      39.901  33.088  39.862  1.00  0.00     0.009 A 
ATOM     59  C   UNL A   1      41.093  35.607  39.969  1.00  0.00     0.001 A 
ATOM     60  C   UNL A   1      39.909  33.806  41.059  1.00  0.00     0.001 A 
ATOM     61  C   UNL A   1      40.513  35.061  41.113  1.00  0.00     0.000 A 
ENDBRANCH  42  56
BRANCH  43  62
ATOM     62  C   UNL A   1      39.888  28.730  30.053  1.00  0.00    -0.014 A 
ATOM     63  C   UNL A   1      39.393  27.420  29.979  1.00  0.00     0.009 A 
ATOM     64  C   UNL A   1      40.315  29.364  28.875  1.00  0.00     0.009 A 
ATOM     65  C   UNL A   1      39.340  26.755  28.752  1.00  0.00     0.001 A 
ATOM     66  C   UNL A   1      40.234  28.706  27.646  1.00  0.00     0.001 A 
ATOM     67  C   UNL A   1      39.754  27.400  27.587  1.00  0.00     0.000 A 
ENDBRANCH  43  62
BRANCH  55  68
ATOM     68  C   UNL A   1      44.608  28.893  35.157  1.00  0.00    -0.014 A 
ATOM     69  C   UNL A   1      44.680  27.643  35.791  1.00  0.00     0.009 A 
ATOM     70  C   UNL A   1      45.783  29.477  34.660  1.00  0.00     0.009 A 
ATOM     71  C   UNL A   1      45.910  27.005  35.949  1.00  0.00     0.001 A 
ATOM     72  C   UNL A   1      47.009  28.825  34.801  1.00  0.00     0.001 A 
ATOM     73  C   UNL A   1      47.073  27.593  35.452  1.00  0.00     0.000 A 
ENDBRANCH  55  68
ENDBRANCH  29  30
ENDBRANCH  22  24
ENDBRANCH  21  22
ENDBRANCH  20  21
ENDBRANCH   1  20
TORSDOF 13
ENDMDL
