MODEL 1
REMARK VINA RESULT:     -11.1      0.000      0.000
REMARK SMILES C/C(=N\NC(N)=S)c1nnn(-c2ccc(C(=O)OCCOC(=O)c3ccc(-c4c5nc(c(-c6ccccc6)c6ccc([nH]6)c(-c6ccccc6)c6nc(c(-c7ccccc7)c7ccc4[nH]7)C=C6)C=C5)cc3)cc2)c1C
REMARK SMILES IDX 18 1 16 2 17 3 15 4 12 5 13 6 73 7 14 8 72 9 11 10 8 11 9 12
REMARK SMILES IDX 74 13 10 14 75 15 2 16 1 17 3 18 4 19 5 21 7 22 6 23 19 26
REMARK SMILES IDX 20 27 21 28 22 29 23 30 24 31 25 32 71 33 26 34 70 35 27 36
REMARK SMILES IDX 28 37 29 38 64 39 30 40 69 41 63 42 65 43 31 44 68 45 62 46
REMARK SMILES IDX 61 47 32 49 54 50 39 51 53 52 40 53 43 54 52 55 66 56 41 57
REMARK SMILES IDX 42 58 51 60 67 61 44 62 33 63 34 64 38 65 35 66 37 67 36 68
REMARK SMILES IDX 55 69 56 70 60 71 57 72 59 73 58 74 45 75 46 76 50 77 47 78
REMARK SMILES IDX 49 79 48 80
REMARK H PARENT 4 20 6 24 6 25 65 48 43 59
REMARK Flexibility Score: inf
ROOT
ATOM      1  O   UNL A   1      31.849  29.509  27.102  1.00  0.00    -0.458 OA
ENDROOT
BRANCH   1   2
ATOM      2  C   UNL A   1      31.655  28.992  25.857  1.00  0.00     0.338 C 
ATOM      3  O   UNL A   1      31.301  29.596  24.871  1.00  0.00    -0.246 OA
BRANCH   2   4
ATOM      4  C   UNL A   1      32.008  27.547  25.859  1.00  0.00     0.060 A 
ATOM      5  C   UNL A   1      32.681  24.877  25.538  1.00  0.00     0.067 A 
ATOM      6  C   UNL A   1      33.698  25.834  25.513  1.00  0.00     0.029 A 
ATOM      7  C   UNL A   1      31.365  25.224  25.863  1.00  0.00     0.029 A 
ATOM      8  C   UNL A   1      33.349  27.180  25.651  1.00  0.00     0.018 A 
ATOM      9  C   UNL A   1      31.031  26.561  26.031  1.00  0.00     0.018 A 
BRANCH   5  10
ATOM     10  N   UNL A   1      32.929  23.590  25.024  1.00  0.00    -0.217 N 
ATOM     11  C   UNL A   1      33.561  21.524  24.800  1.00  0.00     0.132 A 
ATOM     12  N   UNL A   1      32.643  21.813  23.824  1.00  0.00    -0.128 NA
ATOM     13  C   UNL A   1      33.734  22.627  25.609  1.00  0.00     0.071 A 
ATOM     14  N   UNL A   1      32.202  23.048  24.024  1.00  0.00    -0.061 NA
ATOM     15  C   UNL A   1      34.423  22.777  26.914  1.00  0.00     0.069 C 
BRANCH  11  16
ATOM     16  C   UNL A   1      34.058  20.182  25.035  1.00  0.00     0.087 C 
ATOM     17  C   UNL A   1      35.554  20.007  24.980  1.00  0.00     0.071 C 
ATOM     18  N   UNL A   1      33.152  19.282  25.283  1.00  0.00    -0.176 NA
BRANCH  18  19
ATOM     19  N   UNL A   1      33.496  17.992  25.564  1.00  0.00    -0.254 N 
ATOM     20  H   UNL A   1      34.194  17.869  26.247  1.00  0.00     0.193 HD
BRANCH  19  21
ATOM     21  C   UNL A   1      32.982  16.839  25.005  1.00  0.00     0.184 C 
ATOM     22  S   UNL A   1      32.471  15.439  25.745  1.00  0.00    -0.040 S 
BRANCH  21  23
ATOM     23  N   UNL A   1      32.899  16.922  23.641  1.00  0.00    -0.375 N 
ATOM     24  H   UNL A   1      32.980  17.796  23.196  1.00  0.00     0.159 HD
ATOM     25  H   UNL A   1      32.759  16.107  23.106  1.00  0.00     0.159 HD
ENDBRANCH  21  23
ENDBRANCH  19  21
ENDBRANCH  18  19
ENDBRANCH  11  16
ENDBRANCH   5  10
ENDBRANCH   2   4
ENDBRANCH   1   2
BRANCH   1  26
ATOM     26  C   UNL A   1      32.284  30.875  27.151  1.00  0.00     0.275 C 
BRANCH  26  27
ATOM     27  C   UNL A   1      33.798  30.967  27.029  1.00  0.00     0.275 C 
BRANCH  27  28
ATOM     28  O   UNL A   1      34.425  31.179  28.294  1.00  0.00    -0.458 OA
BRANCH  28  29
ATOM     29  C   UNL A   1      35.595  31.854  28.245  1.00  0.00     0.338 C 
ATOM     30  O   UNL A   1      35.835  32.887  27.643  1.00  0.00    -0.246 OA
BRANCH  29  31
ATOM     31  C   UNL A   1      36.648  31.033  28.846  1.00  0.00     0.060 A 
ATOM     32  C   UNL A   1      37.849  31.659  29.194  1.00  0.00     0.016 A 
ATOM     33  C   UNL A   1      36.527  29.638  28.805  1.00  0.00     0.016 A 
ATOM     34  C   UNL A   1      38.969  30.875  29.388  1.00  0.00     0.010 A 
ATOM     35  C   UNL A   1      37.647  28.860  28.983  1.00  0.00     0.010 A 
ATOM     36  C   UNL A   1      38.868  29.488  29.220  1.00  0.00    -0.014 A 
BRANCH  36  37
ATOM     37  C   UNL A   1      40.050  28.681  29.449  1.00  0.00     0.031 A 
ATOM     38  C   UNL A   1      40.412  28.563  30.883  1.00  0.00     0.074 A 
ATOM     39  C   UNL A   1      40.664  27.979  28.478  1.00  0.00     0.049 A 
ATOM     40  N   UNL A   1      41.503  28.944  31.456  1.00  0.00    -0.248 NA
ATOM     41  C   UNL A   1      39.376  28.079  31.812  1.00  0.00     0.031 C 
ATOM     42  C   UNL A   1      40.223  27.773  27.096  1.00  0.00     0.029 A 
ATOM     43  N   UNL A   1      41.767  27.188  28.571  1.00  0.00    -0.354 N 
ATOM     44  C   UNL A   1      41.369  28.592  32.793  1.00  0.00     0.074 A 
ATOM     45  C   UNL A   1      39.994  28.211  32.985  1.00  0.00     0.031 C 
ATOM     46  C   UNL A   1      40.907  26.734  26.564  1.00  0.00     0.029 A 
ATOM     47  C   UNL A   1      41.912  26.294  27.519  1.00  0.00     0.049 A 
ATOM     48  H   UNL A   1      42.405  27.244  29.318  1.00  0.00     0.167 HD
ATOM     49  C   UNL A   1      42.459  28.403  33.586  1.00  0.00     0.031 A 
ATOM     50  C   UNL A   1      42.748  25.226  27.475  1.00  0.00     0.031 A 
ATOM     51  C   UNL A   1      43.637  29.014  33.027  1.00  0.00     0.049 A 
ATOM     52  C   UNL A   1      43.777  25.412  28.526  1.00  0.00     0.074 A 
ATOM     53  C   UNL A   1      43.985  30.301  32.670  1.00  0.00     0.029 A 
ATOM     54  N   UNL A   1      44.538  28.188  32.400  1.00  0.00    -0.354 N 
ATOM     55  N   UNL A   1      44.714  26.312  28.466  1.00  0.00    -0.248 NA
ATOM     56  C   UNL A   1      43.507  24.878  29.852  1.00  0.00     0.031 C 
ATOM     57  C   UNL A   1      44.763  30.156  31.485  1.00  0.00     0.029 A 
ATOM     58  C   UNL A   1      44.902  28.791  31.225  1.00  0.00     0.049 A 
ATOM     59  H   UNL A   1      44.864  27.322  32.734  1.00  0.00     0.167 HD
ATOM     60  C   UNL A   1      44.831  26.781  29.766  1.00  0.00     0.074 A 
ATOM     61  C   UNL A   1      44.147  25.789  30.591  1.00  0.00     0.031 C 
ATOM     62  C   UNL A   1      45.218  28.068  30.015  1.00  0.00     0.031 A 
BRANCH  49  63
ATOM     63  C   UNL A   1      42.538  27.295  34.609  1.00  0.00    -0.014 A 
ATOM     64  C   UNL A   1      42.831  25.994  34.164  1.00  0.00     0.009 A 
ATOM     65  C   UNL A   1      42.043  27.416  35.923  1.00  0.00     0.009 A 
ATOM     66  C   UNL A   1      42.545  24.872  34.953  1.00  0.00     0.001 A 
ATOM     67  C   UNL A   1      41.799  26.302  36.729  1.00  0.00     0.001 A 
ATOM     68  C   UNL A   1      42.016  25.028  36.230  1.00  0.00     0.000 A 
ENDBRANCH  49  63
BRANCH  50  69
ATOM     69  C   UNL A   1      42.580  23.933  26.779  1.00  0.00    -0.014 A 
ATOM     70  C   UNL A   1      43.532  23.496  25.844  1.00  0.00     0.009 A 
ATOM     71  C   UNL A   1      41.631  22.998  27.232  1.00  0.00     0.009 A 
ATOM     72  C   UNL A   1      43.561  22.163  25.412  1.00  0.00     0.001 A 
ATOM     73  C   UNL A   1      41.656  21.668  26.797  1.00  0.00     0.001 A 
ATOM     74  C   UNL A   1      42.632  21.247  25.900  1.00  0.00     0.000 A 
ENDBRANCH  50  69
BRANCH  62  75
ATOM     75  C   UNL A   1      45.776  28.879  28.874  1.00  0.00    -0.014 A 
ATOM     76  C   UNL A   1      47.146  28.938  28.563  1.00  0.00     0.009 A 
ATOM     77  C   UNL A   1      44.869  29.490  27.996  1.00  0.00     0.009 A 
ATOM     78  C   UNL A   1      47.593  29.620  27.426  1.00  0.00     0.001 A 
ATOM     79  C   UNL A   1      45.312  30.149  26.849  1.00  0.00     0.001 A 
ATOM     80  C   UNL A   1      46.674  30.221  26.568  1.00  0.00     0.000 A 
ENDBRANCH  62  75
ENDBRANCH  36  37
ENDBRANCH  29  31
ENDBRANCH  28  29
ENDBRANCH  27  28
ENDBRANCH  26  27
ENDBRANCH   1  26
TORSDOF 16
ENDMDL
MODEL 2
REMARK VINA RESULT:     -11.0      1.735      2.179
REMARK SMILES C/C(=N\NC(N)=S)c1nnn(-c2ccc(C(=O)OCCOC(=O)c3ccc(-c4c5nc(c(-c6ccccc6)c6ccc([nH]6)c(-c6ccccc6)c6nc(c(-c7ccccc7)c7ccc4[nH]7)C=C6)C=C5)cc3)cc2)c1C
REMARK SMILES IDX 18 1 16 2 17 3 15 4 12 5 13 6 73 7 14 8 72 9 11 10 8 11 9 12
REMARK SMILES IDX 74 13 10 14 75 15 2 16 1 17 3 18 4 19 5 21 7 22 6 23 19 26
REMARK SMILES IDX 20 27 21 28 22 29 23 30 24 31 25 32 71 33 26 34 70 35 27 36
REMARK SMILES IDX 28 37 29 38 64 39 30 40 69 41 63 42 65 43 31 44 68 45 62 46
REMARK SMILES IDX 61 47 32 49 54 50 39 51 53 52 40 53 43 54 52 55 66 56 41 57
REMARK SMILES IDX 42 58 51 60 67 61 44 62 33 63 34 64 38 65 35 66 37 67 36 68
REMARK SMILES IDX 55 69 56 70 60 71 57 72 59 73 58 74 45 75 46 76 50 77 47 78
REMARK SMILES IDX 49 79 48 80
REMARK H PARENT 4 20 6 24 6 25 65 48 43 59
REMARK Flexibility Score: inf
ROOT
ATOM      1  O   UNL A   1      33.522  30.881  26.903  1.00  0.00    -0.458 OA
ENDROOT
BRANCH   1   2
ATOM      2  C   UNL A   1      32.193  30.837  26.609  1.00  0.00     0.338 C 
ATOM      3  O   UNL A   1      31.445  31.782  26.502  1.00  0.00    -0.246 OA
BRANCH   2   4
ATOM      4  C   UNL A   1      31.783  29.427  26.371  1.00  0.00     0.060 A 
ATOM      5  C   UNL A   1      31.336  26.726  25.943  1.00  0.00     0.067 A 
ATOM      6  C   UNL A   1      31.515  27.178  27.253  1.00  0.00     0.029 A 
ATOM      7  C   UNL A   1      31.234  27.620  24.874  1.00  0.00     0.029 A 
ATOM      8  C   UNL A   1      31.765  28.538  27.459  1.00  0.00     0.018 A 
ATOM      9  C   UNL A   1      31.451  28.974  25.090  1.00  0.00     0.018 A 
BRANCH   5  10
ATOM     10  N   UNL A   1      31.472  25.353  25.662  1.00  0.00    -0.217 N 
ATOM     11  C   UNL A   1      32.288  23.370  25.312  1.00  0.00     0.132 A 
ATOM     12  N   UNL A   1      30.946  23.257  25.566  1.00  0.00    -0.128 NA
ATOM     13  C   UNL A   1      32.663  24.693  25.409  1.00  0.00     0.071 A 
ATOM     14  N   UNL A   1      30.478  24.462  25.862  1.00  0.00    -0.061 NA
ATOM     15  C   UNL A   1      34.006  25.322  25.451  1.00  0.00     0.069 C 
BRANCH  11  16
ATOM     16  C   UNL A   1      33.164  22.220  25.202  1.00  0.00     0.087 C 
ATOM     17  C   UNL A   1      32.947  21.330  24.006  1.00  0.00     0.071 C 
ATOM     18  N   UNL A   1      34.050  22.096  26.146  1.00  0.00    -0.176 NA
BRANCH  18  19
ATOM     19  N   UNL A   1      34.961  21.080  26.130  1.00  0.00    -0.254 N 
ATOM     20  H   UNL A   1      34.837  20.375  26.805  1.00  0.00     0.193 HD
BRANCH  19  21
ATOM     21  C   UNL A   1      36.036  20.923  25.277  1.00  0.00     0.184 C 
ATOM     22  S   UNL A   1      37.022  22.076  24.593  1.00  0.00    -0.040 S 
BRANCH  21  23
ATOM     23  N   UNL A   1      36.282  19.606  24.996  1.00  0.00    -0.375 N 
ATOM     24  H   UNL A   1      35.594  19.062  24.548  1.00  0.00     0.159 HD
ATOM     25  H   UNL A   1      37.147  19.204  25.239  1.00  0.00     0.159 HD
ENDBRANCH  21  23
ENDBRANCH  19  21
ENDBRANCH  18  19
ENDBRANCH  11  16
ENDBRANCH   5  10
ENDBRANCH   2   4
ENDBRANCH   1   2
BRANCH   1  26
ATOM     26  C   UNL A   1      33.893  31.727  28.000  1.00  0.00     0.275 C 
BRANCH  26  27
ATOM     27  C   UNL A   1      35.297  32.280  27.808  1.00  0.00     0.275 C 
BRANCH  27  28
ATOM     28  O   UNL A   1      35.833  32.813  29.019  1.00  0.00    -0.458 OA
BRANCH  28  29
ATOM     29  C   UNL A   1      35.974  31.919  30.023  1.00  0.00     0.338 C 
ATOM     30  O   UNL A   1      35.449  31.944  31.123  1.00  0.00    -0.246 OA
BRANCH  29  31
ATOM     31  C   UNL A   1      37.061  30.995  29.692  1.00  0.00     0.060 A 
ATOM     32  C   UNL A   1      36.796  29.623  29.751  1.00  0.00     0.016 A 
ATOM     33  C   UNL A   1      38.367  31.492  29.596  1.00  0.00     0.016 A 
ATOM     34  C   UNL A   1      37.862  28.749  29.832  1.00  0.00     0.010 A 
ATOM     35  C   UNL A   1      39.427  30.620  29.693  1.00  0.00     0.010 A 
ATOM     36  C   UNL A   1      39.165  29.263  29.863  1.00  0.00    -0.014 A 
BRANCH  36  37
ATOM     37  C   UNL A   1      40.271  28.328  29.927  1.00  0.00     0.031 A 
ATOM     38  C   UNL A   1      40.857  28.204  31.284  1.00  0.00     0.074 A 
ATOM     39  C   UNL A   1      40.627  27.535  28.900  1.00  0.00     0.049 A 
ATOM     40  N   UNL A   1      42.066  28.468  31.649  1.00  0.00    -0.248 NA
ATOM     41  C   UNL A   1      39.948  27.870  32.394  1.00  0.00     0.031 C 
ATOM     42  C   UNL A   1      39.935  27.347  27.622  1.00  0.00     0.029 A 
ATOM     43  N   UNL A   1      41.634  26.621  28.843  1.00  0.00    -0.354 N 
ATOM     44  C   UNL A   1      42.125  28.168  33.005  1.00  0.00     0.074 A 
ATOM     45  C   UNL A   1      40.769  27.958  33.440  1.00  0.00     0.031 C 
ATOM     46  C   UNL A   1      40.397  26.221  27.030  1.00  0.00     0.029 A 
ATOM     47  C   UNL A   1      41.496  25.690  27.822  1.00  0.00     0.049 A 
ATOM     48  H   UNL A   1      42.393  26.620  29.470  1.00  0.00     0.167 HD
ATOM     49  C   UNL A   1      43.306  27.872  33.612  1.00  0.00     0.031 A 
ATOM     50  C   UNL A   1      42.186  24.530  27.688  1.00  0.00     0.031 A 
ATOM     51  C   UNL A   1      44.431  28.325  32.838  1.00  0.00     0.049 A 
ATOM     52  C   UNL A   1      43.394  24.619  28.542  1.00  0.00     0.074 A 
ATOM     53  C   UNL A   1      44.855  29.553  32.370  1.00  0.00     0.029 A 
ATOM     54  N   UNL A   1      45.114  27.383  32.106  1.00  0.00    -0.354 N 
ATOM     55  N   UNL A   1      44.402  25.400  28.287  1.00  0.00    -0.248 NA
ATOM     56  C   UNL A   1      43.297  24.154  29.918  1.00  0.00     0.031 C 
ATOM     57  C   UNL A   1      45.398  29.286  31.079  1.00  0.00     0.029 A 
ATOM     58  C   UNL A   1      45.336  27.909  30.862  1.00  0.00     0.049 A 
ATOM     59  H   UNL A   1      45.393  26.493  32.420  1.00  0.00     0.167 HD
ATOM     60  C   UNL A   1      44.792  25.885  29.526  1.00  0.00     0.074 A 
ATOM     61  C   UNL A   1      44.153  25.001  30.498  1.00  0.00     0.031 C 
ATOM     62  C   UNL A   1      45.357  27.123  29.649  1.00  0.00     0.031 A 
BRANCH  49  63
ATOM     63  C   UNL A   1      43.433  26.789  34.657  1.00  0.00    -0.014 A 
ATOM     64  C   UNL A   1      43.355  25.447  34.241  1.00  0.00     0.009 A 
ATOM     65  C   UNL A   1      43.322  27.028  36.040  1.00  0.00     0.009 A 
ATOM     66  C   UNL A   1      43.074  24.419  35.150  1.00  0.00     0.001 A 
ATOM     67  C   UNL A   1      43.086  25.999  36.955  1.00  0.00     0.001 A 
ATOM     68  C   UNL A   1      42.927  24.698  36.504  1.00  0.00     0.000 A 
ENDBRANCH  49  63
BRANCH  50  69
ATOM     69  C   UNL A   1      41.757  23.248  27.089  1.00  0.00    -0.014 A 
ATOM     70  C   UNL A   1      42.706  22.285  26.707  1.00  0.00     0.009 A 
ATOM     71  C   UNL A   1      40.409  22.853  27.143  1.00  0.00     0.009 A 
ATOM     72  C   UNL A   1      42.324  20.965  26.435  1.00  0.00     0.001 A 
ATOM     73  C   UNL A   1      40.026  21.535  26.865  1.00  0.00     0.001 A 
ATOM     74  C   UNL A   1      40.986  20.588  26.528  1.00  0.00     0.000 A 
ENDBRANCH  50  69
BRANCH  62  75
ATOM     75  C   UNL A   1      45.800  27.834  28.395  1.00  0.00    -0.014 A 
ATOM     76  C   UNL A   1      47.084  27.697  27.839  1.00  0.00     0.009 A 
ATOM     77  C   UNL A   1      44.837  28.555  27.674  1.00  0.00     0.009 A 
ATOM     78  C   UNL A   1      47.401  28.295  26.615  1.00  0.00     0.001 A 
ATOM     79  C   UNL A   1      45.145  29.130  26.441  1.00  0.00     0.001 A 
ATOM     80  C   UNL A   1      46.429  29.008  25.915  1.00  0.00     0.000 A 
ENDBRANCH  62  75
ENDBRANCH  36  37
ENDBRANCH  29  31
ENDBRANCH  28  29
ENDBRANCH  27  28
ENDBRANCH  26  27
ENDBRANCH   1  26
TORSDOF 16
ENDMDL
MODEL 3
REMARK VINA RESULT:     -11.0      3.512      5.356
REMARK SMILES C/C(=N\NC(N)=S)c1nnn(-c2ccc(C(=O)OCCOC(=O)c3ccc(-c4c5nc(c(-c6ccccc6)c6ccc([nH]6)c(-c6ccccc6)c6nc(c(-c7ccccc7)c7ccc4[nH]7)C=C6)C=C5)cc3)cc2)c1C
REMARK SMILES IDX 18 1 16 2 17 3 15 4 12 5 13 6 73 7 14 8 72 9 11 10 8 11 9 12
REMARK SMILES IDX 74 13 10 14 75 15 2 16 1 17 3 18 4 19 5 21 7 22 6 23 19 26
REMARK SMILES IDX 20 27 21 28 22 29 23 30 24 31 25 32 71 33 26 34 70 35 27 36
REMARK SMILES IDX 28 37 29 38 64 39 30 40 69 41 63 42 65 43 31 44 68 45 62 46
REMARK SMILES IDX 61 47 32 49 54 50 39 51 53 52 40 53 43 54 52 55 66 56 41 57
REMARK SMILES IDX 42 58 51 60 67 61 44 62 33 63 34 64 38 65 35 66 37 67 36 68
REMARK SMILES IDX 55 69 56 70 60 71 57 72 59 73 58 74 45 75 46 76 50 77 47 78
REMARK SMILES IDX 49 79 48 80
REMARK H PARENT 4 20 6 24 6 25 65 48 43 59
REMARK Flexibility Score: inf
ROOT
ATOM      1  O   UNL A   1      33.599  35.264  28.491  1.00  0.00    -0.458 OA
ENDROOT
BRANCH   1   2
ATOM      2  C   UNL A   1      34.494  34.238  28.448  1.00  0.00     0.338 C 
ATOM      3  O   UNL A   1      35.666  34.289  28.741  1.00  0.00    -0.246 OA
BRANCH   2   4
ATOM      4  C   UNL A   1      33.799  32.989  28.036  1.00  0.00     0.060 A 
ATOM      5  C   UNL A   1      32.698  30.663  27.007  1.00  0.00     0.067 A 
ATOM      6  C   UNL A   1      33.899  30.582  27.715  1.00  0.00     0.029 A 
ATOM      7  C   UNL A   1      31.978  31.860  26.934  1.00  0.00     0.029 A 
ATOM      8  C   UNL A   1      34.461  31.761  28.210  1.00  0.00     0.018 A 
ATOM      9  C   UNL A   1      32.527  33.023  27.456  1.00  0.00     0.018 A 
BRANCH   5  10
ATOM     10  N   UNL A   1      32.311  29.593  26.177  1.00  0.00    -0.217 N 
ATOM     11  C   UNL A   1      31.436  27.753  25.424  1.00  0.00     0.132 A 
ATOM     12  N   UNL A   1      31.772  28.549  24.360  1.00  0.00    -0.128 NA
ATOM     13  C   UNL A   1      31.729  28.410  26.600  1.00  0.00     0.071 A 
ATOM     14  N   UNL A   1      32.224  29.703  24.834  1.00  0.00    -0.061 NA
ATOM     15  C   UNL A   1      31.363  28.100  28.004  1.00  0.00     0.069 C 
BRANCH  11  16
ATOM     16  C   UNL A   1      30.679  26.525  25.275  1.00  0.00     0.087 C 
ATOM     17  C   UNL A   1      30.182  26.215  23.886  1.00  0.00     0.071 C 
ATOM     18  N   UNL A   1      30.527  25.823  26.359  1.00  0.00    -0.176 NA
BRANCH  18  19
ATOM     19  N   UNL A   1      29.872  24.626  26.339  1.00  0.00    -0.254 N 
ATOM     20  H   UNL A   1      28.912  24.661  26.126  1.00  0.00     0.193 HD
BRANCH  19  21
ATOM     21  C   UNL A   1      30.397  23.372  26.580  1.00  0.00     0.184 C 
ATOM     22  S   UNL A   1      31.984  22.875  26.604  1.00  0.00    -0.040 S 
BRANCH  21  23
ATOM     23  N   UNL A   1      29.421  22.446  26.837  1.00  0.00    -0.375 N 
ATOM     24  H   UNL A   1      29.592  21.716  27.475  1.00  0.00     0.159 HD
ATOM     25  H   UNL A   1      28.549  22.512  26.384  1.00  0.00     0.159 HD
ENDBRANCH  21  23
ENDBRANCH  19  21
ENDBRANCH  18  19
ENDBRANCH  11  16
ENDBRANCH   5  10
ENDBRANCH   2   4
ENDBRANCH   1   2
BRANCH   1  26
ATOM     26  C   UNL A   1      32.794  35.341  29.675  1.00  0.00     0.275 C 
BRANCH  26  27
ATOM     27  C   UNL A   1      33.171  36.557  30.508  1.00  0.00     0.275 C 
BRANCH  27  28
ATOM     28  O   UNL A   1      33.896  36.197  31.684  1.00  0.00    -0.458 OA
BRANCH  28  29
ATOM     29  C   UNL A   1      33.562  35.000  32.216  1.00  0.00     0.338 C 
ATOM     30  O   UNL A   1      32.489  34.668  32.692  1.00  0.00    -0.246 OA
BRANCH  29  31
ATOM     31  C   UNL A   1      34.770  34.185  32.360  1.00  0.00     0.060 A 
ATOM     32  C   UNL A   1      35.985  34.846  32.568  1.00  0.00     0.016 A 
ATOM     33  C   UNL A   1      34.716  32.826  32.025  1.00  0.00     0.016 A 
ATOM     34  C   UNL A   1      37.159  34.161  32.321  1.00  0.00     0.010 A 
ATOM     35  C   UNL A   1      35.886  32.151  31.764  1.00  0.00     0.010 A 
ATOM     36  C   UNL A   1      37.093  32.838  31.862  1.00  0.00    -0.014 A 
BRANCH  36  37
ATOM     37  C   UNL A   1      38.336  32.130  31.629  1.00  0.00     0.031 A 
ATOM     38  C   UNL A   1      39.160  31.972  32.852  1.00  0.00     0.074 A 
ATOM     39  C   UNL A   1      38.639  31.538  30.459  1.00  0.00     0.049 A 
ATOM     40  N   UNL A   1      40.351  32.420  33.065  1.00  0.00    -0.248 NA
ATOM     41  C   UNL A   1      38.527  31.350  34.028  1.00  0.00     0.031 C 
ATOM     42  C   UNL A   1      37.779  31.364  29.286  1.00  0.00     0.029 A 
ATOM     43  N   UNL A   1      39.762  30.845  30.124  1.00  0.00    -0.354 N 
ATOM     44  C   UNL A   1      40.693  31.989  34.341  1.00  0.00     0.074 A 
ATOM     45  C   UNL A   1      39.488  31.477  34.941  1.00  0.00     0.031 C 
ATOM     46  C   UNL A   1      38.317  30.419  28.479  1.00  0.00     0.029 A 
ATOM     47  C   UNL A   1      39.610  30.024  29.016  1.00  0.00     0.049 A 
ATOM     48  H   UNL A   1      40.606  30.920  30.624  1.00  0.00     0.167 HD
ATOM     49  C   UNL A   1      41.994  31.858  34.717  1.00  0.00     0.031 A 
ATOM     50  C   UNL A   1      40.455  29.038  28.619  1.00  0.00     0.031 A 
ATOM     51  C   UNL A   1      42.875  32.601  33.854  1.00  0.00     0.049 A 
ATOM     52  C   UNL A   1      41.758  29.262  29.287  1.00  0.00     0.074 A 
ATOM     53  C   UNL A   1      42.997  33.931  33.505  1.00  0.00     0.029 A 
ATOM     54  N   UNL A   1      43.572  31.893  32.905  1.00  0.00    -0.354 N 
ATOM     55  N   UNL A   1      42.559  30.244  28.995  1.00  0.00    -0.248 NA
ATOM     56  C   UNL A   1      41.981  28.638  30.583  1.00  0.00     0.031 C 
ATOM     57  C   UNL A   1      43.346  33.917  32.123  1.00  0.00     0.029 A 
ATOM     58  C   UNL A   1      43.483  32.586  31.727  1.00  0.00     0.049 A 
ATOM     59  H   UNL A   1      44.048  31.043  33.045  1.00  0.00     0.167 HD
ATOM     60  C   UNL A   1      43.069  30.655  30.218  1.00  0.00     0.074 A 
ATOM     61  C   UNL A   1      42.767  29.564  31.141  1.00  0.00     0.031 C 
ATOM     62  C   UNL A   1      43.428  31.956  30.427  1.00  0.00     0.031 A 
BRANCH  49  63
ATOM     63  C   UNL A   1      42.483  30.711  35.569  1.00  0.00    -0.014 A 
ATOM     64  C   UNL A   1      43.343  30.997  36.645  1.00  0.00     0.009 A 
ATOM     65  C   UNL A   1      42.384  29.360  35.182  1.00  0.00     0.009 A 
ATOM     66  C   UNL A   1      44.136  30.001  37.227  1.00  0.00     0.001 A 
ATOM     67  C   UNL A   1      43.141  28.357  35.791  1.00  0.00     0.001 A 
ATOM     68  C   UNL A   1      44.044  28.684  36.790  1.00  0.00     0.000 A 
ENDBRANCH  49  63
BRANCH  50  69
ATOM     69  C   UNL A   1      40.153  27.773  27.917  1.00  0.00    -0.014 A 
ATOM     70  C   UNL A   1      40.787  27.461  26.703  1.00  0.00     0.009 A 
ATOM     71  C   UNL A   1      39.453  26.744  28.572  1.00  0.00     0.009 A 
ATOM     72  C   UNL A   1      40.758  26.158  26.188  1.00  0.00     0.001 A 
ATOM     73  C   UNL A   1      39.419  25.444  28.056  1.00  0.00     0.001 A 
ATOM     74  C   UNL A   1      40.086  25.147  26.872  1.00  0.00     0.000 A 
ENDBRANCH  50  69
BRANCH  62  75
ATOM     75  C   UNL A   1      43.519  32.873  29.233  1.00  0.00    -0.014 A 
ATOM     76  C   UNL A   1      42.718  34.016  29.071  1.00  0.00     0.009 A 
ATOM     77  C   UNL A   1      44.552  32.649  28.310  1.00  0.00     0.009 A 
ATOM     78  C   UNL A   1      42.923  34.888  27.996  1.00  0.00     0.001 A 
ATOM     79  C   UNL A   1      44.774  33.531  27.252  1.00  0.00     0.001 A 
ATOM     80  C   UNL A   1      43.955  34.646  27.090  1.00  0.00     0.000 A 
ENDBRANCH  62  75
ENDBRANCH  36  37
ENDBRANCH  29  31
ENDBRANCH  28  29
ENDBRANCH  27  28
ENDBRANCH  26  27
ENDBRANCH   1  26
TORSDOF 16
ENDMDL
