MODEL 1
REMARK VINA RESULT:     -11.0      0.000      0.000
REMARK SMILES C[C@@H](Sc1nc(-c2ccc3c(c2)OCO3)ccc1C#N)C(=O)OCCOC(=O)c1ccc(-c2c3nc(c(-c4ccccc4)c4ccc([nH]4)c(-c4ccccc4)c4nc(c(-c5ccccc5)c5ccc2[nH]5)C=C4)C=C3)cc1
REMARK SMILES IDX 24 1 23 2 21 3 22 4 2 5 1 6 3 7 4 8 5 9 18 10 6 11 17 12
REMARK SMILES IDX 16 13 19 14 20 15 7 16 8 17 12 18 9 19 11 20 10 21 13 22
REMARK SMILES IDX 15 23 14 24 25 25 26 26 27 27 28 28 29 29 30 30 76 31 31 32
REMARK SMILES IDX 75 33 32 34 33 35 34 36 69 37 35 38 74 39 68 40 70 41 36 42
REMARK SMILES IDX 73 43 67 44 66 45 37 47 59 48 44 49 58 50 45 51 48 52 57 53
REMARK SMILES IDX 71 54 46 55 47 56 56 58 72 59 49 60 38 61 39 62 43 63 40 64
REMARK SMILES IDX 42 65 41 66 60 67 61 68 65 69 62 70 64 71 63 72 50 73 51 74
REMARK SMILES IDX 55 75 52 76 54 77 53 78
REMARK H PARENT 70 46 48 57
REMARK Flexibility Score: inf
ROOT
ATOM      1  C   UNL A   1      32.209  31.069  26.685  1.00  0.00     0.274 C 
ENDROOT
BRANCH   1   2
ATOM      2  O   UNL A   1      33.533  30.728  27.140  1.00  0.00    -0.461 OA
BRANCH   2   3
ATOM      3  C   UNL A   1      34.019  29.533  26.713  1.00  0.00     0.319 C 
ATOM      4  O   UNL A   1      35.037  29.003  27.151  1.00  0.00    -0.251 OA
BRANCH   3   5
ATOM      5  C   UNL A   1      33.170  28.890  25.622  1.00  0.00     0.160 C 
ATOM      6  C   UNL A   1      33.921  28.630  24.322  1.00  0.00     0.032 C 
BRANCH   5   7
ATOM      7  S   UNL A   1      32.380  27.403  26.332  1.00  0.00    -0.090 SA
BRANCH   7   8
ATOM      8  C   UNL A   1      31.026  27.230  25.192  1.00  0.00     0.115 A 
ATOM      9  N   UNL A   1      30.627  28.407  24.655  1.00  0.00    -0.240 NA
ATOM     10  C   UNL A   1      30.439  26.017  24.842  1.00  0.00     0.084 A 
ATOM     11  C   UNL A   1      29.628  28.411  23.743  1.00  0.00     0.072 A 
ATOM     12  C   UNL A   1      29.434  26.027  23.869  1.00  0.00     0.024 A 
ATOM     13  C   UNL A   1      29.026  27.236  23.310  1.00  0.00     0.030 A 
BRANCH  10  14
ATOM     14  C   UNL A   1      30.795  24.776  25.460  1.00  0.00     0.102 C 
ATOM     15  N   UNL A   1      31.080  23.803  26.019  1.00  0.00    -0.192 NA
ENDBRANCH  10  14
BRANCH  11  16
ATOM     16  C   UNL A   1      29.239  29.737  23.250  1.00  0.00     0.004 A 
ATOM     17  C   UNL A   1      29.426  30.902  24.039  1.00  0.00     0.014 A 
ATOM     18  C   UNL A   1      28.688  29.877  21.962  1.00  0.00     0.061 A 
ATOM     19  C   UNL A   1      29.057  32.169  23.571  1.00  0.00     0.051 A 
ATOM     20  C   UNL A   1      28.319  31.133  21.532  1.00  0.00     0.166 A 
ATOM     21  C   UNL A   1      28.496  32.247  22.316  1.00  0.00     0.165 A 
ATOM     22  O   UNL A   1      27.750  31.426  20.333  1.00  0.00    -0.454 OA
ATOM     23  O   UNL A   1      28.061  33.383  21.709  1.00  0.00    -0.454 OA
ATOM     24  C   UNL A   1      27.548  32.847  20.470  1.00  0.00     0.468 C 
ENDBRANCH  11  16
ENDBRANCH   7   8
ENDBRANCH   5   7
ENDBRANCH   3   5
ENDBRANCH   2   3
ENDBRANCH   1   2
BRANCH   1  25
ATOM     25  C   UNL A   1      31.742  32.402  27.277  1.00  0.00     0.275 C 
BRANCH  25  26
ATOM     26  O   UNL A   1      32.730  33.437  27.101  1.00  0.00    -0.458 OA
BRANCH  26  27
ATOM     27  C   UNL A   1      33.089  34.088  28.232  1.00  0.00     0.338 C 
ATOM     28  O   UNL A   1      32.446  34.918  28.849  1.00  0.00    -0.246 OA
BRANCH  27  29
ATOM     29  C   UNL A   1      34.380  33.576  28.711  1.00  0.00     0.060 A 
ATOM     30  C   UNL A   1      35.523  33.818  27.948  1.00  0.00     0.016 A 
ATOM     31  C   UNL A   1      34.447  32.781  29.852  1.00  0.00     0.016 A 
ATOM     32  C   UNL A   1      36.746  33.272  28.319  1.00  0.00     0.010 A 
ATOM     33  C   UNL A   1      35.684  32.263  30.248  1.00  0.00     0.010 A 
ATOM     34  C   UNL A   1      36.842  32.510  29.488  1.00  0.00    -0.014 A 
BRANCH  34  35
ATOM     35  C   UNL A   1      38.164  32.026  29.949  1.00  0.00     0.031 A 
ATOM     36  C   UNL A   1      38.725  30.732  29.437  1.00  0.00     0.074 A 
ATOM     37  C   UNL A   1      38.840  32.749  30.863  1.00  0.00     0.049 A 
ATOM     38  N   UNL A   1      39.791  30.084  29.833  1.00  0.00    -0.248 NA
ATOM     39  C   UNL A   1      37.993  30.074  28.342  1.00  0.00     0.031 C 
ATOM     40  C   UNL A   1      38.414  34.044  31.403  1.00  0.00     0.029 A 
ATOM     41  N   UNL A   1      40.019  32.491  31.516  1.00  0.00    -0.354 N 
ATOM     42  C   UNL A   1      39.843  28.931  29.060  1.00  0.00     0.074 A 
ATOM     43  C   UNL A   1      38.698  28.963  28.175  1.00  0.00     0.031 C 
ATOM     44  C   UNL A   1      39.313  34.461  32.306  1.00  0.00     0.029 A 
ATOM     45  C   UNL A   1      40.336  33.435  32.463  1.00  0.00     0.049 A 
ATOM     46  H   UNL A   1      40.583  31.707  31.324  1.00  0.00     0.167 HD
ATOM     47  C   UNL A   1      40.761  27.937  29.098  1.00  0.00     0.031 A 
ATOM     48  C   UNL A   1      41.310  33.449  33.393  1.00  0.00     0.031 A 
ATOM     49  C   UNL A   1      41.896  27.920  29.984  1.00  0.00     0.049 A 
ATOM     50  C   UNL A   1      42.260  32.286  33.465  1.00  0.00     0.074 A 
ATOM     51  C   UNL A   1      42.905  26.975  30.068  1.00  0.00     0.029 A 
ATOM     52  N   UNL A   1      42.167  28.880  30.946  1.00  0.00    -0.354 N 
ATOM     53  N   UNL A   1      42.326  31.224  32.699  1.00  0.00    -0.248 NA
ATOM     54  C   UNL A   1      43.269  32.322  34.532  1.00  0.00     0.031 C 
ATOM     55  C   UNL A   1      43.739  27.321  31.134  1.00  0.00     0.029 A 
ATOM     56  C   UNL A   1      43.297  28.522  31.663  1.00  0.00     0.049 A 
ATOM     57  H   UNL A   1      41.636  29.694  31.097  1.00  0.00     0.167 HD
ATOM     58  C   UNL A   1      43.393  30.478  33.179  1.00  0.00     0.074 A 
ATOM     59  C   UNL A   1      43.966  31.224  34.279  1.00  0.00     0.031 C 
ATOM     60  C   UNL A   1      43.854  29.277  32.755  1.00  0.00     0.031 A 
BRANCH  47  61
ATOM     61  C   UNL A   1      40.567  26.754  28.192  1.00  0.00    -0.014 A 
ATOM     62  C   UNL A   1      39.767  25.664  28.565  1.00  0.00     0.009 A 
ATOM     63  C   UNL A   1      41.117  26.782  26.900  1.00  0.00     0.009 A 
ATOM     64  C   UNL A   1      39.533  24.620  27.665  1.00  0.00     0.001 A 
ATOM     65  C   UNL A   1      40.858  25.752  25.994  1.00  0.00     0.001 A 
ATOM     66  C   UNL A   1      40.070  24.670  26.378  1.00  0.00     0.000 A 
ENDBRANCH  47  61
BRANCH  48  67
ATOM     67  C   UNL A   1      41.393  34.557  34.384  1.00  0.00    -0.014 A 
ATOM     68  C   UNL A   1      42.148  35.709  34.114  1.00  0.00     0.009 A 
ATOM     69  C   UNL A   1      40.758  34.444  35.631  1.00  0.00     0.009 A 
ATOM     70  C   UNL A   1      42.302  36.699  35.088  1.00  0.00     0.001 A 
ATOM     71  C   UNL A   1      40.879  35.454  36.587  1.00  0.00     0.001 A 
ATOM     72  C   UNL A   1      41.666  36.571  36.321  1.00  0.00     0.000 A 
ENDBRANCH  48  67
BRANCH  60  73
ATOM     73  C   UNL A   1      45.051  28.709  33.465  1.00  0.00    -0.014 A 
ATOM     74  C   UNL A   1      46.357  29.034  33.066  1.00  0.00     0.009 A 
ATOM     75  C   UNL A   1      44.868  27.873  34.577  1.00  0.00     0.009 A 
ATOM     76  C   UNL A   1      47.454  28.507  33.747  1.00  0.00     0.001 A 
ATOM     77  C   UNL A   1      45.967  27.377  35.279  1.00  0.00     0.001 A 
ATOM     78  C   UNL A   1      47.260  27.686  34.857  1.00  0.00     0.000 A 
ENDBRANCH  60  73
ENDBRANCH  34  35
ENDBRANCH  27  29
ENDBRANCH  26  27
ENDBRANCH  25  26
ENDBRANCH   1  25
TORSDOF 15
ENDMDL
MODEL 2
REMARK VINA RESULT:     -10.8      5.430     10.277
REMARK SMILES C[C@@H](Sc1nc(-c2ccc3c(c2)OCO3)ccc1C#N)C(=O)OCCOC(=O)c1ccc(-c2c3nc(c(-c4ccccc4)c4ccc([nH]4)c(-c4ccccc4)c4nc(c(-c5ccccc5)c5ccc2[nH]5)C=C4)C=C3)cc1
REMARK SMILES IDX 24 1 23 2 21 3 22 4 2 5 1 6 3 7 4 8 5 9 18 10 6 11 17 12
REMARK SMILES IDX 16 13 19 14 20 15 7 16 8 17 12 18 9 19 11 20 10 21 13 22
REMARK SMILES IDX 15 23 14 24 25 25 26 26 27 27 28 28 29 29 30 30 76 31 31 32
REMARK SMILES IDX 75 33 32 34 33 35 34 36 69 37 35 38 74 39 68 40 70 41 36 42
REMARK SMILES IDX 73 43 67 44 66 45 37 47 59 48 44 49 58 50 45 51 48 52 57 53
REMARK SMILES IDX 71 54 46 55 47 56 56 58 72 59 49 60 38 61 39 62 43 63 40 64
REMARK SMILES IDX 42 65 41 66 60 67 61 68 65 69 62 70 64 71 63 72 50 73 51 74
REMARK SMILES IDX 55 75 52 76 54 77 53 78
REMARK H PARENT 70 46 48 57
REMARK Flexibility Score: inf
ROOT
ATOM      1  C   UNL A   1      39.216  21.454  25.991  1.00  0.00     0.274 C 
ENDROOT
BRANCH   1   2
ATOM      2  O   UNL A   1      38.076  21.922  25.245  1.00  0.00    -0.461 OA
BRANCH   2   3
ATOM      3  C   UNL A   1      37.616  23.158  25.575  1.00  0.00     0.319 C 
ATOM      4  O   UNL A   1      38.146  23.898  26.399  1.00  0.00    -0.251 OA
BRANCH   3   5
ATOM      5  C   UNL A   1      36.358  23.557  24.811  1.00  0.00     0.160 C 
ATOM      6  C   UNL A   1      36.212  22.875  23.455  1.00  0.00     0.032 C 
BRANCH   5   7
ATOM      7  S   UNL A   1      34.927  23.311  25.921  1.00  0.00    -0.090 SA
BRANCH   7   8
ATOM      8  C   UNL A   1      33.900  22.333  24.848  1.00  0.00     0.115 A 
ATOM      9  N   UNL A   1      34.040  21.001  25.046  1.00  0.00    -0.240 NA
ATOM     10  C   UNL A   1      33.009  22.857  23.916  1.00  0.00     0.084 A 
ATOM     11  C   UNL A   1      33.287  20.144  24.318  1.00  0.00     0.072 A 
ATOM     12  C   UNL A   1      32.207  21.964  23.197  1.00  0.00     0.024 A 
ATOM     13  C   UNL A   1      32.344  20.593  23.402  1.00  0.00     0.030 A 
BRANCH  10  14
ATOM     14  C   UNL A   1      32.910  24.257  23.640  1.00  0.00     0.102 C 
ATOM     15  N   UNL A   1      32.895  25.393  23.413  1.00  0.00    -0.192 NA
ENDBRANCH  10  14
BRANCH  11  16
ATOM     16  C   UNL A   1      33.539  18.721  24.573  1.00  0.00     0.004 A 
ATOM     17  C   UNL A   1      34.824  18.151  24.372  1.00  0.00     0.014 A 
ATOM     18  C   UNL A   1      32.503  17.895  25.049  1.00  0.00     0.061 A 
ATOM     19  C   UNL A   1      35.068  16.795  24.615  1.00  0.00     0.051 A 
ATOM     20  C   UNL A   1      32.766  16.560  25.266  1.00  0.00     0.166 A 
ATOM     21  C   UNL A   1      34.013  16.025  25.052  1.00  0.00     0.165 A 
ATOM     22  O   UNL A   1      31.868  15.634  25.693  1.00  0.00    -0.454 OA
ATOM     23  O   UNL A   1      34.058  14.693  25.320  1.00  0.00    -0.454 OA
ATOM     24  C   UNL A   1      32.682  14.444  25.681  1.00  0.00     0.468 C 
ENDBRANCH  11  16
ENDBRANCH   7   8
ENDBRANCH   5   7
ENDBRANCH   3   5
ENDBRANCH   2   3
ENDBRANCH   1   2
BRANCH   1  25
ATOM     25  C   UNL A   1      39.602  20.029  25.584  1.00  0.00     0.275 C 
BRANCH  25  26
ATOM     26  O   UNL A   1      40.711  19.536  26.359  1.00  0.00    -0.458 OA
BRANCH  26  27
ATOM     27  C   UNL A   1      41.932  19.946  25.944  1.00  0.00     0.338 C 
ATOM     28  O   UNL A   1      42.660  19.410  25.127  1.00  0.00    -0.246 OA
BRANCH  27  29
ATOM     29  C   UNL A   1      42.255  21.242  26.555  1.00  0.00     0.060 A 
ATOM     30  C   UNL A   1      42.712  22.275  25.736  1.00  0.00     0.016 A 
ATOM     31  C   UNL A   1      42.201  21.407  27.936  1.00  0.00     0.016 A 
ATOM     32  C   UNL A   1      43.116  23.485  26.288  1.00  0.00     0.010 A 
ATOM     33  C   UNL A   1      42.571  22.636  28.490  1.00  0.00     0.010 A 
ATOM     34  C   UNL A   1      43.026  23.685  27.670  1.00  0.00    -0.014 A 
BRANCH  34  35
ATOM     35  C   UNL A   1      43.343  25.011  28.248  1.00  0.00     0.031 A 
ATOM     36  C   UNL A   1      42.256  26.015  28.500  1.00  0.00     0.074 A 
ATOM     37  C   UNL A   1      44.629  25.316  28.512  1.00  0.00     0.049 A 
ATOM     38  N   UNL A   1      42.362  27.267  28.863  1.00  0.00    -0.248 NA
ATOM     39  C   UNL A   1      40.870  25.556  28.317  1.00  0.00     0.031 C 
ATOM     40  C   UNL A   1      45.767  24.406  28.347  1.00  0.00     0.029 A 
ATOM     41  N   UNL A   1      45.200  26.482  28.956  1.00  0.00    -0.354 N 
ATOM     42  C   UNL A   1      41.064  27.756  28.923  1.00  0.00     0.074 A 
ATOM     43  C   UNL A   1      40.184  26.668  28.553  1.00  0.00     0.031 C 
ATOM     44  C   UNL A   1      46.896  25.049  28.678  1.00  0.00     0.029 A 
ATOM     45  C   UNL A   1      46.573  26.432  29.007  1.00  0.00     0.049 A 
ATOM     46  H   UNL A   1      44.678  27.277  29.213  1.00  0.00     0.167 HD
ATOM     47  C   UNL A   1      40.652  29.004  29.248  1.00  0.00     0.031 A 
ATOM     48  C   UNL A   1      47.476  27.404  29.238  1.00  0.00     0.031 A 
ATOM     49  C   UNL A   1      41.539  30.077  29.615  1.00  0.00     0.049 A 
ATOM     50  C   UNL A   1      46.985  28.799  29.510  1.00  0.00     0.074 A 
ATOM     51  C   UNL A   1      41.213  31.367  30.001  1.00  0.00     0.029 A 
ATOM     52  N   UNL A   1      42.922  29.994  29.629  1.00  0.00    -0.354 N 
ATOM     53  N   UNL A   1      45.754  29.238  29.607  1.00  0.00    -0.248 NA
ATOM     54  C   UNL A   1      48.010  29.834  29.700  1.00  0.00     0.031 C 
ATOM     55  C   UNL A   1      42.398  32.085  30.168  1.00  0.00     0.029 A 
ATOM     56  C   UNL A   1      43.464  31.224  29.964  1.00  0.00     0.049 A 
ATOM     57  H   UNL A   1      43.442  29.183  29.429  1.00  0.00     0.167 HD
ATOM     58  C   UNL A   1      45.858  30.593  29.890  1.00  0.00     0.074 A 
ATOM     59  C   UNL A   1      47.270  30.896  29.981  1.00  0.00     0.031 C 
ATOM     60  C   UNL A   1      44.872  31.508  30.051  1.00  0.00     0.031 A 
BRANCH  47  61
ATOM     61  C   UNL A   1      39.181  29.307  29.183  1.00  0.00    -0.014 A 
ATOM     62  C   UNL A   1      38.566  29.724  27.994  1.00  0.00     0.009 A 
ATOM     63  C   UNL A   1      38.382  29.071  30.315  1.00  0.00     0.009 A 
ATOM     64  C   UNL A   1      37.182  29.912  27.944  1.00  0.00     0.001 A 
ATOM     65  C   UNL A   1      36.997  29.232  30.253  1.00  0.00     0.001 A 
ATOM     66  C   UNL A   1      36.398  29.656  29.069  1.00  0.00     0.000 A 
ENDBRANCH  47  61
BRANCH  48  67
ATOM     67  C   UNL A   1      48.934  27.118  29.145  1.00  0.00    -0.014 A 
ATOM     68  C   UNL A   1      49.605  27.189  27.915  1.00  0.00     0.009 A 
ATOM     69  C   UNL A   1      49.654  26.721  30.283  1.00  0.00     0.009 A 
ATOM     70  C   UNL A   1      50.949  26.822  27.819  1.00  0.00     0.001 A 
ATOM     71  C   UNL A   1      51.009  26.396  30.194  1.00  0.00     0.001 A 
ATOM     72  C   UNL A   1      51.650  26.430  28.958  1.00  0.00     0.000 A 
ENDBRANCH  48  67
BRANCH  60  73
ATOM     73  C   UNL A   1      45.288  32.918  30.368  1.00  0.00    -0.014 A 
ATOM     74  C   UNL A   1      45.500  33.861  29.351  1.00  0.00     0.009 A 
ATOM     75  C   UNL A   1      45.424  33.318  31.707  1.00  0.00     0.009 A 
ATOM     76  C   UNL A   1      45.872  35.168  29.668  1.00  0.00     0.001 A 
ATOM     77  C   UNL A   1      45.761  34.636  32.021  1.00  0.00     0.001 A 
ATOM     78  C   UNL A   1      45.994  35.557  31.001  1.00  0.00     0.000 A 
ENDBRANCH  60  73
ENDBRANCH  34  35
ENDBRANCH  27  29
ENDBRANCH  26  27
ENDBRANCH  25  26
ENDBRANCH   1  25
TORSDOF 15
ENDMDL
MODEL 3
REMARK VINA RESULT:     -10.6      4.083      8.709
REMARK SMILES C[C@@H](Sc1nc(-c2ccc3c(c2)OCO3)ccc1C#N)C(=O)OCCOC(=O)c1ccc(-c2c3nc(c(-c4ccccc4)c4ccc([nH]4)c(-c4ccccc4)c4nc(c(-c5ccccc5)c5ccc2[nH]5)C=C4)C=C3)cc1
REMARK SMILES IDX 24 1 23 2 21 3 22 4 2 5 1 6 3 7 4 8 5 9 18 10 6 11 17 12
REMARK SMILES IDX 16 13 19 14 20 15 7 16 8 17 12 18 9 19 11 20 10 21 13 22
REMARK SMILES IDX 15 23 14 24 25 25 26 26 27 27 28 28 29 29 30 30 76 31 31 32
REMARK SMILES IDX 75 33 32 34 33 35 34 36 69 37 35 38 74 39 68 40 70 41 36 42
REMARK SMILES IDX 73 43 67 44 66 45 37 47 59 48 44 49 58 50 45 51 48 52 57 53
REMARK SMILES IDX 71 54 46 55 47 56 56 58 72 59 49 60 38 61 39 62 43 63 40 64
REMARK SMILES IDX 42 65 41 66 60 67 61 68 65 69 62 70 64 71 63 72 50 73 51 74
REMARK SMILES IDX 55 75 52 76 54 77 53 78
REMARK H PARENT 70 46 48 57
REMARK Flexibility Score: inf
ROOT
ATOM      1  C   UNL A   1      35.590  23.256  24.572  1.00  0.00     0.274 C 
ENDROOT
BRANCH   1   2
ATOM      2  O   UNL A   1      35.042  24.361  23.828  1.00  0.00    -0.461 OA
BRANCH   2   3
ATOM      3  C   UNL A   1      34.014  24.063  22.990  1.00  0.00     0.319 C 
ATOM      4  O   UNL A   1      34.081  23.251  22.072  1.00  0.00    -0.251 OA
BRANCH   3   5
ATOM      5  C   UNL A   1      32.739  24.841  23.299  1.00  0.00     0.160 C 
ATOM      6  C   UNL A   1      32.387  25.896  22.257  1.00  0.00     0.032 C 
BRANCH   5   7
ATOM      7  S   UNL A   1      31.406  23.630  23.607  1.00  0.00    -0.090 SA
BRANCH   7   8
ATOM      8  C   UNL A   1      32.089  22.811  25.030  1.00  0.00     0.115 A 
ATOM      9  N   UNL A   1      32.454  21.531  24.785  1.00  0.00    -0.240 NA
ATOM     10  C   UNL A   1      32.274  23.412  26.272  1.00  0.00     0.084 A 
ATOM     11  C   UNL A   1      33.023  20.806  25.775  1.00  0.00     0.072 A 
ATOM     12  C   UNL A   1      32.899  22.667  27.278  1.00  0.00     0.024 A 
ATOM     13  C   UNL A   1      33.282  21.352  27.027  1.00  0.00     0.030 A 
BRANCH  10  14
ATOM     14  C   UNL A   1      31.820  24.736  26.569  1.00  0.00     0.102 C 
ATOM     15  N   UNL A   1      31.443  25.818  26.744  1.00  0.00    -0.192 NA
ENDBRANCH  10  14
BRANCH  11  16
ATOM     16  C   UNL A   1      33.345  19.418  25.427  1.00  0.00     0.004 A 
ATOM     17  C   UNL A   1      34.446  19.104  24.588  1.00  0.00     0.014 A 
ATOM     18  C   UNL A   1      32.570  18.363  25.946  1.00  0.00     0.061 A 
ATOM     19  C   UNL A   1      34.756  17.780  24.255  1.00  0.00     0.051 A 
ATOM     20  C   UNL A   1      32.888  17.070  25.590  1.00  0.00     0.166 A 
ATOM     21  C   UNL A   1      33.950  16.787  24.766  1.00  0.00     0.165 A 
ATOM     22  O   UNL A   1      32.222  15.953  25.982  1.00  0.00    -0.454 OA
ATOM     23  O   UNL A   1      34.087  15.455  24.535  1.00  0.00    -0.454 OA
ATOM     24  C   UNL A   1      32.959  14.936  25.273  1.00  0.00     0.468 C 
ENDBRANCH  11  16
ENDBRANCH   7   8
ENDBRANCH   5   7
ENDBRANCH   3   5
ENDBRANCH   2   3
ENDBRANCH   1   2
BRANCH   1  25
ATOM     25  C   UNL A   1      37.102  23.404  24.758  1.00  0.00     0.275 C 
BRANCH  25  26
ATOM     26  O   UNL A   1      37.522  22.976  26.068  1.00  0.00    -0.458 OA
BRANCH  26  27
ATOM     27  C   UNL A   1      38.860  22.955  26.266  1.00  0.00     0.338 C 
ATOM     28  O   UNL A   1      39.646  22.081  25.945  1.00  0.00    -0.246 OA
BRANCH  27  29
ATOM     29  C   UNL A   1      39.296  24.225  26.861  1.00  0.00     0.060 A 
ATOM     30  C   UNL A   1      38.851  24.553  28.142  1.00  0.00     0.016 A 
ATOM     31  C   UNL A   1      40.057  25.128  26.124  1.00  0.00     0.016 A 
ATOM     32  C   UNL A   1      39.165  25.786  28.701  1.00  0.00     0.010 A 
ATOM     33  C   UNL A   1      40.406  26.353  26.700  1.00  0.00     0.010 A 
ATOM     34  C   UNL A   1      39.968  26.688  27.994  1.00  0.00    -0.014 A 
BRANCH  34  35
ATOM     35  C   UNL A   1      40.402  27.952  28.634  1.00  0.00     0.031 A 
ATOM     36  C   UNL A   1      41.770  28.071  29.238  1.00  0.00     0.074 A 
ATOM     37  C   UNL A   1      39.535  28.981  28.697  1.00  0.00     0.049 A 
ATOM     38  N   UNL A   1      42.268  29.042  29.960  1.00  0.00    -0.248 NA
ATOM     39  C   UNL A   1      42.701  26.955  29.006  1.00  0.00     0.031 C 
ATOM     40  C   UNL A   1      38.192  28.995  28.108  1.00  0.00     0.029 A 
ATOM     41  N   UNL A   1      39.644  30.208  29.302  1.00  0.00    -0.354 N 
ATOM     42  C   UNL A   1      43.555  28.645  30.295  1.00  0.00     0.074 A 
ATOM     43  C   UNL A   1      43.763  27.340  29.702  1.00  0.00     0.031 C 
ATOM     44  C   UNL A   1      37.603  30.168  28.387  1.00  0.00     0.029 A 
ATOM     45  C   UNL A   1      38.492  30.956  29.231  1.00  0.00     0.049 A 
ATOM     46  H   UNL A   1      40.467  30.523  29.742  1.00  0.00     0.167 HD
ATOM     47  C   UNL A   1      44.472  29.308  31.038  1.00  0.00     0.031 A 
ATOM     48  C   UNL A   1      38.167  32.120  29.824  1.00  0.00     0.031 A 
ATOM     49  C   UNL A   1      44.251  30.606  31.621  1.00  0.00     0.049 A 
ATOM     50  C   UNL A   1      39.179  32.787  30.714  1.00  0.00     0.074 A 
ATOM     51  C   UNL A   1      45.135  31.379  32.357  1.00  0.00     0.029 A 
ATOM     52  N   UNL A   1      43.064  31.317  31.549  1.00  0.00    -0.354 N 
ATOM     53  N   UNL A   1      40.408  32.423  30.986  1.00  0.00    -0.248 NA
ATOM     54  C   UNL A   1      38.756  34.026  31.382  1.00  0.00     0.031 C 
ATOM     55  C   UNL A   1      44.457  32.517  32.798  1.00  0.00     0.029 A 
ATOM     56  C   UNL A   1      43.175  32.493  32.272  1.00  0.00     0.049 A 
ATOM     57  H   UNL A   1      42.261  31.029  31.059  1.00  0.00     0.167 HD
ATOM     58  C   UNL A   1      40.910  33.397  31.838  1.00  0.00     0.074 A 
ATOM     59  C   UNL A   1      39.865  34.383  32.012  1.00  0.00     0.031 C 
ATOM     60  C   UNL A   1      42.125  33.465  32.433  1.00  0.00     0.031 A 
BRANCH  47  61
ATOM     61  C   UNL A   1      45.788  28.637  31.311  1.00  0.00    -0.014 A 
ATOM     62  C   UNL A   1      45.961  27.768  32.398  1.00  0.00     0.009 A 
ATOM     63  C   UNL A   1      46.845  28.803  30.400  1.00  0.00     0.009 A 
ATOM     64  C   UNL A   1      47.170  27.090  32.574  1.00  0.00     0.001 A 
ATOM     65  C   UNL A   1      48.041  28.103  30.562  1.00  0.00     0.001 A 
ATOM     66  C   UNL A   1      48.205  27.249  31.651  1.00  0.00     0.000 A 
ENDBRANCH  47  61
BRANCH  48  67
ATOM     67  C   UNL A   1      36.802  32.693  29.666  1.00  0.00    -0.014 A 
ATOM     68  C   UNL A   1      36.489  33.517  28.574  1.00  0.00     0.009 A 
ATOM     69  C   UNL A   1      35.817  32.460  30.638  1.00  0.00     0.009 A 
ATOM     70  C   UNL A   1      35.237  34.131  28.486  1.00  0.00     0.001 A 
ATOM     71  C   UNL A   1      34.552  33.041  30.527  1.00  0.00     0.001 A 
ATOM     72  C   UNL A   1      34.270  33.890  29.460  1.00  0.00     0.000 A 
ENDBRANCH  48  67
BRANCH  60  73
ATOM     73  C   UNL A   1      42.398  34.659  33.305  1.00  0.00    -0.014 A 
ATOM     74  C   UNL A   1      42.127  34.633  34.682  1.00  0.00     0.009 A 
ATOM     75  C   UNL A   1      42.977  35.810  32.748  1.00  0.00     0.009 A 
ATOM     76  C   UNL A   1      42.400  35.747  35.476  1.00  0.00     0.001 A 
ATOM     77  C   UNL A   1      43.283  36.909  33.551  1.00  0.00     0.001 A 
ATOM     78  C   UNL A   1      42.985  36.880  34.913  1.00  0.00     0.000 A 
ENDBRANCH  60  73
ENDBRANCH  34  35
ENDBRANCH  27  29
ENDBRANCH  26  27
ENDBRANCH  25  26
ENDBRANCH   1  25
TORSDOF 15
ENDMDL
