MODEL 1
REMARK VINA RESULT:      -9.9      0.000      0.000
REMARK SMILES CC[C@@H](C)CN(CC)S(=O)(=O)c1cc(C(=O)OCCOC(=O)c2ccc(-c3c4nc(c(-c5ccccc5)c5ccc([nH]5)c(-c5ccccc5)c5nc(c(-c6ccccc6)c6ccc3[nH]6)C=C5)C=C4)cc2)n(C)c1
REMARK SMILES IDX 17 1 15 2 16 3 14 4 12 5 13 6 73 7 71 8 72 9 9 10 10 11
REMARK SMILES IDX 11 12 6 13 5 14 3 15 4 16 2 17 1 18 7 19 8 20 18 21 19 22
REMARK SMILES IDX 20 23 21 24 22 25 23 26 24 27 70 28 25 29 69 30 26 31 27 32
REMARK SMILES IDX 28 33 63 34 29 35 68 36 62 37 64 38 30 39 67 40 61 41 60 42
REMARK SMILES IDX 31 44 53 45 38 46 52 47 39 48 42 49 51 50 65 51 40 52 41 53
REMARK SMILES IDX 50 55 66 56 43 57 32 58 33 59 37 60 34 61 36 62 35 63 54 64
REMARK SMILES IDX 55 65 59 66 56 67 58 68 57 69 44 70 45 71 49 72 46 73 48 74
REMARK SMILES IDX 47 75
REMARK H PARENT 64 43 42 54
REMARK Flexibility Score: inf
ROOT
ATOM      1  O   UNL A   1      34.652  22.220  24.749  1.00  0.00    -0.457 OA
ENDROOT
BRANCH   1   2
ATOM      2  C   UNL A   1      33.614  22.668  23.996  1.00  0.00     0.355 C 
ATOM      3  O   UNL A   1      33.272  22.179  22.923  1.00  0.00    -0.244 OA
BRANCH   2   4
ATOM      4  C   UNL A   1      32.874  23.707  24.689  1.00  0.00     0.128 A 
ATOM      5  C   UNL A   1      32.296  25.753  25.537  1.00  0.00     0.101 A 
ATOM      6  C   UNL A   1      33.298  25.028  24.852  1.00  0.00     0.057 A 
ATOM      7  C   UNL A   1      31.275  24.859  25.793  1.00  0.00     0.107 A 
ATOM      8  N   UNL A   1      31.672  23.610  25.368  1.00  0.00    -0.344 N 
ATOM      9  C   UNL A   1      31.004  22.403  25.812  1.00  0.00     0.150 C 
BRANCH   5  10
ATOM     10  S   UNL A   1      32.419  27.378  26.143  1.00  0.00     0.244 S 
ATOM     11  O   UNL A   1      33.812  27.489  26.542  1.00  0.00    -0.207 OA
ATOM     12  O   UNL A   1      31.368  27.409  27.124  1.00  0.00    -0.207 OA
BRANCH  10  13
ATOM     13  N   UNL A   1      32.115  28.569  24.933  1.00  0.00    -0.198 NA
BRANCH  13  14
ATOM     14  C   UNL A   1      31.406  28.057  23.696  1.00  0.00     0.105 C 
BRANCH  14  15
ATOM     15  C   UNL A   1      29.886  28.301  23.582  1.00  0.00     0.001 C 
ATOM     16  C   UNL A   1      29.201  26.921  23.555  1.00  0.00     0.009 C 
BRANCH  15  17
ATOM     17  C   UNL A   1      29.525  29.126  22.332  1.00  0.00     0.001 C 
ATOM     18  C   UNL A   1      29.144  30.582  22.543  1.00  0.00     0.004 C 
ENDBRANCH  15  17
ENDBRANCH  14  15
ENDBRANCH  13  14
BRANCH  13  19
ATOM     19  C   UNL A   1      31.406  29.800  25.431  1.00  0.00     0.099 C 
ATOM     20  C   UNL A   1      32.198  30.589  26.471  1.00  0.00     0.022 C 
ENDBRANCH  13  19
ENDBRANCH  10  13
ENDBRANCH   5  10
ENDBRANCH   2   4
ENDBRANCH   1   2
BRANCH   1  21
ATOM     21  C   UNL A   1      34.707  20.802  25.005  1.00  0.00     0.275 C 
BRANCH  21  22
ATOM     22  C   UNL A   1      36.157  20.324  24.999  1.00  0.00     0.275 C 
BRANCH  22  23
ATOM     23  O   UNL A   1      37.032  21.433  25.278  1.00  0.00    -0.458 OA
BRANCH  23  24
ATOM     24  C   UNL A   1      38.304  21.115  25.607  1.00  0.00     0.338 C 
ATOM     25  O   UNL A   1      38.897  20.074  25.388  1.00  0.00    -0.246 OA
BRANCH  24  26
ATOM     26  C   UNL A   1      38.941  22.278  26.244  1.00  0.00     0.060 A 
ATOM     27  C   UNL A   1      38.331  23.518  26.113  1.00  0.00     0.016 A 
ATOM     28  C   UNL A   1      40.192  22.179  26.846  1.00  0.00     0.016 A 
ATOM     29  C   UNL A   1      39.006  24.670  26.499  1.00  0.00     0.010 A 
ATOM     30  C   UNL A   1      40.838  23.340  27.303  1.00  0.00     0.010 A 
ATOM     31  C   UNL A   1      40.281  24.614  27.084  1.00  0.00    -0.014 A 
BRANCH  31  32
ATOM     32  C   UNL A   1      41.040  25.876  27.375  1.00  0.00     0.031 A 
ATOM     33  C   UNL A   1      40.503  26.888  28.367  1.00  0.00     0.074 A 
ATOM     34  C   UNL A   1      42.257  26.105  26.835  1.00  0.00     0.049 A 
ATOM     35  N   UNL A   1      40.957  28.084  28.662  1.00  0.00    -0.248 NA
ATOM     36  C   UNL A   1      39.297  26.513  29.122  1.00  0.00     0.031 C 
ATOM     37  C   UNL A   1      42.969  25.209  25.923  1.00  0.00     0.029 A 
ATOM     38  N   UNL A   1      43.135  27.151  27.015  1.00  0.00    -0.354 N 
ATOM     39  C   UNL A   1      40.050  28.628  29.567  1.00  0.00     0.074 A 
ATOM     40  C   UNL A   1      39.026  27.630  29.782  1.00  0.00     0.031 C 
ATOM     41  C   UNL A   1      44.197  25.695  25.693  1.00  0.00     0.029 A 
ATOM     42  C   UNL A   1      44.324  26.996  26.341  1.00  0.00     0.049 A 
ATOM     43  H   UNL A   1      42.931  27.935  27.572  1.00  0.00     0.167 HD
ATOM     44  C   UNL A   1      40.061  29.847  30.162  1.00  0.00     0.031 A 
ATOM     45  C   UNL A   1      45.387  27.814  26.214  1.00  0.00     0.031 A 
ATOM     46  C   UNL A   1      41.103  30.829  30.010  1.00  0.00     0.049 A 
ATOM     47  C   UNL A   1      45.361  29.173  26.854  1.00  0.00     0.074 A 
ATOM     48  C   UNL A   1      41.190  32.089  30.581  1.00  0.00     0.029 A 
ATOM     49  N   UNL A   1      42.250  30.657  29.255  1.00  0.00    -0.354 N 
ATOM     50  N   UNL A   1      44.451  29.704  27.633  1.00  0.00    -0.248 NA
ATOM     51  C   UNL A   1      46.503  30.056  26.573  1.00  0.00     0.031 C 
ATOM     52  C   UNL A   1      42.369  32.695  30.135  1.00  0.00     0.029 A 
ATOM     53  C   UNL A   1      43.043  31.791  29.333  1.00  0.00     0.049 A 
ATOM     54  H   UNL A   1      42.470  29.848  28.739  1.00  0.00     0.167 HD
ATOM     55  C   UNL A   1      44.914  30.979  27.938  1.00  0.00     0.074 A 
ATOM     56  C   UNL A   1      46.199  31.128  27.290  1.00  0.00     0.031 C 
ATOM     57  C   UNL A   1      44.317  31.941  28.681  1.00  0.00     0.031 A 
BRANCH  44  58
ATOM     58  C   UNL A   1      38.867  30.220  31.002  1.00  0.00    -0.014 A 
ATOM     59  C   UNL A   1      38.828  29.985  32.384  1.00  0.00     0.009 A 
ATOM     60  C   UNL A   1      37.778  30.866  30.393  1.00  0.00     0.009 A 
ATOM     61  C   UNL A   1      37.708  30.358  33.132  1.00  0.00     0.001 A 
ATOM     62  C   UNL A   1      36.673  31.265  31.147  1.00  0.00     0.001 A 
ATOM     63  C   UNL A   1      36.635  31.002  32.515  1.00  0.00     0.000 A 
ENDBRANCH  44  58
BRANCH  45  64
ATOM     64  C   UNL A   1      46.552  27.403  25.383  1.00  0.00    -0.014 A 
ATOM     65  C   UNL A   1      46.690  27.860  24.064  1.00  0.00     0.009 A 
ATOM     66  C   UNL A   1      47.523  26.530  25.902  1.00  0.00     0.009 A 
ATOM     67  C   UNL A   1      47.766  27.438  23.278  1.00  0.00     0.001 A 
ATOM     68  C   UNL A   1      48.616  26.141  25.127  1.00  0.00     0.001 A 
ATOM     69  C   UNL A   1      48.732  26.587  23.813  1.00  0.00     0.000 A 
ENDBRANCH  45  64
BRANCH  57  70
ATOM     70  C   UNL A   1      45.066  33.234  28.855  1.00  0.00    -0.014 A 
ATOM     71  C   UNL A   1      44.919  34.291  27.944  1.00  0.00     0.009 A 
ATOM     72  C   UNL A   1      45.926  33.398  29.952  1.00  0.00     0.009 A 
ATOM     73  C   UNL A   1      45.652  35.470  28.103  1.00  0.00     0.001 A 
ATOM     74  C   UNL A   1      46.635  34.589  30.125  1.00  0.00     0.001 A 
ATOM     75  C   UNL A   1      46.507  35.618  29.194  1.00  0.00     0.000 A 
ENDBRANCH  57  70
ENDBRANCH  31  32
ENDBRANCH  24  26
ENDBRANCH  23  24
ENDBRANCH  22  23
ENDBRANCH  21  22
ENDBRANCH   1  21
TORSDOF 17
ENDMDL
MODEL 2
REMARK VINA RESULT:      -9.8      2.900      6.965
REMARK SMILES CC[C@@H](C)CN(CC)S(=O)(=O)c1cc(C(=O)OCCOC(=O)c2ccc(-c3c4nc(c(-c5ccccc5)c5ccc([nH]5)c(-c5ccccc5)c5nc(c(-c6ccccc6)c6ccc3[nH]6)C=C5)C=C4)cc2)n(C)c1
REMARK SMILES IDX 17 1 15 2 16 3 14 4 12 5 13 6 73 7 71 8 72 9 9 10 10 11
REMARK SMILES IDX 11 12 6 13 5 14 3 15 4 16 2 17 1 18 7 19 8 20 18 21 19 22
REMARK SMILES IDX 20 23 21 24 22 25 23 26 24 27 70 28 25 29 69 30 26 31 27 32
REMARK SMILES IDX 28 33 63 34 29 35 68 36 62 37 64 38 30 39 67 40 61 41 60 42
REMARK SMILES IDX 31 44 53 45 38 46 52 47 39 48 42 49 51 50 65 51 40 52 41 53
REMARK SMILES IDX 50 55 66 56 43 57 32 58 33 59 37 60 34 61 36 62 35 63 54 64
REMARK SMILES IDX 55 65 59 66 56 67 58 68 57 69 44 70 45 71 49 72 46 73 48 74
REMARK SMILES IDX 47 75
REMARK H PARENT 64 43 42 54
REMARK Flexibility Score: inf
ROOT
ATOM      1  O   UNL A   1      33.770  28.020  24.934  1.00  0.00    -0.457 OA
ENDROOT
BRANCH   1   2
ATOM      2  C   UNL A   1      33.309  27.199  23.955  1.00  0.00     0.355 C 
ATOM      3  O   UNL A   1      33.631  27.276  22.774  1.00  0.00    -0.244 OA
BRANCH   2   4
ATOM      4  C   UNL A   1      32.496  26.131  24.508  1.00  0.00     0.128 A 
ATOM      5  C   UNL A   1      31.897  24.216  25.610  1.00  0.00     0.101 A 
ATOM      6  C   UNL A   1      32.986  25.007  25.178  1.00  0.00     0.057 A 
ATOM      7  C   UNL A   1      30.753  24.863  25.187  1.00  0.00     0.107 A 
ATOM      8  N   UNL A   1      31.124  25.961  24.441  1.00  0.00    -0.344 N 
ATOM      9  C   UNL A   1      30.194  26.634  23.558  1.00  0.00     0.150 C 
BRANCH   5  10
ATOM     10  S   UNL A   1      31.981  22.631  26.322  1.00  0.00     0.244 S 
ATOM     11  O   UNL A   1      30.680  22.055  26.027  1.00  0.00    -0.207 OA
ATOM     12  O   UNL A   1      32.363  22.934  27.675  1.00  0.00    -0.207 OA
BRANCH  10  13
ATOM     13  N   UNL A   1      33.184  21.633  25.592  1.00  0.00    -0.198 NA
BRANCH  13  14
ATOM     14  C   UNL A   1      34.574  21.773  26.178  1.00  0.00     0.105 C 
BRANCH  14  15
ATOM     15  C   UNL A   1      35.720  22.180  25.228  1.00  0.00     0.001 C 
ATOM     16  C   UNL A   1      36.588  20.928  24.995  1.00  0.00     0.009 C 
BRANCH  15  17
ATOM     17  C   UNL A   1      36.558  23.340  25.796  1.00  0.00     0.001 C 
ATOM     18  C   UNL A   1      38.047  23.100  25.983  1.00  0.00     0.004 C 
ENDBRANCH  15  17
ENDBRANCH  14  15
ENDBRANCH  13  14
BRANCH  13  19
ATOM     19  C   UNL A   1      32.825  20.172  25.522  1.00  0.00     0.099 C 
ATOM     20  C   UNL A   1      33.022  19.555  24.139  1.00  0.00     0.022 C 
ENDBRANCH  13  19
ENDBRANCH  10  13
ENDBRANCH   5  10
ENDBRANCH   2   4
ENDBRANCH   1   2
BRANCH   1  21
ATOM     21  C   UNL A   1      32.924  29.126  25.308  1.00  0.00     0.275 C 
BRANCH  21  22
ATOM     22  C   UNL A   1      32.644  29.089  26.809  1.00  0.00     0.275 C 
BRANCH  22  23
ATOM     23  O   UNL A   1      33.888  29.051  27.531  1.00  0.00    -0.458 OA
BRANCH  23  24
ATOM     24  C   UNL A   1      34.393  30.248  27.904  1.00  0.00     0.338 C 
ATOM     25  O   UNL A   1      33.815  31.319  27.966  1.00  0.00    -0.246 OA
BRANCH  24  26
ATOM     26  C   UNL A   1      35.795  30.074  28.313  1.00  0.00     0.060 A 
ATOM     27  C   UNL A   1      36.789  30.314  27.375  1.00  0.00     0.016 A 
ATOM     28  C   UNL A   1      36.127  29.549  29.559  1.00  0.00     0.016 A 
ATOM     29  C   UNL A   1      38.103  29.947  27.644  1.00  0.00     0.010 A 
ATOM     30  C   UNL A   1      37.468  29.251  29.852  1.00  0.00     0.010 A 
ATOM     31  C   UNL A   1      38.473  29.390  28.877  1.00  0.00    -0.014 A 
BRANCH  31  32
ATOM     32  C   UNL A   1      39.870  28.886  29.095  1.00  0.00     0.031 A 
ATOM     33  C   UNL A   1      40.874  29.711  29.875  1.00  0.00     0.074 A 
ATOM     34  C   UNL A   1      40.246  27.655  28.686  1.00  0.00     0.049 A 
ATOM     35  N   UNL A   1      42.155  29.495  30.068  1.00  0.00    -0.248 NA
ATOM     36  C   UNL A   1      40.380  30.939  30.517  1.00  0.00     0.031 C 
ATOM     37  C   UNL A   1      39.394  26.688  27.992  1.00  0.00     0.029 A 
ATOM     38  N   UNL A   1      41.440  26.985  28.837  1.00  0.00    -0.354 N 
ATOM     39  C   UNL A   1      42.628  30.596  30.776  1.00  0.00     0.074 A 
ATOM     40  C   UNL A   1      41.497  31.473  30.989  1.00  0.00     0.031 C 
ATOM     41  C   UNL A   1      40.057  25.531  27.855  1.00  0.00     0.029 A 
ATOM     42  C   UNL A   1      41.421  25.702  28.341  1.00  0.00     0.049 A 
ATOM     43  H   UNL A   1      42.232  27.387  29.260  1.00  0.00     0.167 HD
ATOM     44  C   UNL A   1      43.887  30.861  31.207  1.00  0.00     0.031 A 
ATOM     45  C   UNL A   1      42.392  24.773  28.244  1.00  0.00     0.031 A 
ATOM     46  C   UNL A   1      45.012  29.974  31.060  1.00  0.00     0.049 A 
ATOM     47  C   UNL A   1      43.786  25.101  28.695  1.00  0.00     0.074 A 
ATOM     48  C   UNL A   1      46.322  30.167  31.471  1.00  0.00     0.029 A 
ATOM     49  N   UNL A   1      44.960  28.718  30.482  1.00  0.00    -0.354 N 
ATOM     50  N   UNL A   1      44.232  26.185  29.281  1.00  0.00    -0.248 NA
ATOM     51  C   UNL A   1      44.817  24.082  28.447  1.00  0.00     0.031 C 
ATOM     52  C   UNL A   1      47.070  29.045  31.100  1.00  0.00     0.029 A 
ATOM     53  C   UNL A   1      46.215  28.130  30.511  1.00  0.00     0.049 A 
ATOM     54  H   UNL A   1      44.151  28.303  30.105  1.00  0.00     0.167 HD
ATOM     55  C   UNL A   1      45.593  25.976  29.475  1.00  0.00     0.074 A 
ATOM     56  C   UNL A   1      45.891  24.650  28.977  1.00  0.00     0.031 C 
ATOM     57  C   UNL A   1      46.512  26.815  30.009  1.00  0.00     0.031 A 
BRANCH  44  58
ATOM     58  C   UNL A   1      44.137  32.207  31.837  1.00  0.00    -0.014 A 
ATOM     59  C   UNL A   1      44.459  33.337  31.074  1.00  0.00     0.009 A 
ATOM     60  C   UNL A   1      43.997  32.345  33.229  1.00  0.00     0.009 A 
ATOM     61  C   UNL A   1      44.672  34.571  31.695  1.00  0.00     0.001 A 
ATOM     62  C   UNL A   1      44.180  33.585  33.844  1.00  0.00     0.001 A 
ATOM     63  C   UNL A   1      44.526  34.696  33.076  1.00  0.00     0.000 A 
ENDBRANCH  44  58
BRANCH  45  64
ATOM     64  C   UNL A   1      42.100  23.451  27.624  1.00  0.00    -0.014 A 
ATOM     65  C   UNL A   1      41.570  22.400  28.389  1.00  0.00     0.009 A 
ATOM     66  C   UNL A   1      42.372  23.227  26.264  1.00  0.00     0.009 A 
ATOM     67  C   UNL A   1      41.336  21.151  27.808  1.00  0.00     0.001 A 
ATOM     68  C   UNL A   1      42.101  21.990  25.679  1.00  0.00     0.001 A 
ATOM     69  C   UNL A   1      41.593  20.950  26.453  1.00  0.00     0.000 A 
ENDBRANCH  45  64
BRANCH  57  70
ATOM     70  C   UNL A   1      47.925  26.310  30.107  1.00  0.00    -0.014 A 
ATOM     71  C   UNL A   1      48.816  26.420  29.028  1.00  0.00     0.009 A 
ATOM     72  C   UNL A   1      48.372  25.721  31.299  1.00  0.00     0.009 A 
ATOM     73  C   UNL A   1      50.113  25.911  29.127  1.00  0.00     0.001 A 
ATOM     74  C   UNL A   1      49.678  25.238  31.406  1.00  0.00     0.001 A 
ATOM     75  C   UNL A   1      50.543  25.323  30.316  1.00  0.00     0.000 A 
ENDBRANCH  57  70
ENDBRANCH  31  32
ENDBRANCH  24  26
ENDBRANCH  23  24
ENDBRANCH  22  23
ENDBRANCH  21  22
ENDBRANCH   1  21
TORSDOF 17
ENDMDL
MODEL 3
REMARK VINA RESULT:      -9.8      1.287      2.126
REMARK SMILES CC[C@@H](C)CN(CC)S(=O)(=O)c1cc(C(=O)OCCOC(=O)c2ccc(-c3c4nc(c(-c5ccccc5)c5ccc([nH]5)c(-c5ccccc5)c5nc(c(-c6ccccc6)c6ccc3[nH]6)C=C5)C=C4)cc2)n(C)c1
REMARK SMILES IDX 17 1 15 2 16 3 14 4 12 5 13 6 73 7 71 8 72 9 9 10 10 11
REMARK SMILES IDX 11 12 6 13 5 14 3 15 4 16 2 17 1 18 7 19 8 20 18 21 19 22
REMARK SMILES IDX 20 23 21 24 22 25 23 26 24 27 70 28 25 29 69 30 26 31 27 32
REMARK SMILES IDX 28 33 63 34 29 35 68 36 62 37 64 38 30 39 67 40 61 41 60 42
REMARK SMILES IDX 31 44 53 45 38 46 52 47 39 48 42 49 51 50 65 51 40 52 41 53
REMARK SMILES IDX 50 55 66 56 43 57 32 58 33 59 37 60 34 61 36 62 35 63 54 64
REMARK SMILES IDX 55 65 59 66 56 67 58 68 57 69 44 70 45 71 49 72 46 73 48 74
REMARK SMILES IDX 47 75
REMARK H PARENT 64 43 42 54
REMARK Flexibility Score: inf
ROOT
ATOM      1  O   UNL A   1      33.858  21.015  25.012  1.00  0.00    -0.457 OA
ENDROOT
BRANCH   1   2
ATOM      2  C   UNL A   1      32.815  21.043  24.142  1.00  0.00     0.355 C 
ATOM      3  O   UNL A   1      32.298  20.048  23.644  1.00  0.00    -0.244 OA
BRANCH   2   4
ATOM      4  C   UNL A   1      32.300  22.391  23.986  1.00  0.00     0.128 A 
ATOM      5  C   UNL A   1      32.012  24.519  23.193  1.00  0.00     0.101 A 
ATOM      6  C   UNL A   1      32.793  23.345  23.092  1.00  0.00     0.057 A 
ATOM      7  C   UNL A   1      31.057  24.269  24.158  1.00  0.00     0.107 A 
ATOM      8  N   UNL A   1      31.298  23.025  24.699  1.00  0.00    -0.344 N 
ATOM      9  C   UNL A   1      30.721  22.617  25.963  1.00  0.00     0.150 C 
BRANCH   5  10
ATOM     10  S   UNL A   1      32.331  26.050  22.430  1.00  0.00     0.244 S 
ATOM     11  O   UNL A   1      31.543  25.994  21.211  1.00  0.00    -0.207 OA
ATOM     12  O   UNL A   1      33.768  26.061  22.378  1.00  0.00    -0.207 OA
BRANCH  10  13
ATOM     13  N   UNL A   1      31.776  27.390  23.363  1.00  0.00    -0.198 NA
BRANCH  13  14
ATOM     14  C   UNL A   1      32.867  28.298  23.891  1.00  0.00     0.105 C 
BRANCH  14  15
ATOM     15  C   UNL A   1      33.093  28.345  25.416  1.00  0.00     0.001 C 
ATOM     16  C   UNL A   1      33.603  26.957  25.847  1.00  0.00     0.009 C 
BRANCH  15  17
ATOM     17  C   UNL A   1      31.811  28.728  26.179  1.00  0.00     0.001 C 
ATOM     18  C   UNL A   1      31.666  28.217  27.603  1.00  0.00     0.004 C 
ENDBRANCH  15  17
ENDBRANCH  14  15
ENDBRANCH  13  14
BRANCH  13  19
ATOM     19  C   UNL A   1      30.723  28.229  22.687  1.00  0.00     0.099 C 
ATOM     20  C   UNL A   1      29.303  27.944  23.172  1.00  0.00     0.022 C 
ENDBRANCH  13  19
ENDBRANCH  10  13
ENDBRANCH   5  10
ENDBRANCH   2   4
ENDBRANCH   1   2
BRANCH   1  21
ATOM     21  C   UNL A   1      35.178  21.161  24.451  1.00  0.00     0.275 C 
BRANCH  21  22
ATOM     22  C   UNL A   1      36.231  21.045  25.551  1.00  0.00     0.275 C 
BRANCH  22  23
ATOM     23  O   UNL A   1      37.455  21.664  25.114  1.00  0.00    -0.458 OA
BRANCH  23  24
ATOM     24  C   UNL A   1      38.571  21.314  25.792  1.00  0.00     0.338 C 
ATOM     25  O   UNL A   1      39.089  20.214  25.866  1.00  0.00    -0.246 OA
BRANCH  24  26
ATOM     26  C   UNL A   1      39.153  22.513  26.414  1.00  0.00     0.060 A 
ATOM     27  C   UNL A   1      38.592  23.747  26.116  1.00  0.00     0.016 A 
ATOM     28  C   UNL A   1      40.319  22.443  27.171  1.00  0.00     0.016 A 
ATOM     29  C   UNL A   1      39.242  24.916  26.496  1.00  0.00     0.010 A 
ATOM     30  C   UNL A   1      40.930  23.627  27.616  1.00  0.00     0.010 A 
ATOM     31  C   UNL A   1      40.434  24.888  27.236  1.00  0.00    -0.014 A 
BRANCH  31  32
ATOM     32  C   UNL A   1      41.181  26.158  27.522  1.00  0.00     0.031 A 
ATOM     33  C   UNL A   1      40.638  27.165  28.515  1.00  0.00     0.074 A 
ATOM     34  C   UNL A   1      42.394  26.399  26.978  1.00  0.00     0.049 A 
ATOM     35  N   UNL A   1      41.081  28.366  28.807  1.00  0.00    -0.248 NA
ATOM     36  C   UNL A   1      39.438  26.779  29.275  1.00  0.00     0.031 C 
ATOM     37  C   UNL A   1      43.113  25.509  26.065  1.00  0.00     0.029 A 
ATOM     38  N   UNL A   1      43.263  27.454  27.153  1.00  0.00    -0.354 N 
ATOM     39  C   UNL A   1      40.172  28.902  29.715  1.00  0.00     0.074 A 
ATOM     40  C   UNL A   1      39.158  27.894  29.935  1.00  0.00     0.031 C 
ATOM     41  C   UNL A   1      44.335  26.007  25.830  1.00  0.00     0.029 A 
ATOM     42  C   UNL A   1      44.451  27.310  26.476  1.00  0.00     0.049 A 
ATOM     43  H   UNL A   1      43.052  28.236  27.711  1.00  0.00     0.167 HD
ATOM     44  C   UNL A   1      40.172  30.122  30.309  1.00  0.00     0.031 A 
ATOM     45  C   UNL A   1      45.505  28.139  26.345  1.00  0.00     0.031 A 
ATOM     46  C   UNL A   1      41.203  31.114  30.152  1.00  0.00     0.049 A 
ATOM     47  C   UNL A   1      45.468  29.498  26.983  1.00  0.00     0.074 A 
ATOM     48  C   UNL A   1      41.280  32.376  30.721  1.00  0.00     0.029 A 
ATOM     49  N   UNL A   1      42.350  30.953  29.393  1.00  0.00    -0.354 N 
ATOM     50  N   UNL A   1      44.555  30.020  27.765  1.00  0.00    -0.248 NA
ATOM     51  C   UNL A   1      46.600  30.392  26.697  1.00  0.00     0.031 C 
ATOM     52  C   UNL A   1      42.451  32.993  30.270  1.00  0.00     0.029 A 
ATOM     53  C   UNL A   1      43.132  32.095  29.467  1.00  0.00     0.049 A 
ATOM     54  H   UNL A   1      42.576  30.146  28.877  1.00  0.00     0.167 HD
ATOM     55  C   UNL A   1      45.006  31.300  28.067  1.00  0.00     0.074 A 
ATOM     56  C   UNL A   1      46.287  31.462  27.414  1.00  0.00     0.031 C 
ATOM     57  C   UNL A   1      44.402  32.257  28.811  1.00  0.00     0.031 A 
BRANCH  44  58
ATOM     58  C   UNL A   1      38.978  30.484  31.153  1.00  0.00    -0.014 A 
ATOM     59  C   UNL A   1      37.829  31.070  30.602  1.00  0.00     0.009 A 
ATOM     60  C   UNL A   1      38.995  30.184  32.525  1.00  0.00     0.009 A 
ATOM     61  C   UNL A   1      36.736  31.380  31.416  1.00  0.00     0.001 A 
ATOM     62  C   UNL A   1      37.890  30.466  33.331  1.00  0.00     0.001 A 
ATOM     63  C   UNL A   1      36.765  31.073  32.777  1.00  0.00     0.000 A 
ENDBRANCH  44  58
BRANCH  45  64
ATOM     64  C   UNL A   1      46.671  27.738  25.510  1.00  0.00    -0.014 A 
ATOM     65  C   UNL A   1      47.808  27.160  26.097  1.00  0.00     0.009 A 
ATOM     66  C   UNL A   1      46.660  27.952  24.122  1.00  0.00     0.009 A 
ATOM     67  C   UNL A   1      48.914  26.822  25.312  1.00  0.00     0.001 A 
ATOM     68  C   UNL A   1      47.752  27.579  23.337  1.00  0.00     0.001 A 
ATOM     69  C   UNL A   1      48.881  27.024  23.932  1.00  0.00     0.000 A 
ENDBRANCH  45  64
BRANCH  57  70
ATOM     70  C   UNL A   1      45.138  33.558  28.981  1.00  0.00    -0.014 A 
ATOM     71  C   UNL A   1      46.051  33.748  30.031  1.00  0.00     0.009 A 
ATOM     72  C   UNL A   1      44.918  34.606  28.075  1.00  0.00     0.009 A 
ATOM     73  C   UNL A   1      46.696  34.976  30.193  1.00  0.00     0.001 A 
ATOM     74  C   UNL A   1      45.586  35.824  28.222  1.00  0.00     0.001 A 
ATOM     75  C   UNL A   1      46.464  36.012  29.288  1.00  0.00     0.000 A 
ENDBRANCH  57  70
ENDBRANCH  31  32
ENDBRANCH  24  26
ENDBRANCH  23  24
ENDBRANCH  22  23
ENDBRANCH  21  22
ENDBRANCH   1  21
TORSDOF 17
ENDMDL
