MODEL 1
REMARK VINA RESULT:     -11.5      0.000      0.000
REMARK SMILES O=C(CCc1cn(-c2ccc(Br)cc2)nc1-c1ccccc1)OCCOC(=O)c1ccc(-c2c3nc(c(-c4ccccc4)c4ccc([nH]4)c(-c4ccccc4)c4nc(c(-c5ccccc5)c5ccc2[nH]5)C=C4)C=C3)cc1
REMARK SMILES IDX 24 1 23 2 2 3 1 4 3 5 4 6 5 7 6 8 16 9 7 10 15 11 17 12
REMARK SMILES IDX 18 13 22 14 19 15 21 16 20 17 8 18 9 19 14 20 10 21 13 22
REMARK SMILES IDX 11 23 12 24 25 25 26 26 27 27 28 28 29 29 30 30 76 31 31 32
REMARK SMILES IDX 75 33 32 34 33 35 34 36 69 37 35 38 74 39 68 40 70 41 36 42
REMARK SMILES IDX 73 43 67 44 66 45 37 47 59 48 44 49 58 50 45 51 48 52 57 53
REMARK SMILES IDX 71 54 46 55 47 56 56 58 72 59 49 60 38 61 39 62 43 63 40 64
REMARK SMILES IDX 42 65 41 66 60 67 61 68 65 69 62 70 64 71 63 72 50 73 51 74
REMARK SMILES IDX 55 75 52 76 54 77 53 78
REMARK H PARENT 70 46 48 57
REMARK Flexibility Score: inf
ROOT
ATOM      1  C   UNL A   1      40.660  21.328  26.170  1.00  0.00     0.274 C 
ENDROOT
BRANCH   1   2
ATOM      2  O   UNL A   1      39.256  21.088  25.878  1.00  0.00    -0.462 OA
BRANCH   2   3
ATOM      3  C   UNL A   1      38.235  21.976  25.824  1.00  0.00     0.306 C 
ATOM      4  O   UNL A   1      38.434  23.162  26.081  1.00  0.00    -0.252 OA
BRANCH   3   5
ATOM      5  C   UNL A   1      36.847  21.509  25.471  1.00  0.00     0.127 C 
BRANCH   5   6
ATOM      6  C   UNL A   1      36.393  21.982  24.088  1.00  0.00     0.051 C 
BRANCH   6   7
ATOM      7  C   UNL A   1      35.171  22.831  24.191  1.00  0.00    -0.001 A 
ATOM      8  C   UNL A   1      35.128  24.212  24.210  1.00  0.00     0.119 A 
ATOM      9  C   UNL A   1      33.823  22.424  24.424  1.00  0.00     0.096 A 
ATOM     10  N   UNL A   1      33.876  24.554  24.663  1.00  0.00    -0.240 N 
ATOM     11  N   UNL A   1      33.083  23.467  24.829  1.00  0.00    -0.168 NA
BRANCH   9  12
ATOM     12  C   UNL A   1      33.285  21.068  24.339  1.00  0.00     0.002 A 
ATOM     13  C   UNL A   1      32.622  20.668  23.177  1.00  0.00     0.010 A 
ATOM     14  C   UNL A   1      33.496  20.120  25.343  1.00  0.00     0.010 A 
ATOM     15  C   UNL A   1      32.239  19.333  23.007  1.00  0.00     0.001 A 
ATOM     16  C   UNL A   1      33.166  18.779  25.157  1.00  0.00     0.001 A 
ATOM     17  C   UNL A   1      32.540  18.383  23.985  1.00  0.00     0.000 A 
ENDBRANCH   9  12
BRANCH  10  18
ATOM     18  C   UNL A   1      33.463  25.849  25.064  1.00  0.00     0.065 A 
ATOM     19  C   UNL A   1      32.663  26.017  26.203  1.00  0.00     0.029 A 
ATOM     20  C   UNL A   1      33.842  26.961  24.300  1.00  0.00     0.029 A 
ATOM     21  C   UNL A   1      32.288  27.303  26.601  1.00  0.00     0.018 A 
ATOM     22  C   UNL A   1      33.418  28.239  24.673  1.00  0.00     0.018 A 
ATOM     23  C   UNL A   1      32.662  28.406  25.833  1.00  0.00     0.018 A 
ATOM     24  Br  UNL A   1      32.157  30.144  26.381  1.00  0.00    -0.051 Br
ENDBRANCH  10  18
ENDBRANCH   6   7
ENDBRANCH   5   6
ENDBRANCH   3   5
ENDBRANCH   2   3
ENDBRANCH   1   2
BRANCH   1  25
ATOM     25  C   UNL A   1      41.474  20.046  26.148  1.00  0.00     0.275 C 
BRANCH  25  26
ATOM     26  O   UNL A   1      42.818  20.420  26.387  1.00  0.00    -0.458 OA
BRANCH  26  27
ATOM     27  C   UNL A   1      43.604  20.320  25.283  1.00  0.00     0.338 C 
ATOM     28  O   UNL A   1      43.790  19.350  24.594  1.00  0.00    -0.246 OA
BRANCH  27  29
ATOM     29  C   UNL A   1      44.264  21.624  25.127  1.00  0.00     0.060 A 
ATOM     30  C   UNL A   1      45.217  21.897  26.099  1.00  0.00     0.016 A 
ATOM     31  C   UNL A   1      43.632  22.625  24.370  1.00  0.00     0.016 A 
ATOM     32  C   UNL A   1      45.213  23.166  26.607  1.00  0.00     0.010 A 
ATOM     33  C   UNL A   1      43.625  23.892  24.877  1.00  0.00     0.010 A 
ATOM     34  C   UNL A   1      44.303  24.086  26.071  1.00  0.00    -0.014 A 
BRANCH  34  35
ATOM     35  C   UNL A   1      44.048  25.273  26.834  1.00  0.00     0.031 A 
ATOM     36  C   UNL A   1      45.117  26.266  26.692  1.00  0.00     0.074 A 
ATOM     37  C   UNL A   1      42.932  25.429  27.566  1.00  0.00     0.049 A 
ATOM     38  N   UNL A   1      46.010  26.574  27.565  1.00  0.00    -0.248 NA
ATOM     39  C   UNL A   1      45.339  26.822  25.350  1.00  0.00     0.031 C 
ATOM     40  C   UNL A   1      41.694  24.644  27.559  1.00  0.00     0.029 A 
ATOM     41  N   UNL A   1      42.655  26.434  28.429  1.00  0.00    -0.354 N 
ATOM     42  C   UNL A   1      46.819  27.508  26.941  1.00  0.00     0.074 A 
ATOM     43  C   UNL A   1      46.483  27.477  25.541  1.00  0.00     0.031 C 
ATOM     44  C   UNL A   1      40.725  25.351  28.191  1.00  0.00     0.029 A 
ATOM     45  C   UNL A   1      41.317  26.550  28.762  1.00  0.00     0.049 A 
ATOM     46  H   UNL A   1      43.347  27.034  28.789  1.00  0.00     0.167 HD
ATOM     47  C   UNL A   1      47.525  28.417  27.660  1.00  0.00     0.031 A 
ATOM     48  C   UNL A   1      40.757  27.615  29.386  1.00  0.00     0.031 A 
ATOM     49  C   UNL A   1      47.627  28.043  29.047  1.00  0.00     0.049 A 
ATOM     50  C   UNL A   1      41.855  28.372  30.045  1.00  0.00     0.074 A 
ATOM     51  C   UNL A   1      48.202  26.984  29.722  1.00  0.00     0.029 A 
ATOM     52  N   UNL A   1      46.723  28.607  29.918  1.00  0.00    -0.354 N 
ATOM     53  N   UNL A   1      42.539  27.907  31.052  1.00  0.00    -0.248 NA
ATOM     54  C   UNL A   1      42.508  29.433  29.290  1.00  0.00     0.031 C 
ATOM     55  C   UNL A   1      47.298  26.687  30.783  1.00  0.00     0.029 A 
ATOM     56  C   UNL A   1      46.250  27.610  30.732  1.00  0.00     0.049 A 
ATOM     57  H   UNL A   1      46.462  29.556  29.950  1.00  0.00     0.167 HD
ATOM     58  C   UNL A   1      43.849  28.299  30.809  1.00  0.00     0.074 A 
ATOM     59  C   UNL A   1      43.753  29.317  29.765  1.00  0.00     0.031 C 
ATOM     60  C   UNL A   1      44.904  27.562  31.267  1.00  0.00     0.031 A 
BRANCH  47  61
ATOM     61  C   UNL A   1      47.742  29.821  27.178  1.00  0.00    -0.014 A 
ATOM     62  C   UNL A   1      49.035  30.362  27.240  1.00  0.00     0.009 A 
ATOM     63  C   UNL A   1      46.685  30.719  26.922  1.00  0.00     0.009 A 
ATOM     64  C   UNL A   1      49.246  31.738  27.110  1.00  0.00     0.001 A 
ATOM     65  C   UNL A   1      46.898  32.086  26.749  1.00  0.00     0.001 A 
ATOM     66  C   UNL A   1      48.180  32.599  26.871  1.00  0.00     0.000 A 
ENDBRANCH  47  61
BRANCH  48  67
ATOM     67  C   UNL A   1      39.422  28.201  29.143  1.00  0.00    -0.014 A 
ATOM     68  C   UNL A   1      38.487  28.317  30.183  1.00  0.00     0.009 A 
ATOM     69  C   UNL A   1      39.162  28.896  27.947  1.00  0.00     0.009 A 
ATOM     70  C   UNL A   1      37.352  29.127  30.041  1.00  0.00     0.001 A 
ATOM     71  C   UNL A   1      38.029  29.703  27.804  1.00  0.00     0.001 A 
ATOM     72  C   UNL A   1      37.131  29.830  28.857  1.00  0.00     0.000 A 
ENDBRANCH  48  67
BRANCH  60  73
ATOM     73  C   UNL A   1      44.608  26.425  32.217  1.00  0.00    -0.014 A 
ATOM     74  C   UNL A   1      44.403  25.102  31.784  1.00  0.00     0.009 A 
ATOM     75  C   UNL A   1      44.714  26.665  33.595  1.00  0.00     0.009 A 
ATOM     76  C   UNL A   1      44.289  24.055  32.706  1.00  0.00     0.001 A 
ATOM     77  C   UNL A   1      44.620  25.617  34.515  1.00  0.00     0.001 A 
ATOM     78  C   UNL A   1      44.404  24.314  34.071  1.00  0.00     0.000 A 
ENDBRANCH  60  73
ENDBRANCH  34  35
ENDBRANCH  27  29
ENDBRANCH  26  27
ENDBRANCH  25  26
ENDBRANCH   1  25
TORSDOF 15
ENDMDL
MODEL 2
REMARK VINA RESULT:     -11.2      3.215      5.926
REMARK SMILES O=C(CCc1cn(-c2ccc(Br)cc2)nc1-c1ccccc1)OCCOC(=O)c1ccc(-c2c3nc(c(-c4ccccc4)c4ccc([nH]4)c(-c4ccccc4)c4nc(c(-c5ccccc5)c5ccc2[nH]5)C=C4)C=C3)cc1
REMARK SMILES IDX 24 1 23 2 2 3 1 4 3 5 4 6 5 7 6 8 16 9 7 10 15 11 17 12
REMARK SMILES IDX 18 13 22 14 19 15 21 16 20 17 8 18 9 19 14 20 10 21 13 22
REMARK SMILES IDX 11 23 12 24 25 25 26 26 27 27 28 28 29 29 30 30 76 31 31 32
REMARK SMILES IDX 75 33 32 34 33 35 34 36 69 37 35 38 74 39 68 40 70 41 36 42
REMARK SMILES IDX 73 43 67 44 66 45 37 47 59 48 44 49 58 50 45 51 48 52 57 53
REMARK SMILES IDX 71 54 46 55 47 56 56 58 72 59 49 60 38 61 39 62 43 63 40 64
REMARK SMILES IDX 42 65 41 66 60 67 61 68 65 69 62 70 64 71 63 72 50 73 51 74
REMARK SMILES IDX 55 75 52 76 54 77 53 78
REMARK H PARENT 70 46 48 57
REMARK Flexibility Score: inf
ROOT
ATOM      1  C   UNL A   1      44.453  18.855  24.345  1.00  0.00     0.274 C 
ENDROOT
BRANCH   1   2
ATOM      2  O   UNL A   1      43.873  19.029  25.667  1.00  0.00    -0.462 OA
BRANCH   2   3
ATOM      3  C   UNL A   1      42.742  18.488  26.178  1.00  0.00     0.306 C 
ATOM      4  O   UNL A   1      42.655  17.269  26.328  1.00  0.00    -0.252 OA
BRANCH   3   5
ATOM      5  C   UNL A   1      41.579  19.372  26.542  1.00  0.00     0.127 C 
BRANCH   5   6
ATOM      6  C   UNL A   1      41.781  20.828  26.115  1.00  0.00     0.051 C 
BRANCH   6   7
ATOM      7  C   UNL A   1      40.541  21.626  26.344  1.00  0.00    -0.001 A 
ATOM      8  C   UNL A   1      39.306  21.411  25.765  1.00  0.00     0.119 A 
ATOM      9  C   UNL A   1      40.388  22.836  27.086  1.00  0.00     0.096 A 
ATOM     10  N   UNL A   1      38.575  22.556  25.975  1.00  0.00    -0.240 N 
ATOM     11  N   UNL A   1      39.240  23.446  26.752  1.00  0.00    -0.168 NA
BRANCH   9  12
ATOM     12  C   UNL A   1      41.345  23.426  28.019  1.00  0.00     0.002 A 
ATOM     13  C   UNL A   1      42.189  22.588  28.751  1.00  0.00     0.010 A 
ATOM     14  C   UNL A   1      41.518  24.807  28.133  1.00  0.00     0.010 A 
ATOM     15  C   UNL A   1      43.218  23.130  29.529  1.00  0.00     0.001 A 
ATOM     16  C   UNL A   1      42.575  25.350  28.862  1.00  0.00     0.001 A 
ATOM     17  C   UNL A   1      43.430  24.509  29.559  1.00  0.00     0.000 A 
ENDBRANCH   9  12
BRANCH  10  18
ATOM     18  C   UNL A   1      37.341  22.879  25.359  1.00  0.00     0.065 A 
ATOM     19  C   UNL A   1      37.030  22.374  24.088  1.00  0.00     0.029 A 
ATOM     20  C   UNL A   1      36.440  23.725  26.020  1.00  0.00     0.029 A 
ATOM     21  C   UNL A   1      35.796  22.679  23.507  1.00  0.00     0.018 A 
ATOM     22  C   UNL A   1      35.232  24.070  25.408  1.00  0.00     0.018 A 
ATOM     23  C   UNL A   1      34.906  23.528  24.166  1.00  0.00     0.018 A 
ATOM     24  Br  UNL A   1      33.236  23.931  23.375  1.00  0.00    -0.051 Br
ENDBRANCH  10  18
ENDBRANCH   6   7
ENDBRANCH   5   6
ENDBRANCH   3   5
ENDBRANCH   2   3
ENDBRANCH   1   2
BRANCH   1  25
ATOM     25  C   UNL A   1      45.433  19.964  24.002  1.00  0.00     0.275 C 
BRANCH  25  26
ATOM     26  O   UNL A   1      45.171  21.023  24.904  1.00  0.00    -0.458 OA
BRANCH  26  27
ATOM     27  C   UNL A   1      44.631  22.115  24.303  1.00  0.00     0.338 C 
ATOM     28  O   UNL A   1      44.448  22.296  23.127  1.00  0.00    -0.246 OA
BRANCH  27  29
ATOM     29  C   UNL A   1      44.379  23.092  25.373  1.00  0.00     0.060 A 
ATOM     30  C   UNL A   1      43.631  24.190  24.973  1.00  0.00     0.016 A 
ATOM     31  C   UNL A   1      45.218  23.103  26.501  1.00  0.00     0.016 A 
ATOM     32  C   UNL A   1      44.053  25.406  25.434  1.00  0.00     0.010 A 
ATOM     33  C   UNL A   1      45.642  24.316  26.960  1.00  0.00     0.010 A 
ATOM     34  C   UNL A   1      45.150  25.435  26.304  1.00  0.00    -0.014 A 
BRANCH  34  35
ATOM     35  C   UNL A   1      45.808  26.697  26.487  1.00  0.00     0.031 A 
ATOM     36  C   UNL A   1      47.204  26.664  26.042  1.00  0.00     0.074 A 
ATOM     37  C   UNL A   1      45.175  27.769  26.991  1.00  0.00     0.049 A 
ATOM     38  N   UNL A   1      48.254  26.646  26.786  1.00  0.00    -0.248 NA
ATOM     39  C   UNL A   1      47.447  26.412  24.615  1.00  0.00     0.031 C 
ATOM     40  C   UNL A   1      43.741  27.994  27.199  1.00  0.00     0.029 A 
ATOM     41  N   UNL A   1      45.726  28.955  27.336  1.00  0.00    -0.354 N 
ATOM     42  C   UNL A   1      49.319  26.556  25.906  1.00  0.00     0.074 A 
ATOM     43  C   UNL A   1      48.765  26.224  24.618  1.00  0.00     0.031 C 
ATOM     44  C   UNL A   1      43.531  29.318  27.398  1.00  0.00     0.029 A 
ATOM     45  C   UNL A   1      44.818  29.990  27.476  1.00  0.00     0.049 A 
ATOM     46  H   UNL A   1      46.693  29.073  27.477  1.00  0.00     0.167 HD
ATOM     47  C   UNL A   1      50.550  27.013  26.246  1.00  0.00     0.031 A 
ATOM     48  C   UNL A   1      45.139  31.304  27.555  1.00  0.00     0.031 A 
ATOM     49  C   UNL A   1      50.679  27.207  27.667  1.00  0.00     0.049 A 
ATOM     50  C   UNL A   1      46.573  31.390  27.938  1.00  0.00     0.074 A 
ATOM     51  C   UNL A   1      50.627  26.370  28.764  1.00  0.00     0.029 A 
ATOM     52  N   UNL A   1      50.480  28.481  28.147  1.00  0.00    -0.354 N 
ATOM     53  N   UNL A   1      47.026  31.018  29.102  1.00  0.00    -0.248 NA
ATOM     54  C   UNL A   1      47.567  31.436  26.873  1.00  0.00     0.031 C 
ATOM     55  C   UNL A   1      49.954  27.121  29.771  1.00  0.00     0.029 A 
ATOM     56  C   UNL A   1      49.677  28.390  29.255  1.00  0.00     0.049 A 
ATOM     57  H   UNL A   1      50.849  29.310  27.764  1.00  0.00     0.167 HD
ATOM     58  C   UNL A   1      48.233  30.385  28.834  1.00  0.00     0.074 A 
ATOM     59  C   UNL A   1      48.560  30.759  27.460  1.00  0.00     0.031 C 
ATOM     60  C   UNL A   1      48.705  29.391  29.644  1.00  0.00     0.031 A 
BRANCH  47  61
ATOM     61  C   UNL A   1      51.462  27.668  25.250  1.00  0.00    -0.014 A 
ATOM     62  C   UNL A   1      52.601  26.971  24.819  1.00  0.00     0.009 A 
ATOM     63  C   UNL A   1      51.392  29.039  24.928  1.00  0.00     0.009 A 
ATOM     64  C   UNL A   1      53.639  27.630  24.154  1.00  0.00     0.001 A 
ATOM     65  C   UNL A   1      52.407  29.690  24.226  1.00  0.00     0.001 A 
ATOM     66  C   UNL A   1      53.545  28.988  23.863  1.00  0.00     0.000 A 
ENDBRANCH  47  61
BRANCH  48  67
ATOM     67  C   UNL A   1      44.401  32.447  26.979  1.00  0.00    -0.014 A 
ATOM     68  C   UNL A   1      44.120  33.585  27.750  1.00  0.00     0.009 A 
ATOM     69  C   UNL A   1      44.206  32.534  25.587  1.00  0.00     0.009 A 
ATOM     70  C   UNL A   1      43.693  34.776  27.145  1.00  0.00     0.001 A 
ATOM     71  C   UNL A   1      43.779  33.721  24.984  1.00  0.00     0.001 A 
ATOM     72  C   UNL A   1      43.536  34.847  25.762  1.00  0.00     0.000 A 
ENDBRANCH  48  67
BRANCH  60  73
ATOM     73  C   UNL A   1      47.983  29.143  30.947  1.00  0.00    -0.014 A 
ATOM     74  C   UNL A   1      48.336  29.782  32.149  1.00  0.00     0.009 A 
ATOM     75  C   UNL A   1      46.806  28.380  30.921  1.00  0.00     0.009 A 
ATOM     76  C   UNL A   1      47.544  29.644  33.295  1.00  0.00     0.001 A 
ATOM     77  C   UNL A   1      46.005  28.257  32.060  1.00  0.00     0.001 A 
ATOM     78  C   UNL A   1      46.375  28.887  33.247  1.00  0.00     0.000 A 
ENDBRANCH  60  73
ENDBRANCH  34  35
ENDBRANCH  27  29
ENDBRANCH  26  27
ENDBRANCH  25  26
ENDBRANCH   1  25
TORSDOF 15
ENDMDL
MODEL 3
REMARK VINA RESULT:     -11.1      5.210     10.028
REMARK SMILES O=C(CCc1cn(-c2ccc(Br)cc2)nc1-c1ccccc1)OCCOC(=O)c1ccc(-c2c3nc(c(-c4ccccc4)c4ccc([nH]4)c(-c4ccccc4)c4nc(c(-c5ccccc5)c5ccc2[nH]5)C=C4)C=C3)cc1
REMARK SMILES IDX 24 1 23 2 2 3 1 4 3 5 4 6 5 7 6 8 16 9 7 10 15 11 17 12
REMARK SMILES IDX 18 13 22 14 19 15 21 16 20 17 8 18 9 19 14 20 10 21 13 22
REMARK SMILES IDX 11 23 12 24 25 25 26 26 27 27 28 28 29 29 30 30 76 31 31 32
REMARK SMILES IDX 75 33 32 34 33 35 34 36 69 37 35 38 74 39 68 40 70 41 36 42
REMARK SMILES IDX 73 43 67 44 66 45 37 47 59 48 44 49 58 50 45 51 48 52 57 53
REMARK SMILES IDX 71 54 46 55 47 56 56 58 72 59 49 60 38 61 39 62 43 63 40 64
REMARK SMILES IDX 42 65 41 66 60 67 61 68 65 69 62 70 64 71 63 72 50 73 51 74
REMARK SMILES IDX 55 75 52 76 54 77 53 78
REMARK H PARENT 70 46 48 57
REMARK Flexibility Score: inf
ROOT
ATOM      1  C   UNL A   1      34.155  32.727  28.562  1.00  0.00     0.274 C 
ENDROOT
BRANCH   1   2
ATOM      2  O   UNL A   1      33.342  31.921  27.666  1.00  0.00    -0.462 OA
BRANCH   2   3
ATOM      3  C   UNL A   1      33.604  30.697  27.149  1.00  0.00     0.306 C 
ATOM      4  O   UNL A   1      34.461  29.980  27.664  1.00  0.00    -0.252 OA
BRANCH   3   5
ATOM      5  C   UNL A   1      32.863  30.219  25.928  1.00  0.00     0.127 C 
BRANCH   5   6
ATOM      6  C   UNL A   1      31.762  29.208  26.257  1.00  0.00     0.051 C 
BRANCH   6   7
ATOM      7  C   UNL A   1      32.001  27.915  25.552  1.00  0.00    -0.001 A 
ATOM      8  C   UNL A   1      32.837  26.895  25.962  1.00  0.00     0.119 A 
ATOM      9  C   UNL A   1      31.539  27.508  24.264  1.00  0.00     0.096 A 
ATOM     10  N   UNL A   1      33.020  26.080  24.870  1.00  0.00    -0.240 N 
ATOM     11  N   UNL A   1      32.258  26.466  23.818  1.00  0.00    -0.168 NA
BRANCH   9  12
ATOM     12  C   UNL A   1      30.501  28.146  23.457  1.00  0.00     0.002 A 
ATOM     13  C   UNL A   1      29.178  27.716  23.581  1.00  0.00     0.010 A 
ATOM     14  C   UNL A   1      30.768  29.243  22.635  1.00  0.00     0.010 A 
ATOM     15  C   UNL A   1      28.147  28.412  22.943  1.00  0.00     0.001 A 
ATOM     16  C   UNL A   1      29.740  29.973  22.040  1.00  0.00     0.001 A 
ATOM     17  C   UNL A   1      28.426  29.559  22.198  1.00  0.00     0.000 A 
ENDBRANCH   9  12
BRANCH  10  18
ATOM     18  C   UNL A   1      33.982  25.046  24.757  1.00  0.00     0.065 A 
ATOM     19  C   UNL A   1      34.198  24.410  23.527  1.00  0.00     0.029 A 
ATOM     20  C   UNL A   1      34.702  24.647  25.892  1.00  0.00     0.029 A 
ATOM     21  C   UNL A   1      35.171  23.412  23.426  1.00  0.00     0.018 A 
ATOM     22  C   UNL A   1      35.633  23.610  25.796  1.00  0.00     0.018 A 
ATOM     23  C   UNL A   1      35.879  23.013  24.560  1.00  0.00     0.018 A 
ATOM     24  Br  UNL A   1      37.198  21.666  24.416  1.00  0.00    -0.051 Br
ENDBRANCH  10  18
ENDBRANCH   6   7
ENDBRANCH   5   6
ENDBRANCH   3   5
ENDBRANCH   2   3
ENDBRANCH   1   2
BRANCH   1  25
ATOM     25  C   UNL A   1      33.559  34.105  28.789  1.00  0.00     0.275 C 
BRANCH  25  26
ATOM     26  O   UNL A   1      34.331  34.713  29.808  1.00  0.00    -0.458 OA
BRANCH  26  27
ATOM     27  C   UNL A   1      33.659  34.843  30.982  1.00  0.00     0.338 C 
ATOM     28  O   UNL A   1      32.596  35.376  31.169  1.00  0.00    -0.246 OA
BRANCH  27  29
ATOM     29  C   UNL A   1      34.529  34.271  32.020  1.00  0.00     0.060 A 
ATOM     30  C   UNL A   1      35.604  35.077  32.366  1.00  0.00     0.016 A 
ATOM     31  C   UNL A   1      34.505  32.883  32.243  1.00  0.00     0.016 A 
ATOM     32  C   UNL A   1      36.804  34.442  32.527  1.00  0.00     0.010 A 
ATOM     33  C   UNL A   1      35.703  32.249  32.401  1.00  0.00     0.010 A 
ATOM     34  C   UNL A   1      36.836  33.049  32.390  1.00  0.00    -0.014 A 
BRANCH  34  35
ATOM     35  C   UNL A   1      38.119  32.439  32.193  1.00  0.00     0.031 A 
ATOM     36  C   UNL A   1      38.938  32.464  33.410  1.00  0.00     0.074 A 
ATOM     37  C   UNL A   1      38.485  31.899  31.019  1.00  0.00     0.049 A 
ATOM     38  N   UNL A   1      39.956  33.215  33.644  1.00  0.00    -0.248 NA
ATOM     39  C   UNL A   1      38.433  31.717  34.570  1.00  0.00     0.031 C 
ATOM     40  C   UNL A   1      37.667  31.571  29.848  1.00  0.00     0.029 A 
ATOM     41  N   UNL A   1      39.708  31.430  30.681  1.00  0.00    -0.354 N 
ATOM     42  C   UNL A   1      40.340  32.908  34.938  1.00  0.00     0.074 A 
ATOM     43  C   UNL A   1      39.269  32.138  35.517  1.00  0.00     0.031 C 
ATOM     44  C   UNL A   1      38.371  30.740  29.042  1.00  0.00     0.029 A 
ATOM     45  C   UNL A   1      39.719  30.607  29.569  1.00  0.00     0.049 A 
ATOM     46  H   UNL A   1      40.524  31.656  31.184  1.00  0.00     0.167 HD
ATOM     47  C   UNL A   1      41.619  33.093  35.352  1.00  0.00     0.031 A 
ATOM     48  C   UNL A   1      40.754  29.817  29.193  1.00  0.00     0.031 A 
ATOM     49  C   UNL A   1      42.352  33.957  34.465  1.00  0.00     0.049 A 
ATOM     50  C   UNL A   1      41.975  30.333  29.866  1.00  0.00     0.074 A 
ATOM     51  C   UNL A   1      42.228  35.279  34.084  1.00  0.00     0.029 A 
ATOM     52  N   UNL A   1      43.140  33.356  33.510  1.00  0.00    -0.354 N 
ATOM     53  N   UNL A   1      42.513  31.487  29.587  1.00  0.00    -0.248 NA
ATOM     54  C   UNL A   1      42.321  29.790  31.174  1.00  0.00     0.031 C 
ATOM     55  C   UNL A   1      42.562  35.297  32.698  1.00  0.00     0.029 A 
ATOM     56  C   UNL A   1      42.921  34.001  32.320  1.00  0.00     0.049 A 
ATOM     57  H   UNL A   1      43.751  32.598  33.656  1.00  0.00     0.167 HD
ATOM     58  C   UNL A   1      42.905  32.009  30.813  1.00  0.00     0.074 A 
ATOM     59  C   UNL A   1      42.851  30.880  31.740  1.00  0.00     0.031 C 
ATOM     60  C   UNL A   1      42.957  33.357  31.023  1.00  0.00     0.031 A 
BRANCH  47  61
ATOM     61  C   UNL A   1      42.290  32.155  36.313  1.00  0.00    -0.014 A 
ATOM     62  C   UNL A   1      42.684  32.645  37.567  1.00  0.00     0.009 A 
ATOM     63  C   UNL A   1      42.791  30.893  35.934  1.00  0.00     0.009 A 
ATOM     64  C   UNL A   1      43.580  31.931  38.370  1.00  0.00     0.001 A 
ATOM     65  C   UNL A   1      43.649  30.158  36.751  1.00  0.00     0.001 A 
ATOM     66  C   UNL A   1      44.066  30.693  37.960  1.00  0.00     0.000 A 
ENDBRANCH  47  61
BRANCH  48  67
ATOM     67  C   UNL A   1      40.685  28.465  28.599  1.00  0.00    -0.014 A 
ATOM     68  C   UNL A   1      39.954  27.442  29.220  1.00  0.00     0.009 A 
ATOM     69  C   UNL A   1      41.118  28.252  27.276  1.00  0.00     0.009 A 
ATOM     70  C   UNL A   1      39.638  26.264  28.529  1.00  0.00     0.001 A 
ATOM     71  C   UNL A   1      40.805  27.076  26.588  1.00  0.00     0.001 A 
ATOM     72  C   UNL A   1      40.052  26.087  27.210  1.00  0.00     0.000 A 
ENDBRANCH  48  67
BRANCH  60  73
ATOM     73  C   UNL A   1      42.776  34.263  29.827  1.00  0.00    -0.014 A 
ATOM     74  C   UNL A   1      43.803  34.518  28.900  1.00  0.00     0.009 A 
ATOM     75  C   UNL A   1      41.486  34.730  29.536  1.00  0.00     0.009 A 
ATOM     76  C   UNL A   1      43.547  35.234  27.725  1.00  0.00     0.001 A 
ATOM     77  C   UNL A   1      41.226  35.428  28.354  1.00  0.00     0.001 A 
ATOM     78  C   UNL A   1      42.257  35.683  27.451  1.00  0.00     0.000 A 
ENDBRANCH  60  73
ENDBRANCH  34  35
ENDBRANCH  27  29
ENDBRANCH  26  27
ENDBRANCH  25  26
ENDBRANCH   1  25
TORSDOF 15
ENDMDL
