MODEL 1
REMARK VINA RESULT:      -9.5      0.000      0.000
REMARK SMILES Cc1ccc(NC(=O)c2cccn2CC(=O)OCCOC(=O)c2ccc(-c3c4nc(c(-c5ccccc5)c5ccc([nH]5)c(-c5ccccc5)c5nc(c(-c6ccccc6)c6ccc3[nH]6)C=C5)C=C4)cc2)cc1
REMARK SMILES IDX 18 1 17 2 15 3 16 4 14 5 13 6 9 7 10 8 11 9 12 10 7 11 6 12
REMARK SMILES IDX 8 14 5 15 1 16 2 17 3 18 72 19 4 20 71 21 19 22 20 23 21 24
REMARK SMILES IDX 22 25 23 26 24 27 70 28 25 29 69 30 26 31 27 32 28 33 63 34
REMARK SMILES IDX 29 35 68 36 62 37 64 38 30 39 67 40 61 41 60 42 31 44 53 45
REMARK SMILES IDX 38 46 52 47 39 48 42 49 51 50 65 51 40 52 41 53 50 55 66 56
REMARK SMILES IDX 43 57 32 58 33 59 37 60 34 61 36 62 35 63 54 64 55 65 59 66
REMARK SMILES IDX 56 67 58 68 57 69 44 70 45 71 49 72 46 73 48 74 47 75
REMARK H PARENT 6 13 64 43 42 54
REMARK Flexibility Score: inf
ROOT
ATOM      1  C   UNL A   1      37.930  32.032  34.871  1.00  0.00     0.274 C 
ENDROOT
BRANCH   1   2
ATOM      2  O   UNL A   1      37.244  32.211  33.621  1.00  0.00    -0.461 OA
BRANCH   2   3
ATOM      3  C   UNL A   1      36.608  33.403  33.451  1.00  0.00     0.326 C 
ATOM      4  O   UNL A   1      36.451  34.243  34.327  1.00  0.00    -0.250 OA
BRANCH   3   5
ATOM      5  C   UNL A   1      36.293  33.645  32.000  1.00  0.00     0.244 C 
BRANCH   5   6
ATOM      6  N   UNL A   1      37.448  33.997  31.198  1.00  0.00    -0.332 N 
ATOM      7  C   UNL A   1      37.502  33.918  29.826  1.00  0.00     0.107 A 
ATOM      8  C   UNL A   1      38.743  34.407  29.446  1.00  0.00     0.033 A 
ATOM      9  C   UNL A   1      39.466  34.722  30.623  1.00  0.00     0.020 A 
ATOM     10  C   UNL A   1      38.640  34.460  31.692  1.00  0.00     0.087 A 
BRANCH   7  11
ATOM     11  C   UNL A   1      36.420  33.414  29.019  1.00  0.00     0.272 C 
ATOM     12  N   UNL A   1      36.301  32.066  28.784  1.00  0.00    -0.321 N 
ATOM     13  H   UNL A   1      35.536  31.831  28.210  1.00  0.00     0.170 HD
ATOM     14  O   UNL A   1      35.562  34.161  28.545  1.00  0.00    -0.267 OA
BRANCH  12  15
ATOM     15  C   UNL A   1      37.055  30.953  29.201  1.00  0.00     0.041 A 
ATOM     16  C   UNL A   1      38.705  27.135  30.319  1.00  0.00     0.044 C 
ATOM     17  C   UNL A   1      38.205  28.513  30.014  1.00  0.00    -0.051 A 
ATOM     18  C   UNL A   1      38.718  29.210  28.920  1.00  0.00     0.005 A 
ATOM     19  C   UNL A   1      37.177  29.094  30.760  1.00  0.00     0.005 A 
ATOM     20  C   UNL A   1      38.159  30.430  28.533  1.00  0.00     0.026 A 
ATOM     21  C   UNL A   1      36.617  30.312  30.365  1.00  0.00     0.026 A 
ENDBRANCH  12  15
ENDBRANCH   7  11
ENDBRANCH   5   6
ENDBRANCH   3   5
ENDBRANCH   2   3
ENDBRANCH   1   2
BRANCH   1  22
ATOM     22  C   UNL A   1      39.404  31.736  34.566  1.00  0.00     0.275 C 
BRANCH  22  23
ATOM     23  O   UNL A   1      39.526  31.197  33.228  1.00  0.00    -0.458 OA
BRANCH  23  24
ATOM     24  C   UNL A   1      39.833  29.878  33.082  1.00  0.00     0.338 C 
ATOM     25  O   UNL A   1      39.178  28.941  33.513  1.00  0.00    -0.246 OA
BRANCH  24  26
ATOM     26  C   UNL A   1      40.953  29.726  32.101  1.00  0.00     0.060 A 
ATOM     27  C   UNL A   1      41.581  28.479  31.925  1.00  0.00     0.016 A 
ATOM     28  C   UNL A   1      41.276  30.757  31.230  1.00  0.00     0.016 A 
ATOM     29  C   UNL A   1      42.362  28.210  30.775  1.00  0.00     0.010 A 
ATOM     30  C   UNL A   1      42.122  30.510  30.143  1.00  0.00     0.010 A 
ATOM     31  C   UNL A   1      42.581  29.212  29.827  1.00  0.00    -0.014 A 
BRANCH  31  32
ATOM     32  C   UNL A   1      42.811  28.933  28.366  1.00  0.00     0.031 A 
ATOM     33  C   UNL A   1      44.138  29.348  27.898  1.00  0.00     0.074 A 
ATOM     34  C   UNL A   1      42.361  27.894  27.610  1.00  0.00     0.049 A 
ATOM     35  N   UNL A   1      45.184  28.775  28.385  1.00  0.00    -0.248 NA
ATOM     36  C   UNL A   1      44.388  30.265  26.807  1.00  0.00     0.031 C 
ATOM     37  C   UNL A   1      41.182  27.104  27.906  1.00  0.00     0.029 A 
ATOM     38  N   UNL A   1      42.973  27.221  26.513  1.00  0.00    -0.354 N 
ATOM     39  C   UNL A   1      46.185  28.967  27.483  1.00  0.00     0.074 A 
ATOM     40  C   UNL A   1      45.690  30.013  26.600  1.00  0.00     0.031 C 
ATOM     41  C   UNL A   1      41.187  26.009  27.124  1.00  0.00     0.029 A 
ATOM     42  C   UNL A   1      42.421  25.951  26.307  1.00  0.00     0.049 A 
ATOM     43  H   UNL A   1      43.696  27.603  25.965  1.00  0.00     0.167 HD
ATOM     44  C   UNL A   1      47.212  28.072  27.470  1.00  0.00     0.031 A 
ATOM     45  C   UNL A   1      43.022  24.747  26.038  1.00  0.00     0.031 A 
ATOM     46  C   UNL A   1      47.158  27.060  28.554  1.00  0.00     0.049 A 
ATOM     47  C   UNL A   1      43.251  24.224  27.417  1.00  0.00     0.074 A 
ATOM     48  C   UNL A   1      48.029  26.614  29.531  1.00  0.00     0.029 A 
ATOM     49  N   UNL A   1      45.982  26.354  28.789  1.00  0.00    -0.354 N 
ATOM     50  N   UNL A   1      44.248  24.656  28.119  1.00  0.00    -0.248 NA
ATOM     51  C   UNL A   1      42.371  23.301  28.101  1.00  0.00     0.031 C 
ATOM     52  C   UNL A   1      47.325  25.701  30.388  1.00  0.00     0.029 A 
ATOM     53  C   UNL A   1      46.023  25.564  29.933  1.00  0.00     0.049 A 
ATOM     54  H   UNL A   1      45.194  26.409  28.201  1.00  0.00     0.167 HD
ATOM     55  C   UNL A   1      44.049  24.257  29.408  1.00  0.00     0.074 A 
ATOM     56  C   UNL A   1      42.879  23.389  29.338  1.00  0.00     0.031 C 
ATOM     57  C   UNL A   1      44.817  24.811  30.391  1.00  0.00     0.031 A 
BRANCH  44  58
ATOM     58  C   UNL A   1      48.185  27.994  26.320  1.00  0.00    -0.014 A 
ATOM     59  C   UNL A   1      49.519  28.384  26.527  1.00  0.00     0.009 A 
ATOM     60  C   UNL A   1      47.873  27.498  25.041  1.00  0.00     0.009 A 
ATOM     61  C   UNL A   1      50.493  28.236  25.532  1.00  0.00     0.001 A 
ATOM     62  C   UNL A   1      48.853  27.294  24.061  1.00  0.00     0.001 A 
ATOM     63  C   UNL A   1      50.167  27.666  24.307  1.00  0.00     0.000 A 
ENDBRANCH  44  58
BRANCH  45  64
ATOM     64  C   UNL A   1      44.100  24.249  25.103  1.00  0.00    -0.014 A 
ATOM     65  C   UNL A   1      43.922  22.993  24.503  1.00  0.00     0.009 A 
ATOM     66  C   UNL A   1      45.424  24.751  25.125  1.00  0.00     0.009 A 
ATOM     67  C   UNL A   1      45.023  22.244  24.043  1.00  0.00     0.001 A 
ATOM     68  C   UNL A   1      46.524  23.992  24.702  1.00  0.00     0.001 A 
ATOM     69  C   UNL A   1      46.324  22.725  24.177  1.00  0.00     0.000 A 
ENDBRANCH  45  64
BRANCH  57  70
ATOM     70  C   UNL A   1      44.367  24.818  31.844  1.00  0.00    -0.014 A 
ATOM     71  C   UNL A   1      44.020  25.959  32.589  1.00  0.00     0.009 A 
ATOM     72  C   UNL A   1      44.393  23.612  32.567  1.00  0.00     0.009 A 
ATOM     73  C   UNL A   1      43.808  25.921  33.976  1.00  0.00     0.001 A 
ATOM     74  C   UNL A   1      44.145  23.556  33.947  1.00  0.00     0.001 A 
ATOM     75  C   UNL A   1      43.873  24.717  34.657  1.00  0.00     0.000 A 
ENDBRANCH  57  70
ENDBRANCH  31  32
ENDBRANCH  24  26
ENDBRANCH  23  24
ENDBRANCH  22  23
ENDBRANCH   1  22
TORSDOF 14
ENDMDL
MODEL 2
REMARK VINA RESULT:      -9.5      4.372      6.978
REMARK SMILES Cc1ccc(NC(=O)c2cccn2CC(=O)OCCOC(=O)c2ccc(-c3c4nc(c(-c5ccccc5)c5ccc([nH]5)c(-c5ccccc5)c5nc(c(-c6ccccc6)c6ccc3[nH]6)C=C5)C=C4)cc2)cc1
REMARK SMILES IDX 18 1 17 2 15 3 16 4 14 5 13 6 9 7 10 8 11 9 12 10 7 11 6 12
REMARK SMILES IDX 8 14 5 15 1 16 2 17 3 18 72 19 4 20 71 21 19 22 20 23 21 24
REMARK SMILES IDX 22 25 23 26 24 27 70 28 25 29 69 30 26 31 27 32 28 33 63 34
REMARK SMILES IDX 29 35 68 36 62 37 64 38 30 39 67 40 61 41 60 42 31 44 53 45
REMARK SMILES IDX 38 46 52 47 39 48 42 49 51 50 65 51 40 52 41 53 50 55 66 56
REMARK SMILES IDX 43 57 32 58 33 59 37 60 34 61 36 62 35 63 54 64 55 65 59 66
REMARK SMILES IDX 56 67 58 68 57 69 44 70 45 71 49 72 46 73 48 74 47 75
REMARK H PARENT 6 13 64 43 42 54
REMARK Flexibility Score: inf
ROOT
ATOM      1  C   UNL A   1      34.345  29.371  27.196  1.00  0.00     0.274 C 
ENDROOT
BRANCH   1   2
ATOM      2  O   UNL A   1      33.338  30.244  26.658  1.00  0.00    -0.461 OA
BRANCH   2   3
ATOM      3  C   UNL A   1      32.485  29.691  25.753  1.00  0.00     0.326 C 
ATOM      4  O   UNL A   1      31.412  30.176  25.417  1.00  0.00    -0.250 OA
BRANCH   3   5
ATOM      5  C   UNL A   1      33.113  28.508  25.071  1.00  0.00     0.244 C 
BRANCH   5   6
ATOM      6  N   UNL A   1      32.211  27.783  24.198  1.00  0.00    -0.332 N 
ATOM      7  C   UNL A   1      31.424  26.725  24.588  1.00  0.00     0.107 A 
ATOM      8  C   UNL A   1      30.664  26.365  23.486  1.00  0.00     0.033 A 
ATOM      9  C   UNL A   1      31.056  27.184  22.399  1.00  0.00     0.020 A 
ATOM     10  C   UNL A   1      32.013  28.054  22.868  1.00  0.00     0.087 A 
BRANCH   7  11
ATOM     11  C   UNL A   1      31.449  26.169  25.917  1.00  0.00     0.272 C 
ATOM     12  N   UNL A   1      32.302  25.136  26.220  1.00  0.00    -0.321 N 
ATOM     13  H   UNL A   1      32.228  24.823  27.150  1.00  0.00     0.170 HD
ATOM     14  O   UNL A   1      30.737  26.613  26.819  1.00  0.00    -0.267 OA
BRANCH  12  15
ATOM     15  C   UNL A   1      33.263  24.439  25.465  1.00  0.00     0.041 A 
ATOM     16  C   UNL A   1      36.546  22.164  23.854  1.00  0.00     0.044 C 
ATOM     17  C   UNL A   1      35.404  23.018  24.309  1.00  0.00    -0.051 A 
ATOM     18  C   UNL A   1      34.098  22.537  24.211  1.00  0.00     0.005 A 
ATOM     19  C   UNL A   1      35.621  24.264  24.901  1.00  0.00     0.005 A 
ATOM     20  C   UNL A   1      33.037  23.255  24.766  1.00  0.00     0.026 A 
ATOM     21  C   UNL A   1      34.556  24.975  25.461  1.00  0.00     0.026 A 
ENDBRANCH  12  15
ENDBRANCH   7  11
ENDBRANCH   5   6
ENDBRANCH   3   5
ENDBRANCH   2   3
ENDBRANCH   1   2
BRANCH   1  22
ATOM     22  C   UNL A   1      35.370  30.232  27.944  1.00  0.00     0.275 C 
BRANCH  22  23
ATOM     23  O   UNL A   1      36.467  29.401  28.397  1.00  0.00    -0.458 OA
BRANCH  23  24
ATOM     24  C   UNL A   1      36.788  29.412  29.721  1.00  0.00     0.338 C 
ATOM     25  O   UNL A   1      36.021  29.655  30.640  1.00  0.00    -0.246 OA
BRANCH  24  26
ATOM     26  C   UNL A   1      38.156  28.836  29.912  1.00  0.00     0.060 A 
ATOM     27  C   UNL A   1      38.833  28.237  28.833  1.00  0.00     0.016 A 
ATOM     28  C   UNL A   1      38.847  29.033  31.098  1.00  0.00     0.016 A 
ATOM     29  C   UNL A   1      40.234  28.027  28.876  1.00  0.00     0.010 A 
ATOM     30  C   UNL A   1      40.214  28.739  31.165  1.00  0.00     0.010 A 
ATOM     31  C   UNL A   1      40.954  28.348  30.028  1.00  0.00    -0.014 A 
BRANCH  31  32
ATOM     32  C   UNL A   1      42.401  28.766  30.009  1.00  0.00     0.031 A 
ATOM     33  C   UNL A   1      43.167  28.258  31.152  1.00  0.00     0.074 A 
ATOM     34  C   UNL A   1      43.229  28.942  28.943  1.00  0.00     0.049 A 
ATOM     35  N   UNL A   1      43.321  26.985  31.289  1.00  0.00    -0.248 NA
ATOM     36  C   UNL A   1      43.909  29.074  32.089  1.00  0.00     0.031 C 
ATOM     37  C   UNL A   1      42.789  29.244  27.594  1.00  0.00     0.029 A 
ATOM     38  N   UNL A   1      44.630  28.713  28.816  1.00  0.00    -0.354 N 
ATOM     39  C   UNL A   1      44.415  26.813  32.080  1.00  0.00     0.074 A 
ATOM     40  C   UNL A   1      44.657  28.123  32.669  1.00  0.00     0.031 C 
ATOM     41  C   UNL A   1      43.827  29.081  26.755  1.00  0.00     0.029 A 
ATOM     42  C   UNL A   1      45.017  28.576  27.478  1.00  0.00     0.049 A 
ATOM     43  H   UNL A   1      45.251  28.658  29.579  1.00  0.00     0.167 HD
ATOM     44  C   UNL A   1      45.103  25.641  31.971  1.00  0.00     0.031 A 
ATOM     45  C   UNL A   1      45.867  27.680  26.880  1.00  0.00     0.031 A 
ATOM     46  C   UNL A   1      44.471  24.641  31.075  1.00  0.00     0.049 A 
ATOM     47  C   UNL A   1      44.926  26.576  26.531  1.00  0.00     0.074 A 
ATOM     48  C   UNL A   1      44.093  23.315  31.187  1.00  0.00     0.029 A 
ATOM     49  N   UNL A   1      44.058  25.012  29.799  1.00  0.00    -0.354 N 
ATOM     50  N   UNL A   1      44.547  25.734  27.437  1.00  0.00    -0.248 NA
ATOM     51  C   UNL A   1      44.305  26.406  25.236  1.00  0.00     0.031 C 
ATOM     52  C   UNL A   1      43.384  22.940  29.996  1.00  0.00     0.029 A 
ATOM     53  C   UNL A   1      43.338  24.025  29.134  1.00  0.00     0.049 A 
ATOM     54  H   UNL A   1      44.258  25.892  29.403  1.00  0.00     0.167 HD
ATOM     55  C   UNL A   1      43.484  25.041  26.938  1.00  0.00     0.074 A 
ATOM     56  C   UNL A   1      43.391  25.478  25.549  1.00  0.00     0.031 C 
ATOM     57  C   UNL A   1      42.736  24.284  27.793  1.00  0.00     0.031 A 
BRANCH  44  58
ATOM     58  C   UNL A   1      46.490  25.477  32.540  1.00  0.00    -0.014 A 
ATOM     59  C   UNL A   1      46.666  24.691  33.692  1.00  0.00     0.009 A 
ATOM     60  C   UNL A   1      47.658  26.011  31.966  1.00  0.00     0.009 A 
ATOM     61  C   UNL A   1      47.938  24.413  34.207  1.00  0.00     0.001 A 
ATOM     62  C   UNL A   1      48.936  25.690  32.442  1.00  0.00     0.001 A 
ATOM     63  C   UNL A   1      49.076  24.890  33.566  1.00  0.00     0.000 A 
ENDBRANCH  44  58
BRANCH  45  64
ATOM     64  C   UNL A   1      47.244  27.125  27.164  1.00  0.00    -0.014 A 
ATOM     65  C   UNL A   1      48.067  26.815  26.070  1.00  0.00     0.009 A 
ATOM     66  C   UNL A   1      47.586  26.518  28.397  1.00  0.00     0.009 A 
ATOM     67  C   UNL A   1      49.108  25.874  26.186  1.00  0.00     0.001 A 
ATOM     68  C   UNL A   1      48.597  25.554  28.506  1.00  0.00     0.001 A 
ATOM     69  C   UNL A   1      49.349  25.216  27.392  1.00  0.00     0.000 A 
ENDBRANCH  45  64
BRANCH  57  70
ATOM     70  C   UNL A   1      41.304  23.892  27.463  1.00  0.00    -0.014 A 
ATOM     71  C   UNL A   1      40.888  22.641  26.976  1.00  0.00     0.009 A 
ATOM     72  C   UNL A   1      40.299  24.874  27.535  1.00  0.00     0.009 A 
ATOM     73  C   UNL A   1      39.587  22.407  26.502  1.00  0.00     0.001 A 
ATOM     74  C   UNL A   1      38.986  24.641  27.100  1.00  0.00     0.001 A 
ATOM     75  C   UNL A   1      38.634  23.411  26.562  1.00  0.00     0.000 A 
ENDBRANCH  57  70
ENDBRANCH  31  32
ENDBRANCH  24  26
ENDBRANCH  23  24
ENDBRANCH  22  23
ENDBRANCH   1  22
TORSDOF 14
ENDMDL
MODEL 3
REMARK VINA RESULT:      -9.2      5.421      9.365
REMARK SMILES Cc1ccc(NC(=O)c2cccn2CC(=O)OCCOC(=O)c2ccc(-c3c4nc(c(-c5ccccc5)c5ccc([nH]5)c(-c5ccccc5)c5nc(c(-c6ccccc6)c6ccc3[nH]6)C=C5)C=C4)cc2)cc1
REMARK SMILES IDX 18 1 17 2 15 3 16 4 14 5 13 6 9 7 10 8 11 9 12 10 7 11 6 12
REMARK SMILES IDX 8 14 5 15 1 16 2 17 3 18 72 19 4 20 71 21 19 22 20 23 21 24
REMARK SMILES IDX 22 25 23 26 24 27 70 28 25 29 69 30 26 31 27 32 28 33 63 34
REMARK SMILES IDX 29 35 68 36 62 37 64 38 30 39 67 40 61 41 60 42 31 44 53 45
REMARK SMILES IDX 38 46 52 47 39 48 42 49 51 50 65 51 40 52 41 53 50 55 66 56
REMARK SMILES IDX 43 57 32 58 33 59 37 60 34 61 36 62 35 63 54 64 55 65 59 66
REMARK SMILES IDX 56 67 58 68 57 69 44 70 45 71 49 72 46 73 48 74 47 75
REMARK H PARENT 6 13 64 43 42 54
REMARK Flexibility Score: inf
ROOT
ATOM      1  C   UNL A   1      37.579  21.734  25.566  1.00  0.00     0.274 C 
ENDROOT
BRANCH   1   2
ATOM      2  O   UNL A   1      37.034  21.524  24.253  1.00  0.00    -0.461 OA
BRANCH   2   3
ATOM      3  C   UNL A   1      36.466  22.609  23.658  1.00  0.00     0.326 C 
ATOM      4  O   UNL A   1      36.690  22.975  22.511  1.00  0.00    -0.250 OA
BRANCH   3   5
ATOM      5  C   UNL A   1      35.381  23.193  24.520  1.00  0.00     0.244 C 
BRANCH   5   6
ATOM      6  N   UNL A   1      34.102  22.524  24.391  1.00  0.00    -0.332 N 
ATOM      7  C   UNL A   1      33.134  22.854  23.472  1.00  0.00     0.107 A 
ATOM      8  C   UNL A   1      32.105  21.938  23.628  1.00  0.00     0.033 A 
ATOM      9  C   UNL A   1      32.441  21.085  24.709  1.00  0.00     0.020 A 
ATOM     10  C   UNL A   1      33.683  21.469  25.161  1.00  0.00     0.087 A 
BRANCH   7  11
ATOM     11  C   UNL A   1      33.258  23.958  22.555  1.00  0.00     0.272 C 
ATOM     12  N   UNL A   1      32.995  25.240  22.974  1.00  0.00    -0.321 N 
ATOM     13  H   UNL A   1      33.096  25.916  22.265  1.00  0.00     0.170 HD
ATOM     14  O   UNL A   1      33.627  23.796  21.390  1.00  0.00    -0.267 OA
BRANCH  12  15
ATOM     15  C   UNL A   1      32.611  25.779  24.216  1.00  0.00     0.041 A 
ATOM     16  C   UNL A   1      31.596  28.126  27.681  1.00  0.00     0.044 C 
ATOM     17  C   UNL A   1      31.982  27.220  26.553  1.00  0.00    -0.051 A 
ATOM     18  C   UNL A   1      31.001  26.487  25.887  1.00  0.00     0.005 A 
ATOM     19  C   UNL A   1      33.302  27.148  26.101  1.00  0.00     0.005 A 
ATOM     20  C   UNL A   1      31.320  25.756  24.741  1.00  0.00     0.026 A 
ATOM     21  C   UNL A   1      33.615  26.419  24.949  1.00  0.00     0.026 A 
ENDBRANCH  12  15
ENDBRANCH   7  11
ENDBRANCH   5   6
ENDBRANCH   3   5
ENDBRANCH   2   3
ENDBRANCH   1   2
BRANCH   1  22
ATOM     22  C   UNL A   1      38.963  21.075  25.616  1.00  0.00     0.275 C 
BRANCH  22  23
ATOM     23  O   UNL A   1      39.627  21.427  26.854  1.00  0.00    -0.458 OA
BRANCH  23  24
ATOM     24  C   UNL A   1      40.861  21.998  26.792  1.00  0.00     0.338 C 
ATOM     25  O   UNL A   1      41.815  21.571  26.159  1.00  0.00    -0.246 OA
BRANCH  24  26
ATOM     26  C   UNL A   1      40.817  23.363  27.406  1.00  0.00     0.060 A 
ATOM     27  C   UNL A   1      41.985  23.942  27.936  1.00  0.00     0.016 A 
ATOM     28  C   UNL A   1      39.676  24.145  27.309  1.00  0.00     0.016 A 
ATOM     29  C   UNL A   1      42.064  25.336  28.175  1.00  0.00     0.010 A 
ATOM     30  C   UNL A   1      39.736  25.506  27.632  1.00  0.00     0.010 A 
ATOM     31  C   UNL A   1      40.951  26.149  27.952  1.00  0.00    -0.014 A 
BRANCH  31  32
ATOM     32  C   UNL A   1      41.051  27.599  27.561  1.00  0.00     0.031 A 
ATOM     33  C   UNL A   1      40.084  28.456  28.255  1.00  0.00     0.074 A 
ATOM     34  C   UNL A   1      42.156  28.325  27.233  1.00  0.00     0.049 A 
ATOM     35  N   UNL A   1      40.162  28.582  29.536  1.00  0.00    -0.248 NA
ATOM     36  C   UNL A   1      39.112  29.312  27.609  1.00  0.00     0.031 C 
ATOM     37  C   UNL A   1      43.390  27.767  26.715  1.00  0.00     0.029 A 
ATOM     38  N   UNL A   1      42.457  29.699  27.463  1.00  0.00    -0.354 N 
ATOM     39  C   UNL A   1      39.522  29.741  29.849  1.00  0.00     0.074 A 
ATOM     40  C   UNL A   1      38.765  30.081  28.653  1.00  0.00     0.031 C 
ATOM     41  C   UNL A   1      44.345  28.713  26.761  1.00  0.00     0.029 A 
ATOM     42  C   UNL A   1      43.833  29.950  27.394  1.00  0.00     0.049 A 
ATOM     43  H   UNL A   1      41.779  30.389  27.648  1.00  0.00     0.167 HD
ATOM     44  C   UNL A   1      39.881  30.377  31.000  1.00  0.00     0.031 A 
ATOM     45  C   UNL A   1      44.645  30.709  28.198  1.00  0.00     0.031 A 
ATOM     46  C   UNL A   1      40.853  29.629  31.836  1.00  0.00     0.049 A 
ATOM     47  C   UNL A   1      45.064  29.703  29.217  1.00  0.00     0.074 A 
ATOM     48  C   UNL A   1      40.909  29.221  33.157  1.00  0.00     0.029 A 
ATOM     49  N   UNL A   1      42.007  29.107  31.262  1.00  0.00    -0.354 N 
ATOM     50  N   UNL A   1      44.266  29.387  30.185  1.00  0.00    -0.248 NA
ATOM     51  C   UNL A   1      46.301  28.953  29.171  1.00  0.00     0.031 C 
ATOM     52  C   UNL A   1      42.067  28.388  33.328  1.00  0.00     0.029 A 
ATOM     53  C   UNL A   1      42.741  28.293  32.120  1.00  0.00     0.049 A 
ATOM     54  H   UNL A   1      42.280  29.295  30.335  1.00  0.00     0.167 HD
ATOM     55  C   UNL A   1      44.757  28.258  30.774  1.00  0.00     0.074 A 
ATOM     56  C   UNL A   1      46.044  28.045  30.121  1.00  0.00     0.031 C 
ATOM     57  C   UNL A   1      43.958  27.573  31.643  1.00  0.00     0.031 A 
BRANCH  44  58
ATOM     58  C   UNL A   1      39.487  31.806  31.276  1.00  0.00    -0.014 A 
ATOM     59  C   UNL A   1      38.635  32.083  32.358  1.00  0.00     0.009 A 
ATOM     60  C   UNL A   1      39.960  32.919  30.556  1.00  0.00     0.009 A 
ATOM     61  C   UNL A   1      38.318  33.396  32.730  1.00  0.00     0.001 A 
ATOM     62  C   UNL A   1      39.693  34.234  30.956  1.00  0.00     0.001 A 
ATOM     63  C   UNL A   1      38.869  34.473  32.046  1.00  0.00     0.000 A 
ENDBRANCH  44  58
BRANCH  45  64
ATOM     64  C   UNL A   1      44.591  32.088  28.814  1.00  0.00    -0.014 A 
ATOM     65  C   UNL A   1      43.330  32.662  29.033  1.00  0.00     0.009 A 
ATOM     66  C   UNL A   1      45.691  32.980  28.790  1.00  0.00     0.009 A 
ATOM     67  C   UNL A   1      43.172  34.059  29.121  1.00  0.00     0.001 A 
ATOM     68  C   UNL A   1      45.531  34.372  28.840  1.00  0.00     0.001 A 
ATOM     69  C   UNL A   1      44.265  34.915  28.987  1.00  0.00     0.000 A 
ENDBRANCH  45  64
BRANCH  57  70
ATOM     70  C   UNL A   1      44.199  26.103  31.954  1.00  0.00    -0.014 A 
ATOM     71  C   UNL A   1      44.222  25.059  31.013  1.00  0.00     0.009 A 
ATOM     72  C   UNL A   1      44.300  25.704  33.299  1.00  0.00     0.009 A 
ATOM     73  C   UNL A   1      44.247  23.706  31.385  1.00  0.00     0.001 A 
ATOM     74  C   UNL A   1      44.365  24.355  33.681  1.00  0.00     0.001 A 
ATOM     75  C   UNL A   1      44.317  23.353  32.722  1.00  0.00     0.000 A 
ENDBRANCH  57  70
ENDBRANCH  31  32
ENDBRANCH  24  26
ENDBRANCH  23  24
ENDBRANCH  22  23
ENDBRANCH   1  22
TORSDOF 14
ENDMDL
