MODEL 1
REMARK VINA RESULT:     -10.1      0.000      0.000
REMARK SMILES CCCCCCNC(=O)Oc1cccc(-c2ccc([C@@H](C)C(=O)OCCOC(=O)c3ccc(-c4c5nc(c(-c6ccccc6)c6ccc([nH]6)c(-c6ccccc6)c6nc(c(-c7ccccc7)c7ccc4[nH]7)C=C6)C=C5)cc3)cc2N)c1
REMARK SMILES IDX 20 1 21 2 19 3 16 4 17 5 79 6 18 7 78 8 15 9 11 10 12 11
REMARK SMILES IDX 81 12 13 13 14 14 10 15 8 16 7 17 9 19 6 20 5 21 4 22 3 23
REMARK SMILES IDX 2 24 1 25 80 26 22 29 23 30 24 31 25 32 26 33 27 34 28 35
REMARK SMILES IDX 29 36 30 37 31 38 77 39 32 40 76 41 33 42 34 43 35 44 70 45
REMARK SMILES IDX 36 46 75 47 69 48 71 49 37 50 74 51 68 52 67 53 38 55 60 56
REMARK SMILES IDX 45 57 59 58 46 59 49 60 58 61 72 62 47 63 48 64 57 66 73 67
REMARK SMILES IDX 50 68 39 69 40 70 44 71 41 72 43 73 42 74 61 75 62 76 66 77
REMARK SMILES IDX 63 78 65 79 64 80 51 81 52 82 56 83 53 84 55 85 54 86
REMARK H PARENT 7 18 80 27 80 28 71 54 49 65
REMARK Flexibility Score: inf
ROOT
ATOM      1  C   UNL A   1      40.438  20.408  26.547  1.00  0.00     0.126 C 
ATOM      2  C   UNL A   1      40.574  19.100  25.772  1.00  0.00     0.025 C 
ENDROOT
BRANCH   1   3
ATOM      3  C   UNL A   1      39.268  21.253  26.065  1.00  0.00    -0.032 A 
ATOM      4  C   UNL A   1      37.067  22.873  25.272  1.00  0.00     0.005 A 
ATOM      5  C   UNL A   1      37.156  21.516  24.904  1.00  0.00     0.011 A 
ATOM      6  C   UNL A   1      38.124  23.432  26.024  1.00  0.00     0.040 A 
ATOM      7  C   UNL A   1      38.232  20.717  25.298  1.00  0.00     0.005 A 
ATOM      8  C   UNL A   1      39.193  22.610  26.421  1.00  0.00     0.030 A 
BRANCH   4   9
ATOM      9  C   UNL A   1      35.868  23.640  24.872  1.00  0.00    -0.013 A 
ATOM     10  C   UNL A   1      33.959  25.042  25.400  1.00  0.00     0.133 A 
ATOM     11  C   UNL A   1      33.540  25.022  24.072  1.00  0.00     0.047 A 
ATOM     12  C   UNL A   1      35.113  24.370  25.807  1.00  0.00     0.056 A 
ATOM     13  C   UNL A   1      34.294  24.329  23.131  1.00  0.00     0.004 A 
ATOM     14  C   UNL A   1      35.442  23.640  23.529  1.00  0.00     0.009 A 
BRANCH  10  15
ATOM     15  O   UNL A   1      33.080  25.638  26.324  1.00  0.00    -0.410 OA
BRANCH  15  16
ATOM     16  C   UNL A   1      31.804  25.999  25.922  1.00  0.00     0.412 C 
ATOM     17  N   UNL A   1      30.865  25.046  26.210  1.00  0.00    -0.321 N 
ATOM     18  H   UNL A   1      29.938  25.246  25.945  1.00  0.00     0.167 HD
ATOM     19  O   UNL A   1      31.492  27.038  25.355  1.00  0.00    -0.224 OA
BRANCH  17  20
ATOM     20  C   UNL A   1      31.090  23.771  26.864  1.00  0.00     0.119 C 
BRANCH  20  21
ATOM     21  C   UNL A   1      31.030  22.600  25.883  1.00  0.00     0.021 C 
BRANCH  21  22
ATOM     22  C   UNL A   1      32.303  21.746  25.818  1.00  0.00     0.002 C 
BRANCH  22  23
ATOM     23  C   UNL A   1      32.733  21.304  24.414  1.00  0.00    -0.000 C 
BRANCH  23  24
ATOM     24  C   UNL A   1      33.428  19.942  24.335  1.00  0.00    -0.003 C 
ATOM     25  C   UNL A   1      32.897  18.935  25.343  1.00  0.00     0.004 C 
ENDBRANCH  23  24
ENDBRANCH  22  23
ENDBRANCH  21  22
ENDBRANCH  20  21
ENDBRANCH  17  20
ENDBRANCH  15  16
ENDBRANCH  10  15
ENDBRANCH   4   9
BRANCH   6  26
ATOM     26  N   UNL A   1      38.078  24.732  26.534  1.00  0.00    -0.398 N 
ATOM     27  H   UNL A   1      37.432  25.381  26.172  1.00  0.00     0.156 HD
ATOM     28  H   UNL A   1      38.691  24.999  27.257  1.00  0.00     0.156 HD
ENDBRANCH   6  26
ENDBRANCH   1   3
BRANCH   1  29
ATOM     29  C   UNL A   1      41.787  21.113  26.624  1.00  0.00     0.313 C 
ATOM     30  O   UNL A   1      42.263  21.488  27.691  1.00  0.00    -0.252 OA
BRANCH  29  31
ATOM     31  O   UNL A   1      42.410  21.236  25.424  1.00  0.00    -0.462 OA
BRANCH  31  32
ATOM     32  C   UNL A   1      43.850  21.239  25.434  1.00  0.00     0.274 C 
BRANCH  32  33
ATOM     33  C   UNL A   1      44.414  22.251  24.434  1.00  0.00     0.275 C 
BRANCH  33  34
ATOM     34  O   UNL A   1      43.736  23.517  24.538  1.00  0.00    -0.458 OA
BRANCH  34  35
ATOM     35  C   UNL A   1      44.499  24.536  24.997  1.00  0.00     0.338 C 
ATOM     36  O   UNL A   1      45.612  24.858  24.625  1.00  0.00    -0.246 OA
BRANCH  35  37
ATOM     37  C   UNL A   1      43.739  25.318  25.980  1.00  0.00     0.060 A 
ATOM     38  C   UNL A   1      44.092  26.655  26.171  1.00  0.00     0.016 A 
ATOM     39  C   UNL A   1      42.767  24.717  26.780  1.00  0.00     0.016 A 
ATOM     40  C   UNL A   1      43.493  27.399  27.183  1.00  0.00     0.010 A 
ATOM     41  C   UNL A   1      42.159  25.466  27.793  1.00  0.00     0.010 A 
ATOM     42  C   UNL A   1      42.534  26.804  28.012  1.00  0.00    -0.014 A 
BRANCH  42  43
ATOM     43  C   UNL A   1      41.982  27.567  29.155  1.00  0.00     0.031 A 
ATOM     44  C   UNL A   1      42.674  27.516  30.487  1.00  0.00     0.074 A 
ATOM     45  C   UNL A   1      40.884  28.328  28.991  1.00  0.00     0.049 A 
ATOM     46  N   UNL A   1      42.322  28.063  31.623  1.00  0.00    -0.248 NA
ATOM     47  C   UNL A   1      43.929  26.750  30.549  1.00  0.00     0.031 C 
ATOM     48  C   UNL A   1      40.155  28.502  27.735  1.00  0.00     0.029 A 
ATOM     49  N   UNL A   1      40.195  29.099  29.892  1.00  0.00    -0.354 N 
ATOM     50  C   UNL A   1      43.297  27.691  32.538  1.00  0.00     0.074 A 
ATOM     51  C   UNL A   1      44.249  26.860  31.831  1.00  0.00     0.031 C 
ATOM     52  C   UNL A   1      39.120  29.333  27.944  1.00  0.00     0.029 A 
ATOM     53  C   UNL A   1      39.091  29.713  29.354  1.00  0.00     0.049 A 
ATOM     54  H   UNL A   1      40.466  29.201  30.833  1.00  0.00     0.167 HD
ATOM     55  C   UNL A   1      43.391  28.010  33.850  1.00  0.00     0.031 A 
ATOM     56  C   UNL A   1      38.149  30.476  29.939  1.00  0.00     0.031 A 
ATOM     57  C   UNL A   1      42.447  28.836  34.555  1.00  0.00     0.049 A 
ATOM     58  C   UNL A   1      38.243  30.765  31.411  1.00  0.00     0.074 A 
ATOM     59  C   UNL A   1      42.459  29.217  35.886  1.00  0.00     0.029 A 
ATOM     60  N   UNL A   1      41.321  29.406  33.984  1.00  0.00    -0.354 N 
ATOM     61  N   UNL A   1      39.165  30.399  32.268  1.00  0.00    -0.248 NA
ATOM     62  C   UNL A   1      37.160  31.570  31.996  1.00  0.00     0.031 C 
ATOM     63  C   UNL A   1      41.317  29.989  36.128  1.00  0.00     0.029 A 
ATOM     64  C   UNL A   1      40.620  30.123  34.939  1.00  0.00     0.049 A 
ATOM     65  H   UNL A   1      41.059  29.316  33.040  1.00  0.00     0.167 HD
ATOM     66  C   UNL A   1      38.787  30.944  33.487  1.00  0.00     0.074 A 
ATOM     67  C   UNL A   1      37.559  31.678  33.257  1.00  0.00     0.031 C 
ATOM     68  C   UNL A   1      39.400  30.846  34.691  1.00  0.00     0.031 A 
BRANCH  55  69
ATOM     69  C   UNL A   1      44.543  27.429  34.620  1.00  0.00    -0.014 A 
ATOM     70  C   UNL A   1      44.442  26.180  35.251  1.00  0.00     0.009 A 
ATOM     71  C   UNL A   1      45.755  28.134  34.689  1.00  0.00     0.009 A 
ATOM     72  C   UNL A   1      45.526  25.660  35.961  1.00  0.00     0.001 A 
ATOM     73  C   UNL A   1      46.844  27.602  35.382  1.00  0.00     0.001 A 
ATOM     74  C   UNL A   1      46.727  26.369  36.023  1.00  0.00     0.000 A 
ENDBRANCH  55  69
BRANCH  56  75
ATOM     75  C   UNL A   1      37.015  31.000  29.136  1.00  0.00    -0.014 A 
ATOM     76  C   UNL A   1      36.986  32.341  28.727  1.00  0.00     0.009 A 
ATOM     77  C   UNL A   1      35.948  30.158  28.783  1.00  0.00     0.009 A 
ATOM     78  C   UNL A   1      35.901  32.835  27.999  1.00  0.00     0.001 A 
ATOM     79  C   UNL A   1      34.877  30.648  28.033  1.00  0.00     0.001 A 
ATOM     80  C   UNL A   1      34.850  31.987  27.649  1.00  0.00     0.000 A 
ENDBRANCH  56  75
BRANCH  68  81
ATOM     81  C   UNL A   1      38.767  31.572  35.842  1.00  0.00    -0.014 A 
ATOM     82  C   UNL A   1      37.978  30.893  36.783  1.00  0.00     0.009 A 
ATOM     83  C   UNL A   1      38.995  32.947  36.005  1.00  0.00     0.009 A 
ATOM     84  C   UNL A   1      37.404  31.586  37.850  1.00  0.00     0.001 A 
ATOM     85  C   UNL A   1      38.439  33.632  37.087  1.00  0.00     0.001 A 
ATOM     86  C   UNL A   1      37.638  32.952  38.004  1.00  0.00     0.000 A 
ENDBRANCH  68  81
ENDBRANCH  42  43
ENDBRANCH  35  37
ENDBRANCH  34  35
ENDBRANCH  33  34
ENDBRANCH  32  33
ENDBRANCH  31  32
ENDBRANCH  29  31
ENDBRANCH   1  29
TORSDOF 21
ENDMDL
MODEL 2
REMARK VINA RESULT:      -9.9      1.212      6.028
REMARK SMILES CCCCCCNC(=O)Oc1cccc(-c2ccc([C@@H](C)C(=O)OCCOC(=O)c3ccc(-c4c5nc(c(-c6ccccc6)c6ccc([nH]6)c(-c6ccccc6)c6nc(c(-c7ccccc7)c7ccc4[nH]7)C=C6)C=C5)cc3)cc2N)c1
REMARK SMILES IDX 20 1 21 2 19 3 16 4 17 5 79 6 18 7 78 8 15 9 11 10 12 11
REMARK SMILES IDX 81 12 13 13 14 14 10 15 8 16 7 17 9 19 6 20 5 21 4 22 3 23
REMARK SMILES IDX 2 24 1 25 80 26 22 29 23 30 24 31 25 32 26 33 27 34 28 35
REMARK SMILES IDX 29 36 30 37 31 38 77 39 32 40 76 41 33 42 34 43 35 44 70 45
REMARK SMILES IDX 36 46 75 47 69 48 71 49 37 50 74 51 68 52 67 53 38 55 60 56
REMARK SMILES IDX 45 57 59 58 46 59 49 60 58 61 72 62 47 63 48 64 57 66 73 67
REMARK SMILES IDX 50 68 39 69 40 70 44 71 41 72 43 73 42 74 61 75 62 76 66 77
REMARK SMILES IDX 63 78 65 79 64 80 51 81 52 82 56 83 53 84 55 85 54 86
REMARK H PARENT 7 18 80 27 80 28 71 54 49 65
REMARK Flexibility Score: inf
ROOT
ATOM      1  C   UNL A   1      41.193  20.259  26.637  1.00  0.00     0.126 C 
ATOM      2  C   UNL A   1      41.615  18.973  25.929  1.00  0.00     0.025 C 
ENDROOT
BRANCH   1   3
ATOM      3  C   UNL A   1      39.861  20.792  26.134  1.00  0.00    -0.032 A 
ATOM      4  C   UNL A   1      37.344  21.827  25.300  1.00  0.00     0.005 A 
ATOM      5  C   UNL A   1      37.756  20.524  24.959  1.00  0.00     0.011 A 
ATOM      6  C   UNL A   1      38.230  22.635  26.046  1.00  0.00     0.040 A 
ATOM      7  C   UNL A   1      38.988  20.011  25.373  1.00  0.00     0.005 A 
ATOM      8  C   UNL A   1      39.461  22.098  26.463  1.00  0.00     0.030 A 
BRANCH   4   9
ATOM      9  C   UNL A   1      36.000  22.279  24.881  1.00  0.00    -0.013 A 
ATOM     10  C   UNL A   1      33.611  22.494  25.248  1.00  0.00     0.133 A 
ATOM     11  C   UNL A   1      33.443  23.087  23.998  1.00  0.00     0.047 A 
ATOM     12  C   UNL A   1      34.872  22.098  25.699  1.00  0.00     0.056 A 
ATOM     13  C   UNL A   1      34.555  23.300  23.191  1.00  0.00     0.004 A 
ATOM     14  C   UNL A   1      35.819  22.893  23.626  1.00  0.00     0.009 A 
BRANCH  10  15
ATOM     15  O   UNL A   1      32.435  22.178  25.953  1.00  0.00    -0.410 OA
BRANCH  15  16
ATOM     16  C   UNL A   1      32.167  22.806  27.159  1.00  0.00     0.412 C 
ATOM     17  N   UNL A   1      31.218  23.785  27.050  1.00  0.00    -0.321 N 
ATOM     18  H   UNL A   1      30.988  24.269  27.876  1.00  0.00     0.167 HD
ATOM     19  O   UNL A   1      32.700  22.562  28.234  1.00  0.00    -0.224 OA
BRANCH  17  20
ATOM     20  C   UNL A   1      30.514  24.186  25.847  1.00  0.00     0.119 C 
BRANCH  20  21
ATOM     21  C   UNL A   1      30.580  25.696  25.616  1.00  0.00     0.021 C 
BRANCH  21  22
ATOM     22  C   UNL A   1      30.453  26.133  24.152  1.00  0.00     0.002 C 
BRANCH  22  23
ATOM     23  C   UNL A   1      31.636  26.933  23.593  1.00  0.00    -0.000 C 
BRANCH  23  24
ATOM     24  C   UNL A   1      32.391  27.791  24.612  1.00  0.00    -0.003 C 
ATOM     25  C   UNL A   1      33.820  27.331  24.847  1.00  0.00     0.004 C 
ENDBRANCH  23  24
ENDBRANCH  22  23
ENDBRANCH  21  22
ENDBRANCH  20  21
ENDBRANCH  17  20
ENDBRANCH  15  16
ENDBRANCH  10  15
ENDBRANCH   4   9
BRANCH   6  26
ATOM     26  N   UNL A   1      37.872  23.895  26.530  1.00  0.00    -0.398 N 
ATOM     27  H   UNL A   1      38.524  24.633  26.513  1.00  0.00     0.156 HD
ATOM     28  H   UNL A   1      36.968  24.046  26.888  1.00  0.00     0.156 HD
ENDBRANCH   6  26
ENDBRANCH   1   3
BRANCH   1  29
ATOM     29  C   UNL A   1      42.350  21.251  26.651  1.00  0.00     0.313 C 
ATOM     30  O   UNL A   1      42.773  21.741  27.694  1.00  0.00    -0.252 OA
BRANCH  29  31
ATOM     31  O   UNL A   1      42.878  21.494  25.424  1.00  0.00    -0.462 OA
BRANCH  31  32
ATOM     32  C   UNL A   1      44.295  21.742  25.362  1.00  0.00     0.274 C 
BRANCH  32  33
ATOM     33  C   UNL A   1      44.629  22.816  24.324  1.00  0.00     0.275 C 
BRANCH  33  34
ATOM     34  O   UNL A   1      43.871  24.018  24.557  1.00  0.00    -0.458 OA
BRANCH  34  35
ATOM     35  C   UNL A   1      44.588  25.061  25.035  1.00  0.00     0.338 C 
ATOM     36  O   UNL A   1      45.666  25.465  24.641  1.00  0.00    -0.246 OA
BRANCH  35  37
ATOM     37  C   UNL A   1      43.818  25.755  26.075  1.00  0.00     0.060 A 
ATOM     38  C   UNL A   1      43.986  27.134  26.207  1.00  0.00     0.016 A 
ATOM     39  C   UNL A   1      43.027  25.043  26.978  1.00  0.00     0.016 A 
ATOM     40  C   UNL A   1      43.382  27.814  27.261  1.00  0.00     0.010 A 
ATOM     41  C   UNL A   1      42.414  25.727  28.032  1.00  0.00     0.010 A 
ATOM     42  C   UNL A   1      42.606  27.112  28.191  1.00  0.00    -0.014 A 
BRANCH  42  43
ATOM     43  C   UNL A   1      42.059  27.821  29.370  1.00  0.00     0.031 A 
ATOM     44  C   UNL A   1      40.725  28.504  29.276  1.00  0.00     0.074 A 
ATOM     45  C   UNL A   1      42.740  27.825  30.531  1.00  0.00     0.049 A 
ATOM     46  N   UNL A   1      40.099  29.224  30.172  1.00  0.00    -0.248 NA
ATOM     47  C   UNL A   1      39.998  28.356  28.005  1.00  0.00     0.031 C 
ATOM     48  C   UNL A   1      44.019  27.153  30.765  1.00  0.00     0.029 A 
ATOM     49  N   UNL A   1      42.444  28.415  31.733  1.00  0.00    -0.354 N 
ATOM     50  C   UNL A   1      38.917  29.632  29.568  1.00  0.00     0.074 A 
ATOM     51  C   UNL A   1      38.917  29.092  28.225  1.00  0.00     0.031 C 
ATOM     52  C   UNL A   1      44.396  27.366  32.037  1.00  0.00     0.029 A 
ATOM     53  C   UNL A   1      43.409  28.221  32.690  1.00  0.00     0.049 A 
ATOM     54  H   UNL A   1      41.619  28.929  31.894  1.00  0.00     0.167 HD
ATOM     55  C   UNL A   1      37.922  30.390  30.085  1.00  0.00     0.031 A 
ATOM     56  C   UNL A   1      43.499  28.701  33.945  1.00  0.00     0.031 A 
ATOM     57  C   UNL A   1      37.919  30.927  31.420  1.00  0.00     0.049 A 
ATOM     58  C   UNL A   1      42.409  29.591  34.474  1.00  0.00     0.074 A 
ATOM     59  C   UNL A   1      36.953  31.704  32.035  1.00  0.00     0.029 A 
ATOM     60  N   UNL A   1      38.933  30.740  32.345  1.00  0.00    -0.354 N 
ATOM     61  N   UNL A   1      41.302  29.977  33.890  1.00  0.00    -0.248 NA
ATOM     62  C   UNL A   1      42.588  30.114  35.837  1.00  0.00     0.031 C 
ATOM     63  C   UNL A   1      37.402  32.021  33.322  1.00  0.00     0.029 A 
ATOM     64  C   UNL A   1      38.626  31.403  33.521  1.00  0.00     0.049 A 
ATOM     65  H   UNL A   1      39.750  30.214  32.189  1.00  0.00     0.167 HD
ATOM     66  C   UNL A   1      40.642  30.771  34.818  1.00  0.00     0.074 A 
ATOM     67  C   UNL A   1      41.465  30.799  36.009  1.00  0.00     0.031 C 
ATOM     68  C   UNL A   1      39.459  31.420  34.695  1.00  0.00     0.031 A 
BRANCH  55  69
ATOM     69  C   UNL A   1      36.765  30.715  29.184  1.00  0.00    -0.014 A 
ATOM     70  C   UNL A   1      36.538  32.023  28.732  1.00  0.00     0.009 A 
ATOM     71  C   UNL A   1      35.906  29.687  28.761  1.00  0.00     0.009 A 
ATOM     72  C   UNL A   1      35.455  32.302  27.895  1.00  0.00     0.001 A 
ATOM     73  C   UNL A   1      34.838  29.965  27.907  1.00  0.00     0.001 A 
ATOM     74  C   UNL A   1      34.608  31.273  27.481  1.00  0.00     0.000 A 
ENDBRANCH  55  69
BRANCH  56  75
ATOM     75  C   UNL A   1      44.681  28.372  34.782  1.00  0.00    -0.014 A 
ATOM     76  C   UNL A   1      44.689  27.225  35.589  1.00  0.00     0.009 A 
ATOM     77  C   UNL A   1      45.804  29.214  34.784  1.00  0.00     0.009 A 
ATOM     78  C   UNL A   1      45.791  26.938  36.398  1.00  0.00     0.001 A 
ATOM     79  C   UNL A   1      46.915  28.911  35.574  1.00  0.00     0.001 A 
ATOM     80  C   UNL A   1      46.905  27.779  36.386  1.00  0.00     0.000 A 
ENDBRANCH  56  75
BRANCH  68  81
ATOM     81  C   UNL A   1      38.974  32.190  35.889  1.00  0.00    -0.014 A 
ATOM     82  C   UNL A   1      39.368  33.520  36.103  1.00  0.00     0.009 A 
ATOM     83  C   UNL A   1      38.085  31.587  36.791  1.00  0.00     0.009 A 
ATOM     84  C   UNL A   1      38.900  34.221  37.216  1.00  0.00     0.001 A 
ATOM     85  C   UNL A   1      37.601  32.299  37.889  1.00  0.00     0.001 A 
ATOM     86  C   UNL A   1      38.015  33.612  38.105  1.00  0.00     0.000 A 
ENDBRANCH  68  81
ENDBRANCH  42  43
ENDBRANCH  35  37
ENDBRANCH  34  35
ENDBRANCH  33  34
ENDBRANCH  32  33
ENDBRANCH  31  32
ENDBRANCH  29  31
ENDBRANCH   1  29
TORSDOF 21
ENDMDL
MODEL 3
REMARK VINA RESULT:      -9.7      3.101      8.358
REMARK SMILES CCCCCCNC(=O)Oc1cccc(-c2ccc([C@@H](C)C(=O)OCCOC(=O)c3ccc(-c4c5nc(c(-c6ccccc6)c6ccc([nH]6)c(-c6ccccc6)c6nc(c(-c7ccccc7)c7ccc4[nH]7)C=C6)C=C5)cc3)cc2N)c1
REMARK SMILES IDX 20 1 21 2 19 3 16 4 17 5 79 6 18 7 78 8 15 9 11 10 12 11
REMARK SMILES IDX 81 12 13 13 14 14 10 15 8 16 7 17 9 19 6 20 5 21 4 22 3 23
REMARK SMILES IDX 2 24 1 25 80 26 22 29 23 30 24 31 25 32 26 33 27 34 28 35
REMARK SMILES IDX 29 36 30 37 31 38 77 39 32 40 76 41 33 42 34 43 35 44 70 45
REMARK SMILES IDX 36 46 75 47 69 48 71 49 37 50 74 51 68 52 67 53 38 55 60 56
REMARK SMILES IDX 45 57 59 58 46 59 49 60 58 61 72 62 47 63 48 64 57 66 73 67
REMARK SMILES IDX 50 68 39 69 40 70 44 71 41 72 43 73 42 74 61 75 62 76 66 77
REMARK SMILES IDX 63 78 65 79 64 80 51 81 52 82 56 83 53 84 55 85 54 86
REMARK H PARENT 7 18 80 27 80 28 71 54 49 65
REMARK Flexibility Score: inf
ROOT
ATOM      1  C   UNL A   1      32.715  28.600  26.758  1.00  0.00     0.126 C 
ATOM      2  C   UNL A   1      34.116  28.878  27.298  1.00  0.00     0.025 C 
ENDROOT
BRANCH   1   3
ATOM      3  C   UNL A   1      32.608  27.238  26.089  1.00  0.00    -0.032 A 
ATOM      4  C   UNL A   1      32.343  24.653  24.929  1.00  0.00     0.005 A 
ATOM      5  C   UNL A   1      33.593  25.296  25.022  1.00  0.00     0.011 A 
ATOM      6  C   UNL A   1      31.201  25.339  25.399  1.00  0.00     0.040 A 
ATOM      7  C   UNL A   1      33.726  26.562  25.597  1.00  0.00     0.005 A 
ATOM      8  C   UNL A   1      31.357  26.608  25.985  1.00  0.00     0.030 A 
BRANCH   4   9
ATOM      9  C   UNL A   1      32.288  23.286  24.366  1.00  0.00    -0.013 A 
ATOM     10  C   UNL A   1      32.305  20.873  24.618  1.00  0.00     0.133 A 
ATOM     11  C   UNL A   1      32.262  20.700  23.236  1.00  0.00     0.047 A 
ATOM     12  C   UNL A   1      32.309  22.148  25.188  1.00  0.00     0.056 A 
ATOM     13  C   UNL A   1      32.210  21.818  22.411  1.00  0.00     0.004 A 
ATOM     14  C   UNL A   1      32.230  23.098  22.971  1.00  0.00     0.009 A 
BRANCH  10  15
ATOM     15  O   UNL A   1      32.500  19.712  25.388  1.00  0.00    -0.410 OA
BRANCH  15  16
ATOM     16  C   UNL A   1      33.245  18.664  24.871  1.00  0.00     0.412 C 
ATOM     17  N   UNL A   1      34.583  18.946  24.798  1.00  0.00    -0.321 N 
ATOM     18  H   UNL A   1      35.163  18.238  24.436  1.00  0.00     0.167 HD
ATOM     19  O   UNL A   1      32.808  17.584  24.494  1.00  0.00    -0.224 OA
BRANCH  17  20
ATOM     20  C   UNL A   1      35.235  20.178  25.197  1.00  0.00     0.119 C 
BRANCH  20  21
ATOM     21  C   UNL A   1      36.736  20.157  24.903  1.00  0.00     0.021 C 
BRANCH  21  22
ATOM     22  C   UNL A   1      37.341  21.518  24.536  1.00  0.00     0.002 C 
BRANCH  22  23
ATOM     23  C   UNL A   1      36.404  22.722  24.683  1.00  0.00    -0.000 C 
BRANCH  23  24
ATOM     24  C   UNL A   1      36.576  23.538  25.967  1.00  0.00    -0.003 C 
ATOM     25  C   UNL A   1      38.014  23.963  26.224  1.00  0.00     0.004 C 
ENDBRANCH  23  24
ENDBRANCH  22  23
ENDBRANCH  21  22
ENDBRANCH  20  21
ENDBRANCH  17  20
ENDBRANCH  15  16
ENDBRANCH  10  15
ENDBRANCH   4   9
BRANCH   6  26
ATOM     26  N   UNL A   1      29.938  24.745  25.457  1.00  0.00    -0.398 N 
ATOM     27  H   UNL A   1      29.251  24.983  24.792  1.00  0.00     0.156 HD
ATOM     28  H   UNL A   1      29.735  24.088  26.162  1.00  0.00     0.156 HD
ENDBRANCH   6  26
ENDBRANCH   1   3
BRANCH   1  29
ATOM     29  C   UNL A   1      32.225  29.789  25.939  1.00  0.00     0.313 C 
ATOM     30  O   UNL A   1      31.613  29.643  24.885  1.00  0.00    -0.252 OA
BRANCH  29  31
ATOM     31  O   UNL A   1      32.491  30.992  26.508  1.00  0.00    -0.462 OA
BRANCH  31  32
ATOM     32  C   UNL A   1      31.365  31.850  26.776  1.00  0.00     0.274 C 
BRANCH  32  33
ATOM     33  C   UNL A   1      31.814  33.273  27.115  1.00  0.00     0.275 C 
BRANCH  33  34
ATOM     34  O   UNL A   1      33.244  33.407  27.006  1.00  0.00    -0.458 OA
BRANCH  34  35
ATOM     35  C   UNL A   1      33.840  34.019  28.054  1.00  0.00     0.338 C 
ATOM     36  O   UNL A   1      33.456  35.002  28.660  1.00  0.00    -0.246 OA
BRANCH  35  37
ATOM     37  C   UNL A   1      35.021  33.250  28.468  1.00  0.00     0.060 A 
ATOM     38  C   UNL A   1      34.819  31.991  29.037  1.00  0.00     0.016 A 
ATOM     39  C   UNL A   1      36.299  33.804  28.399  1.00  0.00     0.016 A 
ATOM     40  C   UNL A   1      35.895  31.283  29.566  1.00  0.00     0.010 A 
ATOM     41  C   UNL A   1      37.381  33.090  28.923  1.00  0.00     0.010 A 
ATOM     42  C   UNL A   1      37.181  31.835  29.528  1.00  0.00    -0.014 A 
BRANCH  42  43
ATOM     43  C   UNL A   1      38.300  31.128  30.190  1.00  0.00     0.031 A 
ATOM     44  C   UNL A   1      38.654  31.460  31.611  1.00  0.00     0.074 A 
ATOM     45  C   UNL A   1      38.975  30.167  29.532  1.00  0.00     0.049 A 
ATOM     46  N   UNL A   1      39.632  30.998  32.350  1.00  0.00    -0.248 NA
ATOM     47  C   UNL A   1      37.795  32.442  32.292  1.00  0.00     0.031 C 
ATOM     48  C   UNL A   1      38.691  29.716  28.169  1.00  0.00     0.029 A 
ATOM     49  N   UNL A   1      40.038  29.397  29.928  1.00  0.00    -0.354 N 
ATOM     50  C   UNL A   1      39.519  31.647  33.572  1.00  0.00     0.074 A 
ATOM     51  C   UNL A   1      38.387  32.545  33.474  1.00  0.00     0.031 C 
ATOM     52  C   UNL A   1      39.558  28.742  27.844  1.00  0.00     0.029 A 
ATOM     53  C   UNL A   1      40.481  28.535  28.956  1.00  0.00     0.049 A 
ATOM     54  H   UNL A   1      40.445  29.458  30.823  1.00  0.00     0.167 HD
ATOM     55  C   UNL A   1      40.288  31.508  34.677  1.00  0.00     0.031 A 
ATOM     56  C   UNL A   1      41.529  27.689  28.955  1.00  0.00     0.031 A 
ATOM     57  C   UNL A   1      41.413  30.616  34.777  1.00  0.00     0.049 A 
ATOM     58  C   UNL A   1      42.406  27.599  30.173  1.00  0.00     0.074 A 
ATOM     59  C   UNL A   1      42.252  30.404  35.857  1.00  0.00     0.029 A 
ATOM     60  N   UNL A   1      41.852  29.787  33.757  1.00  0.00    -0.354 N 
ATOM     61  N   UNL A   1      42.293  28.225  31.319  1.00  0.00    -0.248 NA
ATOM     62  C   UNL A   1      43.556  26.688  30.092  1.00  0.00     0.031 C 
ATOM     63  C   UNL A   1      43.226  29.473  35.476  1.00  0.00     0.029 A 
ATOM     64  C   UNL A   1      42.964  29.075  34.175  1.00  0.00     0.049 A 
ATOM     65  H   UNL A   1      41.437  29.716  32.868  1.00  0.00     0.167 HD
ATOM     66  C   UNL A   1      43.344  27.769  32.103  1.00  0.00     0.074 A 
ATOM     67  C   UNL A   1      44.075  26.804  31.308  1.00  0.00     0.031 C 
ATOM     68  C   UNL A   1      43.677  28.120  33.369  1.00  0.00     0.031 A 
BRANCH  55  69
ATOM     69  C   UNL A   1      39.959  32.375  35.858  1.00  0.00    -0.014 A 
ATOM     70  C   UNL A   1      39.005  31.981  36.808  1.00  0.00     0.009 A 
ATOM     71  C   UNL A   1      40.637  33.592  36.036  1.00  0.00     0.009 A 
ATOM     72  C   UNL A   1      38.715  32.803  37.899  1.00  0.00     0.001 A 
ATOM     73  C   UNL A   1      40.361  34.401  37.139  1.00  0.00     0.001 A 
ATOM     74  C   UNL A   1      39.395  34.010  38.066  1.00  0.00     0.000 A 
ENDBRANCH  55  69
BRANCH  56  75
ATOM     75  C   UNL A   1      41.826  26.877  27.748  1.00  0.00    -0.014 A 
ATOM     76  C   UNL A   1      42.626  27.393  26.718  1.00  0.00     0.009 A 
ATOM     77  C   UNL A   1      41.300  25.582  27.616  1.00  0.00     0.009 A 
ATOM     78  C   UNL A   1      42.876  26.637  25.570  1.00  0.00     0.001 A 
ATOM     79  C   UNL A   1      41.573  24.818  26.480  1.00  0.00     0.001 A 
ATOM     80  C   UNL A   1      42.353  25.349  25.455  1.00  0.00     0.000 A 
ENDBRANCH  56  75
BRANCH  68  81
ATOM     81  C   UNL A   1      44.865  27.433  33.979  1.00  0.00    -0.014 A 
ATOM     82  C   UNL A   1      44.726  26.220  34.669  1.00  0.00     0.009 A 
ATOM     83  C   UNL A   1      46.143  27.993  33.829  1.00  0.00     0.009 A 
ATOM     84  C   UNL A   1      45.844  25.594  35.223  1.00  0.00     0.001 A 
ATOM     85  C   UNL A   1      47.261  27.352  34.364  1.00  0.00     0.001 A 
ATOM     86  C   UNL A   1      47.110  26.157  35.067  1.00  0.00     0.000 A 
ENDBRANCH  68  81
ENDBRANCH  42  43
ENDBRANCH  35  37
ENDBRANCH  34  35
ENDBRANCH  33  34
ENDBRANCH  32  33
ENDBRANCH  31  32
ENDBRANCH  29  31
ENDBRANCH   1  29
TORSDOF 21
ENDMDL
