MODEL 1
REMARK VINA RESULT:     -10.6      0.000      0.000
REMARK SMILES O=C(N[C@@H](Cc1ccccc1)C(=O)N[C@@H](CS)C(=O)N[C@@H](CO)C(=O)OCCOC(=O)c1ccc(-c2c3nc(c(-c4ccccc4)c4ccc([nH]4)c(-c4ccccc4)c4nc(c(-c5ccccc5)c5ccc2[nH]5)C=C4)C=C3)cc1)c1ccc(F)cc1
REMARK SMILES IDX 24 1 25 2 21 3 20 4 18 5 19 6 15 8 14 9 12 10 13 11 4 13
REMARK SMILES IDX 3 14 1 15 2 16 80 18 81 19 86 20 82 21 85 22 83 23 84 24
REMARK SMILES IDX 5 25 6 26 7 27 11 28 8 29 10 30 9 31 16 32 17 33 22 35 23 36
REMARK SMILES IDX 26 38 27 39 28 40 29 41 30 42 31 43 32 44 33 45 79 46 34 47
REMARK SMILES IDX 78 48 35 49 36 50 37 51 72 52 38 53 77 54 71 55 73 56 39 57
REMARK SMILES IDX 76 58 70 59 69 60 40 62 62 63 47 64 61 65 48 66 51 67 60 68
REMARK SMILES IDX 74 69 49 70 50 71 59 73 75 74 52 75 41 76 42 77 46 78 43 79
REMARK SMILES IDX 45 80 44 81 63 82 64 83 68 84 65 85 67 86 66 87 53 88 54 89
REMARK SMILES IDX 58 90 55 91 57 92 56 93
REMARK H PARENT 20 7 14 12 3 17 17 34 23 37 73 61 51 72
REMARK Flexibility Score: inf
ROOT
ATOM      1  C   UNL A   1      35.009  19.380  24.933  1.00  0.00     0.331 C 
ATOM      2  O   UNL A   1      35.136  18.233  24.517  1.00  0.00    -0.250 OA
ENDROOT
BRANCH   1   3
ATOM      3  C   UNL A   1      33.661  20.103  24.950  1.00  0.00     0.218 C 
BRANCH   3   4
ATOM      4  N   UNL A   1      33.375  20.908  23.752  1.00  0.00    -0.339 N 
ATOM      5  C   UNL A   1      32.387  21.847  23.690  1.00  0.00     0.244 C 
ATOM      6  O   UNL A   1      31.456  21.627  22.909  1.00  0.00    -0.273 OA
ATOM      7  H   UNL A   1      33.927  20.762  22.951  1.00  0.00     0.164 HD
BRANCH   5   8
ATOM      8  C   UNL A   1      32.472  23.176  24.496  1.00  0.00     0.181 C 
BRANCH   8   9
ATOM      9  N   UNL A   1      31.581  23.104  25.649  1.00  0.00    -0.342 N 
ATOM     10  C   UNL A   1      30.783  24.021  26.246  1.00  0.00     0.243 C 
ATOM     11  O   UNL A   1      30.073  23.598  27.167  1.00  0.00    -0.273 OA
ATOM     12  H   UNL A   1      31.554  22.216  26.075  1.00  0.00     0.164 HD
BRANCH  10  13
ATOM     13  C   UNL A   1      30.748  25.521  25.880  1.00  0.00     0.176 C 
BRANCH  13  14
ATOM     14  N   UNL A   1      29.666  25.866  24.956  1.00  0.00    -0.340 N 
ATOM     15  O   UNL A   1      28.668  27.127  23.381  1.00  0.00    -0.269 OA
ATOM     16  C   UNL A   1      29.711  26.736  23.892  1.00  0.00     0.251 C 
ATOM     17  H   UNL A   1      28.803  25.421  25.115  1.00  0.00     0.164 HD
BRANCH  16  18
ATOM     18  C   UNL A   1      31.014  27.217  23.381  1.00  0.00     0.040 A 
ATOM     19  C   UNL A   1      31.376  28.564  23.525  1.00  0.00     0.017 A 
ATOM     20  C   UNL A   1      31.889  26.311  22.771  1.00  0.00     0.017 A 
ATOM     21  C   UNL A   1      32.594  29.012  23.011  1.00  0.00     0.040 A 
ATOM     22  C   UNL A   1      33.108  26.765  22.260  1.00  0.00     0.040 A 
ATOM     23  C   UNL A   1      33.445  28.111  22.380  1.00  0.00     0.123 A 
ATOM     24  F   UNL A   1      34.610  28.546  21.880  1.00  0.00    -0.207 F 
ENDBRANCH  16  18
ENDBRANCH  13  14
BRANCH  13  25
ATOM     25  C   UNL A   1      30.987  26.544  27.013  1.00  0.00     0.070 C 
BRANCH  25  26
ATOM     26  C   UNL A   1      32.050  27.613  26.900  1.00  0.00    -0.045 A 
ATOM     27  C   UNL A   1      31.754  28.916  27.335  1.00  0.00     0.004 A 
ATOM     28  C   UNL A   1      33.349  27.349  26.440  1.00  0.00     0.004 A 
ATOM     29  C   UNL A   1      32.703  29.936  27.250  1.00  0.00     0.000 A 
ATOM     30  C   UNL A   1      34.285  28.381  26.316  1.00  0.00     0.000 A 
ATOM     31  C   UNL A   1      33.961  29.674  26.718  1.00  0.00     0.000 A 
ENDBRANCH  25  26
ENDBRANCH  13  25
ENDBRANCH  10  13
ENDBRANCH   8   9
BRANCH   8  32
ATOM     32  C   UNL A   1      33.848  23.762  24.814  1.00  0.00     0.101 C 
BRANCH  32  33
ATOM     33  S   UNL A   1      34.523  23.356  26.464  1.00  0.00    -0.177 SA
ATOM     34  H   UNL A   1      35.291  24.388  26.906  1.00  0.00     0.102 HD
ENDBRANCH  32  33
ENDBRANCH   8  32
ENDBRANCH   5   8
ENDBRANCH   3   4
BRANCH   3  35
ATOM     35  C   UNL A   1      32.560  19.051  25.160  1.00  0.00     0.193 C 
BRANCH  35  36
ATOM     36  O   UNL A   1      32.747  18.366  26.401  1.00  0.00    -0.394 OA
ATOM     37  H   UNL A   1      33.484  18.769  26.886  1.00  0.00     0.210 HD
ENDBRANCH  35  36
ENDBRANCH   3  35
ENDBRANCH   1   3
BRANCH   1  38
ATOM     38  O   UNL A   1      36.026  20.167  25.378  1.00  0.00    -0.460 OA
BRANCH  38  39
ATOM     39  C   UNL A   1      37.330  19.884  24.835  1.00  0.00     0.274 C 
BRANCH  39  40
ATOM     40  C   UNL A   1      38.121  21.181  24.719  1.00  0.00     0.275 C 
BRANCH  40  41
ATOM     41  O   UNL A   1      38.316  21.728  26.037  1.00  0.00    -0.458 OA
BRANCH  41  42
ATOM     42  C   UNL A   1      39.601  21.963  26.385  1.00  0.00     0.338 C 
ATOM     43  O   UNL A   1      40.560  21.227  26.226  1.00  0.00    -0.246 OA
BRANCH  42  44
ATOM     44  C   UNL A   1      39.726  23.298  27.004  1.00  0.00     0.060 A 
ATOM     45  C   UNL A   1      38.896  24.345  26.612  1.00  0.00     0.016 A 
ATOM     46  C   UNL A   1      40.788  23.540  27.876  1.00  0.00     0.016 A 
ATOM     47  C   UNL A   1      39.213  25.654  26.994  1.00  0.00     0.010 A 
ATOM     48  C   UNL A   1      41.031  24.839  28.338  1.00  0.00     0.010 A 
ATOM     49  C   UNL A   1      40.286  25.930  27.858  1.00  0.00    -0.014 A 
BRANCH  49  50
ATOM     50  C   UNL A   1      40.688  27.333  28.203  1.00  0.00     0.031 A 
ATOM     51  C   UNL A   1      42.139  27.755  28.099  1.00  0.00     0.074 A 
ATOM     52  C   UNL A   1      39.794  28.266  28.590  1.00  0.00     0.049 A 
ATOM     53  N   UNL A   1      42.746  28.784  28.641  1.00  0.00    -0.248 NA
ATOM     54  C   UNL A   1      43.027  26.891  27.303  1.00  0.00     0.031 C 
ATOM     55  C   UNL A   1      38.345  28.085  28.683  1.00  0.00     0.029 A 
ATOM     56  N   UNL A   1      39.983  29.576  28.970  1.00  0.00    -0.354 N 
ATOM     57  C   UNL A   1      44.092  28.645  28.315  1.00  0.00     0.074 A 
ATOM     58  C   UNL A   1      44.213  27.439  27.526  1.00  0.00     0.031 C 
ATOM     59  C   UNL A   1      37.774  29.252  29.020  1.00  0.00     0.029 A 
ATOM     60  C   UNL A   1      38.820  30.232  29.293  1.00  0.00     0.049 A 
ATOM     61  H   UNL A   1      40.869  30.003  29.006  1.00  0.00     0.167 HD
ATOM     62  C   UNL A   1      45.135  29.442  28.653  1.00  0.00     0.031 A 
ATOM     63  C   UNL A   1      38.603  31.458  29.809  1.00  0.00     0.031 A 
ATOM     64  C   UNL A   1      45.014  30.694  29.354  1.00  0.00     0.049 A 
ATOM     65  C   UNL A   1      39.769  32.326  30.186  1.00  0.00     0.074 A 
ATOM     66  C   UNL A   1      46.019  31.550  29.777  1.00  0.00     0.029 A 
ATOM     67  N   UNL A   1      43.814  31.298  29.682  1.00  0.00    -0.354 N 
ATOM     68  N   UNL A   1      41.050  32.095  30.044  1.00  0.00    -0.248 NA
ATOM     69  C   UNL A   1      39.456  33.610  30.831  1.00  0.00     0.031 C 
ATOM     70  C   UNL A   1      45.424  32.666  30.374  1.00  0.00     0.029 A 
ATOM     71  C   UNL A   1      44.050  32.519  30.289  1.00  0.00     0.049 A 
ATOM     72  H   UNL A   1      42.923  30.915  29.508  1.00  0.00     0.167 HD
ATOM     73  C   UNL A   1      41.694  33.199  30.587  1.00  0.00     0.074 A 
ATOM     74  C   UNL A   1      40.666  34.115  31.031  1.00  0.00     0.031 C 
ATOM     75  C   UNL A   1      43.023  33.424  30.722  1.00  0.00     0.031 A 
BRANCH  62  76
ATOM     76  C   UNL A   1      46.519  28.972  28.306  1.00  0.00    -0.014 A 
ATOM     77  C   UNL A   1      47.252  28.138  29.162  1.00  0.00     0.009 A 
ATOM     78  C   UNL A   1      47.065  29.316  27.056  1.00  0.00     0.009 A 
ATOM     79  C   UNL A   1      48.512  27.671  28.779  1.00  0.00     0.001 A 
ATOM     80  C   UNL A   1      48.313  28.828  26.668  1.00  0.00     0.001 A 
ATOM     81  C   UNL A   1      49.038  28.009  27.531  1.00  0.00     0.000 A 
ENDBRANCH  62  76
BRANCH  63  82
ATOM     82  C   UNL A   1      37.215  31.908  30.091  1.00  0.00    -0.014 A 
ATOM     83  C   UNL A   1      36.629  31.680  31.344  1.00  0.00     0.009 A 
ATOM     84  C   UNL A   1      36.467  32.565  29.100  1.00  0.00     0.009 A 
ATOM     85  C   UNL A   1      35.318  32.091  31.594  1.00  0.00     0.001 A 
ATOM     86  C   UNL A   1      35.170  33.005  29.364  1.00  0.00     0.001 A 
ATOM     87  C   UNL A   1      34.593  32.761  30.608  1.00  0.00     0.000 A 
ENDBRANCH  63  82
BRANCH  75  88
ATOM     88  C   UNL A   1      43.437  34.721  31.350  1.00  0.00    -0.014 A 
ATOM     89  C   UNL A   1      43.625  34.824  32.737  1.00  0.00     0.009 A 
ATOM     90  C   UNL A   1      43.662  35.846  30.543  1.00  0.00     0.009 A 
ATOM     91  C   UNL A   1      44.003  36.041  33.308  1.00  0.00     0.001 A 
ATOM     92  C   UNL A   1      44.058  37.057  31.115  1.00  0.00     0.001 A 
ATOM     93  C   UNL A   1      44.221  37.155  32.496  1.00  0.00     0.000 A 
ENDBRANCH  75  88
ENDBRANCH  49  50
ENDBRANCH  42  44
ENDBRANCH  41  42
ENDBRANCH  40  41
ENDBRANCH  39  40
ENDBRANCH  38  39
ENDBRANCH   1  38
TORSDOF 23
ENDMDL
MODEL 2
REMARK VINA RESULT:     -10.5      2.851      8.243
REMARK SMILES O=C(N[C@@H](Cc1ccccc1)C(=O)N[C@@H](CS)C(=O)N[C@@H](CO)C(=O)OCCOC(=O)c1ccc(-c2c3nc(c(-c4ccccc4)c4ccc([nH]4)c(-c4ccccc4)c4nc(c(-c5ccccc5)c5ccc2[nH]5)C=C4)C=C3)cc1)c1ccc(F)cc1
REMARK SMILES IDX 24 1 25 2 21 3 20 4 18 5 19 6 15 8 14 9 12 10 13 11 4 13
REMARK SMILES IDX 3 14 1 15 2 16 80 18 81 19 86 20 82 21 85 22 83 23 84 24
REMARK SMILES IDX 5 25 6 26 7 27 11 28 8 29 10 30 9 31 16 32 17 33 22 35 23 36
REMARK SMILES IDX 26 38 27 39 28 40 29 41 30 42 31 43 32 44 33 45 79 46 34 47
REMARK SMILES IDX 78 48 35 49 36 50 37 51 72 52 38 53 77 54 71 55 73 56 39 57
REMARK SMILES IDX 76 58 70 59 69 60 40 62 62 63 47 64 61 65 48 66 51 67 60 68
REMARK SMILES IDX 74 69 49 70 50 71 59 73 75 74 52 75 41 76 42 77 46 78 43 79
REMARK SMILES IDX 45 80 44 81 63 82 64 83 68 84 65 85 67 86 66 87 53 88 54 89
REMARK SMILES IDX 58 90 55 91 57 92 56 93
REMARK H PARENT 20 7 14 12 3 17 17 34 23 37 73 61 51 72
REMARK Flexibility Score: inf
ROOT
ATOM      1  C   UNL A   1      31.140  28.732  24.828  1.00  0.00     0.331 C 
ATOM      2  O   UNL A   1      30.659  29.674  24.207  1.00  0.00    -0.250 OA
ENDROOT
BRANCH   1   3
ATOM      3  C   UNL A   1      30.443  27.374  24.929  1.00  0.00     0.218 C 
BRANCH   3   4
ATOM      4  N   UNL A   1      30.329  26.640  23.660  1.00  0.00    -0.339 N 
ATOM      5  C   UNL A   1      31.296  26.635  22.698  1.00  0.00     0.244 C 
ATOM      6  O   UNL A   1      31.011  27.157  21.616  1.00  0.00    -0.273 OA
ATOM      7  H   UNL A   1      29.508  26.123  23.494  1.00  0.00     0.164 HD
BRANCH   5   8
ATOM      8  C   UNL A   1      32.664  25.926  22.921  1.00  0.00     0.181 C 
BRANCH   8   9
ATOM      9  N   UNL A   1      32.711  24.699  22.130  1.00  0.00    -0.342 N 
ATOM     10  C   UNL A   1      33.056  23.426  22.439  1.00  0.00     0.243 C 
ATOM     11  O   UNL A   1      32.892  22.592  21.541  1.00  0.00    -0.273 OA
ATOM     12  H   UNL A   1      32.438  24.821  21.192  1.00  0.00     0.164 HD
BRANCH  10  13
ATOM     13  C   UNL A   1      33.664  22.987  23.789  1.00  0.00     0.176 C 
BRANCH  13  14
ATOM     14  N   UNL A   1      32.656  22.689  24.808  1.00  0.00    -0.340 N 
ATOM     15  O   UNL A   1      31.030  21.452  25.753  1.00  0.00    -0.269 OA
ATOM     16  C   UNL A   1      32.038  21.486  25.057  1.00  0.00     0.251 C 
ATOM     17  H   UNL A   1      32.388  23.440  25.385  1.00  0.00     0.164 HD
BRANCH  16  18
ATOM     18  C   UNL A   1      32.577  20.239  24.468  1.00  0.00     0.040 A 
ATOM     19  C   UNL A   1      32.111  19.786  23.226  1.00  0.00     0.017 A 
ATOM     20  C   UNL A   1      33.568  19.528  25.154  1.00  0.00     0.017 A 
ATOM     21  C   UNL A   1      32.604  18.593  22.696  1.00  0.00     0.040 A 
ATOM     22  C   UNL A   1      34.058  18.335  24.618  1.00  0.00     0.040 A 
ATOM     23  C   UNL A   1      33.568  17.876  23.398  1.00  0.00     0.123 A 
ATOM     24  F   UNL A   1      34.032  16.726  22.890  1.00  0.00    -0.207 F 
ENDBRANCH  16  18
ENDBRANCH  13  14
BRANCH  13  25
ATOM     25  C   UNL A   1      34.864  22.015  23.756  1.00  0.00     0.070 C 
BRANCH  25  26
ATOM     26  C   UNL A   1      36.103  22.259  24.586  1.00  0.00    -0.045 A 
ATOM     27  C   UNL A   1      36.960  21.181  24.864  1.00  0.00     0.004 A 
ATOM     28  C   UNL A   1      36.475  23.533  25.041  1.00  0.00     0.004 A 
ATOM     29  C   UNL A   1      38.115  21.358  25.627  1.00  0.00     0.000 A 
ATOM     30  C   UNL A   1      37.610  23.702  25.841  1.00  0.00     0.000 A 
ATOM     31  C   UNL A   1      38.427  22.615  26.137  1.00  0.00     0.000 A 
ENDBRANCH  25  26
ENDBRANCH  13  25
ENDBRANCH  10  13
ENDBRANCH   8   9
BRANCH   8  32
ATOM     32  C   UNL A   1      33.948  26.754  22.852  1.00  0.00     0.101 C 
BRANCH  32  33
ATOM     33  S   UNL A   1      33.739  28.508  22.378  1.00  0.00    -0.177 SA
ATOM     34  H   UNL A   1      32.877  28.594  21.330  1.00  0.00     0.102 HD
ENDBRANCH  32  33
ENDBRANCH   8  32
ENDBRANCH   5   8
ENDBRANCH   3   4
BRANCH   3  35
ATOM     35  C   UNL A   1      31.198  26.529  25.968  1.00  0.00     0.193 C 
BRANCH  35  36
ATOM     36  O   UNL A   1      31.047  27.084  27.276  1.00  0.00    -0.394 OA
ATOM     37  H   UNL A   1      30.595  27.940  27.215  1.00  0.00     0.210 HD
ENDBRANCH  35  36
ENDBRANCH   3  35
ENDBRANCH   1   3
BRANCH   1  38
ATOM     38  O   UNL A   1      32.301  28.773  25.536  1.00  0.00    -0.460 OA
BRANCH  38  39
ATOM     39  C   UNL A   1      32.729  30.077  25.977  1.00  0.00     0.274 C 
BRANCH  39  40
ATOM     40  C   UNL A   1      33.483  29.943  27.294  1.00  0.00     0.275 C 
BRANCH  40  41
ATOM     41  O   UNL A   1      34.417  31.032  27.408  1.00  0.00    -0.458 OA
BRANCH  41  42
ATOM     42  C   UNL A   1      35.075  31.114  28.587  1.00  0.00     0.338 C 
ATOM     43  O   UNL A   1      34.767  31.775  29.565  1.00  0.00    -0.246 OA
BRANCH  42  44
ATOM     44  C   UNL A   1      36.272  30.250  28.565  1.00  0.00     0.060 A 
ATOM     45  C   UNL A   1      36.710  29.609  29.720  1.00  0.00     0.016 A 
ATOM     46  C   UNL A   1      37.049  30.206  27.407  1.00  0.00     0.016 A 
ATOM     47  C   UNL A   1      37.987  29.037  29.749  1.00  0.00     0.010 A 
ATOM     48  C   UNL A   1      38.279  29.537  27.416  1.00  0.00     0.010 A 
ATOM     49  C   UNL A   1      38.799  28.992  28.603  1.00  0.00    -0.014 A 
BRANCH  49  50
ATOM     50  C   UNL A   1      40.201  28.460  28.643  1.00  0.00     0.031 A 
ATOM     51  C   UNL A   1      41.347  29.369  29.037  1.00  0.00     0.074 A 
ATOM     52  C   UNL A   1      40.494  27.174  28.358  1.00  0.00     0.049 A 
ATOM     53  N   UNL A   1      42.633  29.220  28.830  1.00  0.00    -0.248 NA
ATOM     54  C   UNL A   1      40.995  30.619  29.731  1.00  0.00     0.031 C 
ATOM     55  C   UNL A   1      39.531  26.123  28.030  1.00  0.00     0.029 A 
ATOM     56  N   UNL A   1      41.709  26.527  28.315  1.00  0.00    -0.354 N 
ATOM     57  C   UNL A   1      43.230  30.388  29.296  1.00  0.00     0.074 A 
ATOM     58  C   UNL A   1      42.169  31.231  29.802  1.00  0.00     0.031 C 
ATOM     59  C   UNL A   1      40.179  24.956  27.891  1.00  0.00     0.029 A 
ATOM     60  C   UNL A   1      41.615  25.195  27.993  1.00  0.00     0.049 A 
ATOM     61  H   UNL A   1      42.565  26.977  28.498  1.00  0.00     0.167 HD
ATOM     62  C   UNL A   1      44.541  30.732  29.294  1.00  0.00     0.031 A 
ATOM     63  C   UNL A   1      42.564  24.271  27.743  1.00  0.00     0.031 A 
ATOM     64  C   UNL A   1      45.615  29.864  28.885  1.00  0.00     0.049 A 
ATOM     65  C   UNL A   1      44.011  24.670  27.736  1.00  0.00     0.074 A 
ATOM     66  C   UNL A   1      46.970  30.141  28.808  1.00  0.00     0.029 A 
ATOM     67  N   UNL A   1      45.460  28.533  28.542  1.00  0.00    -0.354 N 
ATOM     68  N   UNL A   1      44.548  25.836  27.995  1.00  0.00    -0.248 NA
ATOM     69  C   UNL A   1      44.982  23.630  27.361  1.00  0.00     0.031 C 
ATOM     70  C   UNL A   1      47.634  28.978  28.403  1.00  0.00     0.029 A 
ATOM     71  C   UNL A   1      46.694  27.971  28.265  1.00  0.00     0.049 A 
ATOM     72  H   UNL A   1      44.599  28.056  28.501  1.00  0.00     0.167 HD
ATOM     73  C   UNL A   1      45.914  25.672  27.809  1.00  0.00     0.074 A 
ATOM     74  C   UNL A   1      46.130  24.288  27.448  1.00  0.00     0.031 C 
ATOM     75  C   UNL A   1      46.900  26.595  27.912  1.00  0.00     0.031 A 
BRANCH  62  76
ATOM     76  C   UNL A   1      44.900  32.130  29.711  1.00  0.00    -0.014 A 
ATOM     77  C   UNL A   1      45.314  32.428  31.017  1.00  0.00     0.009 A 
ATOM     78  C   UNL A   1      44.893  33.155  28.748  1.00  0.00     0.009 A 
ATOM     79  C   UNL A   1      45.699  33.728  31.353  1.00  0.00     0.001 A 
ATOM     80  C   UNL A   1      45.300  34.446  29.081  1.00  0.00     0.001 A 
ATOM     81  C   UNL A   1      45.699  34.734  30.384  1.00  0.00     0.000 A 
ENDBRANCH  62  76
BRANCH  63  82
ATOM     82  C   UNL A   1      42.169  22.884  27.384  1.00  0.00    -0.014 A 
ATOM     83  C   UNL A   1      42.208  22.451  26.050  1.00  0.00     0.009 A 
ATOM     84  C   UNL A   1      41.746  21.986  28.378  1.00  0.00     0.009 A 
ATOM     85  C   UNL A   1      41.819  21.151  25.720  1.00  0.00     0.001 A 
ATOM     86  C   UNL A   1      41.392  20.678  28.049  1.00  0.00     0.001 A 
ATOM     87  C   UNL A   1      41.420  20.263  26.719  1.00  0.00     0.000 A 
ENDBRANCH  63  82
BRANCH  75  88
ATOM     88  C   UNL A   1      48.302  26.128  27.657  1.00  0.00    -0.014 A 
ATOM     89  C   UNL A   1      48.869  26.211  26.375  1.00  0.00     0.009 A 
ATOM     90  C   UNL A   1      49.072  25.620  28.714  1.00  0.00     0.009 A 
ATOM     91  C   UNL A   1      50.173  25.766  26.152  1.00  0.00     0.001 A 
ATOM     92  C   UNL A   1      50.382  25.192  28.491  1.00  0.00     0.001 A 
ATOM     93  C   UNL A   1      50.928  25.258  27.210  1.00  0.00     0.000 A 
ENDBRANCH  75  88
ENDBRANCH  49  50
ENDBRANCH  42  44
ENDBRANCH  41  42
ENDBRANCH  40  41
ENDBRANCH  39  40
ENDBRANCH  38  39
ENDBRANCH   1  38
TORSDOF 23
ENDMDL
MODEL 3
REMARK VINA RESULT:     -10.4      0.849      5.585
REMARK SMILES O=C(N[C@@H](Cc1ccccc1)C(=O)N[C@@H](CS)C(=O)N[C@@H](CO)C(=O)OCCOC(=O)c1ccc(-c2c3nc(c(-c4ccccc4)c4ccc([nH]4)c(-c4ccccc4)c4nc(c(-c5ccccc5)c5ccc2[nH]5)C=C4)C=C3)cc1)c1ccc(F)cc1
REMARK SMILES IDX 24 1 25 2 21 3 20 4 18 5 19 6 15 8 14 9 12 10 13 11 4 13
REMARK SMILES IDX 3 14 1 15 2 16 80 18 81 19 86 20 82 21 85 22 83 23 84 24
REMARK SMILES IDX 5 25 6 26 7 27 11 28 8 29 10 30 9 31 16 32 17 33 22 35 23 36
REMARK SMILES IDX 26 38 27 39 28 40 29 41 30 42 31 43 32 44 33 45 79 46 34 47
REMARK SMILES IDX 78 48 35 49 36 50 37 51 72 52 38 53 77 54 71 55 73 56 39 57
REMARK SMILES IDX 76 58 70 59 69 60 40 62 62 63 47 64 61 65 48 66 51 67 60 68
REMARK SMILES IDX 74 69 49 70 50 71 59 73 75 74 52 75 41 76 42 77 46 78 43 79
REMARK SMILES IDX 45 80 44 81 63 82 64 83 68 84 65 85 67 86 66 87 53 88 54 89
REMARK SMILES IDX 58 90 55 91 57 92 56 93
REMARK H PARENT 20 7 14 12 3 17 17 34 23 37 73 61 51 72
REMARK Flexibility Score: inf
ROOT
ATOM      1  C   UNL A   1      34.796  19.368  24.863  1.00  0.00     0.331 C 
ATOM      2  O   UNL A   1      34.976  18.233  24.434  1.00  0.00    -0.250 OA
ENDROOT
BRANCH   1   3
ATOM      3  C   UNL A   1      33.431  20.056  24.822  1.00  0.00     0.218 C 
BRANCH   3   4
ATOM      4  N   UNL A   1      33.245  21.000  23.709  1.00  0.00    -0.339 N 
ATOM      5  C   UNL A   1      32.339  22.019  23.723  1.00  0.00     0.244 C 
ATOM      6  O   UNL A   1      31.416  21.958  22.906  1.00  0.00    -0.273 OA
ATOM      7  H   UNL A   1      33.807  20.890  22.908  1.00  0.00     0.164 HD
BRANCH   5   8
ATOM      8  C   UNL A   1      32.508  23.248  24.665  1.00  0.00     0.181 C 
BRANCH   8   9
ATOM      9  N   UNL A   1      31.537  23.165  25.752  1.00  0.00    -0.342 N 
ATOM     10  C   UNL A   1      30.692  24.075  26.292  1.00  0.00     0.243 C 
ATOM     11  O   UNL A   1      29.922  23.645  27.159  1.00  0.00    -0.273 OA
ATOM     12  H   UNL A   1      31.487  22.277  26.172  1.00  0.00     0.164 HD
BRANCH  10  13
ATOM     13  C   UNL A   1      30.672  25.576  25.928  1.00  0.00     0.176 C 
BRANCH  13  14
ATOM     14  N   UNL A   1      29.569  25.940  25.037  1.00  0.00    -0.340 N 
ATOM     15  O   UNL A   1      28.552  27.211  23.482  1.00  0.00    -0.269 OA
ATOM     16  C   UNL A   1      29.601  26.797  23.962  1.00  0.00     0.251 C 
ATOM     17  H   UNL A   1      28.700  25.522  25.231  1.00  0.00     0.164 HD
BRANCH  16  18
ATOM     18  C   UNL A   1      30.899  27.236  23.401  1.00  0.00     0.040 A 
ATOM     19  C   UNL A   1      31.294  28.577  23.501  1.00  0.00     0.017 A 
ATOM     20  C   UNL A   1      31.735  26.296  22.788  1.00  0.00     0.017 A 
ATOM     21  C   UNL A   1      32.506  28.985  22.941  1.00  0.00     0.040 A 
ATOM     22  C   UNL A   1      32.947  26.710  22.230  1.00  0.00     0.040 A 
ATOM     23  C   UNL A   1      33.317  28.050  22.307  1.00  0.00     0.123 A 
ATOM     24  F   UNL A   1      34.476  28.447  21.762  1.00  0.00    -0.207 F 
ENDBRANCH  16  18
ENDBRANCH  13  14
BRANCH  13  25
ATOM     25  C   UNL A   1      30.964  26.594  27.053  1.00  0.00     0.070 C 
BRANCH  25  26
ATOM     26  C   UNL A   1      32.015  27.668  26.895  1.00  0.00    -0.045 A 
ATOM     27  C   UNL A   1      31.718  28.978  27.308  1.00  0.00     0.004 A 
ATOM     28  C   UNL A   1      33.305  27.404  26.411  1.00  0.00     0.004 A 
ATOM     29  C   UNL A   1      32.657  30.003  27.180  1.00  0.00     0.000 A 
ATOM     30  C   UNL A   1      34.231  28.440  26.245  1.00  0.00     0.000 A 
ATOM     31  C   UNL A   1      33.905  29.738  26.626  1.00  0.00     0.000 A 
ENDBRANCH  25  26
ENDBRANCH  13  25
ENDBRANCH  10  13
ENDBRANCH   8   9
BRANCH   8  32
ATOM     32  C   UNL A   1      33.913  23.644  25.120  1.00  0.00     0.101 C 
BRANCH  32  33
ATOM     33  S   UNL A   1      34.419  23.029  26.766  1.00  0.00    -0.177 SA
ATOM     34  H   UNL A   1      34.392  24.053  27.660  1.00  0.00     0.102 HD
ENDBRANCH  32  33
ENDBRANCH   8  32
ENDBRANCH   5   8
ENDBRANCH   3   4
BRANCH   3  35
ATOM     35  C   UNL A   1      32.350  18.963  24.780  1.00  0.00     0.193 C 
BRANCH  35  36
ATOM     36  O   UNL A   1      32.405  18.153  25.956  1.00  0.00    -0.394 OA
ATOM     37  H   UNL A   1      33.061  18.518  26.570  1.00  0.00     0.210 HD
ENDBRANCH  35  36
ENDBRANCH   3  35
ENDBRANCH   1   3
BRANCH   1  38
ATOM     38  O   UNL A   1      35.766  20.173  25.376  1.00  0.00    -0.460 OA
BRANCH  38  39
ATOM     39  C   UNL A   1      37.087  20.004  24.824  1.00  0.00     0.274 C 
BRANCH  39  40
ATOM     40  C   UNL A   1      37.739  21.369  24.646  1.00  0.00     0.275 C 
BRANCH  40  41
ATOM     41  O   UNL A   1      38.012  21.928  25.944  1.00  0.00    -0.458 OA
BRANCH  41  42
ATOM     42  C   UNL A   1      39.311  21.923  26.319  1.00  0.00     0.338 C 
ATOM     43  O   UNL A   1      40.131  21.037  26.144  1.00  0.00    -0.246 OA
BRANCH  42  44
ATOM     44  C   UNL A   1      39.654  23.192  26.991  1.00  0.00     0.060 A 
ATOM     45  C   UNL A   1      39.126  24.400  26.545  1.00  0.00     0.016 A 
ATOM     46  C   UNL A   1      40.636  23.185  27.983  1.00  0.00     0.016 A 
ATOM     47  C   UNL A   1      39.676  25.603  27.002  1.00  0.00     0.010 A 
ATOM     48  C   UNL A   1      41.103  24.394  28.512  1.00  0.00     0.010 A 
ATOM     49  C   UNL A   1      40.676  25.627  27.989  1.00  0.00    -0.014 A 
BRANCH  49  50
ATOM     50  C   UNL A   1      41.334  26.904  28.423  1.00  0.00     0.031 A 
ATOM     51  C   UNL A   1      40.532  27.962  29.151  1.00  0.00     0.074 A 
ATOM     52  C   UNL A   1      42.644  27.150  28.210  1.00  0.00     0.049 A 
ATOM     53  N   UNL A   1      40.801  29.234  29.324  1.00  0.00    -0.248 NA
ATOM     54  C   UNL A   1      39.251  27.538  29.738  1.00  0.00     0.031 C 
ATOM     55  C   UNL A   1      43.604  26.233  27.594  1.00  0.00     0.029 A 
ATOM     56  N   UNL A   1      43.400  28.261  28.508  1.00  0.00    -0.354 N 
ATOM     57  C   UNL A   1      39.690  29.772  29.967  1.00  0.00     0.074 A 
ATOM     58  C   UNL A   1      38.749  28.691  30.160  1.00  0.00     0.031 C 
ATOM     59  C   UNL A   1      44.826  26.786  27.627  1.00  0.00     0.029 A 
ATOM     60  C   UNL A   1      44.720  28.145  28.145  1.00  0.00     0.049 A 
ATOM     61  H   UNL A   1      43.030  29.064  28.941  1.00  0.00     0.167 HD
ATOM     62  C   UNL A   1      39.468  31.053  30.352  1.00  0.00     0.031 A 
ATOM     63  C   UNL A   1      45.729  29.038  28.163  1.00  0.00     0.031 A 
ATOM     64  C   UNL A   1      40.434  32.116  30.255  1.00  0.00     0.049 A 
ATOM     65  C   UNL A   1      45.465  30.455  28.584  1.00  0.00     0.074 A 
ATOM     66  C   UNL A   1      40.283  33.454  30.581  1.00  0.00     0.029 A 
ATOM     67  N   UNL A   1      41.747  31.949  29.854  1.00  0.00    -0.354 N 
ATOM     68  N   UNL A   1      44.352  30.996  29.012  1.00  0.00    -0.248 NA
ATOM     69  C   UNL A   1      46.593  31.395  28.486  1.00  0.00     0.031 C 
ATOM     70  C   UNL A   1      41.505  34.100  30.363  1.00  0.00     0.029 A 
ATOM     71  C   UNL A   1      42.422  33.154  29.937  1.00  0.00     0.049 A 
ATOM     72  H   UNL A   1      42.143  31.097  29.556  1.00  0.00     0.167 HD
ATOM     73  C   UNL A   1      44.643  32.336  29.227  1.00  0.00     0.074 A 
ATOM     74  C   UNL A   1      46.043  32.522  28.916  1.00  0.00     0.031 C 
ATOM     75  C   UNL A   1      43.814  33.329  29.630  1.00  0.00     0.031 A 
BRANCH  62  76
ATOM     76  C   UNL A   1      38.105  31.399  30.884  1.00  0.00    -0.014 A 
ATOM     77  C   UNL A   1      37.049  31.754  30.034  1.00  0.00     0.009 A 
ATOM     78  C   UNL A   1      37.863  31.293  32.266  1.00  0.00     0.009 A 
ATOM     79  C   UNL A   1      35.780  32.011  30.559  1.00  0.00     0.001 A 
ATOM     80  C   UNL A   1      36.590  31.527  32.783  1.00  0.00     0.001 A 
ATOM     81  C   UNL A   1      35.549  31.889  31.931  1.00  0.00     0.000 A 
ENDBRANCH  62  76
BRANCH  63  82
ATOM     82  C   UNL A   1      47.077  28.642  27.676  1.00  0.00    -0.014 A 
ATOM     83  C   UNL A   1      47.359  28.603  26.303  1.00  0.00     0.009 A 
ATOM     84  C   UNL A   1      48.087  28.294  28.588  1.00  0.00     0.009 A 
ATOM     85  C   UNL A   1      48.623  28.213  25.854  1.00  0.00     0.001 A 
ATOM     86  C   UNL A   1      49.359  27.940  28.138  1.00  0.00     0.001 A 
ATOM     87  C   UNL A   1      49.624  27.891  26.771  1.00  0.00     0.000 A 
ENDBRANCH  63  82
BRANCH  75  88
ATOM     88  C   UNL A   1      44.410  34.697  29.784  1.00  0.00    -0.014 A 
ATOM     89  C   UNL A   1      44.728  35.476  28.661  1.00  0.00     0.009 A 
ATOM     90  C   UNL A   1      44.634  35.220  31.066  1.00  0.00     0.009 A 
ATOM     91  C   UNL A   1      45.289  36.744  28.819  1.00  0.00     0.001 A 
ATOM     92  C   UNL A   1      45.178  36.496  31.222  1.00  0.00     0.001 A 
ATOM     93  C   UNL A   1      45.512  37.254  30.099  1.00  0.00     0.000 A 
ENDBRANCH  75  88
ENDBRANCH  49  50
ENDBRANCH  42  44
ENDBRANCH  41  42
ENDBRANCH  40  41
ENDBRANCH  39  40
ENDBRANCH  38  39
ENDBRANCH   1  38
TORSDOF 23
ENDMDL
