MODEL 1
REMARK VINA RESULT:      -9.5      0.000      0.000
REMARK SMILES C[C@H]([NH3+])c1ccc(F)cc1OCC(C)(C)C(=O)OCCOC(=O)c1ccc(-c2c3nc(c(-c4ccccc4)c4ccc([nH]4)c(-c4ccccc4)c4nc(c(-c5ccccc5)c5ccc2[nH]5)C=C4)C=C3)cc1
REMARK SMILES IDX 18 1 16 2 17 3 13 4 14 5 15 6 12 7 11 8 10 9 4 10 5 11 6 12
REMARK SMILES IDX 9 13 7 14 8 15 2 16 1 17 3 18 19 22 20 23 21 24 22 25 23 26
REMARK SMILES IDX 24 27 25 28 71 29 26 30 70 31 27 32 28 33 29 34 64 35 30 36
REMARK SMILES IDX 69 37 63 38 65 39 31 40 68 41 62 42 61 43 32 45 54 46 39 47
REMARK SMILES IDX 53 48 40 49 43 50 52 51 66 52 41 53 42 54 51 56 67 57 44 58
REMARK SMILES IDX 33 59 34 60 38 61 35 62 37 63 36 64 55 65 56 66 60 67 57 68
REMARK SMILES IDX 59 69 58 70 45 71 46 72 50 73 47 74 49 75 48 76
REMARK H PARENT 3 19 3 20 3 21 65 44 43 55
REMARK Flexibility Score: inf
ROOT
ATOM      1  O   UNL A   1      32.951  27.338  25.888  1.00  0.00    -0.462 OA
ENDROOT
BRANCH   1   2
ATOM      2  C   UNL A   1      32.920  26.778  24.646  1.00  0.00     0.315 C 
ATOM      3  O   UNL A   1      32.695  27.410  23.622  1.00  0.00    -0.251 OA
BRANCH   2   4
ATOM      4  C   UNL A   1      33.081  25.254  24.708  1.00  0.00     0.096 C 
ATOM      5  C   UNL A   1      33.482  24.820  23.296  1.00  0.00     0.027 C 
ATOM      6  C   UNL A   1      31.747  24.565  25.072  1.00  0.00     0.027 C 
BRANCH   4   7
ATOM      7  C   UNL A   1      34.087  24.838  25.814  1.00  0.00     0.247 C 
BRANCH   7   8
ATOM      8  O   UNL A   1      34.245  23.460  26.111  1.00  0.00    -0.492 OA
BRANCH   8   9
ATOM      9  C   UNL A   1      35.259  22.644  25.719  1.00  0.00     0.131 A 
ATOM     10  C   UNL A   1      35.245  21.300  25.296  1.00  0.00     0.051 A 
ATOM     11  C   UNL A   1      36.498  20.689  25.015  1.00  0.00     0.017 A 
ATOM     12  C   UNL A   1      37.708  21.370  25.149  1.00  0.00     0.040 A 
ATOM     13  C   UNL A   1      36.494  23.307  25.874  1.00  0.00     0.086 A 
ATOM     14  C   UNL A   1      37.695  22.677  25.587  1.00  0.00     0.126 A 
ATOM     15  F   UNL A   1      38.850  23.335  25.750  1.00  0.00    -0.207 F 
BRANCH  10  16
ATOM     16  C   UNL A   1      34.004  20.427  25.221  1.00  0.00     0.212 C 
ATOM     17  C   UNL A   1      33.066  20.892  24.111  1.00  0.00     0.081 C 
BRANCH  16  18
ATOM     18  N   UNL A   1      33.276  20.322  26.493  1.00  0.00    -0.351 N 
ATOM     19  H   UNL A   1      33.406  19.387  26.881  1.00  0.00     0.345 HD
ATOM     20  H   UNL A   1      32.284  20.488  26.331  1.00  0.00     0.345 HD
ATOM     21  H   UNL A   1      33.637  21.015  27.149  1.00  0.00     0.345 HD
ENDBRANCH  16  18
ENDBRANCH  10  16
ENDBRANCH   8   9
ENDBRANCH   7   8
ENDBRANCH   4   7
ENDBRANCH   2   4
ENDBRANCH   1   2
BRANCH   1  22
ATOM     22  C   UNL A   1      33.126  28.766  25.952  1.00  0.00     0.274 C 
BRANCH  22  23
ATOM     23  C   UNL A   1      33.727  29.182  27.292  1.00  0.00     0.275 C 
BRANCH  23  24
ATOM     24  O   UNL A   1      34.040  30.585  27.284  1.00  0.00    -0.458 OA
BRANCH  24  25
ATOM     25  C   UNL A   1      34.778  31.022  28.326  1.00  0.00     0.338 C 
ATOM     26  O   UNL A   1      34.480  31.866  29.158  1.00  0.00    -0.246 OA
BRANCH  25  27
ATOM     27  C   UNL A   1      36.040  30.276  28.379  1.00  0.00     0.060 A 
ATOM     28  C   UNL A   1      36.430  29.704  29.587  1.00  0.00     0.016 A 
ATOM     29  C   UNL A   1      36.901  30.267  27.284  1.00  0.00     0.016 A 
ATOM     30  C   UNL A   1      37.717  29.200  29.741  1.00  0.00     0.010 A 
ATOM     31  C   UNL A   1      38.161  29.675  27.412  1.00  0.00     0.010 A 
ATOM     32  C   UNL A   1      38.596  29.167  28.652  1.00  0.00    -0.014 A 
BRANCH  32  33
ATOM     33  C   UNL A   1      39.979  28.643  28.811  1.00  0.00     0.031 A 
ATOM     34  C   UNL A   1      41.074  29.552  29.300  1.00  0.00     0.074 A 
ATOM     35  C   UNL A   1      40.264  27.356  28.529  1.00  0.00     0.049 A 
ATOM     36  N   UNL A   1      42.371  29.365  29.294  1.00  0.00    -0.248 NA
ATOM     37  C   UNL A   1      40.657  30.848  29.858  1.00  0.00     0.031 C 
ATOM     38  C   UNL A   1      39.297  26.336  28.119  1.00  0.00     0.029 A 
ATOM     39  N   UNL A   1      41.462  26.686  28.549  1.00  0.00    -0.354 N 
ATOM     40  C   UNL A   1      42.924  30.541  29.783  1.00  0.00     0.074 A 
ATOM     41  C   UNL A   1      41.824  31.433  30.086  1.00  0.00     0.031 C 
ATOM     42  C   UNL A   1      39.932  25.165  27.959  1.00  0.00     0.029 A 
ATOM     43  C   UNL A   1      41.361  25.371  28.163  1.00  0.00     0.049 A 
ATOM     44  H   UNL A   1      42.312  27.106  28.815  1.00  0.00     0.167 HD
ATOM     45  C   UNL A   1      44.231  30.853  29.955  1.00  0.00     0.031 A 
ATOM     46  C   UNL A   1      42.313  24.445  27.944  1.00  0.00     0.031 A 
ATOM     47  C   UNL A   1      45.321  29.950  29.696  1.00  0.00     0.049 A 
ATOM     48  C   UNL A   1      43.757  24.827  28.095  1.00  0.00     0.074 A 
ATOM     49  C   UNL A   1      46.680  30.175  29.834  1.00  0.00     0.029 A 
ATOM     50  N   UNL A   1      45.172  28.641  29.266  1.00  0.00    -0.354 N 
ATOM     51  N   UNL A   1      44.274  25.970  28.473  1.00  0.00    -0.248 NA
ATOM     52  C   UNL A   1      44.750  23.795  27.762  1.00  0.00     0.031 C 
ATOM     53  C   UNL A   1      47.356  29.008  29.456  1.00  0.00     0.029 A 
ATOM     54  C   UNL A   1      46.415  28.048  29.123  1.00  0.00     0.049 A 
ATOM     55  H   UNL A   1      44.311  28.199  29.088  1.00  0.00     0.167 HD
ATOM     56  C   UNL A   1      45.650  25.795  28.429  1.00  0.00     0.074 A 
ATOM     57  C   UNL A   1      45.887  24.428  28.010  1.00  0.00     0.031 C 
ATOM     58  C   UNL A   1      46.631  26.689  28.702  1.00  0.00     0.031 A 
BRANCH  45  59
ATOM     59  C   UNL A   1      44.556  32.251  30.399  1.00  0.00    -0.014 A 
ATOM     60  C   UNL A   1      44.691  32.579  31.756  1.00  0.00     0.009 A 
ATOM     61  C   UNL A   1      44.757  33.250  29.433  1.00  0.00     0.009 A 
ATOM     62  C   UNL A   1      44.992  33.890  32.136  1.00  0.00     0.001 A 
ATOM     63  C   UNL A   1      45.081  34.552  29.816  1.00  0.00     0.001 A 
ATOM     64  C   UNL A   1      45.190  34.873  31.167  1.00  0.00     0.000 A 
ENDBRANCH  45  59
BRANCH  46  65
ATOM     65  C   UNL A   1      41.933  23.082  27.493  1.00  0.00    -0.014 A 
ATOM     66  C   UNL A   1      42.008  22.733  26.137  1.00  0.00     0.009 A 
ATOM     67  C   UNL A   1      41.495  22.122  28.420  1.00  0.00     0.009 A 
ATOM     68  C   UNL A   1      41.638  21.453  25.716  1.00  0.00     0.001 A 
ATOM     69  C   UNL A   1      41.153  20.835  28.000  1.00  0.00     0.001 A 
ATOM     70  C   UNL A   1      41.218  20.504  26.648  1.00  0.00     0.000 A 
ENDBRANCH  46  65
BRANCH  58  71
ATOM     71  C   UNL A   1      48.045  26.204  28.581  1.00  0.00    -0.014 A 
ATOM     72  C   UNL A   1      48.728  26.265  27.357  1.00  0.00     0.009 A 
ATOM     73  C   UNL A   1      48.709  25.703  29.712  1.00  0.00     0.009 A 
ATOM     74  C   UNL A   1      50.043  25.806  27.263  1.00  0.00     0.001 A 
ATOM     75  C   UNL A   1      50.029  25.266  29.617  1.00  0.00     0.001 A 
ATOM     76  C   UNL A   1      50.693  25.310  28.392  1.00  0.00     0.000 A 
ENDBRANCH  58  71
ENDBRANCH  32  33
ENDBRANCH  25  27
ENDBRANCH  24  25
ENDBRANCH  23  24
ENDBRANCH  22  23
ENDBRANCH   1  22
TORSDOF 16
ENDMDL
MODEL 2
REMARK VINA RESULT:      -9.4      4.183      9.333
REMARK SMILES C[C@H]([NH3+])c1ccc(F)cc1OCC(C)(C)C(=O)OCCOC(=O)c1ccc(-c2c3nc(c(-c4ccccc4)c4ccc([nH]4)c(-c4ccccc4)c4nc(c(-c5ccccc5)c5ccc2[nH]5)C=C4)C=C3)cc1
REMARK SMILES IDX 18 1 16 2 17 3 13 4 14 5 15 6 12 7 11 8 10 9 4 10 5 11 6 12
REMARK SMILES IDX 9 13 7 14 8 15 2 16 1 17 3 18 19 22 20 23 21 24 22 25 23 26
REMARK SMILES IDX 24 27 25 28 71 29 26 30 70 31 27 32 28 33 29 34 64 35 30 36
REMARK SMILES IDX 69 37 63 38 65 39 31 40 68 41 62 42 61 43 32 45 54 46 39 47
REMARK SMILES IDX 53 48 40 49 43 50 52 51 66 52 41 53 42 54 51 56 67 57 44 58
REMARK SMILES IDX 33 59 34 60 38 61 35 62 37 63 36 64 55 65 56 66 60 67 57 68
REMARK SMILES IDX 59 69 58 70 45 71 46 72 50 73 47 74 49 75 48 76
REMARK H PARENT 3 19 3 20 3 21 65 44 43 55
REMARK Flexibility Score: inf
ROOT
ATOM      1  O   UNL A   1      35.043  34.920  33.469  1.00  0.00    -0.462 OA
ENDROOT
BRANCH   1   2
ATOM      2  C   UNL A   1      33.898  34.512  32.853  1.00  0.00     0.315 C 
ATOM      3  O   UNL A   1      33.504  33.353  32.853  1.00  0.00    -0.251 OA
BRANCH   2   4
ATOM      4  C   UNL A   1      33.241  35.653  32.066  1.00  0.00     0.096 C 
ATOM      5  C   UNL A   1      34.058  36.906  32.391  1.00  0.00     0.027 C 
ATOM      6  C   UNL A   1      31.785  35.885  32.526  1.00  0.00     0.027 C 
BRANCH   4   7
ATOM      7  C   UNL A   1      33.158  35.319  30.552  1.00  0.00     0.247 C 
BRANCH   7   8
ATOM      8  O   UNL A   1      34.360  35.243  29.803  1.00  0.00    -0.492 OA
BRANCH   8   9
ATOM      9  C   UNL A   1      34.946  34.127  29.296  1.00  0.00     0.131 A 
ATOM     10  C   UNL A   1      36.298  33.728  29.275  1.00  0.00     0.051 A 
ATOM     11  C   UNL A   1      36.614  32.518  28.598  1.00  0.00     0.017 A 
ATOM     12  C   UNL A   1      35.642  31.739  27.969  1.00  0.00     0.040 A 
ATOM     13  C   UNL A   1      33.984  33.340  28.632  1.00  0.00     0.086 A 
ATOM     14  C   UNL A   1      34.330  32.164  27.986  1.00  0.00     0.126 A 
ATOM     15  F   UNL A   1      33.391  31.443  27.361  1.00  0.00    -0.207 F 
BRANCH  10  16
ATOM     16  C   UNL A   1      37.453  34.548  29.825  1.00  0.00     0.212 C 
ATOM     17  C   UNL A   1      38.797  33.977  29.385  1.00  0.00     0.081 C 
BRANCH  16  18
ATOM     18  N   UNL A   1      37.421  34.711  31.285  1.00  0.00    -0.351 N 
ATOM     19  H   UNL A   1      37.429  33.792  31.729  1.00  0.00     0.345 HD
ATOM     20  H   UNL A   1      36.574  35.211  31.553  1.00  0.00     0.345 HD
ATOM     21  H   UNL A   1      38.240  35.240  31.585  1.00  0.00     0.345 HD
ENDBRANCH  16  18
ENDBRANCH  10  16
ENDBRANCH   8   9
ENDBRANCH   7   8
ENDBRANCH   4   7
ENDBRANCH   2   4
ENDBRANCH   1   2
BRANCH   1  22
ATOM     22  C   UNL A   1      35.356  34.303  34.732  1.00  0.00     0.274 C 
BRANCH  22  23
ATOM     23  C   UNL A   1      36.734  33.649  34.691  1.00  0.00     0.275 C 
BRANCH  23  24
ATOM     24  O   UNL A   1      36.638  32.316  34.159  1.00  0.00    -0.458 OA
BRANCH  24  25
ATOM     25  C   UNL A   1      37.571  31.446  34.600  1.00  0.00     0.338 C 
ATOM     26  O   UNL A   1      37.760  31.062  35.745  1.00  0.00    -0.246 OA
BRANCH  25  27
ATOM     27  C   UNL A   1      38.347  30.941  33.462  1.00  0.00     0.060 A 
ATOM     28  C   UNL A   1      39.511  30.219  33.713  1.00  0.00     0.016 A 
ATOM     29  C   UNL A   1      38.007  31.301  32.160  1.00  0.00     0.016 A 
ATOM     30  C   UNL A   1      40.394  29.931  32.678  1.00  0.00     0.010 A 
ATOM     31  C   UNL A   1      38.848  30.927  31.107  1.00  0.00     0.010 A 
ATOM     32  C   UNL A   1      40.069  30.269  31.359  1.00  0.00    -0.014 A 
BRANCH  32  33
ATOM     33  C   UNL A   1      41.013  29.978  30.248  1.00  0.00     0.031 A 
ATOM     34  C   UNL A   1      40.856  28.717  29.441  1.00  0.00     0.074 A 
ATOM     35  C   UNL A   1      42.008  30.836  29.947  1.00  0.00     0.049 A 
ATOM     36  N   UNL A   1      41.689  28.167  28.592  1.00  0.00    -0.248 NA
ATOM     37  C   UNL A   1      39.602  27.969  29.621  1.00  0.00     0.031 C 
ATOM     38  C   UNL A   1      42.242  32.131  30.588  1.00  0.00     0.029 A 
ATOM     39  N   UNL A   1      43.012  30.742  29.015  1.00  0.00    -0.354 N 
ATOM     40  C   UNL A   1      41.089  26.981  28.190  1.00  0.00     0.074 A 
ATOM     41  C   UNL A   1      39.819  26.892  28.879  1.00  0.00     0.031 C 
ATOM     42  C   UNL A   1      43.297  32.725  30.009  1.00  0.00     0.029 A 
ATOM     43  C   UNL A   1      43.870  31.815  29.024  1.00  0.00     0.049 A 
ATOM     44  H   UNL A   1      43.107  29.980  28.399  1.00  0.00     0.167 HD
ATOM     45  C   UNL A   1      41.560  26.044  27.332  1.00  0.00     0.031 A 
ATOM     46  C   UNL A   1      45.019  32.025  28.355  1.00  0.00     0.031 A 
ATOM     47  C   UNL A   1      42.802  26.154  26.614  1.00  0.00     0.049 A 
ATOM     48  C   UNL A   1      45.546  30.953  27.446  1.00  0.00     0.074 A 
ATOM     49  C   UNL A   1      43.369  25.255  25.726  1.00  0.00     0.029 A 
ATOM     50  N   UNL A   1      43.659  27.241  26.686  1.00  0.00    -0.354 N 
ATOM     51  N   UNL A   1      45.015  29.795  27.141  1.00  0.00    -0.248 NA
ATOM     52  C   UNL A   1      46.846  31.210  26.809  1.00  0.00     0.031 C 
ATOM     53  C   UNL A   1      44.586  25.787  25.285  1.00  0.00     0.029 A 
ATOM     54  C   UNL A   1      44.755  27.032  25.867  1.00  0.00     0.049 A 
ATOM     55  H   UNL A   1      43.510  28.042  27.239  1.00  0.00     0.167 HD
ATOM     56  C   UNL A   1      45.911  29.186  26.273  1.00  0.00     0.074 A 
ATOM     57  C   UNL A   1      47.009  30.113  26.083  1.00  0.00     0.031 C 
ATOM     58  C   UNL A   1      45.838  27.964  25.693  1.00  0.00     0.031 A 
BRANCH  45  59
ATOM     59  C   UNL A   1      40.749  24.792  27.163  1.00  0.00    -0.014 A 
ATOM     60  C   UNL A   1      41.147  23.573  27.733  1.00  0.00     0.009 A 
ATOM     61  C   UNL A   1      39.546  24.844  26.440  1.00  0.00     0.009 A 
ATOM     62  C   UNL A   1      40.371  22.426  27.555  1.00  0.00     0.001 A 
ATOM     63  C   UNL A   1      38.761  23.701  26.285  1.00  0.00     0.001 A 
ATOM     64  C   UNL A   1      39.178  22.491  26.836  1.00  0.00     0.000 A 
ENDBRANCH  45  59
BRANCH  46  65
ATOM     65  C   UNL A   1      45.785  33.279  28.573  1.00  0.00    -0.014 A 
ATOM     66  C   UNL A   1      45.477  34.439  27.849  1.00  0.00     0.009 A 
ATOM     67  C   UNL A   1      46.830  33.321  29.512  1.00  0.00     0.009 A 
ATOM     68  C   UNL A   1      46.208  35.612  28.050  1.00  0.00     0.001 A 
ATOM     69  C   UNL A   1      47.540  34.502  29.731  1.00  0.00     0.001 A 
ATOM     70  C   UNL A   1      47.233  35.644  28.995  1.00  0.00     0.000 A 
ENDBRANCH  46  65
BRANCH  58  71
ATOM     71  C   UNL A   1      46.962  27.577  24.779  1.00  0.00    -0.014 A 
ATOM     72  C   UNL A   1      47.017  28.049  23.460  1.00  0.00     0.009 A 
ATOM     73  C   UNL A   1      47.991  26.748  25.253  1.00  0.00     0.009 A 
ATOM     74  C   UNL A   1      48.069  27.676  22.622  1.00  0.00     0.001 A 
ATOM     75  C   UNL A   1      49.052  26.396  24.420  1.00  0.00     0.001 A 
ATOM     76  C   UNL A   1      49.086  26.853  23.104  1.00  0.00     0.000 A 
ENDBRANCH  58  71
ENDBRANCH  32  33
ENDBRANCH  25  27
ENDBRANCH  24  25
ENDBRANCH  23  24
ENDBRANCH  22  23
ENDBRANCH   1  22
TORSDOF 16
ENDMDL
MODEL 3
REMARK VINA RESULT:      -9.3      1.852      6.381
REMARK SMILES C[C@H]([NH3+])c1ccc(F)cc1OCC(C)(C)C(=O)OCCOC(=O)c1ccc(-c2c3nc(c(-c4ccccc4)c4ccc([nH]4)c(-c4ccccc4)c4nc(c(-c5ccccc5)c5ccc2[nH]5)C=C4)C=C3)cc1
REMARK SMILES IDX 18 1 16 2 17 3 13 4 14 5 15 6 12 7 11 8 10 9 4 10 5 11 6 12
REMARK SMILES IDX 9 13 7 14 8 15 2 16 1 17 3 18 19 22 20 23 21 24 22 25 23 26
REMARK SMILES IDX 24 27 25 28 71 29 26 30 70 31 27 32 28 33 29 34 64 35 30 36
REMARK SMILES IDX 69 37 63 38 65 39 31 40 68 41 62 42 61 43 32 45 54 46 39 47
REMARK SMILES IDX 53 48 40 49 43 50 52 51 66 52 41 53 42 54 51 56 67 57 44 58
REMARK SMILES IDX 33 59 34 60 38 61 35 62 37 63 36 64 55 65 56 66 60 67 57 68
REMARK SMILES IDX 59 69 58 70 45 71 46 72 50 73 47 74 49 75 48 76
REMARK H PARENT 3 19 3 20 3 21 65 44 43 55
REMARK Flexibility Score: inf
ROOT
ATOM      1  O   UNL A   1      32.236  26.687  26.930  1.00  0.00    -0.462 OA
ENDROOT
BRANCH   1   2
ATOM      2  C   UNL A   1      31.407  25.856  26.236  1.00  0.00     0.315 C 
ATOM      3  O   UNL A   1      30.220  25.710  26.497  1.00  0.00    -0.251 OA
BRANCH   2   4
ATOM      4  C   UNL A   1      32.171  25.048  25.180  1.00  0.00     0.096 C 
ATOM      5  C   UNL A   1      32.148  25.900  23.908  1.00  0.00     0.027 C 
ATOM      6  C   UNL A   1      31.465  23.706  24.883  1.00  0.00     0.027 C 
BRANCH   4   7
ATOM      7  C   UNL A   1      33.594  24.677  25.674  1.00  0.00     0.247 C 
BRANCH   7   8
ATOM      8  O   UNL A   1      33.866  23.330  26.023  1.00  0.00    -0.492 OA
BRANCH   8   9
ATOM      9  C   UNL A   1      34.974  22.606  25.714  1.00  0.00     0.131 A 
ATOM     10  C   UNL A   1      35.117  21.247  25.367  1.00  0.00     0.051 A 
ATOM     11  C   UNL A   1      36.437  20.758  25.164  1.00  0.00     0.017 A 
ATOM     12  C   UNL A   1      37.563  21.569  25.300  1.00  0.00     0.040 A 
ATOM     13  C   UNL A   1      36.126  23.403  25.872  1.00  0.00     0.086 A 
ATOM     14  C   UNL A   1      37.396  22.890  25.662  1.00  0.00     0.126 A 
ATOM     15  F   UNL A   1      38.470  23.673  25.826  1.00  0.00    -0.207 F 
BRANCH  10  16
ATOM     16  C   UNL A   1      33.977  20.245  25.300  1.00  0.00     0.212 C 
ATOM     17  C   UNL A   1      33.092  20.492  24.082  1.00  0.00     0.081 C 
BRANCH  16  18
ATOM     18  N   UNL A   1      33.161  20.194  26.521  1.00  0.00    -0.351 N 
ATOM     19  H   UNL A   1      32.538  19.386  26.478  1.00  0.00     0.345 HD
ATOM     20  H   UNL A   1      32.608  21.047  26.596  1.00  0.00     0.345 HD
ATOM     21  H   UNL A   1      33.771  20.109  27.334  1.00  0.00     0.345 HD
ENDBRANCH  16  18
ENDBRANCH  10  16
ENDBRANCH   8   9
ENDBRANCH   7   8
ENDBRANCH   4   7
ENDBRANCH   2   4
ENDBRANCH   1   2
BRANCH   1  22
ATOM     22  C   UNL A   1      31.683  27.945  27.360  1.00  0.00     0.274 C 
BRANCH  22  23
ATOM     23  C   UNL A   1      32.492  29.113  26.805  1.00  0.00     0.275 C 
BRANCH  23  24
ATOM     24  O   UNL A   1      33.835  29.079  27.317  1.00  0.00    -0.458 OA
BRANCH  24  25
ATOM     25  C   UNL A   1      34.326  30.262  27.741  1.00  0.00     0.338 C 
ATOM     26  O   UNL A   1      33.753  31.342  27.785  1.00  0.00    -0.246 OA
BRANCH  25  27
ATOM     27  C   UNL A   1      35.698  30.079  28.225  1.00  0.00     0.060 A 
ATOM     28  C   UNL A   1      36.754  30.293  27.343  1.00  0.00     0.016 A 
ATOM     29  C   UNL A   1      35.935  29.559  29.496  1.00  0.00     0.016 A 
ATOM     30  C   UNL A   1      38.044  29.904  27.686  1.00  0.00     0.010 A 
ATOM     31  C   UNL A   1      37.247  29.257  29.875  1.00  0.00     0.010 A 
ATOM     32  C   UNL A   1      38.311  29.393  28.962  1.00  0.00    -0.014 A 
BRANCH  32  33
ATOM     33  C   UNL A   1      39.685  28.961  29.333  1.00  0.00     0.031 A 
ATOM     34  C   UNL A   1      40.225  27.653  28.819  1.00  0.00     0.074 A 
ATOM     35  C   UNL A   1      40.460  29.732  30.121  1.00  0.00     0.049 A 
ATOM     36  N   UNL A   1      41.290  26.991  29.197  1.00  0.00    -0.248 NA
ATOM     37  C   UNL A   1      39.458  26.997  27.747  1.00  0.00     0.031 C 
ATOM     38  C   UNL A   1      40.105  31.057  30.634  1.00  0.00     0.029 A 
ATOM     39  N   UNL A   1      41.716  29.507  30.627  1.00  0.00    -0.354 N 
ATOM     40  C   UNL A   1      41.285  25.815  28.458  1.00  0.00     0.074 A 
ATOM     41  C   UNL A   1      40.117  25.856  27.604  1.00  0.00     0.031 C 
ATOM     42  C   UNL A   1      41.131  31.541  31.352  1.00  0.00     0.029 A 
ATOM     43  C   UNL A   1      42.174  30.525  31.429  1.00  0.00     0.049 A 
ATOM     44  H   UNL A   1      42.238  28.696  30.434  1.00  0.00     0.167 HD
ATOM     45  C   UNL A   1      42.168  24.788  28.497  1.00  0.00     0.031 A 
ATOM     46  C   UNL A   1      43.284  30.614  32.185  1.00  0.00     0.031 A 
ATOM     47  C   UNL A   1      43.352  24.768  29.314  1.00  0.00     0.049 A 
ATOM     48  C   UNL A   1      44.224  29.446  32.249  1.00  0.00     0.074 A 
ATOM     49  C   UNL A   1      44.307  23.772  29.427  1.00  0.00     0.029 A 
ATOM     50  N   UNL A   1      43.754  25.804  30.142  1.00  0.00    -0.354 N 
ATOM     51  N   UNL A   1      44.164  28.301  31.614  1.00  0.00    -0.248 NA
ATOM     52  C   UNL A   1      45.374  29.574  33.156  1.00  0.00     0.031 C 
ATOM     53  C   UNL A   1      45.271  24.194  30.349  1.00  0.00     0.029 A 
ATOM     54  C   UNL A   1      44.938  25.469  30.777  1.00  0.00     0.049 A 
ATOM     55  H   UNL A   1      43.270  26.653  30.260  1.00  0.00     0.167 HD
ATOM     56  C   UNL A   1      45.267  27.575  32.040  1.00  0.00     0.074 A 
ATOM     57  C   UNL A   1      45.993  28.417  32.970  1.00  0.00     0.031 C 
ATOM     58  C   UNL A   1      45.642  26.318  31.700  1.00  0.00     0.031 A 
BRANCH  45  59
ATOM     59  C   UNL A   1      41.857  23.577  27.665  1.00  0.00    -0.014 A 
ATOM     60  C   UNL A   1      42.455  23.370  26.413  1.00  0.00     0.009 A 
ATOM     61  C   UNL A   1      40.968  22.611  28.163  1.00  0.00     0.009 A 
ATOM     62  C   UNL A   1      42.142  22.233  25.663  1.00  0.00     0.001 A 
ATOM     63  C   UNL A   1      40.676  21.465  27.422  1.00  0.00     0.001 A 
ATOM     64  C   UNL A   1      41.258  21.281  26.170  1.00  0.00     0.000 A 
ENDBRANCH  45  59
BRANCH  46  65
ATOM     65  C   UNL A   1      43.532  31.833  32.997  1.00  0.00    -0.014 A 
ATOM     66  C   UNL A   1      44.232  32.920  32.456  1.00  0.00     0.009 A 
ATOM     67  C   UNL A   1      43.066  31.914  34.319  1.00  0.00     0.009 A 
ATOM     68  C   UNL A   1      44.473  34.060  33.227  1.00  0.00     0.001 A 
ATOM     69  C   UNL A   1      43.282  33.065  35.078  1.00  0.00     0.001 A 
ATOM     70  C   UNL A   1      43.992  34.133  34.534  1.00  0.00     0.000 A 
ENDBRANCH  46  65
BRANCH  58  71
ATOM     71  C   UNL A   1      46.905  25.795  32.316  1.00  0.00    -0.014 A 
ATOM     72  C   UNL A   1      46.875  25.048  33.503  1.00  0.00     0.009 A 
ATOM     73  C   UNL A   1      48.138  26.034  31.689  1.00  0.00     0.009 A 
ATOM     74  C   UNL A   1      48.061  24.572  34.065  1.00  0.00     0.001 A 
ATOM     75  C   UNL A   1      49.318  25.538  32.241  1.00  0.00     0.001 A 
ATOM     76  C   UNL A   1      49.280  24.815  33.432  1.00  0.00     0.000 A 
ENDBRANCH  58  71
ENDBRANCH  32  33
ENDBRANCH  25  27
ENDBRANCH  24  25
ENDBRANCH  23  24
ENDBRANCH  22  23
ENDBRANCH   1  22
TORSDOF 16
ENDMDL
