MODEL 1
REMARK VINA RESULT:      -9.3      0.000      0.000
REMARK SMILES C[C@H](O)[C@H](C)C(C)(C)C(=O)OCCOC(=O)c1ccc(-c2c3nc(c(-c4ccccc4)c4ccc([nH]4)c(-c4ccccc4)c4nc(c(-c5ccccc5)c5ccc2[nH]5)C=C4)C=C3)cc1
REMARK SMILES IDX 12 1 11 2 9 3 10 4 6 5 7 6 8 7 4 8 5 9 2 10 1 11 3 12 13 14
REMARK SMILES IDX 14 15 15 16 16 17 17 18 18 19 64 20 19 21 63 22 20 23 21 24
REMARK SMILES IDX 22 25 57 26 23 27 62 28 56 29 58 30 24 31 61 32 55 33 54 34
REMARK SMILES IDX 25 36 47 37 32 38 46 39 33 40 36 41 45 42 59 43 34 44 35 45
REMARK SMILES IDX 44 47 60 48 37 49 26 50 27 51 31 52 28 53 30 54 29 55 48 56
REMARK SMILES IDX 49 57 53 58 50 59 52 60 51 61 38 62 39 63 43 64 40 65 42 66
REMARK SMILES IDX 41 67
REMARK H PARENT 3 13 58 35 36 46
REMARK Flexibility Score: inf
ROOT
ATOM      1  C   UNL A   1      31.220  28.551  25.351  1.00  0.00     0.274 C 
ENDROOT
BRANCH   1   2
ATOM      2  O   UNL A   1      32.108  27.509  25.811  1.00  0.00    -0.462 OA
BRANCH   2   3
ATOM      3  C   UNL A   1      31.617  26.240  25.820  1.00  0.00     0.311 C 
ATOM      4  O   UNL A   1      30.532  25.936  26.307  1.00  0.00    -0.252 OA
BRANCH   3   5
ATOM      5  C   UNL A   1      32.616  25.206  25.269  1.00  0.00     0.067 C 
ATOM      6  C   UNL A   1      32.368  23.921  26.094  1.00  0.00     0.024 C 
ATOM      7  C   UNL A   1      34.077  25.623  25.554  1.00  0.00     0.024 C 
BRANCH   5   8
ATOM      8  C   UNL A   1      32.395  24.920  23.721  1.00  0.00     0.031 C 
ATOM      9  C   UNL A   1      30.977  24.408  23.387  1.00  0.00     0.011 C 
BRANCH   8  10
ATOM     10  C   UNL A   1      32.784  26.101  22.785  1.00  0.00     0.115 C 
ATOM     11  C   UNL A   1      31.603  26.739  22.056  1.00  0.00     0.038 C 
BRANCH  10  12
ATOM     12  O   UNL A   1      33.677  25.651  21.770  1.00  0.00    -0.393 OA
ATOM     13  H   UNL A   1      33.685  24.682  21.754  1.00  0.00     0.210 HD
ENDBRANCH  10  12
ENDBRANCH   8  10
ENDBRANCH   5   8
ENDBRANCH   3   5
ENDBRANCH   2   3
ENDBRANCH   1   2
BRANCH   1  14
ATOM     14  C   UNL A   1      31.855  29.927  25.513  1.00  0.00     0.275 C 
BRANCH  14  15
ATOM     15  O   UNL A   1      32.088  30.184  26.908  1.00  0.00    -0.458 OA
BRANCH  15  16
ATOM     16  C   UNL A   1      32.785  31.305  27.191  1.00  0.00     0.338 C 
ATOM     17  O   UNL A   1      32.348  32.439  27.297  1.00  0.00    -0.246 OA
BRANCH  16  18
ATOM     18  C   UNL A   1      34.208  30.985  27.436  1.00  0.00     0.060 A 
ATOM     19  C   UNL A   1      34.629  29.663  27.539  1.00  0.00     0.016 A 
ATOM     20  C   UNL A   1      35.083  32.017  27.780  1.00  0.00     0.016 A 
ATOM     21  C   UNL A   1      35.841  29.369  28.167  1.00  0.00     0.010 A 
ATOM     22  C   UNL A   1      36.349  31.716  28.296  1.00  0.00     0.010 A 
ATOM     23  C   UNL A   1      36.710  30.388  28.587  1.00  0.00    -0.014 A 
BRANCH  23  24
ATOM     24  C   UNL A   1      37.903  30.093  29.443  1.00  0.00     0.031 A 
ATOM     25  C   UNL A   1      39.109  29.393  28.847  1.00  0.00     0.074 A 
ATOM     26  C   UNL A   1      37.980  30.486  30.731  1.00  0.00     0.049 A 
ATOM     27  N   UNL A   1      40.118  28.819  29.455  1.00  0.00    -0.248 NA
ATOM     28  C   UNL A   1      39.175  29.306  27.378  1.00  0.00     0.031 C 
ATOM     29  C   UNL A   1      36.964  31.238  31.466  1.00  0.00     0.029 A 
ATOM     30  N   UNL A   1      38.995  30.329  31.647  1.00  0.00    -0.354 N 
ATOM     31  C   UNL A   1      40.867  28.207  28.456  1.00  0.00     0.074 A 
ATOM     32  C   UNL A   1      40.218  28.507  27.198  1.00  0.00     0.031 C 
ATOM     33  C   UNL A   1      37.441  31.558  32.678  1.00  0.00     0.029 A 
ATOM     34  C   UNL A   1      38.749  30.937  32.854  1.00  0.00     0.049 A 
ATOM     35  H   UNL A   1      39.821  29.827  31.455  1.00  0.00     0.167 HD
ATOM     36  C   UNL A   1      41.987  27.453  28.572  1.00  0.00     0.031 A 
ATOM     37  C   UNL A   1      39.469  30.964  33.991  1.00  0.00     0.031 A 
ATOM     38  C   UNL A   1      42.710  27.247  29.798  1.00  0.00     0.049 A 
ATOM     39  C   UNL A   1      40.736  30.166  34.093  1.00  0.00     0.074 A 
ATOM     40  C   UNL A   1      43.844  26.483  30.017  1.00  0.00     0.029 A 
ATOM     41  N   UNL A   1      42.401  27.858  31.001  1.00  0.00    -0.354 N 
ATOM     42  N   UNL A   1      41.331  29.441  33.181  1.00  0.00    -0.248 NA
ATOM     43  C   UNL A   1      41.405  30.159  35.403  1.00  0.00     0.031 C 
ATOM     44  C   UNL A   1      44.220  26.628  31.358  1.00  0.00     0.029 A 
ATOM     45  C   UNL A   1      43.335  27.505  31.961  1.00  0.00     0.049 A 
ATOM     46  H   UNL A   1      41.634  28.455  31.152  1.00  0.00     0.167 HD
ATOM     47  C   UNL A   1      42.431  28.873  33.810  1.00  0.00     0.074 A 
ATOM     48  C   UNL A   1      42.446  29.372  35.169  1.00  0.00     0.031 C 
ATOM     49  C   UNL A   1      43.334  27.997  33.311  1.00  0.00     0.031 A 
BRANCH  36  50
ATOM     50  C   UNL A   1      42.477  26.742  27.343  1.00  0.00    -0.014 A 
ATOM     51  C   UNL A   1      43.452  27.298  26.504  1.00  0.00     0.009 A 
ATOM     52  C   UNL A   1      41.979  25.461  27.054  1.00  0.00     0.009 A 
ATOM     53  C   UNL A   1      43.900  26.593  25.383  1.00  0.00     0.001 A 
ATOM     54  C   UNL A   1      42.446  24.750  25.948  1.00  0.00     0.001 A 
ATOM     55  C   UNL A   1      43.401  25.320  25.109  1.00  0.00     0.000 A 
ENDBRANCH  36  50
BRANCH  37  56
ATOM     56  C   UNL A   1      38.973  31.733  35.161  1.00  0.00    -0.014 A 
ATOM     57  C   UNL A   1      38.218  31.096  36.156  1.00  0.00     0.009 A 
ATOM     58  C   UNL A   1      39.250  33.103  35.286  1.00  0.00     0.009 A 
ATOM     59  C   UNL A   1      37.740  31.821  37.250  1.00  0.00     0.001 A 
ATOM     60  C   UNL A   1      38.794  33.818  36.394  1.00  0.00     0.001 A 
ATOM     61  C   UNL A   1      38.035  33.177  37.371  1.00  0.00     0.000 A 
ENDBRANCH  37  56
BRANCH  49  62
ATOM     62  C   UNL A   1      44.410  27.525  34.243  1.00  0.00    -0.014 A 
ATOM     63  C   UNL A   1      44.230  26.370  35.019  1.00  0.00     0.009 A 
ATOM     64  C   UNL A   1      45.618  28.232  34.338  1.00  0.00     0.009 A 
ATOM     65  C   UNL A   1      45.228  25.949  35.899  1.00  0.00     0.001 A 
ATOM     66  C   UNL A   1      46.621  27.800  35.206  1.00  0.00     0.001 A 
ATOM     67  C   UNL A   1      46.422  26.664  35.991  1.00  0.00     0.000 A 
ENDBRANCH  49  62
ENDBRANCH  23  24
ENDBRANCH  16  18
ENDBRANCH  15  16
ENDBRANCH  14  15
ENDBRANCH   1  14
TORSDOF 14
ENDMDL
MODEL 2
REMARK VINA RESULT:      -9.2      4.080      8.806
REMARK SMILES C[C@H](O)[C@H](C)C(C)(C)C(=O)OCCOC(=O)c1ccc(-c2c3nc(c(-c4ccccc4)c4ccc([nH]4)c(-c4ccccc4)c4nc(c(-c5ccccc5)c5ccc2[nH]5)C=C4)C=C3)cc1
REMARK SMILES IDX 12 1 11 2 9 3 10 4 6 5 7 6 8 7 4 8 5 9 2 10 1 11 3 12 13 14
REMARK SMILES IDX 14 15 15 16 16 17 17 18 18 19 64 20 19 21 63 22 20 23 21 24
REMARK SMILES IDX 22 25 57 26 23 27 62 28 56 29 58 30 24 31 61 32 55 33 54 34
REMARK SMILES IDX 25 36 47 37 32 38 46 39 33 40 36 41 45 42 59 43 34 44 35 45
REMARK SMILES IDX 44 47 60 48 37 49 26 50 27 51 31 52 28 53 30 54 29 55 48 56
REMARK SMILES IDX 49 57 53 58 50 59 52 60 51 61 38 62 39 63 43 64 40 65 42 66
REMARK SMILES IDX 41 67
REMARK H PARENT 3 13 58 35 36 46
REMARK Flexibility Score: inf
ROOT
ATOM      1  C   UNL A   1      35.456  21.100  25.433  1.00  0.00     0.274 C 
ENDROOT
BRANCH   1   2
ATOM      2  O   UNL A   1      34.755  21.905  24.461  1.00  0.00    -0.462 OA
BRANCH   2   3
ATOM      3  C   UNL A   1      33.721  22.663  24.918  1.00  0.00     0.311 C 
ATOM      4  O   UNL A   1      33.832  23.490  25.817  1.00  0.00    -0.252 OA
BRANCH   3   5
ATOM      5  C   UNL A   1      32.373  22.287  24.276  1.00  0.00     0.067 C 
ATOM      6  C   UNL A   1      31.393  22.113  25.460  1.00  0.00     0.024 C 
ATOM      7  C   UNL A   1      32.444  20.912  23.573  1.00  0.00     0.024 C 
BRANCH   5   8
ATOM      8  C   UNL A   1      31.845  23.409  23.282  1.00  0.00     0.031 C 
ATOM      9  C   UNL A   1      30.819  24.366  23.926  1.00  0.00     0.011 C 
BRANCH   8  10
ATOM     10  C   UNL A   1      32.966  24.213  22.562  1.00  0.00     0.115 C 
ATOM     11  C   UNL A   1      32.457  25.379  21.716  1.00  0.00     0.038 C 
BRANCH  10  12
ATOM     12  O   UNL A   1      33.685  23.366  21.672  1.00  0.00    -0.393 OA
ATOM     13  H   UNL A   1      34.626  23.378  21.905  1.00  0.00     0.210 HD
ENDBRANCH  10  12
ENDBRANCH   8  10
ENDBRANCH   5   8
ENDBRANCH   3   5
ENDBRANCH   2   3
ENDBRANCH   1   2
BRANCH   1  14
ATOM     14  C   UNL A   1      36.721  20.492  24.838  1.00  0.00     0.275 C 
BRANCH  14  15
ATOM     15  O   UNL A   1      37.779  21.466  24.871  1.00  0.00    -0.458 OA
BRANCH  15  16
ATOM     16  C   UNL A   1      38.808  21.187  25.700  1.00  0.00     0.338 C 
ATOM     17  O   UNL A   1      39.414  20.133  25.796  1.00  0.00    -0.246 OA
BRANCH  16  18
ATOM     18  C   UNL A   1      39.186  22.385  26.482  1.00  0.00     0.060 A 
ATOM     19  C   UNL A   1      38.563  23.607  26.249  1.00  0.00     0.016 A 
ATOM     20  C   UNL A   1      40.319  22.330  27.295  1.00  0.00     0.016 A 
ATOM     21  C   UNL A   1      39.180  24.789  26.664  1.00  0.00     0.010 A 
ATOM     22  C   UNL A   1      40.865  23.511  27.811  1.00  0.00     0.010 A 
ATOM     23  C   UNL A   1      40.359  24.766  27.425  1.00  0.00    -0.014 A 
BRANCH  23  24
ATOM     24  C   UNL A   1      41.140  26.017  27.693  1.00  0.00     0.031 A 
ATOM     25  C   UNL A   1      40.628  27.027  28.701  1.00  0.00     0.074 A 
ATOM     26  C   UNL A   1      42.333  26.260  27.113  1.00  0.00     0.049 A 
ATOM     27  N   UNL A   1      41.000  28.270  28.891  1.00  0.00    -0.248 NA
ATOM     28  C   UNL A   1      39.542  26.591  29.595  1.00  0.00     0.031 C 
ATOM     29  C   UNL A   1      43.032  25.379  26.178  1.00  0.00     0.029 A 
ATOM     30  N   UNL A   1      43.190  27.327  27.261  1.00  0.00    -0.354 N 
ATOM     31  C   UNL A   1      40.119  28.791  29.833  1.00  0.00     0.074 A 
ATOM     32  C   UNL A   1      39.217  27.723  30.204  1.00  0.00     0.031 C 
ATOM     33  C   UNL A   1      44.244  25.890  25.913  1.00  0.00     0.029 A 
ATOM     34  C   UNL A   1      44.365  27.191  26.563  1.00  0.00     0.049 A 
ATOM     35  H   UNL A   1      42.980  28.113  27.815  1.00  0.00     0.167 HD
ATOM     36  C   UNL A   1      40.057  30.048  30.336  1.00  0.00     0.031 A 
ATOM     37  C   UNL A   1      45.409  28.028  26.423  1.00  0.00     0.031 A 
ATOM     38  C   UNL A   1      41.019  31.083  30.069  1.00  0.00     0.049 A 
ATOM     39  C   UNL A   1      45.354  29.401  27.028  1.00  0.00     0.074 A 
ATOM     40  C   UNL A   1      41.029  32.393  30.519  1.00  0.00     0.029 A 
ATOM     41  N   UNL A   1      42.175  30.907  29.328  1.00  0.00    -0.354 N 
ATOM     42  N   UNL A   1      44.418  29.940  27.769  1.00  0.00    -0.248 NA
ATOM     43  C   UNL A   1      46.485  30.295  26.738  1.00  0.00     0.031 C 
ATOM     44  C   UNL A   1      42.191  33.012  30.045  1.00  0.00     0.029 A 
ATOM     45  C   UNL A   1      42.915  32.077  29.325  1.00  0.00     0.049 A 
ATOM     46  H   UNL A   1      42.432  30.073  28.873  1.00  0.00     0.167 HD
ATOM     47  C   UNL A   1      44.836  31.241  28.014  1.00  0.00     0.074 A 
ATOM     48  C   UNL A   1      46.128  31.398  27.381  1.00  0.00     0.031 C 
ATOM     49  C   UNL A   1      44.192  32.225  28.684  1.00  0.00     0.031 A 
BRANCH  36  50
ATOM     50  C   UNL A   1      38.874  30.396  31.193  1.00  0.00    -0.014 A 
ATOM     51  C   UNL A   1      38.919  30.312  32.591  1.00  0.00     0.009 A 
ATOM     52  C   UNL A   1      37.703  30.868  30.576  1.00  0.00     0.009 A 
ATOM     53  C   UNL A   1      37.804  30.669  33.354  1.00  0.00     0.001 A 
ATOM     54  C   UNL A   1      36.599  31.246  31.341  1.00  0.00     0.001 A 
ATOM     55  C   UNL A   1      36.648  31.140  32.730  1.00  0.00     0.000 A 
ENDBRANCH  36  50
BRANCH  37  56
ATOM     56  C   UNL A   1      46.586  27.615  25.617  1.00  0.00    -0.014 A 
ATOM     57  C   UNL A   1      46.662  27.946  24.256  1.00  0.00     0.009 A 
ATOM     58  C   UNL A   1      47.634  26.887  26.202  1.00  0.00     0.009 A 
ATOM     59  C   UNL A   1      47.761  27.545  23.494  1.00  0.00     0.001 A 
ATOM     60  C   UNL A   1      48.744  26.512  25.444  1.00  0.00     0.001 A 
ATOM     61  C   UNL A   1      48.803  26.837  24.089  1.00  0.00     0.000 A 
ENDBRANCH  37  56
BRANCH  49  62
ATOM     62  C   UNL A   1      44.880  33.556  28.764  1.00  0.00    -0.014 A 
ATOM     63  C   UNL A   1      45.820  33.816  29.774  1.00  0.00     0.009 A 
ATOM     64  C   UNL A   1      44.598  34.552  27.818  1.00  0.00     0.009 A 
ATOM     65  C   UNL A   1      46.441  35.063  29.853  1.00  0.00     0.001 A 
ATOM     66  C   UNL A   1      45.232  35.792  27.891  1.00  0.00     0.001 A 
ATOM     67  C   UNL A   1      46.147  36.049  28.912  1.00  0.00     0.000 A 
ENDBRANCH  49  62
ENDBRANCH  23  24
ENDBRANCH  16  18
ENDBRANCH  15  16
ENDBRANCH  14  15
ENDBRANCH   1  14
TORSDOF 14
ENDMDL
MODEL 3
REMARK VINA RESULT:      -9.1      4.067      6.430
REMARK SMILES C[C@H](O)[C@H](C)C(C)(C)C(=O)OCCOC(=O)c1ccc(-c2c3nc(c(-c4ccccc4)c4ccc([nH]4)c(-c4ccccc4)c4nc(c(-c5ccccc5)c5ccc2[nH]5)C=C4)C=C3)cc1
REMARK SMILES IDX 12 1 11 2 9 3 10 4 6 5 7 6 8 7 4 8 5 9 2 10 1 11 3 12 13 14
REMARK SMILES IDX 14 15 15 16 16 17 17 18 18 19 64 20 19 21 63 22 20 23 21 24
REMARK SMILES IDX 22 25 57 26 23 27 62 28 56 29 58 30 24 31 61 32 55 33 54 34
REMARK SMILES IDX 25 36 47 37 32 38 46 39 33 40 36 41 45 42 59 43 34 44 35 45
REMARK SMILES IDX 44 47 60 48 37 49 26 50 27 51 31 52 28 53 30 54 29 55 48 56
REMARK SMILES IDX 49 57 53 58 50 59 52 60 51 61 38 62 39 63 43 64 40 65 42 66
REMARK SMILES IDX 41 67
REMARK H PARENT 3 13 58 35 36 46
REMARK Flexibility Score: inf
ROOT
ATOM      1  C   UNL A   1      35.847  21.408  25.901  1.00  0.00     0.274 C 
ENDROOT
BRANCH   1   2
ATOM      2  O   UNL A   1      35.334  22.679  25.450  1.00  0.00    -0.462 OA
BRANCH   2   3
ATOM      3  C   UNL A   1      34.160  22.661  24.762  1.00  0.00     0.311 C 
ATOM      4  O   UNL A   1      33.811  21.733  24.040  1.00  0.00    -0.252 OA
BRANCH   3   5
ATOM      5  C   UNL A   1      33.373  23.979  24.885  1.00  0.00     0.067 C 
ATOM      6  C   UNL A   1      32.327  23.936  23.744  1.00  0.00     0.024 C 
ATOM      7  C   UNL A   1      34.270  25.204  24.597  1.00  0.00     0.024 C 
BRANCH   5   8
ATOM      8  C   UNL A   1      32.649  24.120  26.293  1.00  0.00     0.031 C 
ATOM      9  C   UNL A   1      31.805  25.406  26.423  1.00  0.00     0.011 C 
BRANCH   8  10
ATOM     10  C   UNL A   1      31.817  22.875  26.718  1.00  0.00     0.115 C 
ATOM     11  C   UNL A   1      30.314  23.130  26.819  1.00  0.00     0.038 C 
BRANCH  10  12
ATOM     12  O   UNL A   1      32.227  22.425  28.006  1.00  0.00    -0.393 OA
ATOM     13  H   UNL A   1      32.155  23.155  28.640  1.00  0.00     0.210 HD
ENDBRANCH  10  12
ENDBRANCH   8  10
ENDBRANCH   5   8
ENDBRANCH   3   5
ENDBRANCH   2   3
ENDBRANCH   1   2
BRANCH   1  14
ATOM     14  C   UNL A   1      36.911  20.873  24.949  1.00  0.00     0.275 C 
BRANCH  14  15
ATOM     15  O   UNL A   1      38.029  21.776  24.929  1.00  0.00    -0.458 OA
BRANCH  15  16
ATOM     16  C   UNL A   1      38.990  21.542  25.848  1.00  0.00     0.338 C 
ATOM     17  O   UNL A   1      39.590  20.497  26.040  1.00  0.00    -0.246 OA
BRANCH  16  18
ATOM     18  C   UNL A   1      39.303  22.777  26.601  1.00  0.00     0.060 A 
ATOM     19  C   UNL A   1      38.617  23.958  26.337  1.00  0.00     0.016 A 
ATOM     20  C   UNL A   1      40.433  22.801  27.419  1.00  0.00     0.016 A 
ATOM     21  C   UNL A   1      39.170  25.181  26.725  1.00  0.00     0.010 A 
ATOM     22  C   UNL A   1      40.915  24.022  27.908  1.00  0.00     0.010 A 
ATOM     23  C   UNL A   1      40.346  25.239  27.489  1.00  0.00    -0.014 A 
BRANCH  23  24
ATOM     24  C   UNL A   1      41.059  26.534  27.729  1.00  0.00     0.031 A 
ATOM     25  C   UNL A   1      42.358  26.829  27.005  1.00  0.00     0.074 A 
ATOM     26  C   UNL A   1      40.555  27.497  28.528  1.00  0.00     0.049 A 
ATOM     27  N   UNL A   1      43.255  27.751  27.255  1.00  0.00    -0.248 NA
ATOM     28  C   UNL A   1      42.704  25.958  25.869  1.00  0.00     0.031 C 
ATOM     29  C   UNL A   1      39.284  27.440  29.250  1.00  0.00     0.029 A 
ATOM     30  N   UNL A   1      41.051  28.743  28.838  1.00  0.00    -0.354 N 
ATOM     31  C   UNL A   1      44.315  27.496  26.391  1.00  0.00     0.074 A 
ATOM     32  C   UNL A   1      43.938  26.355  25.585  1.00  0.00     0.031 C 
ATOM     33  C   UNL A   1      39.056  28.626  29.836  1.00  0.00     0.029 A 
ATOM     34  C   UNL A   1      40.215  29.489  29.632  1.00  0.00     0.049 A 
ATOM     35  H   UNL A   1      41.925  29.068  28.520  1.00  0.00     0.167 HD
ATOM     36  C   UNL A   1      45.501  28.142  26.284  1.00  0.00     0.031 A 
ATOM     37  C   UNL A   1      40.370  30.711  30.172  1.00  0.00     0.031 A 
ATOM     38  C   UNL A   1      45.841  29.348  26.992  1.00  0.00     0.049 A 
ATOM     39  C   UNL A   1      41.670  31.444  30.005  1.00  0.00     0.074 A 
ATOM     40  C   UNL A   1      47.025  30.065  26.962  1.00  0.00     0.029 A 
ATOM     41  N   UNL A   1      44.971  30.048  27.810  1.00  0.00    -0.354 N 
ATOM     42  N   UNL A   1      42.734  31.093  29.328  1.00  0.00    -0.248 NA
ATOM     43  C   UNL A   1      41.801  32.724  30.717  1.00  0.00     0.031 C 
ATOM     44  C   UNL A   1      46.874  31.198  27.769  1.00  0.00     0.029 A 
ATOM     45  C   UNL A   1      45.585  31.198  28.276  1.00  0.00     0.049 A 
ATOM     46  H   UNL A   1      44.053  29.769  28.029  1.00  0.00     0.167 HD
ATOM     47  C   UNL A   1      43.668  32.096  29.550  1.00  0.00     0.074 A 
ATOM     48  C   UNL A   1      43.032  33.090  30.388  1.00  0.00     0.031 C 
ATOM     49  C   UNL A   1      44.948  32.173  29.117  1.00  0.00     0.031 A 
BRANCH  36  50
ATOM     50  C   UNL A   1      46.551  27.528  25.404  1.00  0.00    -0.014 A 
ATOM     51  C   UNL A   1      46.784  27.984  24.100  1.00  0.00     0.009 A 
ATOM     52  C   UNL A   1      47.356  26.500  25.921  1.00  0.00     0.009 A 
ATOM     53  C   UNL A   1      47.789  27.402  23.320  1.00  0.00     0.001 A 
ATOM     54  C   UNL A   1      48.373  25.937  25.149  1.00  0.00     0.001 A 
ATOM     55  C   UNL A   1      48.584  26.384  23.846  1.00  0.00     0.000 A 
ENDBRANCH  36  50
BRANCH  37  56
ATOM     56  C   UNL A   1      39.278  31.305  30.985  1.00  0.00    -0.014 A 
ATOM     57  C   UNL A   1      39.212  31.061  32.364  1.00  0.00     0.009 A 
ATOM     58  C   UNL A   1      38.298  32.112  30.386  1.00  0.00     0.009 A 
ATOM     59  C   UNL A   1      38.177  31.607  33.127  1.00  0.00     0.001 A 
ATOM     60  C   UNL A   1      37.282  32.679  31.155  1.00  0.00     0.001 A 
ATOM     61  C   UNL A   1      37.219  32.420  32.524  1.00  0.00     0.000 A 
ENDBRANCH  37  56
BRANCH  49  62
ATOM     62  C   UNL A   1      45.740  33.373  29.544  1.00  0.00    -0.014 A 
ATOM     63  C   UNL A   1      45.740  34.543  28.769  1.00  0.00     0.009 A 
ATOM     64  C   UNL A   1      46.480  33.340  30.734  1.00  0.00     0.009 A 
ATOM     65  C   UNL A   1      46.495  35.649  29.163  1.00  0.00     0.001 A 
ATOM     66  C   UNL A   1      47.221  34.453  31.134  1.00  0.00     0.001 A 
ATOM     67  C   UNL A   1      47.234  35.603  30.344  1.00  0.00     0.000 A 
ENDBRANCH  49  62
ENDBRANCH  23  24
ENDBRANCH  16  18
ENDBRANCH  15  16
ENDBRANCH  14  15
ENDBRANCH   1  14
TORSDOF 14
ENDMDL
