MODEL 1
REMARK VINA RESULT:     -10.8      0.000      0.000
REMARK SMILES CC[C@@H]1CCC[C@@](CC[NH+]2CCOCC2)(C(=O)OCCOC(=O)c2ccc(-c3c4nc(c(-c5ccccc5)c5ccc([nH]5)c(-c5ccccc5)c5nc(c(-c6ccccc6)c6ccc3[nH]6)C=C5)C=C4)cc2)C1
REMARK SMILES IDX 19 1 18 2 16 3 17 4 7 5 3 6 4 7 72 8 5 9 6 10 2 11 1 12 8 13
REMARK SMILES IDX 9 14 10 15 11 16 15 17 12 19 14 20 13 21 20 22 21 23 22 24
REMARK SMILES IDX 23 25 24 26 25 27 71 28 26 29 70 30 27 31 28 32 29 33 64 34
REMARK SMILES IDX 30 35 69 36 63 37 65 38 31 39 68 40 62 41 61 42 32 44 54 45
REMARK SMILES IDX 39 46 53 47 40 48 43 49 52 50 66 51 41 52 42 53 51 55 67 56
REMARK SMILES IDX 44 57 33 58 34 59 38 60 35 61 37 62 36 63 55 64 56 65 60 66
REMARK SMILES IDX 57 67 59 68 58 69 45 70 46 71 50 72 47 73 49 74 48 75
REMARK H PARENT 10 18 65 43 43 54
REMARK Flexibility Score: inf
ROOT
ATOM      1  C   UNL A   1      35.739  21.436  26.074  1.00  0.00     0.274 C 
ENDROOT
BRANCH   1   2
ATOM      2  O   UNL A   1      34.961  22.522  25.514  1.00  0.00    -0.462 OA
BRANCH   2   3
ATOM      3  C   UNL A   1      33.645  22.500  25.840  1.00  0.00     0.312 C 
ATOM      4  O   UNL A   1      33.231  22.743  26.972  1.00  0.00    -0.252 OA
BRANCH   3   5
ATOM      5  C   UNL A   1      32.695  22.126  24.684  1.00  0.00     0.074 C 
ATOM      6  C   UNL A   1      31.845  24.533  24.163  1.00  0.00    -0.010 C 
ATOM      7  C   UNL A   1      32.343  24.411  22.722  1.00  0.00     0.003 C 
ATOM      8  C   UNL A   1      31.504  23.144  24.753  1.00  0.00     0.022 C 
ATOM      9  C   UNL A   1      33.544  23.489  22.651  1.00  0.00     0.001 C 
ATOM     10  C   UNL A   1      33.221  22.123  23.234  1.00  0.00     0.019 C 
BRANCH   6  11
ATOM     11  C   UNL A   1      30.651  25.496  24.285  1.00  0.00     0.000 C 
ATOM     12  C   UNL A   1      29.949  25.414  25.636  1.00  0.00     0.004 C 
ENDBRANCH   6  11
BRANCH   5  13
ATOM     13  C   UNL A   1      32.174  20.692  25.043  1.00  0.00     0.080 C 
BRANCH  13  14
ATOM     14  C   UNL A   1      32.964  19.447  24.553  1.00  0.00     0.263 C 
BRANCH  14  15
ATOM     15  N   UNL A   1      32.204  18.219  24.244  1.00  0.00    -0.331 N 
ATOM     16  C   UNL A   1      32.340  17.129  25.240  1.00  0.00     0.291 C 
ATOM     17  C   UNL A   1      32.680  17.622  22.961  1.00  0.00     0.291 C 
ATOM     18  H   UNL A   1      31.235  18.536  24.221  1.00  0.00     0.348 HD
ATOM     19  C   UNL A   1      33.732  16.485  25.329  1.00  0.00     0.221 C 
ATOM     20  C   UNL A   1      34.078  16.972  23.055  1.00  0.00     0.221 C 
ATOM     21  O   UNL A   1      34.124  15.953  24.062  1.00  0.00    -0.370 OA
ENDBRANCH  14  15
ENDBRANCH  13  14
ENDBRANCH   5  13
ENDBRANCH   3   5
ENDBRANCH   2   3
ENDBRANCH   1   2
BRANCH   1  22
ATOM     22  C   UNL A   1      36.638  20.817  25.009  1.00  0.00     0.275 C 
BRANCH  22  23
ATOM     23  O   UNL A   1      37.823  21.625  24.953  1.00  0.00    -0.458 OA
BRANCH  23  24
ATOM     24  C   UNL A   1      38.834  21.242  25.749  1.00  0.00     0.338 C 
ATOM     25  O   UNL A   1      39.402  20.156  25.786  1.00  0.00    -0.246 OA
BRANCH  24  26
ATOM     26  C   UNL A   1      39.288  22.420  26.492  1.00  0.00     0.060 A 
ATOM     27  C   UNL A   1      38.710  23.652  26.180  1.00  0.00     0.016 A 
ATOM     28  C   UNL A   1      40.379  22.346  27.353  1.00  0.00     0.016 A 
ATOM     29  C   UNL A   1      39.318  24.826  26.608  1.00  0.00     0.010 A 
ATOM     30  C   UNL A   1      40.927  23.527  27.861  1.00  0.00     0.010 A 
ATOM     31  C   UNL A   1      40.453  24.783  27.429  1.00  0.00    -0.014 A 
BRANCH  31  32
ATOM     32  C   UNL A   1      41.235  26.021  27.703  1.00  0.00     0.031 A 
ATOM     33  C   UNL A   1      40.670  27.063  28.641  1.00  0.00     0.074 A 
ATOM     34  C   UNL A   1      42.471  26.204  27.198  1.00  0.00     0.049 A 
ATOM     35  N   UNL A   1      41.084  28.284  28.871  1.00  0.00    -0.248 NA
ATOM     36  C   UNL A   1      39.484  26.679  29.425  1.00  0.00     0.031 C 
ATOM     37  C   UNL A   1      43.209  25.247  26.372  1.00  0.00     0.029 A 
ATOM     38  N   UNL A   1      43.336  27.262  27.330  1.00  0.00    -0.354 N 
ATOM     39  C   UNL A   1      40.181  28.825  29.780  1.00  0.00     0.074 A 
ATOM     40  C   UNL A   1      39.200  27.801  30.067  1.00  0.00     0.031 C 
ATOM     41  C   UNL A   1      44.428  25.742  26.110  1.00  0.00     0.029 A 
ATOM     42  C   UNL A   1      44.521  27.090  26.659  1.00  0.00     0.049 A 
ATOM     43  H   UNL A   1      43.125  28.069  27.855  1.00  0.00     0.167 HD
ATOM     44  C   UNL A   1      40.161  30.063  30.324  1.00  0.00     0.031 A 
ATOM     45  C   UNL A   1      45.548  27.937  26.457  1.00  0.00     0.031 A 
ATOM     46  C   UNL A   1      41.145  31.078  30.067  1.00  0.00     0.049 A 
ATOM     47  C   UNL A   1      45.459  29.342  26.981  1.00  0.00     0.074 A 
ATOM     48  C   UNL A   1      41.181  32.384  30.523  1.00  0.00     0.029 A 
ATOM     49  N   UNL A   1      42.280  30.889  29.299  1.00  0.00    -0.354 N 
ATOM     50  N   UNL A   1      44.527  29.888  27.724  1.00  0.00    -0.248 NA
ATOM     51  C   UNL A   1      46.545  30.256  26.604  1.00  0.00     0.031 C 
ATOM     52  C   UNL A   1      42.329  32.995  30.004  1.00  0.00     0.029 A 
ATOM     53  C   UNL A   1      43.022  32.056  29.257  1.00  0.00     0.049 A 
ATOM     54  H   UNL A   1      42.524  30.048  28.848  1.00  0.00     0.167 HD
ATOM     55  C   UNL A   1      44.909  31.212  27.895  1.00  0.00     0.074 A 
ATOM     56  C   UNL A   1      46.173  31.377  27.206  1.00  0.00     0.031 C 
ATOM     57  C   UNL A   1      44.266  32.206  28.552  1.00  0.00     0.031 A 
BRANCH  44  58
ATOM     58  C   UNL A   1      38.998  30.404  31.210  1.00  0.00    -0.014 A 
ATOM     59  C   UNL A   1      37.795  30.897  30.682  1.00  0.00     0.009 A 
ATOM     60  C   UNL A   1      39.111  30.218  32.597  1.00  0.00     0.009 A 
ATOM     61  C   UNL A   1      36.736  31.222  31.533  1.00  0.00     0.001 A 
ATOM     62  C   UNL A   1      38.043  30.526  33.441  1.00  0.00     0.001 A 
ATOM     63  C   UNL A   1      36.859  31.034  32.909  1.00  0.00     0.000 A 
ENDBRANCH  44  58
BRANCH  45  64
ATOM     64  C   UNL A   1      46.711  27.509  25.638  1.00  0.00    -0.014 A 
ATOM     65  C   UNL A   1      46.786  27.834  24.275  1.00  0.00     0.009 A 
ATOM     66  C   UNL A   1      47.756  26.772  26.219  1.00  0.00     0.009 A 
ATOM     67  C   UNL A   1      47.880  27.422  23.512  1.00  0.00     0.001 A 
ATOM     68  C   UNL A   1      48.862  26.387  25.461  1.00  0.00     0.001 A 
ATOM     69  C   UNL A   1      48.920  26.707  24.106  1.00  0.00     0.000 A 
ENDBRANCH  45  64
BRANCH  57  70
ATOM     70  C   UNL A   1      44.922  33.554  28.554  1.00  0.00    -0.014 A 
ATOM     71  C   UNL A   1      44.618  34.502  27.567  1.00  0.00     0.009 A 
ATOM     72  C   UNL A   1      45.841  33.884  29.562  1.00  0.00     0.009 A 
ATOM     73  C   UNL A   1      45.245  35.749  27.570  1.00  0.00     0.001 A 
ATOM     74  C   UNL A   1      46.452  35.137  29.574  1.00  0.00     0.001 A 
ATOM     75  C   UNL A   1      46.160  36.066  28.575  1.00  0.00     0.000 A 
ENDBRANCH  57  70
ENDBRANCH  31  32
ENDBRANCH  24  26
ENDBRANCH  23  24
ENDBRANCH  22  23
ENDBRANCH   1  22
TORSDOF 15
ENDMDL
MODEL 2
REMARK VINA RESULT:     -10.5      0.990      6.104
REMARK SMILES CC[C@@H]1CCC[C@@](CC[NH+]2CCOCC2)(C(=O)OCCOC(=O)c2ccc(-c3c4nc(c(-c5ccccc5)c5ccc([nH]5)c(-c5ccccc5)c5nc(c(-c6ccccc6)c6ccc3[nH]6)C=C5)C=C4)cc2)C1
REMARK SMILES IDX 19 1 18 2 16 3 17 4 7 5 3 6 4 7 72 8 5 9 6 10 2 11 1 12 8 13
REMARK SMILES IDX 9 14 10 15 11 16 15 17 12 19 14 20 13 21 20 22 21 23 22 24
REMARK SMILES IDX 23 25 24 26 25 27 71 28 26 29 70 30 27 31 28 32 29 33 64 34
REMARK SMILES IDX 30 35 69 36 63 37 65 38 31 39 68 40 62 41 61 42 32 44 54 45
REMARK SMILES IDX 39 46 53 47 40 48 43 49 52 50 66 51 41 52 42 53 51 55 67 56
REMARK SMILES IDX 44 57 33 58 34 59 38 60 35 61 37 62 36 63 55 64 56 65 60 66
REMARK SMILES IDX 57 67 59 68 58 69 45 70 46 71 50 72 47 73 49 74 48 75
REMARK H PARENT 10 18 65 43 43 54
REMARK Flexibility Score: inf
ROOT
ATOM      1  C   UNL A   1      36.402  20.182  25.026  1.00  0.00     0.274 C 
ENDROOT
BRANCH   1   2
ATOM      2  O   UNL A   1      36.127  21.500  25.560  1.00  0.00    -0.462 OA
BRANCH   2   3
ATOM      3  C   UNL A   1      34.872  21.660  26.049  1.00  0.00     0.312 C 
ATOM      4  O   UNL A   1      34.583  21.465  27.228  1.00  0.00    -0.252 OA
BRANCH   3   5
ATOM      5  C   UNL A   1      33.818  22.090  25.008  1.00  0.00     0.074 C 
ATOM      6  C   UNL A   1      33.955  24.656  25.441  1.00  0.00    -0.010 C 
ATOM      7  C   UNL A   1      34.323  24.896  23.976  1.00  0.00     0.003 C 
ATOM      8  C   UNL A   1      33.118  23.363  25.599  1.00  0.00     0.022 C 
ATOM      9  C   UNL A   1      35.070  23.703  23.413  1.00  0.00     0.001 C 
ATOM     10  C   UNL A   1      34.260  22.427  23.569  1.00  0.00     0.019 C 
BRANCH   6  11
ATOM     11  C   UNL A   1      33.232  25.863  26.063  1.00  0.00     0.000 C 
ATOM     12  C   UNL A   1      33.097  27.042  25.106  1.00  0.00     0.004 C 
ENDBRANCH   6  11
BRANCH   5  13
ATOM     13  C   UNL A   1      32.793  20.905  24.966  1.00  0.00     0.080 C 
BRANCH  13  14
ATOM     14  C   UNL A   1      33.314  19.444  24.887  1.00  0.00     0.263 C 
BRANCH  14  15
ATOM     15  N   UNL A   1      32.366  18.389  24.483  1.00  0.00    -0.331 N 
ATOM     16  C   UNL A   1      32.360  17.184  25.347  1.00  0.00     0.291 C 
ATOM     17  C   UNL A   1      32.707  17.876  23.122  1.00  0.00     0.291 C 
ATOM     18  H   UNL A   1      31.457  18.848  24.538  1.00  0.00     0.348 HD
ATOM     19  C   UNL A   1      33.638  16.332  25.303  1.00  0.00     0.221 C 
ATOM     20  C   UNL A   1      33.990  17.017  23.082  1.00  0.00     0.221 C 
ATOM     21  O   UNL A   1      33.906  15.895  23.970  1.00  0.00    -0.370 OA
ENDBRANCH  14  15
ENDBRANCH  13  14
ENDBRANCH   5  13
ENDBRANCH   3   5
ENDBRANCH   2   3
ENDBRANCH   1   2
BRANCH   1  22
ATOM     22  C   UNL A   1      37.905  19.942  24.940  1.00  0.00     0.275 C 
BRANCH  22  23
ATOM     23  O   UNL A   1      38.540  21.136  25.420  1.00  0.00    -0.458 OA
BRANCH  23  24
ATOM     24  C   UNL A   1      39.614  20.955  26.204  1.00  0.00     0.338 C 
ATOM     25  O   UNL A   1      40.352  19.979  26.269  1.00  0.00    -0.246 OA
BRANCH  24  26
ATOM     26  C   UNL A   1      39.885  22.222  26.888  1.00  0.00     0.060 A 
ATOM     27  C   UNL A   1      39.093  23.324  26.561  1.00  0.00     0.016 A 
ATOM     28  C   UNL A   1      41.002  22.369  27.705  1.00  0.00     0.016 A 
ATOM     29  C   UNL A   1      39.505  24.601  26.924  1.00  0.00     0.010 A 
ATOM     30  C   UNL A   1      41.357  23.646  28.151  1.00  0.00     0.010 A 
ATOM     31  C   UNL A   1      40.659  24.784  27.698  1.00  0.00    -0.014 A 
BRANCH  31  32
ATOM     32  C   UNL A   1      41.226  26.148  27.898  1.00  0.00     0.031 A 
ATOM     33  C   UNL A   1      42.536  26.510  27.237  1.00  0.00     0.074 A 
ATOM     34  C   UNL A   1      40.563  27.096  28.590  1.00  0.00     0.049 A 
ATOM     35  N   UNL A   1      43.298  27.558  27.426  1.00  0.00    -0.248 NA
ATOM     36  C   UNL A   1      43.055  25.571  26.228  1.00  0.00     0.031 C 
ATOM     37  C   UNL A   1      39.238  26.947  29.192  1.00  0.00     0.029 A 
ATOM     38  N   UNL A   1      40.916  28.389  28.883  1.00  0.00    -0.354 N 
ATOM     39  C   UNL A   1      44.404  27.375  26.603  1.00  0.00     0.074 A 
ATOM     40  C   UNL A   1      44.215  26.121  25.908  1.00  0.00     0.031 C 
ATOM     41  C   UNL A   1      38.872  28.115  29.742  1.00  0.00     0.029 A 
ATOM     42  C   UNL A   1      39.975  29.061  29.623  1.00  0.00     0.049 A 
ATOM     43  H   UNL A   1      41.764  28.797  28.592  1.00  0.00     0.167 HD
ATOM     44  C   UNL A   1      45.487  28.171  26.443  1.00  0.00     0.031 A 
ATOM     45  C   UNL A   1      40.011  30.280  30.193  1.00  0.00     0.031 A 
ATOM     46  C   UNL A   1      45.672  29.431  27.108  1.00  0.00     0.049 A 
ATOM     47  C   UNL A   1      41.262  31.105  30.091  1.00  0.00     0.074 A 
ATOM     48  C   UNL A   1      46.760  30.284  27.059  1.00  0.00     0.029 A 
ATOM     49  N   UNL A   1      44.730  30.027  27.929  1.00  0.00    -0.354 N 
ATOM     50  N   UNL A   1      42.363  30.855  29.424  1.00  0.00    -0.248 NA
ATOM     51  C   UNL A   1      41.289  32.360  30.855  1.00  0.00     0.031 C 
ATOM     52  C   UNL A   1      46.487  31.387  27.877  1.00  0.00     0.029 A 
ATOM     53  C   UNL A   1      45.214  31.234  28.403  1.00  0.00     0.049 A 
ATOM     54  H   UNL A   1      43.848  29.648  28.145  1.00  0.00     0.167 HD
ATOM     55  C   UNL A   1      43.216  31.917  29.695  1.00  0.00     0.074 A 
ATOM     56  C   UNL A   1      42.494  32.827  30.561  1.00  0.00     0.031 C 
ATOM     57  C   UNL A   1      44.489  32.115  29.277  1.00  0.00     0.031 A 
BRANCH  44  58
ATOM     58  C   UNL A   1      46.582  27.666  25.551  1.00  0.00    -0.014 A 
ATOM     59  C   UNL A   1      46.641  28.015  24.194  1.00  0.00     0.009 A 
ATOM     60  C   UNL A   1      47.577  26.831  26.086  1.00  0.00     0.009 A 
ATOM     61  C   UNL A   1      47.663  27.515  23.382  1.00  0.00     0.001 A 
ATOM     62  C   UNL A   1      48.607  26.351  25.277  1.00  0.00     0.001 A 
ATOM     63  C   UNL A   1      48.646  26.687  23.925  1.00  0.00     0.000 A 
ENDBRANCH  44  58
BRANCH  45  64
ATOM     64  C   UNL A   1      38.856  30.757  30.997  1.00  0.00    -0.014 A 
ATOM     65  C   UNL A   1      37.912  31.635  30.445  1.00  0.00     0.009 A 
ATOM     66  C   UNL A   1      38.693  30.332  32.326  1.00  0.00     0.009 A 
ATOM     67  C   UNL A   1      36.833  32.082  31.211  1.00  0.00     0.001 A 
ATOM     68  C   UNL A   1      37.598  30.757  33.079  1.00  0.00     0.001 A 
ATOM     69  C   UNL A   1      36.672  31.637  32.522  1.00  0.00     0.000 A 
ENDBRANCH  45  64
BRANCH  57  70
ATOM     70  C   UNL A   1      45.172  33.363  29.750  1.00  0.00    -0.014 A 
ATOM     71  C   UNL A   1      45.894  33.373  30.952  1.00  0.00     0.009 A 
ATOM     72  C   UNL A   1      45.108  34.533  28.978  1.00  0.00     0.009 A 
ATOM     73  C   UNL A   1      46.515  34.544  31.390  1.00  0.00     0.001 A 
ATOM     74  C   UNL A   1      45.746  35.696  29.409  1.00  0.00     0.001 A 
ATOM     75  C   UNL A   1      46.441  35.704  30.617  1.00  0.00     0.000 A 
ENDBRANCH  57  70
ENDBRANCH  31  32
ENDBRANCH  24  26
ENDBRANCH  23  24
ENDBRANCH  22  23
ENDBRANCH   1  22
TORSDOF 15
ENDMDL
MODEL 3
REMARK VINA RESULT:     -10.5      4.042      8.155
REMARK SMILES CC[C@@H]1CCC[C@@](CC[NH+]2CCOCC2)(C(=O)OCCOC(=O)c2ccc(-c3c4nc(c(-c5ccccc5)c5ccc([nH]5)c(-c5ccccc5)c5nc(c(-c6ccccc6)c6ccc3[nH]6)C=C5)C=C4)cc2)C1
REMARK SMILES IDX 19 1 18 2 16 3 17 4 7 5 3 6 4 7 72 8 5 9 6 10 2 11 1 12 8 13
REMARK SMILES IDX 9 14 10 15 11 16 15 17 12 19 14 20 13 21 20 22 21 23 22 24
REMARK SMILES IDX 23 25 24 26 25 27 71 28 26 29 70 30 27 31 28 32 29 33 64 34
REMARK SMILES IDX 30 35 69 36 63 37 65 38 31 39 68 40 62 41 61 42 32 44 54 45
REMARK SMILES IDX 39 46 53 47 40 48 43 49 52 50 66 51 41 52 42 53 51 55 67 56
REMARK SMILES IDX 44 57 33 58 34 59 38 60 35 61 37 62 36 63 55 64 56 65 60 66
REMARK SMILES IDX 57 67 59 68 58 69 45 70 46 71 50 72 47 73 49 74 48 75
REMARK H PARENT 10 18 65 43 43 54
REMARK Flexibility Score: inf
ROOT
ATOM      1  C   UNL A   1      33.363  29.668  26.248  1.00  0.00     0.274 C 
ENDROOT
BRANCH   1   2
ATOM      2  O   UNL A   1      32.076  29.440  25.624  1.00  0.00    -0.462 OA
BRANCH   2   3
ATOM      3  C   UNL A   1      31.788  28.136  25.384  1.00  0.00     0.312 C 
ATOM      4  O   UNL A   1      32.232  27.216  26.068  1.00  0.00    -0.252 OA
BRANCH   3   5
ATOM      5  C   UNL A   1      30.871  27.885  24.170  1.00  0.00     0.074 C 
ATOM      6  C   UNL A   1      32.323  26.043  23.035  1.00  0.00    -0.010 C 
ATOM      7  C   UNL A   1      31.152  25.061  23.101  1.00  0.00     0.003 C 
ATOM      8  C   UNL A   1      31.819  27.505  22.979  1.00  0.00     0.022 C 
ATOM      9  C   UNL A   1      30.268  25.368  24.294  1.00  0.00     0.001 C 
ATOM     10  C   UNL A   1      29.773  26.804  24.253  1.00  0.00     0.019 C 
BRANCH   6  11
ATOM     11  C   UNL A   1      33.270  25.738  21.861  1.00  0.00     0.000 C 
ATOM     12  C   UNL A   1      32.544  25.580  20.529  1.00  0.00     0.004 C 
ENDBRANCH   6  11
BRANCH   5  13
ATOM     13  C   UNL A   1      30.203  29.273  23.880  1.00  0.00     0.080 C 
BRANCH  13  14
ATOM     14  C   UNL A   1      29.865  29.668  22.416  1.00  0.00     0.263 C 
BRANCH  14  15
ATOM     15  N   UNL A   1      28.443  29.799  22.043  1.00  0.00    -0.331 N 
ATOM     16  C   UNL A   1      28.170  30.734  20.925  1.00  0.00     0.291 C 
ATOM     17  C   UNL A   1      27.652  30.339  23.189  1.00  0.00     0.291 C 
ATOM     18  H   UNL A   1      28.179  28.854  21.765  1.00  0.00     0.348 HD
ATOM     19  C   UNL A   1      28.436  32.218  21.224  1.00  0.00     0.221 C 
ATOM     20  C   UNL A   1      27.918  31.831  23.485  1.00  0.00     0.221 C 
ATOM     21  O   UNL A   1      27.658  32.654  22.341  1.00  0.00    -0.370 OA
ENDBRANCH  14  15
ENDBRANCH  13  14
ENDBRANCH   5  13
ENDBRANCH   3   5
ENDBRANCH   2   3
ENDBRANCH   1   2
BRANCH   1  22
ATOM     22  C   UNL A   1      33.215  30.577  27.464  1.00  0.00     0.275 C 
BRANCH  22  23
ATOM     23  O   UNL A   1      34.421  31.351  27.547  1.00  0.00    -0.458 OA
BRANCH  23  24
ATOM     24  C   UNL A   1      35.065  31.308  28.723  1.00  0.00     0.338 C 
ATOM     25  O   UNL A   1      34.759  31.853  29.778  1.00  0.00    -0.246 OA
BRANCH  24  26
ATOM     26  C   UNL A   1      36.155  30.336  28.600  1.00  0.00     0.060 A 
ATOM     27  C   UNL A   1      36.577  29.676  29.755  1.00  0.00     0.016 A 
ATOM     28  C   UNL A   1      36.863  30.203  27.409  1.00  0.00     0.016 A 
ATOM     29  C   UNL A   1      37.793  29.005  29.760  1.00  0.00     0.010 A 
ATOM     30  C   UNL A   1      38.036  29.443  27.395  1.00  0.00     0.010 A 
ATOM     31  C   UNL A   1      38.556  28.904  28.589  1.00  0.00    -0.014 A 
BRANCH  31  32
ATOM     32  C   UNL A   1      39.953  28.387  28.639  1.00  0.00     0.031 A 
ATOM     33  C   UNL A   1      41.068  29.307  29.081  1.00  0.00     0.074 A 
ATOM     34  C   UNL A   1      40.240  27.097  28.377  1.00  0.00     0.049 A 
ATOM     35  N   UNL A   1      42.365  29.128  29.018  1.00  0.00    -0.248 NA
ATOM     36  C   UNL A   1      40.673  30.595  29.675  1.00  0.00     0.031 C 
ATOM     37  C   UNL A   1      39.268  26.053  28.050  1.00  0.00     0.029 A 
ATOM     38  N   UNL A   1      41.446  26.441  28.366  1.00  0.00    -0.354 N 
ATOM     39  C   UNL A   1      42.932  30.298  29.511  1.00  0.00     0.074 A 
ATOM     40  C   UNL A   1      41.844  31.179  29.876  1.00  0.00     0.031 C 
ATOM     41  C   UNL A   1      39.910  24.882  27.917  1.00  0.00     0.029 A 
ATOM     42  C   UNL A   1      41.345  25.110  28.044  1.00  0.00     0.049 A 
ATOM     43  H   UNL A   1      42.303  26.883  28.569  1.00  0.00     0.167 HD
ATOM     44  C   UNL A   1      44.240  30.619  29.642  1.00  0.00     0.031 A 
ATOM     45  C   UNL A   1      42.297  24.185  27.820  1.00  0.00     0.031 A 
ATOM     46  C   UNL A   1      45.328  29.743  29.309  1.00  0.00     0.049 A 
ATOM     47  C   UNL A   1      43.743  24.589  27.869  1.00  0.00     0.074 A 
ATOM     48  C   UNL A   1      46.688  29.995  29.350  1.00  0.00     0.029 A 
ATOM     49  N   UNL A   1      45.175  28.432  28.891  1.00  0.00    -0.354 N 
ATOM     50  N   UNL A   1      44.266  25.744  28.200  1.00  0.00    -0.248 NA
ATOM     51  C   UNL A   1      44.726  23.570  27.475  1.00  0.00     0.031 C 
ATOM     52  C   UNL A   1      47.358  28.841  28.927  1.00  0.00     0.029 A 
ATOM     53  C   UNL A   1      46.415  27.863  28.659  1.00  0.00     0.049 A 
ATOM     54  H   UNL A   1      44.312  27.973  28.774  1.00  0.00     0.167 HD
ATOM     55  C   UNL A   1      45.639  25.594  28.044  1.00  0.00     0.074 A 
ATOM     56  C   UNL A   1      45.867  24.228  27.620  1.00  0.00     0.031 C 
ATOM     57  C   UNL A   1      46.621  26.509  28.221  1.00  0.00     0.031 A 
BRANCH  44  58
ATOM     58  C   UNL A   1      44.560  32.006  30.119  1.00  0.00    -0.014 A 
ATOM     59  C   UNL A   1      44.723  33.070  29.219  1.00  0.00     0.009 A 
ATOM     60  C   UNL A   1      44.692  32.248  31.495  1.00  0.00     0.009 A 
ATOM     61  C   UNL A   1      45.039  34.347  29.690  1.00  0.00     0.001 A 
ATOM     62  C   UNL A   1      44.988  33.529  31.963  1.00  0.00     0.001 A 
ATOM     63  C   UNL A   1      45.168  34.576  31.060  1.00  0.00     0.000 A 
ENDBRANCH  44  58
BRANCH  45  64
ATOM     64  C   UNL A   1      41.911  22.804  27.432  1.00  0.00    -0.014 A 
ATOM     65  C   UNL A   1      41.552  21.860  28.405  1.00  0.00     0.009 A 
ATOM     66  C   UNL A   1      41.900  22.424  26.080  1.00  0.00     0.009 A 
ATOM     67  C   UNL A   1      41.196  20.562  28.031  1.00  0.00     0.001 A 
ATOM     68  C   UNL A   1      41.517  21.135  25.707  1.00  0.00     0.001 A 
ATOM     69  C   UNL A   1      41.171  20.203  26.684  1.00  0.00     0.000 A 
ENDBRANCH  45  64
BRANCH  57  70
ATOM     70  C   UNL A   1      48.026  26.057  27.960  1.00  0.00    -0.014 A 
ATOM     71  C   UNL A   1      48.570  26.117  26.669  1.00  0.00     0.009 A 
ATOM     72  C   UNL A   1      48.816  25.580  29.016  1.00  0.00     0.009 A 
ATOM     73  C   UNL A   1      49.875  25.680  26.434  1.00  0.00     0.001 A 
ATOM     74  C   UNL A   1      50.126  25.162  28.782  1.00  0.00     0.001 A 
ATOM     75  C   UNL A   1      50.652  25.204  27.491  1.00  0.00     0.000 A 
ENDBRANCH  57  70
ENDBRANCH  31  32
ENDBRANCH  24  26
ENDBRANCH  23  24
ENDBRANCH  22  23
ENDBRANCH   1  22
TORSDOF 15
ENDMDL
