MODEL 1
REMARK VINA RESULT:     -11.9      0.000      0.000
REMARK SMILES COc1ccc(-c2cc(Cl)cc3c2O[C@H](C(F)(F)F)C(C(=O)OCCOC(=O)c2ccc(-c4c5nc(c(-c6ccccc6)c6ccc([nH]6)c(-c6ccccc6)c6nc(c(-c7ccccc7)c7ccc4[nH]7)C=C6)C=C5)cc2)=C3)cc1C
REMARK SMILES IDX 24 1 23 2 21 3 22 4 20 5 7 6 8 7 13 8 9 9 12 10 14 11 10 12
REMARK SMILES IDX 11 13 77 14 15 15 6 16 3 17 4 18 79 19 5 20 78 21 80 22 2 23
REMARK SMILES IDX 1 24 16 25 17 26 18 27 19 28 25 29 26 30 27 31 28 32 29 33
REMARK SMILES IDX 30 34 76 35 31 36 75 37 32 38 33 39 34 40 69 41 35 42 74 43
REMARK SMILES IDX 68 44 70 45 36 46 73 47 67 48 66 49 37 51 59 52 44 53 58 54
REMARK SMILES IDX 45 55 48 56 57 57 71 58 46 59 47 60 56 62 72 63 49 64 38 65
REMARK SMILES IDX 39 66 43 67 40 68 42 69 41 70 60 71 61 72 65 73 62 74 64 75
REMARK SMILES IDX 63 76 50 77 51 78 55 79 52 80 54 81 53 82
REMARK H PARENT 70 50 48 61
REMARK Flexibility Score: inf
ROOT
ATOM      1  C   UNL A   1      43.850  27.671  27.170  1.00  0.00     0.275 C 
ENDROOT
BRANCH   1   2
ATOM      2  O   UNL A   1      42.436  27.726  27.113  1.00  0.00    -0.459 OA
BRANCH   2   3
ATOM      3  C   UNL A   1      41.865  26.932  28.028  1.00  0.00     0.338 C 
ATOM      4  O   UNL A   1      42.576  26.446  28.911  1.00  0.00    -0.246 OA
BRANCH   3   5
ATOM      5  C   UNL A   1      40.329  26.128  27.463  1.00  0.00     0.087 C 
ATOM      6  C   UNL A   1      40.040  22.291  26.645  1.00  0.00     0.026 A 
ATOM      7  C   UNL A   1      39.055  21.417  26.122  1.00  0.00     0.033 A 
ATOM      8  C   UNL A   1      39.453  23.741  26.939  1.00  0.00     0.135 A 
ATOM      9  C   UNL A   1      37.806  21.875  25.697  1.00  0.00     0.042 A 
ATOM     10  C   UNL A   1      38.283  24.163  26.363  1.00  0.00     0.019 A 
ATOM     11  O   UNL A   1      40.192  25.352  27.773  1.00  0.00    -0.475 OA
ATOM     12  Cl  UNL A   1      36.686  20.764  25.000  1.00  0.00    -0.084 Cl
ATOM     13  C   UNL A   1      37.469  23.229  25.755  1.00  0.00     0.032 A 
ATOM     14  C   UNL A   1      39.500  24.995  26.192  1.00  0.00     0.027 C 
ATOM     15  C   UNL A   1      39.769  26.581  28.853  1.00  0.00     0.316 C 
BRANCH   6  16
ATOM     16  C   UNL A   1      41.495  21.694  26.347  1.00  0.00    -0.014 A 
ATOM     17  C   UNL A   1      43.812  20.250  25.349  1.00  0.00     0.121 A 
ATOM     18  C   UNL A   1      43.697  21.638  25.248  1.00  0.00     0.047 A 
ATOM     19  C   UNL A   1      42.912  19.571  26.152  1.00  0.00    -0.008 A 
ATOM     20  C   UNL A   1      42.587  22.351  25.784  1.00  0.00     0.013 A 
ATOM     21  C   UNL A   1      41.798  20.314  26.657  1.00  0.00     0.016 A 
ATOM     22  C   UNL A   1      43.032  18.076  26.372  1.00  0.00     0.048 C 
BRANCH  17  23
ATOM     23  O   UNL A   1      44.882  19.633  24.759  1.00  0.00    -0.496 OA
ATOM     24  C   UNL A   1      46.138  20.230  25.105  1.00  0.00     0.278 C 
ENDBRANCH  17  23
ENDBRANCH   6  16
BRANCH  15  25
ATOM     25  C   UNL A   1      39.470  28.165  28.805  1.00  0.00     0.430 C 
ATOM     26  F   UNL A   1      38.276  28.580  29.285  1.00  0.00    -0.167 F 
ATOM     27  F   UNL A   1      40.394  28.783  29.603  1.00  0.00    -0.167 F 
ATOM     28  F   UNL A   1      39.586  28.782  27.610  1.00  0.00    -0.167 F 
ENDBRANCH  15  25
ENDBRANCH   3   5
ENDBRANCH   2   3
ENDBRANCH   1   2
BRANCH   1  29
ATOM     29  C   UNL A   1      44.739  26.850  26.142  1.00  0.00     0.275 C 
BRANCH  29  30
ATOM     30  O   UNL A   1      45.810  25.782  26.241  1.00  0.00    -0.458 OA
BRANCH  30  31
ATOM     31  C   UNL A   1      46.317  24.559  26.544  1.00  0.00     0.338 C 
ATOM     32  O   UNL A   1      46.513  23.689  25.709  1.00  0.00    -0.246 OA
BRANCH  31  33
ATOM     33  C   UNL A   1      46.653  24.284  27.939  1.00  0.00     0.060 A 
ATOM     34  C   UNL A   1      47.948  25.278  29.086  1.00  0.00     0.016 A 
ATOM     35  C   UNL A   1      44.988  23.801  28.868  1.00  0.00     0.016 A 
ATOM     36  C   UNL A   1      47.419  25.936  30.898  1.00  0.00     0.010 A 
ATOM     37  C   UNL A   1      44.492  24.397  30.646  1.00  0.00     0.010 A 
ATOM     38  C   UNL A   1      45.644  25.578  31.718  1.00  0.00    -0.014 A 
BRANCH  38  39
ATOM     39  C   UNL A   1      44.847  25.874  32.940  1.00  0.00     0.031 A 
ATOM     40  C   UNL A   1      44.133  27.138  33.164  1.00  0.00     0.074 A 
ATOM     41  C   UNL A   1      44.437  24.830  33.732  1.00  0.00     0.049 A 
ATOM     42  N   UNL A   1      44.116  27.771  34.296  1.00  0.00    -0.248 NA
ATOM     43  C   UNL A   1      43.300  27.745  32.135  1.00  0.00     0.031 C 
ATOM     44  C   UNL A   1      43.201  24.716  34.513  1.00  0.00     0.029 A 
ATOM     45  N   UNL A   1      45.019  23.578  33.944  1.00  0.00    -0.354 N 
ATOM     46  C   UNL A   1      43.070  28.667  34.189  1.00  0.00     0.074 A 
ATOM     47  C   UNL A   1      42.796  28.805  32.774  1.00  0.00     0.031 C 
ATOM     48  C   UNL A   1      43.214  23.576  35.233  1.00  0.00     0.029 A 
ATOM     49  C   UNL A   1      44.494  22.914  35.055  1.00  0.00     0.049 A 
ATOM     50  H   UNL A   1      45.725  23.203  33.370  1.00  0.00     0.167 HD
ATOM     51  C   UNL A   1      42.183  28.872  35.207  1.00  0.00     0.031 A 
ATOM     52  C   UNL A   1      45.261  22.308  36.020  1.00  0.00     0.031 A 
ATOM     53  C   UNL A   1      42.289  27.846  36.238  1.00  0.00     0.049 A 
ATOM     54  C   UNL A   1      45.277  23.131  37.235  1.00  0.00     0.074 A 
ATOM     55  C   UNL A   1      41.460  26.778  36.547  1.00  0.00     0.029 A 
ATOM     56  N   UNL A   1      43.470  27.645  36.933  1.00  0.00    -0.354 N 
ATOM     57  N   UNL A   1      44.642  24.248  37.277  1.00  0.00    -0.248 NA
ATOM     58  C   UNL A   1      46.065  22.848  38.421  1.00  0.00     0.031 C 
ATOM     59  C   UNL A   1      42.137  25.951  37.467  1.00  0.00     0.029 A 
ATOM     60  C   UNL A   1      43.373  26.518  37.724  1.00  0.00     0.049 A 
ATOM     61  H   UNL A   1      44.265  28.222  36.871  1.00  0.00     0.167 HD
ATOM     62  C   UNL A   1      44.950  24.878  38.421  1.00  0.00     0.074 A 
ATOM     63  C   UNL A   1      45.815  23.956  39.134  1.00  0.00     0.031 C 
ATOM     64  C   UNL A   1      44.466  26.127  38.603  1.00  0.00     0.031 A 
BRANCH  51  65
ATOM     65  C   UNL A   1      40.965  29.765  35.100  1.00  0.00    -0.014 A 
ATOM     66  C   UNL A   1      40.838  30.890  35.939  1.00  0.00     0.009 A 
ATOM     67  C   UNL A   1      39.955  29.595  34.138  1.00  0.00     0.009 A 
ATOM     68  C   UNL A   1      39.741  31.756  35.872  1.00  0.00     0.001 A 
ATOM     69  C   UNL A   1      38.839  30.445  34.080  1.00  0.00     0.001 A 
ATOM     70  C   UNL A   1      38.732  31.525  34.949  1.00  0.00     0.000 A 
ENDBRANCH  51  65
BRANCH  52  71
ATOM     71  C   UNL A   1      46.500  21.545  35.655  1.00  0.00    -0.014 A 
ATOM     72  C   UNL A   1      46.933  20.834  36.767  1.00  0.00     0.009 A 
ATOM     73  C   UNL A   1      46.462  20.938  34.393  1.00  0.00     0.009 A 
ATOM     74  C   UNL A   1      46.471  19.550  36.793  1.00  0.00     0.001 A 
ATOM     75  C   UNL A   1      46.225  19.586  34.376  1.00  0.00     0.001 A 
ATOM     76  C   UNL A   1      46.112  18.945  35.601  1.00  0.00     0.000 A 
ENDBRANCH  52  71
BRANCH  64  77
ATOM     77  C   UNL A   1      44.909  27.002  39.706  1.00  0.00    -0.014 A 
ATOM     78  C   UNL A   1      45.694  28.142  39.512  1.00  0.00     0.009 A 
ATOM     79  C   UNL A   1      44.470  26.708  41.006  1.00  0.00     0.009 A 
ATOM     80  C   UNL A   1      46.140  28.888  40.595  1.00  0.00     0.001 A 
ATOM     81  C   UNL A   1      44.851  27.495  42.082  1.00  0.00     0.001 A 
ATOM     82  C   UNL A   1      45.717  28.563  41.880  1.00  0.00     0.000 A 
ENDBRANCH  64  77
ENDBRANCH  38  39
ENDBRANCH  31  33
ENDBRANCH  30  31
ENDBRANCH  29  30
ENDBRANCH   1  29
TORSDOF 14
ENDMDL
MODEL 2
REMARK VINA RESULT:     -11.2      2.881      6.931
REMARK SMILES COc1ccc(-c2cc(Cl)cc3c2O[C@H](C(F)(F)F)C(C(=O)OCCOC(=O)c2ccc(-c4c5nc(c(-c6ccccc6)c6ccc([nH]6)c(-c6ccccc6)c6nc(c(-c7ccccc7)c7ccc4[nH]7)C=C6)C=C5)cc2)=C3)cc1C
REMARK SMILES IDX 24 1 23 2 21 3 22 4 20 5 7 6 8 7 13 8 9 9 12 10 14 11 10 12
REMARK SMILES IDX 11 13 77 14 15 15 6 16 3 17 4 18 79 19 5 20 78 21 80 22 2 23
REMARK SMILES IDX 1 24 16 25 17 26 18 27 19 28 25 29 26 30 27 31 28 32 29 33
REMARK SMILES IDX 30 34 76 35 31 36 75 37 32 38 33 39 34 40 69 41 35 42 74 43
REMARK SMILES IDX 68 44 70 45 36 46 73 47 67 48 66 49 37 51 59 52 44 53 58 54
REMARK SMILES IDX 45 55 48 56 57 57 71 58 46 59 47 60 56 62 72 63 49 64 38 65
REMARK SMILES IDX 39 66 43 67 40 68 42 69 41 70 60 71 61 72 65 73 62 74 64 75
REMARK SMILES IDX 63 76 50 77 51 78 55 79 52 80 54 81 53 82
REMARK H PARENT 70 50 48 61
REMARK Flexibility Score: inf
ROOT
ATOM      1  C   UNL A   1      43.637  27.867  27.796  1.00  0.00     0.275 C 
ENDROOT
BRANCH   1   2
ATOM      2  O   UNL A   1      42.224  27.760  27.833  1.00  0.00    -0.459 OA
BRANCH   2   3
ATOM      3  C   UNL A   1      41.819  26.701  28.546  1.00  0.00     0.338 C 
ATOM      4  O   UNL A   1      42.657  26.080  29.203  1.00  0.00    -0.246 OA
BRANCH   3   5
ATOM      5  C   UNL A   1      40.298  25.916  27.916  1.00  0.00     0.087 C 
ATOM      6  C   UNL A   1      40.166  22.271  26.442  1.00  0.00     0.026 A 
ATOM      7  C   UNL A   1      39.200  21.443  25.817  1.00  0.00     0.033 A 
ATOM      8  C   UNL A   1      39.521  23.608  27.015  1.00  0.00     0.135 A 
ATOM      9  C   UNL A   1      37.908  21.892  25.537  1.00  0.00     0.042 A 
ATOM     10  C   UNL A   1      38.301  24.052  26.577  1.00  0.00     0.019 A 
ATOM     11  O   UNL A   1      40.220  25.091  28.088  1.00  0.00    -0.475 OA
ATOM     12  Cl  UNL A   1      36.811  20.854  24.704  1.00  0.00    -0.084 Cl
ATOM     13  C   UNL A   1      37.504  23.192  25.849  1.00  0.00     0.032 A 
ATOM     14  C   UNL A   1      39.461  24.974  26.502  1.00  0.00     0.027 C 
ATOM     15  C   UNL A   1      39.793  26.084  29.388  1.00  0.00     0.316 C 
BRANCH   6  16
ATOM     16  C   UNL A   1      41.631  21.825  25.978  1.00  0.00    -0.014 A 
ATOM     17  C   UNL A   1      44.488  21.414  25.630  1.00  0.00     0.121 A 
ATOM     18  C   UNL A   1      43.620  20.374  25.970  1.00  0.00     0.047 A 
ATOM     19  C   UNL A   1      43.944  22.618  25.219  1.00  0.00    -0.008 A 
ATOM     20  C   UNL A   1      42.214  20.564  26.088  1.00  0.00     0.013 A 
ATOM     21  C   UNL A   1      42.531  22.782  25.371  1.00  0.00     0.016 A 
ATOM     22  C   UNL A   1      44.828  23.759  24.756  1.00  0.00     0.048 C 
BRANCH  17  23
ATOM     23  O   UNL A   1      45.833  21.163  25.592  1.00  0.00    -0.496 OA
ATOM     24  C   UNL A   1      46.152  19.886  25.024  1.00  0.00     0.278 C 
ENDBRANCH  17  23
ENDBRANCH   6  16
BRANCH  15  25
ATOM     25  C   UNL A   1      39.410  27.631  29.636  1.00  0.00     0.430 C 
ATOM     26  F   UNL A   1      39.014  28.346  28.558  1.00  0.00    -0.167 F 
ATOM     27  F   UNL A   1      38.334  27.658  30.480  1.00  0.00    -0.167 F 
ATOM     28  F   UNL A   1      40.334  28.409  30.236  1.00  0.00    -0.167 F 
ENDBRANCH  15  25
ENDBRANCH   3   5
ENDBRANCH   2   3
ENDBRANCH   1   2
BRANCH   1  29
ATOM     29  C   UNL A   1      44.430  28.621  26.646  1.00  0.00     0.275 C 
BRANCH  29  30
ATOM     30  O   UNL A   1      45.652  28.330  25.797  1.00  0.00    -0.458 OA
BRANCH  30  31
ATOM     31  C   UNL A   1      46.562  27.547  25.160  1.00  0.00     0.338 C 
ATOM     32  O   UNL A   1      46.465  27.230  23.985  1.00  0.00    -0.246 OA
BRANCH  31  33
ATOM     33  C   UNL A   1      47.715  27.079  25.924  1.00  0.00     0.060 A 
ATOM     34  C   UNL A   1      49.110  28.197  26.809  1.00  0.00     0.016 A 
ATOM     35  C   UNL A   1      47.127  25.549  27.011  1.00  0.00     0.016 A 
ATOM     36  C   UNL A   1      49.602  27.901  28.724  1.00  0.00     0.010 A 
ATOM     37  C   UNL A   1      47.639  25.231  28.855  1.00  0.00     0.010 A 
ATOM     38  C   UNL A   1      48.831  26.448  29.839  1.00  0.00    -0.014 A 
BRANCH  38  39
ATOM     39  C   UNL A   1      48.867  25.901  31.225  1.00  0.00     0.031 A 
ATOM     40  C   UNL A   1      49.975  25.098  31.757  1.00  0.00     0.074 A 
ATOM     41  C   UNL A   1      48.040  26.449  32.174  1.00  0.00     0.049 A 
ATOM     42  N   UNL A   1      49.818  24.038  32.487  1.00  0.00    -0.248 NA
ATOM     43  C   UNL A   1      51.366  25.490  31.577  1.00  0.00     0.031 C 
ATOM     44  C   UNL A   1      48.293  26.613  33.609  1.00  0.00     0.029 A 
ATOM     45  N   UNL A   1      46.797  27.069  32.035  1.00  0.00    -0.354 N 
ATOM     46  C   UNL A   1      51.051  23.815  33.067  1.00  0.00     0.074 A 
ATOM     47  C   UNL A   1      52.013  24.547  32.269  1.00  0.00     0.031 C 
ATOM     48  C   UNL A   1      47.195  27.107  34.217  1.00  0.00     0.029 A 
ATOM     49  C   UNL A   1      46.118  27.207  33.248  1.00  0.00     0.049 A 
ATOM     50  H   UNL A   1      46.436  27.377  31.173  1.00  0.00     0.167 HD
ATOM     51  C   UNL A   1      51.184  23.479  34.383  1.00  0.00     0.031 A 
ATOM     52  C   UNL A   1      44.798  26.874  33.431  1.00  0.00     0.031 A 
ATOM     53  C   UNL A   1      49.948  23.688  35.128  1.00  0.00     0.049 A 
ATOM     54  C   UNL A   1      44.701  25.612  34.175  1.00  0.00     0.074 A 
ATOM     55  C   UNL A   1      49.594  24.666  36.046  1.00  0.00     0.029 A 
ATOM     56  N   UNL A   1      48.782  23.025  34.787  1.00  0.00    -0.354 N 
ATOM     57  N   UNL A   1      45.761  24.984  34.542  1.00  0.00    -0.248 NA
ATOM     58  C   UNL A   1      43.462  24.910  34.463  1.00  0.00     0.031 C 
ATOM     59  C   UNL A   1      48.208  24.560  36.285  1.00  0.00     0.029 A 
ATOM     60  C   UNL A   1      47.720  23.514  35.521  1.00  0.00     0.049 A 
ATOM     61  H   UNL A   1      48.718  22.307  34.116  1.00  0.00     0.167 HD
ATOM     62  C   UNL A   1      45.405  23.793  35.048  1.00  0.00     0.074 A 
ATOM     63  C   UNL A   1      43.955  23.793  35.019  1.00  0.00     0.031 C 
ATOM     64  C   UNL A   1      46.391  22.934  35.390  1.00  0.00     0.031 A 
BRANCH  51  65
ATOM     65  C   UNL A   1      52.517  23.325  35.087  1.00  0.00    -0.014 A 
ATOM     66  C   UNL A   1      53.179  22.081  35.084  1.00  0.00     0.009 A 
ATOM     67  C   UNL A   1      53.205  24.389  35.695  1.00  0.00     0.009 A 
ATOM     68  C   UNL A   1      54.417  21.888  35.706  1.00  0.00     0.001 A 
ATOM     69  C   UNL A   1      54.436  24.199  36.341  1.00  0.00     0.001 A 
ATOM     70  C   UNL A   1      55.041  22.947  36.348  1.00  0.00     0.000 A 
ENDBRANCH  51  65
BRANCH  52  71
ATOM     71  C   UNL A   1      43.774  27.163  32.374  1.00  0.00    -0.014 A 
ATOM     72  C   UNL A   1      42.563  27.454  32.988  1.00  0.00     0.009 A 
ATOM     73  C   UNL A   1      44.240  27.947  31.309  1.00  0.00     0.009 A 
ATOM     74  C   UNL A   1      42.365  28.792  33.170  1.00  0.00     0.001 A 
ATOM     75  C   UNL A   1      43.871  29.269  31.324  1.00  0.00     0.001 A 
ATOM     76  C   UNL A   1      43.029  29.684  32.344  1.00  0.00     0.000 A 
ENDBRANCH  52  71
BRANCH  64  77
ATOM     77  C   UNL A   1      46.135  21.526  35.745  1.00  0.00    -0.014 A 
ATOM     78  C   UNL A   1      46.359  21.004  37.023  1.00  0.00     0.009 A 
ATOM     79  C   UNL A   1      45.581  20.683  34.770  1.00  0.00     0.009 A 
ATOM     80  C   UNL A   1      46.166  19.653  37.281  1.00  0.00     0.001 A 
ATOM     81  C   UNL A   1      45.316  19.350  35.046  1.00  0.00     0.001 A 
ATOM     82  C   UNL A   1      45.644  18.828  36.290  1.00  0.00     0.000 A 
ENDBRANCH  64  77
ENDBRANCH  38  39
ENDBRANCH  31  33
ENDBRANCH  30  31
ENDBRANCH  29  30
ENDBRANCH   1  29
TORSDOF 14
ENDMDL
MODEL 3
REMARK VINA RESULT:     -11.1      5.601     11.537
REMARK SMILES COc1ccc(-c2cc(Cl)cc3c2O[C@H](C(F)(F)F)C(C(=O)OCCOC(=O)c2ccc(-c4c5nc(c(-c6ccccc6)c6ccc([nH]6)c(-c6ccccc6)c6nc(c(-c7ccccc7)c7ccc4[nH]7)C=C6)C=C5)cc2)=C3)cc1C
REMARK SMILES IDX 24 1 23 2 21 3 22 4 20 5 7 6 8 7 13 8 9 9 12 10 14 11 10 12
REMARK SMILES IDX 11 13 77 14 15 15 6 16 3 17 4 18 79 19 5 20 78 21 80 22 2 23
REMARK SMILES IDX 1 24 16 25 17 26 18 27 19 28 25 29 26 30 27 31 28 32 29 33
REMARK SMILES IDX 30 34 76 35 31 36 75 37 32 38 33 39 34 40 69 41 35 42 74 43
REMARK SMILES IDX 68 44 70 45 36 46 73 47 67 48 66 49 37 51 59 52 44 53 58 54
REMARK SMILES IDX 45 55 48 56 57 57 71 58 46 59 47 60 56 62 72 63 49 64 38 65
REMARK SMILES IDX 39 66 43 67 40 68 42 69 41 70 60 71 61 72 65 73 62 74 64 75
REMARK SMILES IDX 63 76 50 77 51 78 55 79 52 80 54 81 53 82
REMARK H PARENT 70 50 48 61
REMARK Flexibility Score: inf
ROOT
ATOM      1  C   UNL A   1      52.186  23.968  33.165  1.00  0.00     0.275 C 
ENDROOT
BRANCH   1   2
ATOM      2  O   UNL A   1      52.122  23.035  34.231  1.00  0.00    -0.459 OA
BRANCH   2   3
ATOM      3  C   UNL A   1      51.406  21.951  33.907  1.00  0.00     0.338 C 
ATOM      4  O   UNL A   1      50.809  21.942  32.828  1.00  0.00    -0.246 OA
BRANCH   3   5
ATOM      5  C   UNL A   1      50.842  20.976  35.341  1.00  0.00     0.087 C 
ATOM      6  C   UNL A   1      47.057  20.463  36.286  1.00  0.00     0.026 A 
ATOM      7  C   UNL A   1      46.328  19.862  37.342  1.00  0.00     0.033 A 
ATOM      8  C   UNL A   1      48.613  20.141  36.379  1.00  0.00     0.135 A 
ATOM      9  C   UNL A   1      46.960  19.280  38.443  1.00  0.00     0.042 A 
ATOM     10  C   UNL A   1      49.179  19.705  37.549  1.00  0.00     0.019 A 
ATOM     11  O   UNL A   1      50.142  20.517  35.213  1.00  0.00    -0.475 OA
ATOM     12  Cl  UNL A   1      46.005  18.636  39.727  1.00  0.00    -0.084 Cl
ATOM     13  C   UNL A   1      48.351  19.273  38.565  1.00  0.00     0.032 A 
ATOM     14  C   UNL A   1      49.750  20.904  36.887  1.00  0.00     0.027 C 
ATOM     15  C   UNL A   1      51.536  19.784  34.600  1.00  0.00     0.316 C 
BRANCH   6  16
ATOM     16  C   UNL A   1      46.175  21.620  35.620  1.00  0.00    -0.014 A 
ATOM     17  C   UNL A   1      45.080  23.757  33.981  1.00  0.00     0.121 A 
ATOM     18  C   UNL A   1      44.450  22.517  34.110  1.00  0.00     0.047 A 
ATOM     19  C   UNL A   1      46.124  24.058  34.838  1.00  0.00    -0.008 A 
ATOM     20  C   UNL A   1      44.958  21.489  34.955  1.00  0.00     0.013 A 
ATOM     21  C   UNL A   1      46.622  22.996  35.658  1.00  0.00     0.016 A 
ATOM     22  C   UNL A   1      46.794  25.416  34.808  1.00  0.00     0.048 C 
BRANCH  17  23
ATOM     23  O   UNL A   1      44.559  24.672  33.106  1.00  0.00    -0.496 OA
ATOM     24  C   UNL A   1      44.468  24.178  31.763  1.00  0.00     0.278 C 
ENDBRANCH  17  23
ENDBRANCH   6  16
BRANCH  15  25
ATOM     25  C   UNL A   1      53.133  19.920  34.773  1.00  0.00     0.430 C 
ATOM     26  F   UNL A   1      53.578  20.610  35.848  1.00  0.00    -0.167 F 
ATOM     27  F   UNL A   1      53.638  18.660  34.939  1.00  0.00    -0.167 F 
ATOM     28  F   UNL A   1      53.827  20.431  33.734  1.00  0.00    -0.167 F 
ENDBRANCH  15  25
ENDBRANCH   3   5
ENDBRANCH   2   3
ENDBRANCH   1   2
BRANCH   1  29
ATOM     29  C   UNL A   1      52.468  25.517  33.371  1.00  0.00     0.275 C 
BRANCH  29  30
ATOM     30  O   UNL A   1      52.265  26.777  32.553  1.00  0.00    -0.458 OA
BRANCH  30  31
ATOM     31  C   UNL A   1      51.633  27.594  31.671  1.00  0.00     0.338 C 
ATOM     32  O   UNL A   1      52.178  28.060  30.681  1.00  0.00    -0.246 OA
BRANCH  31  33
ATOM     33  C   UNL A   1      50.230  27.916  31.919  1.00  0.00     0.060 A 
ATOM     34  C   UNL A   1      49.309  29.649  31.564  1.00  0.00     0.016 A 
ATOM     35  C   UNL A   1      49.163  26.341  31.421  1.00  0.00     0.016 A 
ATOM     36  C   UNL A   1      47.596  29.710  30.535  1.00  0.00     0.010 A 
ATOM     37  C   UNL A   1      47.475  26.396  30.465  1.00  0.00     0.010 A 
ATOM     38  C   UNL A   1      46.650  28.086  29.887  1.00  0.00    -0.014 A 
BRANCH  38  39
ATOM     39  C   UNL A   1      45.452  27.672  29.106  1.00  0.00     0.031 A 
ATOM     40  C   UNL A   1      44.077  27.744  29.619  1.00  0.00     0.074 A 
ATOM     41  C   UNL A   1      45.554  27.567  27.741  1.00  0.00     0.049 A 
ATOM     42  N   UNL A   1      43.189  26.816  29.446  1.00  0.00    -0.248 NA
ATOM     43  C   UNL A   1      43.570  28.928  30.300  1.00  0.00     0.031 C 
ATOM     44  C   UNL A   1      44.528  27.841  26.731  1.00  0.00     0.029 A 
ATOM     45  N   UNL A   1      46.660  27.264  26.943  1.00  0.00    -0.354 N 
ATOM     46  C   UNL A   1      41.980  27.416  29.741  1.00  0.00     0.074 A 
ATOM     47  C   UNL A   1      42.294  28.598  30.518  1.00  0.00     0.031 C 
ATOM     48  C   UNL A   1      44.991  27.526  25.504  1.00  0.00     0.029 A 
ATOM     49  C   UNL A   1      46.310  26.932  25.632  1.00  0.00     0.049 A 
ATOM     50  H   UNL A   1      47.588  27.284  27.269  1.00  0.00     0.167 HD
ATOM     51  C   UNL A   1      40.869  27.227  28.972  1.00  0.00     0.031 A 
ATOM     52  C   UNL A   1      46.801  25.839  24.960  1.00  0.00     0.031 A 
ATOM     53  C   UNL A   1      41.189  26.603  27.694  1.00  0.00     0.049 A 
ATOM     54  C   UNL A   1      45.774  24.792  24.893  1.00  0.00     0.074 A 
ATOM     55  C   UNL A   1      41.239  27.129  26.412  1.00  0.00     0.029 A 
ATOM     56  N   UNL A   1      41.787  25.355  27.632  1.00  0.00    -0.354 N 
ATOM     57  N   UNL A   1      44.620  24.971  25.431  1.00  0.00    -0.248 NA
ATOM     58  C   UNL A   1      45.976  23.463  24.342  1.00  0.00     0.031 C 
ATOM     59  C   UNL A   1      41.837  26.170  25.568  1.00  0.00     0.029 A 
ATOM     60  C   UNL A   1      42.143  25.058  26.333  1.00  0.00     0.049 A 
ATOM     61  H   UNL A   1      41.936  24.764  28.405  1.00  0.00     0.167 HD
ATOM     62  C   UNL A   1      43.935  23.818  25.379  1.00  0.00     0.074 A 
ATOM     63  C   UNL A   1      44.799  22.903  24.656  1.00  0.00     0.031 C 
ATOM     64  C   UNL A   1      42.734  23.771  25.995  1.00  0.00     0.031 A 
BRANCH  51  65
ATOM     65  C   UNL A   1      39.553  27.943  29.196  1.00  0.00    -0.014 A 
ATOM     66  C   UNL A   1      38.899  27.846  30.441  1.00  0.00     0.009 A 
ATOM     67  C   UNL A   1      38.955  28.791  28.249  1.00  0.00     0.009 A 
ATOM     68  C   UNL A   1      37.690  28.498  30.706  1.00  0.00     0.001 A 
ATOM     69  C   UNL A   1      37.730  29.429  28.498  1.00  0.00     0.001 A 
ATOM     70  C   UNL A   1      37.096  29.281  29.727  1.00  0.00     0.000 A 
ENDBRANCH  51  65
BRANCH  52  71
ATOM     71  C   UNL A   1      48.237  25.427  25.100  1.00  0.00    -0.014 A 
ATOM     72  C   UNL A   1      48.986  26.068  24.122  1.00  0.00     0.009 A 
ATOM     73  C   UNL A   1      48.699  25.359  26.421  1.00  0.00     0.009 A 
ATOM     74  C   UNL A   1      49.553  27.229  24.561  1.00  0.00     0.001 A 
ATOM     75  C   UNL A   1      49.477  26.407  26.846  1.00  0.00     0.001 A 
ATOM     76  C   UNL A   1      49.782  27.390  25.917  1.00  0.00     0.000 A 
ENDBRANCH  52  71
BRANCH  64  77
ATOM     77  C   UNL A   1      41.990  22.513  26.199  1.00  0.00    -0.014 A 
ATOM     78  C   UNL A   1      40.600  22.415  26.079  1.00  0.00     0.009 A 
ATOM     79  C   UNL A   1      42.719  21.345  26.466  1.00  0.00     0.009 A 
ATOM     80  C   UNL A   1      39.947  21.221  26.351  1.00  0.00     0.001 A 
ATOM     81  C   UNL A   1      42.076  20.132  26.664  1.00  0.00     0.001 A 
ATOM     82  C   UNL A   1      40.687  20.080  26.644  1.00  0.00     0.000 A 
ENDBRANCH  64  77
ENDBRANCH  38  39
ENDBRANCH  31  33
ENDBRANCH  30  31
ENDBRANCH  29  30
ENDBRANCH   1  29
TORSDOF 14
ENDMDL
