MODEL 1
REMARK VINA RESULT:     -11.6      0.000      0.000
REMARK SMILES O=C(OCCOC(=O)[C@H]1C[C@](O)(c2ccc(F)cc2)[C@@H](c2ccc(F)cc2)O1)c1ccc(-c2c3nc(c(-c4ccccc4)c4ccc([nH]4)c(-c4ccccc4)c4nc(c(-c5ccccc5)c5ccc2[nH]5)C=C4)C=C3)cc1
REMARK SMILES IDX 4 1 3 2 2 3 1 4 29 5 30 6 76 7 31 8 75 9 32 10 33 11 34 12
REMARK SMILES IDX 69 13 35 14 74 15 68 16 70 17 36 18 73 19 67 20 66 21 37 23
REMARK SMILES IDX 59 24 44 25 58 26 45 27 48 28 57 29 71 30 46 31 47 32 56 34
REMARK SMILES IDX 72 35 49 36 38 37 39 38 43 39 40 40 42 41 41 42 60 43 61 44
REMARK SMILES IDX 65 45 62 46 64 47 63 48 50 49 51 50 55 51 52 52 54 53 53 54
REMARK SMILES IDX 5 55 6 56 7 57 8 58 9 59 10 60 28 61 11 62 20 63 13 64 14 65
REMARK SMILES IDX 19 66 15 67 18 68 16 69 17 70 12 71 21 73 22 74 27 75 23 76
REMARK SMILES IDX 26 77 24 78 25 79
REMARK H PARENT 70 22 48 33 12 72
REMARK Flexibility Score: inf
ROOT
ATOM      1  C   UNL A   1      38.487  19.966  25.001  1.00  0.00     0.275 C 
ENDROOT
BRANCH   1   2
ATOM      2  O   UNL A   1      39.492  19.253  25.754  1.00  0.00    -0.458 OA
BRANCH   2   3
ATOM      3  C   UNL A   1      40.797  19.570  25.935  1.00  0.00     0.338 C 
ATOM      4  O   UNL A   1      41.677  18.729  25.779  1.00  0.00    -0.246 OA
BRANCH   3   5
ATOM      5  C   UNL A   1      41.177  20.881  26.525  1.00  0.00     0.060 A 
ATOM      6  C   UNL A   1      41.026  21.195  27.875  1.00  0.00     0.016 A 
ATOM      7  C   UNL A   1      41.718  21.848  25.657  1.00  0.00     0.016 A 
ATOM      8  C   UNL A   1      41.533  22.388  28.381  1.00  0.00     0.010 A 
ATOM      9  C   UNL A   1      42.190  23.068  26.153  1.00  0.00     0.010 A 
ATOM     10  C   UNL A   1      42.114  23.329  27.526  1.00  0.00    -0.014 A 
BRANCH  10  11
ATOM     11  C   UNL A   1      42.414  24.659  28.087  1.00  0.00     0.031 A 
ATOM     12  C   UNL A   1      43.859  25.002  28.285  1.00  0.00     0.074 A 
ATOM     13  C   UNL A   1      41.448  25.577  28.267  1.00  0.00     0.049 A 
ATOM     14  N   UNL A   1      44.405  26.159  28.543  1.00  0.00    -0.248 NA
ATOM     15  C   UNL A   1      44.819  23.896  28.125  1.00  0.00     0.031 C 
ATOM     16  C   UNL A   1      40.019  25.365  28.033  1.00  0.00     0.029 A 
ATOM     17  N   UNL A   1      41.532  26.886  28.663  1.00  0.00    -0.354 N 
ATOM     18  C   UNL A   1      45.772  25.928  28.530  1.00  0.00     0.074 A 
ATOM     19  C   UNL A   1      45.975  24.519  28.282  1.00  0.00     0.031 C 
ATOM     20  C   UNL A   1      39.358  26.508  28.297  1.00  0.00     0.029 A 
ATOM     21  C   UNL A   1      40.317  27.527  28.717  1.00  0.00     0.049 A 
ATOM     22  H   UNL A   1      42.382  27.326  28.889  1.00  0.00     0.167 HD
ATOM     23  C   UNL A   1      46.775  26.817  28.698  1.00  0.00     0.031 A 
ATOM     24  C   UNL A   1      40.026  28.797  29.060  1.00  0.00     0.031 A 
ATOM     25  C   UNL A   1      46.567  28.198  29.025  1.00  0.00     0.049 A 
ATOM     26  C   UNL A   1      41.160  29.733  29.391  1.00  0.00     0.074 A 
ATOM     27  C   UNL A   1      47.508  29.176  29.283  1.00  0.00     0.029 A 
ATOM     28  N   UNL A   1      45.319  28.786  29.164  1.00  0.00    -0.354 N 
ATOM     29  N   UNL A   1      42.454  29.517  29.329  1.00  0.00    -0.248 NA
ATOM     30  C   UNL A   1      40.797  31.091  29.820  1.00  0.00     0.031 C 
ATOM     31  C   UNL A   1      46.825  30.346  29.633  1.00  0.00     0.029 A 
ATOM     32  C   UNL A   1      45.462  30.108  29.537  1.00  0.00     0.049 A 
ATOM     33  H   UNL A   1      44.459  28.329  29.019  1.00  0.00     0.167 HD
ATOM     34  C   UNL A   1      43.057  30.719  29.683  1.00  0.00     0.074 A 
ATOM     35  C   UNL A   1      41.987  31.662  29.942  1.00  0.00     0.031 C 
ATOM     36  C   UNL A   1      44.375  31.020  29.781  1.00  0.00     0.031 A 
BRANCH  23  37
ATOM     37  C   UNL A   1      48.170  26.284  28.585  1.00  0.00    -0.014 A 
ATOM     38  C   UNL A   1      48.837  26.264  27.348  1.00  0.00     0.009 A 
ATOM     39  C   UNL A   1      48.808  25.754  29.714  1.00  0.00     0.009 A 
ATOM     40  C   UNL A   1      50.106  25.693  27.242  1.00  0.00     0.001 A 
ATOM     41  C   UNL A   1      50.085  25.202  29.608  1.00  0.00     0.001 A 
ATOM     42  C   UNL A   1      50.729  25.164  28.371  1.00  0.00     0.000 A 
ENDBRANCH  23  37
BRANCH  24  43
ATOM     43  C   UNL A   1      38.614  29.264  29.128  1.00  0.00    -0.014 A 
ATOM     44  C   UNL A   1      37.877  29.176  30.319  1.00  0.00     0.009 A 
ATOM     45  C   UNL A   1      37.977  29.751  27.975  1.00  0.00     0.009 A 
ATOM     46  C   UNL A   1      36.524  29.534  30.345  1.00  0.00     0.001 A 
ATOM     47  C   UNL A   1      36.633  30.132  28.010  1.00  0.00     0.001 A 
ATOM     48  C   UNL A   1      35.905  30.012  29.192  1.00  0.00     0.000 A 
ENDBRANCH  24  43
BRANCH  36  49
ATOM     49  C   UNL A   1      44.731  32.429  30.155  1.00  0.00    -0.014 A 
ATOM     50  C   UNL A   1      44.897  32.805  31.496  1.00  0.00     0.009 A 
ATOM     51  C   UNL A   1      44.969  33.373  29.144  1.00  0.00     0.009 A 
ATOM     52  C   UNL A   1      45.273  34.110  31.818  1.00  0.00     0.001 A 
ATOM     53  C   UNL A   1      45.371  34.669  29.468  1.00  0.00     0.001 A 
ATOM     54  C   UNL A   1      45.514  35.038  30.805  1.00  0.00     0.000 A 
ENDBRANCH  36  49
ENDBRANCH  10  11
ENDBRANCH   3   5
ENDBRANCH   2   3
ENDBRANCH   1   2
BRANCH   1  55
ATOM     55  C   UNL A   1      38.003  21.316  25.567  1.00  0.00     0.274 C 
BRANCH  55  56
ATOM     56  O   UNL A   1      36.576  21.498  25.610  1.00  0.00    -0.460 OA
BRANCH  56  57
ATOM     57  C   UNL A   1      36.142  22.426  24.708  1.00  0.00     0.335 C 
ATOM     58  O   UNL A   1      36.196  22.231  23.501  1.00  0.00    -0.249 OA
BRANCH  57  59
ATOM     59  C   UNL A   1      35.513  23.663  25.379  1.00  0.00     0.232 C 
ATOM     60  C   UNL A   1      34.802  24.632  24.443  1.00  0.00     0.087 C 
ATOM     61  O   UNL A   1      34.545  23.231  26.360  1.00  0.00    -0.355 OA
ATOM     62  C   UNL A   1      33.362  24.700  24.967  1.00  0.00     0.123 C 
ATOM     63  C   UNL A   1      33.236  23.379  25.764  1.00  0.00     0.186 C 
BRANCH  62  64
ATOM     64  C   UNL A   1      33.097  25.962  25.820  1.00  0.00    -0.013 A 
ATOM     65  C   UNL A   1      34.093  26.956  25.916  1.00  0.00     0.010 A 
ATOM     66  C   UNL A   1      31.863  26.226  26.450  1.00  0.00     0.010 A 
ATOM     67  C   UNL A   1      33.840  28.183  26.540  1.00  0.00     0.039 A 
ATOM     68  C   UNL A   1      31.602  27.461  27.057  1.00  0.00     0.039 A 
ATOM     69  C   UNL A   1      32.588  28.432  27.084  1.00  0.00     0.123 A 
ATOM     70  F   UNL A   1      32.326  29.625  27.633  1.00  0.00    -0.207 F 
ENDBRANCH  62  64
BRANCH  62  71
ATOM     71  O   UNL A   1      32.461  24.777  23.859  1.00  0.00    -0.382 OA
ATOM     72  H   UNL A   1      32.232  23.881  23.567  1.00  0.00     0.212 HD
ENDBRANCH  62  71
BRANCH  63  73
ATOM     73  C   UNL A   1      32.866  22.064  25.096  1.00  0.00    -0.016 A 
ATOM     74  C   UNL A   1      32.496  21.938  23.747  1.00  0.00     0.009 A 
ATOM     75  C   UNL A   1      33.041  20.886  25.854  1.00  0.00     0.009 A 
ATOM     76  C   UNL A   1      32.367  20.677  23.162  1.00  0.00     0.039 A 
ATOM     77  C   UNL A   1      32.888  19.629  25.274  1.00  0.00     0.039 A 
ATOM     78  C   UNL A   1      32.570  19.537  23.927  1.00  0.00     0.123 A 
ATOM     79  F   UNL A   1      32.477  18.330  23.351  1.00  0.00    -0.207 F 
ENDBRANCH  63  73
ENDBRANCH  57  59
ENDBRANCH  56  57
ENDBRANCH  55  56
ENDBRANCH   1  55
TORSDOF 14
ENDMDL
MODEL 2
REMARK VINA RESULT:     -11.6      3.952      9.051
REMARK SMILES O=C(OCCOC(=O)[C@H]1C[C@](O)(c2ccc(F)cc2)[C@@H](c2ccc(F)cc2)O1)c1ccc(-c2c3nc(c(-c4ccccc4)c4ccc([nH]4)c(-c4ccccc4)c4nc(c(-c5ccccc5)c5ccc2[nH]5)C=C4)C=C3)cc1
REMARK SMILES IDX 4 1 3 2 2 3 1 4 29 5 30 6 76 7 31 8 75 9 32 10 33 11 34 12
REMARK SMILES IDX 69 13 35 14 74 15 68 16 70 17 36 18 73 19 67 20 66 21 37 23
REMARK SMILES IDX 59 24 44 25 58 26 45 27 48 28 57 29 71 30 46 31 47 32 56 34
REMARK SMILES IDX 72 35 49 36 38 37 39 38 43 39 40 40 42 41 41 42 60 43 61 44
REMARK SMILES IDX 65 45 62 46 64 47 63 48 50 49 51 50 55 51 52 52 54 53 53 54
REMARK SMILES IDX 5 55 6 56 7 57 8 58 9 59 10 60 28 61 11 62 20 63 13 64 14 65
REMARK SMILES IDX 19 66 15 67 18 68 16 69 17 70 12 71 21 73 22 74 27 75 23 76
REMARK SMILES IDX 26 77 24 78 25 79
REMARK H PARENT 70 22 48 33 12 72
REMARK Flexibility Score: inf
ROOT
ATOM      1  C   UNL A   1      31.808  32.060  27.050  1.00  0.00     0.275 C 
ENDROOT
BRANCH   1   2
ATOM      2  O   UNL A   1      32.247  33.428  27.194  1.00  0.00    -0.458 OA
BRANCH   2   3
ATOM      3  C   UNL A   1      32.930  33.995  28.218  1.00  0.00     0.338 C 
ATOM      4  O   UNL A   1      32.555  35.051  28.718  1.00  0.00    -0.246 OA
BRANCH   3   5
ATOM      5  C   UNL A   1      34.258  33.462  28.621  1.00  0.00     0.060 A 
ATOM      6  C   UNL A   1      35.419  33.626  27.867  1.00  0.00     0.016 A 
ATOM      7  C   UNL A   1      34.329  32.753  29.835  1.00  0.00     0.016 A 
ATOM      8  C   UNL A   1      36.651  33.222  28.374  1.00  0.00     0.010 A 
ATOM      9  C   UNL A   1      35.560  32.307  30.330  1.00  0.00     0.010 A 
ATOM     10  C   UNL A   1      36.728  32.562  29.603  1.00  0.00    -0.014 A 
BRANCH  10  11
ATOM     11  C   UNL A   1      38.023  31.958  29.967  1.00  0.00     0.031 A 
ATOM     12  C   UNL A   1      38.805  32.633  31.052  1.00  0.00     0.074 A 
ATOM     13  C   UNL A   1      38.410  30.774  29.459  1.00  0.00     0.049 A 
ATOM     14  N   UNL A   1      39.843  32.199  31.712  1.00  0.00    -0.248 NA
ATOM     15  C   UNL A   1      38.319  33.956  31.479  1.00  0.00     0.031 C 
ATOM     16  C   UNL A   1      37.683  30.001  28.451  1.00  0.00     0.029 A 
ATOM     17  N   UNL A   1      39.505  30.002  29.748  1.00  0.00    -0.354 N 
ATOM     18  C   UNL A   1      40.106  33.175  32.662  1.00  0.00     0.074 A 
ATOM     19  C   UNL A   1      39.149  34.240  32.468  1.00  0.00     0.031 C 
ATOM     20  C   UNL A   1      38.359  28.864  28.202  1.00  0.00     0.029 A 
ATOM     21  C   UNL A   1      39.561  28.831  29.031  1.00  0.00     0.049 A 
ATOM     22  H   UNL A   1      40.188  30.262  30.407  1.00  0.00     0.167 HD
ATOM     23  C   UNL A   1      41.056  33.179  33.622  1.00  0.00     0.031 A 
ATOM     24  C   UNL A   1      40.480  27.846  29.057  1.00  0.00     0.031 A 
ATOM     25  C   UNL A   1      42.053  32.157  33.758  1.00  0.00     0.049 A 
ATOM     26  C   UNL A   1      41.619  27.948  30.039  1.00  0.00     0.074 A 
ATOM     27  C   UNL A   1      43.105  32.088  34.651  1.00  0.00     0.029 A 
ATOM     28  N   UNL A   1      42.132  31.033  32.948  1.00  0.00    -0.354 N 
ATOM     29  N   UNL A   1      41.832  28.853  30.966  1.00  0.00    -0.248 NA
ATOM     30  C   UNL A   1      42.634  26.886  29.992  1.00  0.00     0.031 C 
ATOM     31  C   UNL A   1      43.853  30.946  34.346  1.00  0.00     0.029 A 
ATOM     32  C   UNL A   1      43.234  30.279  33.299  1.00  0.00     0.049 A 
ATOM     33  H   UNL A   1      41.497  30.807  32.231  1.00  0.00     0.167 HD
ATOM     34  C   UNL A   1      42.986  28.453  31.630  1.00  0.00     0.074 A 
ATOM     35  C   UNL A   1      43.417  27.217  31.009  1.00  0.00     0.031 C 
ATOM     36  C   UNL A   1      43.631  29.050  32.663  1.00  0.00     0.031 A 
BRANCH  23  37
ATOM     37  C   UNL A   1      41.073  34.358  34.544  1.00  0.00    -0.014 A 
ATOM     38  C   UNL A   1      40.302  34.366  35.719  1.00  0.00     0.009 A 
ATOM     39  C   UNL A   1      41.830  35.490  34.216  1.00  0.00     0.009 A 
ATOM     40  C   UNL A   1      40.266  35.502  36.529  1.00  0.00     0.001 A 
ATOM     41  C   UNL A   1      41.807  36.617  35.039  1.00  0.00     0.001 A 
ATOM     42  C   UNL A   1      41.019  36.625  36.190  1.00  0.00     0.000 A 
ENDBRANCH  23  37
BRANCH  24  43
ATOM     43  C   UNL A   1      40.385  26.690  28.125  1.00  0.00    -0.014 A 
ATOM     44  C   UNL A   1      41.006  26.719  26.866  1.00  0.00     0.009 A 
ATOM     45  C   UNL A   1      39.618  25.566  28.472  1.00  0.00     0.009 A 
ATOM     46  C   UNL A   1      40.832  25.663  25.964  1.00  0.00     0.001 A 
ATOM     47  C   UNL A   1      39.468  24.501  27.580  1.00  0.00     0.001 A 
ATOM     48  C   UNL A   1      40.065  24.556  26.322  1.00  0.00     0.000 A 
ENDBRANCH  24  43
BRANCH  36  49
ATOM     49  C   UNL A   1      44.849  28.358  33.203  1.00  0.00    -0.014 A 
ATOM     50  C   UNL A   1      46.125  28.632  32.691  1.00  0.00     0.009 A 
ATOM     51  C   UNL A   1      44.718  27.472  34.283  1.00  0.00     0.009 A 
ATOM     52  C   UNL A   1      47.249  28.011  33.239  1.00  0.00     0.001 A 
ATOM     53  C   UNL A   1      45.846  26.874  34.846  1.00  0.00     0.001 A 
ATOM     54  C   UNL A   1      47.109  27.138  34.318  1.00  0.00     0.000 A 
ENDBRANCH  36  49
ENDBRANCH  10  11
ENDBRANCH   3   5
ENDBRANCH   2   3
ENDBRANCH   1   2
BRANCH   1  55
ATOM     55  C   UNL A   1      32.897  30.979  26.906  1.00  0.00     0.274 C 
BRANCH  55  56
ATOM     56  O   UNL A   1      32.710  30.045  25.827  1.00  0.00    -0.460 OA
BRANCH  56  57
ATOM     57  C   UNL A   1      32.386  28.795  26.271  1.00  0.00     0.335 C 
ATOM     58  O   UNL A   1      31.336  28.567  26.856  1.00  0.00    -0.249 OA
BRANCH  57  59
ATOM     59  C   UNL A   1      33.427  27.731  25.871  1.00  0.00     0.232 C 
ATOM     60  C   UNL A   1      33.039  26.287  26.159  1.00  0.00     0.087 C 
ATOM     61  O   UNL A   1      33.687  27.828  24.454  1.00  0.00    -0.355 OA
ATOM     62  C   UNL A   1      33.089  25.586  24.796  1.00  0.00     0.123 C 
ATOM     63  C   UNL A   1      32.941  26.770  23.809  1.00  0.00     0.186 C 
BRANCH  62  64
ATOM     64  C   UNL A   1      34.388  24.772  24.592  1.00  0.00    -0.013 A 
ATOM     65  C   UNL A   1      35.293  24.630  25.663  1.00  0.00     0.010 A 
ATOM     66  C   UNL A   1      34.688  24.077  23.400  1.00  0.00     0.010 A 
ATOM     67  C   UNL A   1      36.396  23.772  25.576  1.00  0.00     0.039 A 
ATOM     68  C   UNL A   1      35.779  23.204  23.319  1.00  0.00     0.039 A 
ATOM     69  C   UNL A   1      36.614  23.050  24.412  1.00  0.00     0.123 A 
ATOM     70  F   UNL A   1      37.637  22.188  24.345  1.00  0.00    -0.207 F 
ENDBRANCH  62  64
BRANCH  62  71
ATOM     71  O   UNL A   1      32.017  24.645  24.710  1.00  0.00    -0.382 OA
ATOM     72  H   UNL A   1      32.215  23.992  24.020  1.00  0.00     0.212 HD
ENDBRANCH  62  71
BRANCH  63  73
ATOM     73  C   UNL A   1      31.583  27.322  23.407  1.00  0.00    -0.016 A 
ATOM     74  C   UNL A   1      30.355  26.755  23.785  1.00  0.00     0.009 A 
ATOM     75  C   UNL A   1      31.567  28.558  22.726  1.00  0.00     0.009 A 
ATOM     76  C   UNL A   1      29.157  27.432  23.545  1.00  0.00     0.039 A 
ATOM     77  C   UNL A   1      30.369  29.220  22.466  1.00  0.00     0.039 A 
ATOM     78  C   UNL A   1      29.176  28.658  22.894  1.00  0.00     0.123 A 
ATOM     79  F   UNL A   1      28.026  29.318  22.697  1.00  0.00    -0.207 F 
ENDBRANCH  63  73
ENDBRANCH  57  59
ENDBRANCH  56  57
ENDBRANCH  55  56
ENDBRANCH   1  55
TORSDOF 14
ENDMDL
MODEL 3
REMARK VINA RESULT:     -11.3      0.690      5.939
REMARK SMILES O=C(OCCOC(=O)[C@H]1C[C@](O)(c2ccc(F)cc2)[C@@H](c2ccc(F)cc2)O1)c1ccc(-c2c3nc(c(-c4ccccc4)c4ccc([nH]4)c(-c4ccccc4)c4nc(c(-c5ccccc5)c5ccc2[nH]5)C=C4)C=C3)cc1
REMARK SMILES IDX 4 1 3 2 2 3 1 4 29 5 30 6 76 7 31 8 75 9 32 10 33 11 34 12
REMARK SMILES IDX 69 13 35 14 74 15 68 16 70 17 36 18 73 19 67 20 66 21 37 23
REMARK SMILES IDX 59 24 44 25 58 26 45 27 48 28 57 29 71 30 46 31 47 32 56 34
REMARK SMILES IDX 72 35 49 36 38 37 39 38 43 39 40 40 42 41 41 42 60 43 61 44
REMARK SMILES IDX 65 45 62 46 64 47 63 48 50 49 51 50 55 51 52 52 54 53 53 54
REMARK SMILES IDX 5 55 6 56 7 57 8 58 9 59 10 60 28 61 11 62 20 63 13 64 14 65
REMARK SMILES IDX 19 66 15 67 18 68 16 69 17 70 12 71 21 73 22 74 27 75 23 76
REMARK SMILES IDX 26 77 24 78 25 79
REMARK H PARENT 70 22 48 33 12 72
REMARK Flexibility Score: inf
ROOT
ATOM      1  C   UNL A   1      38.651  20.168  25.064  1.00  0.00     0.275 C 
ENDROOT
BRANCH   1   2
ATOM      2  O   UNL A   1      39.617  19.450  25.861  1.00  0.00    -0.458 OA
BRANCH   2   3
ATOM      3  C   UNL A   1      40.935  19.713  26.036  1.00  0.00     0.338 C 
ATOM      4  O   UNL A   1      41.769  18.814  25.992  1.00  0.00    -0.246 OA
BRANCH   3   5
ATOM      5  C   UNL A   1      41.379  21.058  26.487  1.00  0.00     0.060 A 
ATOM      6  C   UNL A   1      41.981  21.996  25.650  1.00  0.00     0.016 A 
ATOM      7  C   UNL A   1      41.171  21.387  27.840  1.00  0.00     0.016 A 
ATOM      8  C   UNL A   1      42.241  23.285  26.108  1.00  0.00     0.010 A 
ATOM      9  C   UNL A   1      41.471  22.668  28.317  1.00  0.00     0.010 A 
ATOM     10  C   UNL A   1      41.990  23.626  27.439  1.00  0.00    -0.014 A 
BRANCH  10  11
ATOM     11  C   UNL A   1      42.503  24.925  27.914  1.00  0.00     0.031 A 
ATOM     12  C   UNL A   1      41.502  26.023  28.099  1.00  0.00     0.074 A 
ATOM     13  C   UNL A   1      43.781  25.071  28.307  1.00  0.00     0.049 A 
ATOM     14  N   UNL A   1      41.638  27.170  28.706  1.00  0.00    -0.248 NA
ATOM     15  C   UNL A   1      40.151  25.771  27.567  1.00  0.00     0.031 C 
ATOM     16  C   UNL A   1      44.817  24.039  28.235  1.00  0.00     0.029 A 
ATOM     17  N   UNL A   1      44.416  26.144  28.875  1.00  0.00    -0.354 N 
ATOM     18  C   UNL A   1      40.381  27.755  28.669  1.00  0.00     0.074 A 
ATOM     19  C   UNL A   1      39.505  26.861  27.947  1.00  0.00     0.031 C 
ATOM     20  C   UNL A   1      45.964  24.535  28.736  1.00  0.00     0.029 A 
ATOM     21  C   UNL A   1      45.740  25.915  29.162  1.00  0.00     0.049 A 
ATOM     22  H   UNL A   1      43.966  27.000  29.058  1.00  0.00     0.167 HD
ATOM     23  C   UNL A   1      39.986  28.931  29.202  1.00  0.00     0.031 A 
ATOM     24  C   UNL A   1      46.657  26.733  29.715  1.00  0.00     0.031 A 
ATOM     25  C   UNL A   1      40.877  29.851  29.847  1.00  0.00     0.049 A 
ATOM     26  C   UNL A   1      46.223  28.103  30.168  1.00  0.00     0.074 A 
ATOM     27  C   UNL A   1      40.602  31.102  30.367  1.00  0.00     0.029 A 
ATOM     28  N   UNL A   1      42.233  29.622  30.033  1.00  0.00    -0.354 N 
ATOM     29  N   UNL A   1      45.019  28.629  30.170  1.00  0.00    -0.248 NA
ATOM     30  C   UNL A   1      47.265  28.986  30.708  1.00  0.00     0.031 C 
ATOM     31  C   UNL A   1      41.806  31.652  30.819  1.00  0.00     0.029 A 
ATOM     32  C   UNL A   1      42.816  30.722  30.631  1.00  0.00     0.049 A 
ATOM     33  H   UNL A   1      42.707  28.798  29.777  1.00  0.00     0.167 HD
ATOM     34  C   UNL A   1      45.157  29.890  30.739  1.00  0.00     0.074 A 
ATOM     35  C   UNL A   1      46.557  30.043  31.082  1.00  0.00     0.031 C 
ATOM     36  C   UNL A   1      44.212  30.837  30.963  1.00  0.00     0.031 A 
BRANCH  23  37
ATOM     37  C   UNL A   1      38.540  29.287  29.044  1.00  0.00    -0.014 A 
ATOM     38  C   UNL A   1      38.053  29.810  27.834  1.00  0.00     0.009 A 
ATOM     39  C   UNL A   1      37.663  29.143  30.127  1.00  0.00     0.009 A 
ATOM     40  C   UNL A   1      36.721  30.210  27.725  1.00  0.00     0.001 A 
ATOM     41  C   UNL A   1      36.327  29.526  30.009  1.00  0.00     0.001 A 
ATOM     42  C   UNL A   1      35.859  30.067  28.811  1.00  0.00     0.000 A 
ENDBRANCH  23  37
BRANCH  24  43
ATOM     43  C   UNL A   1      48.074  26.300  29.863  1.00  0.00    -0.014 A 
ATOM     44  C   UNL A   1      48.977  26.395  28.793  1.00  0.00     0.009 A 
ATOM     45  C   UNL A   1      48.516  25.734  31.070  1.00  0.00     0.009 A 
ATOM     46  C   UNL A   1      50.280  25.900  28.918  1.00  0.00     0.001 A 
ATOM     47  C   UNL A   1      49.825  25.265  31.201  1.00  0.00     0.001 A 
ATOM     48  C   UNL A   1      50.703  25.338  30.121  1.00  0.00     0.000 A 
ENDBRANCH  24  43
BRANCH  36  49
ATOM     49  C   UNL A   1      44.657  32.104  31.634  1.00  0.00    -0.014 A 
ATOM     50  C   UNL A   1      44.677  32.216  33.032  1.00  0.00     0.009 A 
ATOM     51  C   UNL A   1      45.123  33.173  30.853  1.00  0.00     0.009 A 
ATOM     52  C   UNL A   1      45.137  33.388  33.635  1.00  0.00     0.001 A 
ATOM     53  C   UNL A   1      45.607  34.332  31.460  1.00  0.00     0.001 A 
ATOM     54  C   UNL A   1      45.606  34.441  32.850  1.00  0.00     0.000 A 
ENDBRANCH  36  49
ENDBRANCH  10  11
ENDBRANCH   3   5
ENDBRANCH   2   3
ENDBRANCH   1   2
BRANCH   1  55
ATOM     55  C   UNL A   1      38.145  21.517  25.611  1.00  0.00     0.274 C 
BRANCH  55  56
ATOM     56  O   UNL A   1      36.716  21.641  25.738  1.00  0.00    -0.460 OA
BRANCH  56  57
ATOM     57  C   UNL A   1      36.183  22.492  24.814  1.00  0.00     0.335 C 
ATOM     58  O   UNL A   1      36.174  22.229  23.619  1.00  0.00    -0.249 OA
BRANCH  57  59
ATOM     59  C   UNL A   1      35.534  23.736  25.453  1.00  0.00     0.232 C 
ATOM     60  C   UNL A   1      34.799  24.664  24.494  1.00  0.00     0.087 C 
ATOM     61  O   UNL A   1      34.580  23.314  26.453  1.00  0.00    -0.355 OA
ATOM     62  C   UNL A   1      33.361  24.719  25.025  1.00  0.00     0.123 C 
ATOM     63  C   UNL A   1      33.265  23.420  25.861  1.00  0.00     0.186 C 
BRANCH  62  64
ATOM     64  C   UNL A   1      33.077  26.000  25.843  1.00  0.00    -0.013 A 
ATOM     65  C   UNL A   1      34.056  27.013  25.908  1.00  0.00     0.010 A 
ATOM     66  C   UNL A   1      31.839  26.262  26.469  1.00  0.00     0.010 A 
ATOM     67  C   UNL A   1      33.783  28.253  26.498  1.00  0.00     0.039 A 
ATOM     68  C   UNL A   1      31.559  27.508  27.042  1.00  0.00     0.039 A 
ATOM     69  C   UNL A   1      32.529  28.496  27.038  1.00  0.00     0.123 A 
ATOM     70  F   UNL A   1      32.248  29.700  27.554  1.00  0.00    -0.207 F 
ENDBRANCH  62  64
BRANCH  62  71
ATOM     71  O   UNL A   1      32.452  24.747  23.922  1.00  0.00    -0.382 OA
ATOM     72  H   UNL A   1      32.844  25.254  23.193  1.00  0.00     0.212 HD
ENDBRANCH  62  71
BRANCH  63  73
ATOM     73  C   UNL A   1      32.917  22.079  25.234  1.00  0.00    -0.016 A 
ATOM     74  C   UNL A   1      32.493  21.914  23.905  1.00  0.00     0.009 A 
ATOM     75  C   UNL A   1      33.169  20.924  26.005  1.00  0.00     0.009 A 
ATOM     76  C   UNL A   1      32.387  20.637  23.349  1.00  0.00     0.039 A 
ATOM     77  C   UNL A   1      33.038  19.651  25.455  1.00  0.00     0.039 A 
ATOM     78  C   UNL A   1      32.666  19.520  24.126  1.00  0.00     0.123 A 
ATOM     79  F   UNL A   1      32.594  18.300  23.576  1.00  0.00    -0.207 F 
ENDBRANCH  63  73
ENDBRANCH  57  59
ENDBRANCH  56  57
ENDBRANCH  55  56
ENDBRANCH   1  55
TORSDOF 14
ENDMDL
