MODEL 1
REMARK VINA RESULT:     -12.1      0.000      0.000
REMARK SMILES O=C(OCCOC(=O)[C@@H]1C[C@@H]1C(=O)N1CCN(c2ncc(C(F)(F)F)cc2Cl)CC1)c1ccc(-c2c3nc(c(-c4ccccc4)c4ccc([nH]4)c(-c4ccccc4)c4nc(c(-c5ccccc5)c5ccc2[nH]5)C=C4)C=C3)cc1
REMARK SMILES IDX 5 1 4 2 3 3 2 4 1 5 31 6 32 7 78 8 33 9 77 10 34 11 35 12
REMARK SMILES IDX 36 13 71 14 37 15 76 16 70 17 72 18 38 19 75 20 69 21 68 22
REMARK SMILES IDX 39 24 61 25 46 26 60 27 47 28 50 29 59 30 73 31 48 32 49 33
REMARK SMILES IDX 58 35 74 36 51 37 40 38 41 39 45 40 42 41 44 42 43 43 62 44
REMARK SMILES IDX 63 45 67 46 64 47 66 48 65 49 52 50 53 51 57 52 54 53 56 54
REMARK SMILES IDX 55 55 6 56 7 57 8 58 9 59 10 60 11 61 12 62 13 63 14 64
REMARK SMILES IDX 15 65 30 66 16 67 29 68 17 69 18 70 19 71 27 72 20 73 26 74
REMARK SMILES IDX 28 75 21 76 22 77 23 78 24 79 25 80
REMARK H PARENT 72 23 50 34
REMARK Flexibility Score: inf
ROOT
ATOM      1  C   UNL A   1      32.282  30.788  26.781  1.00  0.00     0.274 C 
ENDROOT
BRANCH   1   2
ATOM      2  C   UNL A   1      31.423  32.042  26.959  1.00  0.00     0.275 C 
BRANCH   2   3
ATOM      3  O   UNL A   1      32.170  33.266  26.995  1.00  0.00    -0.458 OA
BRANCH   3   4
ATOM      4  C   UNL A   1      32.874  33.817  28.013  1.00  0.00     0.338 C 
ATOM      5  O   UNL A   1      32.411  34.807  28.577  1.00  0.00    -0.246 OA
BRANCH   4   6
ATOM      6  C   UNL A   1      34.235  33.344  28.429  1.00  0.00     0.060 A 
ATOM      7  C   UNL A   1      35.456  33.784  27.915  1.00  0.00     0.016 A 
ATOM      8  C   UNL A   1      34.276  32.373  29.447  1.00  0.00     0.016 A 
ATOM      9  C   UNL A   1      36.671  33.355  28.451  1.00  0.00     0.010 A 
ATOM     10  C   UNL A   1      35.491  31.951  30.004  1.00  0.00     0.010 A 
ATOM     11  C   UNL A   1      36.703  32.453  29.513  1.00  0.00    -0.014 A 
BRANCH  11  12
ATOM     12  C   UNL A   1      38.021  31.949  29.962  1.00  0.00     0.031 A 
ATOM     13  C   UNL A   1      38.649  32.609  31.154  1.00  0.00     0.074 A 
ATOM     14  C   UNL A   1      38.569  30.843  29.416  1.00  0.00     0.049 A 
ATOM     15  N   UNL A   1      39.704  32.249  31.835  1.00  0.00    -0.248 NA
ATOM     16  C   UNL A   1      37.989  33.825  31.659  1.00  0.00     0.031 C 
ATOM     17  C   UNL A   1      38.021  30.088  28.287  1.00  0.00     0.029 A 
ATOM     18  N   UNL A   1      39.693  30.134  29.762  1.00  0.00    -0.354 N 
ATOM     19  C   UNL A   1      39.812  33.179  32.859  1.00  0.00     0.074 A 
ATOM     20  C   UNL A   1      38.778  34.166  32.662  1.00  0.00     0.031 C 
ATOM     21  C   UNL A   1      38.799  29.020  28.042  1.00  0.00     0.029 A 
ATOM     22  C   UNL A   1      39.901  29.008  28.998  1.00  0.00     0.049 A 
ATOM     23  H   UNL A   1      40.297  30.407  30.492  1.00  0.00     0.167 HD
ATOM     24  C   UNL A   1      40.667  33.190  33.906  1.00  0.00     0.031 A 
ATOM     25  C   UNL A   1      40.861  28.066  29.077  1.00  0.00     0.031 A 
ATOM     26  C   UNL A   1      41.709  32.225  34.091  1.00  0.00     0.049 A 
ATOM     27  C   UNL A   1      41.870  28.164  30.194  1.00  0.00     0.074 A 
ATOM     28  C   UNL A   1      42.669  32.171  35.082  1.00  0.00     0.029 A 
ATOM     29  N   UNL A   1      41.927  31.144  33.251  1.00  0.00    -0.354 N 
ATOM     30  N   UNL A   1      41.937  29.035  31.173  1.00  0.00    -0.248 NA
ATOM     31  C   UNL A   1      42.919  27.135  30.231  1.00  0.00     0.031 C 
ATOM     32  C   UNL A   1      43.501  31.079  34.814  1.00  0.00     0.029 A 
ATOM     33  C   UNL A   1      43.019  30.420  33.692  1.00  0.00     0.049 A 
ATOM     34  H   UNL A   1      41.386  30.924  32.458  1.00  0.00     0.167 HD
ATOM     35  C   UNL A   1      43.014  28.641  31.958  1.00  0.00     0.074 A 
ATOM     36  C   UNL A   1      43.551  27.438  31.356  1.00  0.00     0.031 C 
ATOM     37  C   UNL A   1      43.522  29.222  33.073  1.00  0.00     0.031 A 
BRANCH  24  38
ATOM     38  C   UNL A   1      40.493  34.304  34.896  1.00  0.00    -0.014 A 
ATOM     39  C   UNL A   1      41.158  35.530  34.725  1.00  0.00     0.009 A 
ATOM     40  C   UNL A   1      39.712  34.105  36.042  1.00  0.00     0.009 A 
ATOM     41  C   UNL A   1      41.083  36.518  35.708  1.00  0.00     0.001 A 
ATOM     42  C   UNL A   1      39.613  35.107  37.009  1.00  0.00     0.001 A 
ATOM     43  C   UNL A   1      40.309  36.306  36.848  1.00  0.00     0.000 A 
ENDBRANCH  24  38
BRANCH  25  44
ATOM     44  C   UNL A   1      40.937  26.951  28.088  1.00  0.00    -0.014 A 
ATOM     45  C   UNL A   1      41.563  27.121  26.841  1.00  0.00     0.009 A 
ATOM     46  C   UNL A   1      40.305  25.726  28.356  1.00  0.00     0.009 A 
ATOM     47  C   UNL A   1      41.507  26.113  25.872  1.00  0.00     0.001 A 
ATOM     48  C   UNL A   1      40.279  24.708  27.399  1.00  0.00     0.001 A 
ATOM     49  C   UNL A   1      40.865  24.909  26.152  1.00  0.00     0.000 A 
ENDBRANCH  25  44
BRANCH  37  50
ATOM     50  C   UNL A   1      44.688  28.541  33.731  1.00  0.00    -0.014 A 
ATOM     51  C   UNL A   1      46.010  28.860  33.386  1.00  0.00     0.009 A 
ATOM     52  C   UNL A   1      44.455  27.606  34.753  1.00  0.00     0.009 A 
ATOM     53  C   UNL A   1      47.077  28.226  34.026  1.00  0.00     0.001 A 
ATOM     54  C   UNL A   1      45.523  27.003  35.416  1.00  0.00     0.001 A 
ATOM     55  C   UNL A   1      46.832  27.306  35.045  1.00  0.00     0.000 A 
ENDBRANCH  37  50
ENDBRANCH  11  12
ENDBRANCH   4   6
ENDBRANCH   3   4
ENDBRANCH   2   3
ENDBRANCH   1   2
BRANCH   1  56
ATOM     56  O   UNL A   1      31.674  29.735  26.011  1.00  0.00    -0.462 OA
BRANCH  56  57
ATOM     57  C   UNL A   1      32.539  28.866  25.415  1.00  0.00     0.309 C 
ATOM     58  O   UNL A   1      33.750  28.829  25.586  1.00  0.00    -0.252 OA
BRANCH  57  59
ATOM     59  C   UNL A   1      31.896  28.095  24.325  1.00  0.00     0.112 C 
ATOM     60  C   UNL A   1      30.477  27.614  24.372  1.00  0.00     0.030 C 
ATOM     61  C   UNL A   1      31.592  26.615  24.478  1.00  0.00     0.094 C 
BRANCH  61  62
ATOM     62  C   UNL A   1      31.760  25.861  25.757  1.00  0.00     0.226 C 
ATOM     63  O   UNL A   1      31.091  26.168  26.735  1.00  0.00    -0.275 OA
ATOM     64  N   UNL A   1      32.596  24.764  25.727  1.00  0.00    -0.339 N 
ATOM     65  C   UNL A   1      32.492  23.744  26.784  1.00  0.00     0.141 C 
ATOM     66  C   UNL A   1      33.373  24.338  24.562  1.00  0.00     0.141 C 
ATOM     67  C   UNL A   1      31.855  22.450  26.212  1.00  0.00     0.139 C 
ATOM     68  C   UNL A   1      32.719  23.083  23.953  1.00  0.00     0.139 C 
ATOM     69  N   UNL A   1      32.582  22.067  24.996  1.00  0.00    -0.352 N 
BRANCH  69  70
ATOM     70  C   UNL A   1      33.021  20.780  24.819  1.00  0.00     0.147 A 
ATOM     71  N   UNL A   1      32.071  19.833  24.621  1.00  0.00    -0.237 NA
ATOM     72  C   UNL A   1      34.383  20.427  24.847  1.00  0.00     0.084 A 
ATOM     73  C   UNL A   1      32.464  18.554  24.398  1.00  0.00     0.126 A 
ATOM     74  C   UNL A   1      34.757  19.103  24.633  1.00  0.00     0.039 A 
ATOM     75  Cl  UNL A   1      35.654  21.537  25.224  1.00  0.00    -0.080 Cl
ATOM     76  C   UNL A   1      33.784  18.138  24.389  1.00  0.00     0.075 A 
BRANCH  76  77
ATOM     77  C   UNL A   1      34.132  16.708  24.128  1.00  0.00     0.417 C 
ATOM     78  F   UNL A   1      33.104  15.859  24.397  1.00  0.00    -0.166 F 
ATOM     79  F   UNL A   1      34.476  16.487  22.830  1.00  0.00    -0.166 F 
ATOM     80  F   UNL A   1      35.185  16.267  24.871  1.00  0.00    -0.166 F 
ENDBRANCH  76  77
ENDBRANCH  69  70
ENDBRANCH  61  62
ENDBRANCH  57  59
ENDBRANCH  56  57
ENDBRANCH   1  56
TORSDOF 14
ENDMDL
MODEL 2
REMARK VINA RESULT:     -11.9      5.527      9.987
REMARK SMILES O=C(OCCOC(=O)[C@@H]1C[C@@H]1C(=O)N1CCN(c2ncc(C(F)(F)F)cc2Cl)CC1)c1ccc(-c2c3nc(c(-c4ccccc4)c4ccc([nH]4)c(-c4ccccc4)c4nc(c(-c5ccccc5)c5ccc2[nH]5)C=C4)C=C3)cc1
REMARK SMILES IDX 5 1 4 2 3 3 2 4 1 5 31 6 32 7 78 8 33 9 77 10 34 11 35 12
REMARK SMILES IDX 36 13 71 14 37 15 76 16 70 17 72 18 38 19 75 20 69 21 68 22
REMARK SMILES IDX 39 24 61 25 46 26 60 27 47 28 50 29 59 30 73 31 48 32 49 33
REMARK SMILES IDX 58 35 74 36 51 37 40 38 41 39 45 40 42 41 44 42 43 43 62 44
REMARK SMILES IDX 63 45 67 46 64 47 66 48 65 49 52 50 53 51 57 52 54 53 56 54
REMARK SMILES IDX 55 55 6 56 7 57 8 58 9 59 10 60 11 61 12 62 13 63 14 64
REMARK SMILES IDX 15 65 30 66 16 67 29 68 17 69 18 70 19 71 27 72 20 73 26 74
REMARK SMILES IDX 28 75 21 76 22 77 23 78 24 79 25 80
REMARK H PARENT 72 23 50 34
REMARK Flexibility Score: inf
ROOT
ATOM      1  C   UNL A   1      37.898  21.062  24.981  1.00  0.00     0.274 C 
ENDROOT
BRANCH   1   2
ATOM      2  C   UNL A   1      38.411  19.640  24.739  1.00  0.00     0.275 C 
BRANCH   2   3
ATOM      3  O   UNL A   1      39.363  19.187  25.712  1.00  0.00    -0.458 OA
BRANCH   3   4
ATOM      4  C   UNL A   1      40.649  19.567  25.903  1.00  0.00     0.338 C 
ATOM      5  O   UNL A   1      41.544  18.773  25.617  1.00  0.00    -0.246 OA
BRANCH   4   6
ATOM      6  C   UNL A   1      41.043  20.869  26.536  1.00  0.00     0.060 A 
ATOM      7  C   UNL A   1      41.119  21.133  27.904  1.00  0.00     0.016 A 
ATOM      8  C   UNL A   1      41.378  21.915  25.656  1.00  0.00     0.016 A 
ATOM      9  C   UNL A   1      41.602  22.351  28.386  1.00  0.00     0.010 A 
ATOM     10  C   UNL A   1      41.882  23.134  26.131  1.00  0.00     0.010 A 
ATOM     11  C   UNL A   1      42.009  23.355  27.508  1.00  0.00    -0.014 A 
BRANCH  11  12
ATOM     12  C   UNL A   1      42.404  24.663  28.079  1.00  0.00     0.031 A 
ATOM     13  C   UNL A   1      43.867  24.987  28.129  1.00  0.00     0.074 A 
ATOM     14  C   UNL A   1      41.478  25.591  28.403  1.00  0.00     0.049 A 
ATOM     15  N   UNL A   1      44.452  26.118  28.424  1.00  0.00    -0.248 NA
ATOM     16  C   UNL A   1      44.797  23.899  27.781  1.00  0.00     0.031 C 
ATOM     17  C   UNL A   1      40.027  25.405  28.345  1.00  0.00     0.029 A 
ATOM     18  N   UNL A   1      41.620  26.895  28.811  1.00  0.00    -0.354 N 
ATOM     19  C   UNL A   1      45.809  25.878  28.269  1.00  0.00     0.074 A 
ATOM     20  C   UNL A   1      45.971  24.481  27.945  1.00  0.00     0.031 C 
ATOM     21  C   UNL A   1      39.415  26.551  28.690  1.00  0.00     0.029 A 
ATOM     22  C   UNL A   1      40.426  27.557  28.991  1.00  0.00     0.049 A 
ATOM     23  H   UNL A   1      42.497  27.318  28.960  1.00  0.00     0.167 HD
ATOM     24  C   UNL A   1      46.837  26.753  28.341  1.00  0.00     0.031 A 
ATOM     25  C   UNL A   1      40.182  28.835  29.340  1.00  0.00     0.031 A 
ATOM     26  C   UNL A   1      46.682  28.134  28.686  1.00  0.00     0.049 A 
ATOM     27  C   UNL A   1      41.357  29.764  29.521  1.00  0.00     0.074 A 
ATOM     28  C   UNL A   1      47.658  29.099  28.845  1.00  0.00     0.029 A 
ATOM     29  N   UNL A   1      45.461  28.743  28.932  1.00  0.00    -0.354 N 
ATOM     30  N   UNL A   1      42.635  29.527  29.340  1.00  0.00    -0.248 NA
ATOM     31  C   UNL A   1      41.054  31.143  29.930  1.00  0.00     0.031 C 
ATOM     32  C   UNL A   1      47.028  30.285  29.237  1.00  0.00     0.029 A 
ATOM     33  C   UNL A   1      45.657  30.072  29.258  1.00  0.00     0.049 A 
ATOM     34  H   UNL A   1      44.585  28.296  28.882  1.00  0.00     0.167 HD
ATOM     35  C   UNL A   1      43.283  30.732  29.582  1.00  0.00     0.074 A 
ATOM     36  C   UNL A   1      42.255  31.703  29.894  1.00  0.00     0.031 C 
ATOM     37  C   UNL A   1      44.609  31.014  29.555  1.00  0.00     0.031 A 
BRANCH  24  38
ATOM     38  C   UNL A   1      48.203  26.201  28.057  1.00  0.00    -0.014 A 
ATOM     39  C   UNL A   1      48.932  25.533  29.057  1.00  0.00     0.009 A 
ATOM     40  C   UNL A   1      48.793  26.405  26.804  1.00  0.00     0.009 A 
ATOM     41  C   UNL A   1      50.246  25.125  28.820  1.00  0.00     0.001 A 
ATOM     42  C   UNL A   1      50.096  25.967  26.559  1.00  0.00     0.001 A 
ATOM     43  C   UNL A   1      50.825  25.341  27.570  1.00  0.00     0.000 A 
ENDBRANCH  24  38
BRANCH  25  44
ATOM     44  C   UNL A   1      38.790  29.330  29.549  1.00  0.00    -0.014 A 
ATOM     45  C   UNL A   1      38.091  29.997  28.528  1.00  0.00     0.009 A 
ATOM     46  C   UNL A   1      38.180  29.209  30.807  1.00  0.00     0.009 A 
ATOM     47  C   UNL A   1      36.842  30.576  28.780  1.00  0.00     0.001 A 
ATOM     48  C   UNL A   1      36.918  29.759  31.047  1.00  0.00     0.001 A 
ATOM     49  C   UNL A   1      36.257  30.456  30.039  1.00  0.00     0.000 A 
ENDBRANCH  25  44
BRANCH  37  50
ATOM     50  C   UNL A   1      45.014  32.434  29.833  1.00  0.00    -0.014 A 
ATOM     51  C   UNL A   1      45.090  33.385  28.805  1.00  0.00     0.009 A 
ATOM     52  C   UNL A   1      45.268  32.833  31.154  1.00  0.00     0.009 A 
ATOM     53  C   UNL A   1      45.451  34.703  29.091  1.00  0.00     0.001 A 
ATOM     54  C   UNL A   1      45.591  34.159  31.442  1.00  0.00     0.001 A 
ATOM     55  C   UNL A   1      45.693  35.089  30.409  1.00  0.00     0.000 A 
ENDBRANCH  37  50
ENDBRANCH  11  12
ENDBRANCH   4   6
ENDBRANCH   3   4
ENDBRANCH   2   3
ENDBRANCH   1   2
BRANCH   1  56
ATOM     56  O   UNL A   1      36.596  21.341  24.434  1.00  0.00    -0.462 OA
BRANCH  56  57
ATOM     57  C   UNL A   1      36.430  22.592  23.918  1.00  0.00     0.309 C 
ATOM     58  O   UNL A   1      36.606  22.915  22.752  1.00  0.00    -0.252 OA
BRANCH  57  59
ATOM     59  C   UNL A   1      36.240  23.613  24.975  1.00  0.00     0.112 C 
ATOM     60  C   UNL A   1      35.388  23.405  26.191  1.00  0.00     0.030 C 
ATOM     61  C   UNL A   1      34.926  24.357  25.127  1.00  0.00     0.094 C 
BRANCH  61  62
ATOM     62  C   UNL A   1      33.690  24.025  24.355  1.00  0.00     0.226 C 
ATOM     63  O   UNL A   1      33.160  22.931  24.498  1.00  0.00    -0.275 OA
ATOM     64  N   UNL A   1      33.142  25.037  23.593  1.00  0.00    -0.339 N 
ATOM     65  C   UNL A   1      31.739  24.937  23.156  1.00  0.00     0.141 C 
ATOM     66  C   UNL A   1      33.721  26.372  23.439  1.00  0.00     0.141 C 
ATOM     67  C   UNL A   1      30.865  25.948  23.943  1.00  0.00     0.139 C 
ATOM     68  C   UNL A   1      32.892  27.378  24.258  1.00  0.00     0.139 C 
ATOM     69  N   UNL A   1      31.488  27.274  23.857  1.00  0.00    -0.352 N 
BRANCH  69  70
ATOM     70  C   UNL A   1      30.748  28.375  23.508  1.00  0.00     0.147 A 
ATOM     71  N   UNL A   1      30.089  28.317  22.325  1.00  0.00    -0.237 NA
ATOM     72  C   UNL A   1      30.666  29.525  24.313  1.00  0.00     0.084 A 
ATOM     73  C   UNL A   1      29.310  29.366  21.962  1.00  0.00     0.126 A 
ATOM     74  C   UNL A   1      29.872  30.596  23.908  1.00  0.00     0.039 A 
ATOM     75  Cl  UNL A   1      31.573  29.745  25.768  1.00  0.00    -0.080 Cl
ATOM     76  C   UNL A   1      29.163  30.520  22.712  1.00  0.00     0.075 A 
BRANCH  76  77
ATOM     77  C   UNL A   1      28.278  31.628  22.244  1.00  0.00     0.417 C 
ATOM     78  F   UNL A   1      27.291  31.923  23.132  1.00  0.00    -0.166 F 
ATOM     79  F   UNL A   1      28.961  32.787  22.040  1.00  0.00    -0.166 F 
ATOM     80  F   UNL A   1      27.650  31.355  21.066  1.00  0.00    -0.166 F 
ENDBRANCH  76  77
ENDBRANCH  69  70
ENDBRANCH  61  62
ENDBRANCH  57  59
ENDBRANCH  56  57
ENDBRANCH   1  56
TORSDOF 14
ENDMDL
MODEL 3
REMARK VINA RESULT:     -11.7      4.541      8.435
REMARK SMILES O=C(OCCOC(=O)[C@@H]1C[C@@H]1C(=O)N1CCN(c2ncc(C(F)(F)F)cc2Cl)CC1)c1ccc(-c2c3nc(c(-c4ccccc4)c4ccc([nH]4)c(-c4ccccc4)c4nc(c(-c5ccccc5)c5ccc2[nH]5)C=C4)C=C3)cc1
REMARK SMILES IDX 5 1 4 2 3 3 2 4 1 5 31 6 32 7 78 8 33 9 77 10 34 11 35 12
REMARK SMILES IDX 36 13 71 14 37 15 76 16 70 17 72 18 38 19 75 20 69 21 68 22
REMARK SMILES IDX 39 24 61 25 46 26 60 27 47 28 50 29 59 30 73 31 48 32 49 33
REMARK SMILES IDX 58 35 74 36 51 37 40 38 41 39 45 40 42 41 44 42 43 43 62 44
REMARK SMILES IDX 63 45 67 46 64 47 66 48 65 49 52 50 53 51 57 52 54 53 56 54
REMARK SMILES IDX 55 55 6 56 7 57 8 58 9 59 10 60 11 61 12 62 13 63 14 64
REMARK SMILES IDX 15 65 30 66 16 67 29 68 17 69 18 70 19 71 27 72 20 73 26 74
REMARK SMILES IDX 28 75 21 76 22 77 23 78 24 79 25 80
REMARK H PARENT 72 23 50 34
REMARK Flexibility Score: inf
ROOT
ATOM      1  C   UNL A   1      36.433  20.968  25.335  1.00  0.00     0.274 C 
ENDROOT
BRANCH   1   2
ATOM      2  C   UNL A   1      37.313  22.016  24.650  1.00  0.00     0.275 C 
BRANCH   2   3
ATOM      3  O   UNL A   1      37.736  23.081  25.513  1.00  0.00    -0.458 OA
BRANCH   3   4
ATOM      4  C   UNL A   1      38.864  23.193  26.255  1.00  0.00     0.338 C 
ATOM      5  O   UNL A   1      39.554  22.190  26.429  1.00  0.00    -0.246 OA
BRANCH   4   6
ATOM      6  C   UNL A   1      39.271  24.454  26.958  1.00  0.00     0.060 A 
ATOM      7  C   UNL A   1      38.908  24.833  28.252  1.00  0.00     0.016 A 
ATOM      8  C   UNL A   1      40.109  25.328  26.241  1.00  0.00     0.016 A 
ATOM      9  C   UNL A   1      39.432  25.980  28.851  1.00  0.00     0.010 A 
ATOM     10  C   UNL A   1      40.654  26.472  26.841  1.00  0.00     0.010 A 
ATOM     11  C   UNL A   1      40.325  26.799  28.162  1.00  0.00    -0.014 A 
BRANCH  11  12
ATOM     12  C   UNL A   1      40.756  28.060  28.808  1.00  0.00     0.031 A 
ATOM     13  C   UNL A   1      39.760  29.179  28.884  1.00  0.00     0.074 A 
ATOM     14  C   UNL A   1      41.946  28.150  29.439  1.00  0.00     0.049 A 
ATOM     15  N   UNL A   1      39.836  30.308  29.538  1.00  0.00    -0.248 NA
ATOM     16  C   UNL A   1      38.502  28.995  28.141  1.00  0.00     0.031 C 
ATOM     17  C   UNL A   1      42.973  27.106  29.476  1.00  0.00     0.029 A 
ATOM     18  N   UNL A   1      42.481  29.155  30.206  1.00  0.00    -0.354 N 
ATOM     19  C   UNL A   1      38.628  30.948  29.303  1.00  0.00     0.074 A 
ATOM     20  C   UNL A   1      37.875  30.132  28.382  1.00  0.00     0.031 C 
ATOM     21  C   UNL A   1      44.004  27.519  30.233  1.00  0.00     0.029 A 
ATOM     22  C   UNL A   1      43.714  28.855  30.741  1.00  0.00     0.049 A 
ATOM     23  H   UNL A   1      42.024  30.015  30.360  1.00  0.00     0.167 HD
ATOM     24  C   UNL A   1      38.158  32.093  29.845  1.00  0.00     0.031 A 
ATOM     25  C   UNL A   1      44.506  29.570  31.563  1.00  0.00     0.031 A 
ATOM     26  C   UNL A   1      38.912  32.916  30.742  1.00  0.00     0.049 A 
ATOM     27  C   UNL A   1      44.000  30.899  32.067  1.00  0.00     0.074 A 
ATOM     28  C   UNL A   1      38.559  34.126  31.308  1.00  0.00     0.029 A 
ATOM     29  N   UNL A   1      40.184  32.608  31.199  1.00  0.00    -0.354 N 
ATOM     30  N   UNL A   1      42.839  31.475  31.858  1.00  0.00    -0.248 NA
ATOM     31  C   UNL A   1      44.902  31.665  32.938  1.00  0.00     0.031 C 
ATOM     32  C   UNL A   1      39.641  34.575  32.070  1.00  0.00     0.029 A 
ATOM     33  C   UNL A   1      40.641  33.614  32.030  1.00  0.00     0.049 A 
ATOM     34  H   UNL A   1      40.688  31.795  30.965  1.00  0.00     0.167 HD
ATOM     35  C   UNL A   1      42.861  32.651  32.596  1.00  0.00     0.074 A 
ATOM     36  C   UNL A   1      44.137  32.693  33.278  1.00  0.00     0.031 C 
ATOM     37  C   UNL A   1      41.915  33.618  32.699  1.00  0.00     0.031 A 
BRANCH  24  38
ATOM     38  C   UNL A   1      36.771  32.500  29.442  1.00  0.00    -0.014 A 
ATOM     39  C   UNL A   1      36.554  33.273  28.288  1.00  0.00     0.009 A 
ATOM     40  C   UNL A   1      35.679  32.166  30.254  1.00  0.00     0.009 A 
ATOM     41  C   UNL A   1      35.276  33.745  27.983  1.00  0.00     0.001 A 
ATOM     42  C   UNL A   1      34.397  32.612  29.929  1.00  0.00     0.001 A 
ATOM     43  C   UNL A   1      34.199  33.412  28.804  1.00  0.00     0.000 A 
ENDBRANCH  24  38
BRANCH  25  44
ATOM     44  C   UNL A   1      45.853  29.073  31.970  1.00  0.00    -0.014 A 
ATOM     45  C   UNL A   1      46.989  29.310  31.177  1.00  0.00     0.009 A 
ATOM     46  C   UNL A   1      45.995  28.282  33.122  1.00  0.00     0.009 A 
ATOM     47  C   UNL A   1      48.218  28.723  31.499  1.00  0.00     0.001 A 
ATOM     48  C   UNL A   1      47.230  27.725  33.460  1.00  0.00     0.001 A 
ATOM     49  C   UNL A   1      48.337  27.931  32.639  1.00  0.00     0.000 A 
ENDBRANCH  25  44
BRANCH  37  50
ATOM     50  C   UNL A   1      42.213  34.775  33.610  1.00  0.00    -0.014 A 
ATOM     51  C   UNL A   1      42.852  35.931  33.137  1.00  0.00     0.009 A 
ATOM     52  C   UNL A   1      41.794  34.725  34.949  1.00  0.00     0.009 A 
ATOM     53  C   UNL A   1      43.101  37.000  34.000  1.00  0.00     0.001 A 
ATOM     54  C   UNL A   1      42.010  35.810  35.798  1.00  0.00     0.001 A 
ATOM     55  C   UNL A   1      42.673  36.942  35.325  1.00  0.00     0.000 A 
ENDBRANCH  37  50
ENDBRANCH  11  12
ENDBRANCH   4   6
ENDBRANCH   3   4
ENDBRANCH   2   3
ENDBRANCH   1   2
BRANCH   1  56
ATOM     56  O   UNL A   1      35.103  20.843  24.798  1.00  0.00    -0.462 OA
BRANCH  56  57
ATOM     57  C   UNL A   1      34.147  21.600  25.408  1.00  0.00     0.309 C 
ATOM     58  O   UNL A   1      34.262  22.167  26.485  1.00  0.00    -0.252 OA
BRANCH  57  59
ATOM     59  C   UNL A   1      32.829  21.479  24.742  1.00  0.00     0.112 C 
ATOM     60  C   UNL A   1      32.655  21.115  23.299  1.00  0.00     0.030 C 
ATOM     61  C   UNL A   1      32.351  22.516  23.742  1.00  0.00     0.094 C 
BRANCH  61  62
ATOM     62  C   UNL A   1      33.204  23.631  23.232  1.00  0.00     0.226 C 
ATOM     63  O   UNL A   1      34.083  23.397  22.413  1.00  0.00    -0.275 OA
ATOM     64  N   UNL A   1      32.869  24.907  23.638  1.00  0.00    -0.339 N 
ATOM     65  C   UNL A   1      33.365  26.065  22.874  1.00  0.00     0.141 C 
ATOM     66  C   UNL A   1      31.793  25.228  24.576  1.00  0.00     0.141 C 
ATOM     67  C   UNL A   1      32.200  26.718  22.084  1.00  0.00     0.139 C 
ATOM     68  C   UNL A   1      30.609  25.830  23.797  1.00  0.00     0.139 C 
ATOM     69  N   UNL A   1      31.088  26.966  23.010  1.00  0.00    -0.352 N 
BRANCH  69  70
ATOM     70  C   UNL A   1      30.471  28.190  23.050  1.00  0.00     0.147 A 
ATOM     71  N   UNL A   1      29.669  28.504  22.003  1.00  0.00    -0.237 NA
ATOM     72  C   UNL A   1      30.649  29.101  24.107  1.00  0.00     0.084 A 
ATOM     73  C   UNL A   1      29.005  29.686  22.023  1.00  0.00     0.126 A 
ATOM     74  C   UNL A   1      29.969  30.316  24.094  1.00  0.00     0.039 A 
ATOM     75  Cl  UNL A   1      31.751  28.847  25.415  1.00  0.00    -0.080 Cl
ATOM     76  C   UNL A   1      29.115  30.621  23.038  1.00  0.00     0.075 A 
BRANCH  76  77
ATOM     77  C   UNL A   1      28.341  31.898  22.987  1.00  0.00     0.417 C 
ATOM     78  F   UNL A   1      27.807  32.141  21.760  1.00  0.00    -0.166 F 
ATOM     79  F   UNL A   1      27.299  31.909  23.862  1.00  0.00    -0.166 F 
ATOM     80  F   UNL A   1      29.092  32.994  23.290  1.00  0.00    -0.166 F 
ENDBRANCH  76  77
ENDBRANCH  69  70
ENDBRANCH  61  62
ENDBRANCH  57  59
ENDBRANCH  56  57
ENDBRANCH   1  56
TORSDOF 14
ENDMDL
