MODEL 1
REMARK VINA RESULT:      -9.4      0.000      0.000
REMARK SMILES O=C(CCCc1nc(-c2ccc(Cl)c(Cl)c2)c(-c2ccccc2)o1)OCCOC(=O)c1ccc(-c2c3nc(c(-c4ccccc4)c4ccc([nH]4)c(-c4ccccc4)c4nc(c(-c5ccccc5)c5ccc2[nH]5)C=C4)C=C3)cc1
REMARK SMILES IDX 26 1 25 2 2 3 1 4 3 5 4 6 5 7 6 8 7 9 24 10 8 11 17 12 9 13
REMARK SMILES IDX 10 14 16 15 11 16 14 17 12 18 15 19 13 20 18 21 19 22 23 23
REMARK SMILES IDX 20 24 22 25 21 26 27 27 28 28 29 29 30 30 31 31 32 32 78 33
REMARK SMILES IDX 33 34 77 35 34 36 35 37 36 38 71 39 37 40 76 41 70 42 72 43
REMARK SMILES IDX 38 44 75 45 69 46 68 47 39 49 61 50 46 51 60 52 47 53 50 54
REMARK SMILES IDX 59 55 73 56 48 57 49 58 58 60 74 61 51 62 40 63 41 64 45 65
REMARK SMILES IDX 42 66 44 67 43 68 62 69 63 70 67 71 64 72 66 73 65 74 52 75
REMARK SMILES IDX 53 76 57 77 54 78 56 79 55 80
REMARK H PARENT 72 48 50 59
REMARK Flexibility Score: inf
ROOT
ATOM      1  C   UNL A   1      34.030  34.435  30.330  1.00  0.00     0.274 C 
ENDROOT
BRANCH   1   2
ATOM      2  O   UNL A   1      32.786  35.096  30.628  1.00  0.00    -0.462 OA
BRANCH   2   3
ATOM      3  C   UNL A   1      32.560  35.963  31.637  1.00  0.00     0.305 C 
ATOM      4  O   UNL A   1      31.451  35.984  32.173  1.00  0.00    -0.252 OA
BRANCH   3   5
ATOM      5  C   UNL A   1      33.627  36.943  32.080  1.00  0.00     0.123 C 
BRANCH   5   6
ATOM      6  C   UNL A   1      34.265  36.703  33.442  1.00  0.00     0.021 C 
BRANCH   6   7
ATOM      7  C   UNL A   1      34.310  35.246  33.915  1.00  0.00     0.098 C 
BRANCH   7   8
ATOM      8  C   UNL A   1      35.637  34.564  33.772  1.00  0.00     0.195 A 
ATOM      9  N   UNL A   1      36.072  33.465  34.358  1.00  0.00    -0.213 NA
ATOM     10  O   UNL A   1      36.496  35.067  32.822  1.00  0.00    -0.440 OA
ATOM     11  C   UNL A   1      37.287  33.232  33.754  1.00  0.00     0.117 A 
ATOM     12  C   UNL A   1      37.556  34.203  32.815  1.00  0.00     0.162 A 
BRANCH  11  13
ATOM     13  C   UNL A   1      38.095  32.054  33.946  1.00  0.00     0.006 A 
ATOM     14  C   UNL A   1      37.954  30.984  33.058  1.00  0.00     0.012 A 
ATOM     15  C   UNL A   1      39.096  32.023  34.924  1.00  0.00     0.032 A 
ATOM     16  C   UNL A   1      38.834  29.904  33.122  1.00  0.00     0.023 A 
ATOM     17  C   UNL A   1      39.972  30.937  34.994  1.00  0.00     0.060 A 
ATOM     18  C   UNL A   1      39.848  29.881  34.085  1.00  0.00     0.059 A 
ATOM     19  Cl  UNL A   1      41.203  30.980  36.207  1.00  0.00    -0.083 Cl
ATOM     20  Cl  UNL A   1      40.924  28.530  34.083  1.00  0.00    -0.083 Cl
ENDBRANCH  11  13
BRANCH  12  21
ATOM     21  C   UNL A   1      38.591  34.404  31.815  1.00  0.00     0.020 A 
ATOM     22  C   UNL A   1      39.936  34.532  32.180  1.00  0.00     0.012 A 
ATOM     23  C   UNL A   1      38.263  34.396  30.453  1.00  0.00     0.012 A 
ATOM     24  C   UNL A   1      40.928  34.695  31.209  1.00  0.00     0.001 A 
ATOM     25  C   UNL A   1      39.257  34.538  29.480  1.00  0.00     0.001 A 
ATOM     26  C   UNL A   1      40.587  34.697  29.858  1.00  0.00     0.000 A 
ENDBRANCH  12  21
ENDBRANCH   7   8
ENDBRANCH   6   7
ENDBRANCH   5   6
ENDBRANCH   3   5
ENDBRANCH   2   3
ENDBRANCH   1   2
BRANCH   1  27
ATOM     27  C   UNL A   1      33.960  33.596  29.055  1.00  0.00     0.275 C 
BRANCH  27  28
ATOM     28  O   UNL A   1      35.030  32.631  29.027  1.00  0.00    -0.458 OA
BRANCH  28  29
ATOM     29  C   UNL A   1      34.713  31.417  28.523  1.00  0.00     0.338 C 
ATOM     30  O   UNL A   1      33.644  31.092  28.043  1.00  0.00    -0.246 OA
BRANCH  29  31
ATOM     31  C   UNL A   1      35.908  30.540  28.464  1.00  0.00     0.060 A 
ATOM     32  C   UNL A   1      36.273  29.917  29.660  1.00  0.00     0.016 A 
ATOM     33  C   UNL A   1      36.706  30.380  27.324  1.00  0.00     0.016 A 
ATOM     34  C   UNL A   1      37.484  29.235  29.758  1.00  0.00     0.010 A 
ATOM     35  C   UNL A   1      37.924  29.681  27.423  1.00  0.00     0.010 A 
ATOM     36  C   UNL A   1      38.352  29.162  28.661  1.00  0.00    -0.014 A 
BRANCH  36  37
ATOM     37  C   UNL A   1      39.754  28.714  28.907  1.00  0.00     0.031 A 
ATOM     38  C   UNL A   1      40.669  29.580  29.742  1.00  0.00     0.074 A 
ATOM     39  C   UNL A   1      40.182  27.494  28.528  1.00  0.00     0.049 A 
ATOM     40  N   UNL A   1      41.849  29.304  30.243  1.00  0.00    -0.248 NA
ATOM     41  C   UNL A   1      40.184  30.931  30.065  1.00  0.00     0.031 C 
ATOM     42  C   UNL A   1      39.405  26.525  27.758  1.00  0.00     0.029 A 
ATOM     43  N   UNL A   1      41.373  26.849  28.776  1.00  0.00    -0.354 N 
ATOM     44  C   UNL A   1      42.241  30.440  30.942  1.00  0.00     0.074 A 
ATOM     45  C   UNL A   1      41.197  31.425  30.761  1.00  0.00     0.031 C 
ATOM     46  C   UNL A   1      40.125  25.397  27.622  1.00  0.00     0.029 A 
ATOM     47  C   UNL A   1      41.422  25.569  28.277  1.00  0.00     0.049 A 
ATOM     48  H   UNL A   1      42.119  27.266  29.264  1.00  0.00     0.167 HD
ATOM     49  C   UNL A   1      43.356  30.650  31.683  1.00  0.00     0.031 A 
ATOM     50  C   UNL A   1      42.392  24.635  28.348  1.00  0.00     0.031 A 
ATOM     51  C   UNL A   1      44.414  29.690  31.863  1.00  0.00     0.049 A 
ATOM     52  C   UNL A   1      43.662  24.923  29.108  1.00  0.00     0.074 A 
ATOM     53  C   UNL A   1      45.568  29.811  32.619  1.00  0.00     0.029 A 
ATOM     54  N   UNL A   1      44.458  28.439  31.268  1.00  0.00    -0.354 N 
ATOM     55  N   UNL A   1      43.988  25.978  29.814  1.00  0.00    -0.248 NA
ATOM     56  C   UNL A   1      44.693  23.873  29.094  1.00  0.00     0.031 C 
ATOM     57  C   UNL A   1      46.344  28.665  32.422  1.00  0.00     0.029 A 
ATOM     58  C   UNL A   1      45.637  27.796  31.607  1.00  0.00     0.049 A 
ATOM     59  H   UNL A   1      43.755  28.064  30.690  1.00  0.00     0.167 HD
ATOM     60  C   UNL A   1      45.238  25.701  30.359  1.00  0.00     0.074 A 
ATOM     61  C   UNL A   1      45.605  24.375  29.914  1.00  0.00     0.031 C 
ATOM     62  C   UNL A   1      46.006  26.477  31.164  1.00  0.00     0.031 A 
BRANCH  49  63
ATOM     63  C   UNL A   1      43.510  32.001  32.330  1.00  0.00    -0.014 A 
ATOM     64  C   UNL A   1      42.958  32.280  33.590  1.00  0.00     0.009 A 
ATOM     65  C   UNL A   1      44.246  33.001  31.675  1.00  0.00     0.009 A 
ATOM     66  C   UNL A   1      43.104  33.546  34.162  1.00  0.00     0.001 A 
ATOM     67  C   UNL A   1      44.418  34.256  32.263  1.00  0.00     0.001 A 
ATOM     68  C   UNL A   1      43.837  34.531  33.500  1.00  0.00     0.000 A 
ENDBRANCH  49  63
BRANCH  50  69
ATOM     69  C   UNL A   1      42.213  23.315  27.682  1.00  0.00    -0.014 A 
ATOM     70  C   UNL A   1      41.538  22.268  28.329  1.00  0.00     0.009 A 
ATOM     71  C   UNL A   1      42.764  23.080  26.412  1.00  0.00     0.009 A 
ATOM     72  C   UNL A   1      41.449  21.006  27.734  1.00  0.00     0.001 A 
ATOM     73  C   UNL A   1      42.646  21.828  25.806  1.00  0.00     0.001 A 
ATOM     74  C   UNL A   1      42.000  20.789  26.472  1.00  0.00     0.000 A 
ENDBRANCH  50  69
BRANCH  62  75
ATOM     75  C   UNL A   1      47.305  25.896  31.662  1.00  0.00    -0.014 A 
ATOM     76  C   UNL A   1      48.473  25.922  30.885  1.00  0.00     0.009 A 
ATOM     77  C   UNL A   1      47.364  25.337  32.950  1.00  0.00     0.009 A 
ATOM     78  C   UNL A   1      49.659  25.361  31.367  1.00  0.00     0.001 A 
ATOM     79  C   UNL A   1      48.559  24.809  33.444  1.00  0.00     0.001 A 
ATOM     80  C   UNL A   1      49.702  24.810  32.647  1.00  0.00     0.000 A 
ENDBRANCH  62  75
ENDBRANCH  36  37
ENDBRANCH  29  31
ENDBRANCH  28  29
ENDBRANCH  27  28
ENDBRANCH   1  27
TORSDOF 16
ENDMDL
MODEL 2
REMARK VINA RESULT:      -9.4      6.087     11.003
REMARK SMILES O=C(CCCc1nc(-c2ccc(Cl)c(Cl)c2)c(-c2ccccc2)o1)OCCOC(=O)c1ccc(-c2c3nc(c(-c4ccccc4)c4ccc([nH]4)c(-c4ccccc4)c4nc(c(-c5ccccc5)c5ccc2[nH]5)C=C4)C=C3)cc1
REMARK SMILES IDX 26 1 25 2 2 3 1 4 3 5 4 6 5 7 6 8 7 9 24 10 8 11 17 12 9 13
REMARK SMILES IDX 10 14 16 15 11 16 14 17 12 18 15 19 13 20 18 21 19 22 23 23
REMARK SMILES IDX 20 24 22 25 21 26 27 27 28 28 29 29 30 30 31 31 32 32 78 33
REMARK SMILES IDX 33 34 77 35 34 36 35 37 36 38 71 39 37 40 76 41 70 42 72 43
REMARK SMILES IDX 38 44 75 45 69 46 68 47 39 49 61 50 46 51 60 52 47 53 50 54
REMARK SMILES IDX 59 55 73 56 48 57 49 58 58 60 74 61 51 62 40 63 41 64 45 65
REMARK SMILES IDX 42 66 44 67 43 68 62 69 63 70 67 71 64 72 66 73 65 74 52 75
REMARK SMILES IDX 53 76 57 77 54 78 56 79 55 80
REMARK H PARENT 72 48 50 59
REMARK Flexibility Score: inf
ROOT
ATOM      1  C   UNL A   1      35.705  21.541  25.930  1.00  0.00     0.274 C 
ENDROOT
BRANCH   1   2
ATOM      2  O   UNL A   1      34.712  22.358  25.283  1.00  0.00    -0.462 OA
BRANCH   2   3
ATOM      3  C   UNL A   1      33.378  22.153  25.284  1.00  0.00     0.305 C 
ATOM      4  O   UNL A   1      32.714  22.527  26.251  1.00  0.00    -0.252 OA
BRANCH   3   5
ATOM      5  C   UNL A   1      32.699  21.422  24.143  1.00  0.00     0.123 C 
BRANCH   5   6
ATOM      6  C   UNL A   1      32.049  22.276  23.064  1.00  0.00     0.021 C 
BRANCH   6   7
ATOM      7  C   UNL A   1      32.924  23.384  22.466  1.00  0.00     0.098 C 
BRANCH   7   8
ATOM      8  C   UNL A   1      32.511  24.784  22.804  1.00  0.00     0.195 A 
ATOM      9  N   UNL A   1      31.612  25.549  22.215  1.00  0.00    -0.213 NA
ATOM     10  O   UNL A   1      33.041  25.330  23.951  1.00  0.00    -0.440 OA
ATOM     11  C   UNL A   1      31.548  26.661  23.022  1.00  0.00     0.117 A 
ATOM     12  C   UNL A   1      32.416  26.539  24.085  1.00  0.00     0.162 A 
BRANCH  11  13
ATOM     13  C   UNL A   1      30.594  27.733  22.884  1.00  0.00     0.006 A 
ATOM     14  C   UNL A   1      30.986  28.908  22.238  1.00  0.00     0.012 A 
ATOM     15  C   UNL A   1      29.261  27.561  23.275  1.00  0.00     0.032 A 
ATOM     16  C   UNL A   1      30.041  29.893  21.949  1.00  0.00     0.023 A 
ATOM     17  C   UNL A   1      28.316  28.550  22.992  1.00  0.00     0.060 A 
ATOM     18  C   UNL A   1      28.705  29.713  22.318  1.00  0.00     0.059 A 
ATOM     19  Cl  UNL A   1      26.683  28.257  23.475  1.00  0.00    -0.083 Cl
ATOM     20  Cl  UNL A   1      27.582  30.956  21.895  1.00  0.00    -0.083 Cl
ENDBRANCH  11  13
BRANCH  12  21
ATOM     21  C   UNL A   1      32.682  27.312  25.286  1.00  0.00     0.020 A 
ATOM     22  C   UNL A   1      31.766  27.344  26.345  1.00  0.00     0.012 A 
ATOM     23  C   UNL A   1      33.904  27.982  25.436  1.00  0.00     0.012 A 
ATOM     24  C   UNL A   1      32.043  28.066  27.509  1.00  0.00     0.001 A 
ATOM     25  C   UNL A   1      34.191  28.687  26.609  1.00  0.00     0.001 A 
ATOM     26  C   UNL A   1      33.257  28.736  27.640  1.00  0.00     0.000 A 
ENDBRANCH  12  21
ENDBRANCH   7   8
ENDBRANCH   6   7
ENDBRANCH   5   6
ENDBRANCH   3   5
ENDBRANCH   2   3
ENDBRANCH   1   2
BRANCH   1  27
ATOM     27  C   UNL A   1      36.726  20.967  24.950  1.00  0.00     0.275 C 
BRANCH  27  28
ATOM     28  O   UNL A   1      37.912  21.787  24.919  1.00  0.00    -0.458 OA
BRANCH  28  29
ATOM     29  C   UNL A   1      38.930  21.376  25.707  1.00  0.00     0.338 C 
ATOM     30  O   UNL A   1      39.500  20.303  25.651  1.00  0.00    -0.246 OA
BRANCH  29  31
ATOM     31  C   UNL A   1      39.408  22.482  26.573  1.00  0.00     0.060 A 
ATOM     32  C   UNL A   1      38.786  23.720  26.387  1.00  0.00     0.016 A 
ATOM     33  C   UNL A   1      40.471  22.366  27.477  1.00  0.00     0.016 A 
ATOM     34  C   UNL A   1      39.292  24.862  27.007  1.00  0.00     0.010 A 
ATOM     35  C   UNL A   1      40.973  23.519  28.110  1.00  0.00     0.010 A 
ATOM     36  C   UNL A   1      40.427  24.786  27.825  1.00  0.00    -0.014 A 
BRANCH  36  37
ATOM     37  C   UNL A   1      41.111  26.061  28.191  1.00  0.00     0.031 A 
ATOM     38  C   UNL A   1      42.448  26.385  27.568  1.00  0.00     0.074 A 
ATOM     39  C   UNL A   1      40.504  26.995  28.949  1.00  0.00     0.049 A 
ATOM     40  N   UNL A   1      43.126  27.508  27.588  1.00  0.00    -0.248 NA
ATOM     41  C   UNL A   1      43.104  25.306  26.814  1.00  0.00     0.031 C 
ATOM     42  C   UNL A   1      39.195  26.851  29.584  1.00  0.00     0.029 A 
ATOM     43  N   UNL A   1      40.900  28.270  29.282  1.00  0.00    -0.354 N 
ATOM     44  C   UNL A   1      44.278  27.270  26.846  1.00  0.00     0.074 A 
ATOM     45  C   UNL A   1      44.231  25.886  26.431  1.00  0.00     0.031 C 
ATOM     46  C   UNL A   1      38.882  28.003  30.203  1.00  0.00     0.029 A 
ATOM     47  C   UNL A   1      39.974  28.960  30.028  1.00  0.00     0.049 A 
ATOM     48  H   UNL A   1      41.766  28.652  29.011  1.00  0.00     0.167 HD
ATOM     49  C   UNL A   1      45.280  28.123  26.520  1.00  0.00     0.031 A 
ATOM     50  C   UNL A   1      39.994  30.220  30.506  1.00  0.00     0.031 A 
ATOM     51  C   UNL A   1      45.353  29.500  26.936  1.00  0.00     0.049 A 
ATOM     52  C   UNL A   1      41.161  31.125  30.200  1.00  0.00     0.074 A 
ATOM     53  C   UNL A   1      46.321  30.441  26.629  1.00  0.00     0.029 A 
ATOM     54  N   UNL A   1      44.435  30.127  27.761  1.00  0.00    -0.354 N 
ATOM     55  N   UNL A   1      42.210  30.903  29.446  1.00  0.00    -0.248 NA
ATOM     56  C   UNL A   1      41.132  32.468  30.802  1.00  0.00     0.031 C 
ATOM     57  C   UNL A   1      46.027  31.617  27.328  1.00  0.00     0.029 A 
ATOM     58  C   UNL A   1      44.834  31.431  28.007  1.00  0.00     0.049 A 
ATOM     59  H   UNL A   1      43.619  29.709  28.119  1.00  0.00     0.167 HD
ATOM     60  C   UNL A   1      42.939  32.088  29.451  1.00  0.00     0.074 A 
ATOM     61  C   UNL A   1      42.208  33.029  30.270  1.00  0.00     0.031 C 
ATOM     62  C   UNL A   1      44.108  32.370  28.823  1.00  0.00     0.031 A 
BRANCH  49  63
ATOM     63  C   UNL A   1      46.413  27.572  25.696  1.00  0.00    -0.014 A 
ATOM     64  C   UNL A   1      46.596  27.944  24.355  1.00  0.00     0.009 A 
ATOM     65  C   UNL A   1      47.330  26.687  26.284  1.00  0.00     0.009 A 
ATOM     66  C   UNL A   1      47.648  27.408  23.608  1.00  0.00     0.001 A 
ATOM     67  C   UNL A   1      48.399  26.177  25.546  1.00  0.00     0.001 A 
ATOM     68  C   UNL A   1      48.550  26.528  24.206  1.00  0.00     0.000 A 
ENDBRANCH  49  63
BRANCH  50  69
ATOM     69  C   UNL A   1      38.863  30.727  31.332  1.00  0.00    -0.014 A 
ATOM     70  C   UNL A   1      37.765  31.366  30.735  1.00  0.00     0.009 A 
ATOM     71  C   UNL A   1      38.902  30.619  32.731  1.00  0.00     0.009 A 
ATOM     72  C   UNL A   1      36.749  31.916  31.523  1.00  0.00     0.001 A 
ATOM     73  C   UNL A   1      37.870  31.141  33.514  1.00  0.00     0.001 A 
ATOM     74  C   UNL A   1      36.802  31.799  32.910  1.00  0.00     0.000 A 
ENDBRANCH  50  69
BRANCH  62  75
ATOM     75  C   UNL A   1      44.651  33.770  28.952  1.00  0.00    -0.014 A 
ATOM     76  C   UNL A   1      45.554  34.122  29.967  1.00  0.00     0.009 A 
ATOM     77  C   UNL A   1      44.271  34.749  28.019  1.00  0.00     0.009 A 
ATOM     78  C   UNL A   1      46.029  35.432  30.071  1.00  0.00     0.001 A 
ATOM     79  C   UNL A   1      44.774  36.048  28.103  1.00  0.00     0.001 A 
ATOM     80  C   UNL A   1      45.642  36.393  29.137  1.00  0.00     0.000 A 
ENDBRANCH  62  75
ENDBRANCH  36  37
ENDBRANCH  29  31
ENDBRANCH  28  29
ENDBRANCH  27  28
ENDBRANCH   1  27
TORSDOF 16
ENDMDL
MODEL 3
REMARK VINA RESULT:      -9.3      1.802      3.453
REMARK SMILES O=C(CCCc1nc(-c2ccc(Cl)c(Cl)c2)c(-c2ccccc2)o1)OCCOC(=O)c1ccc(-c2c3nc(c(-c4ccccc4)c4ccc([nH]4)c(-c4ccccc4)c4nc(c(-c5ccccc5)c5ccc2[nH]5)C=C4)C=C3)cc1
REMARK SMILES IDX 26 1 25 2 2 3 1 4 3 5 4 6 5 7 6 8 7 9 24 10 8 11 17 12 9 13
REMARK SMILES IDX 10 14 16 15 11 16 14 17 12 18 15 19 13 20 18 21 19 22 23 23
REMARK SMILES IDX 20 24 22 25 21 26 27 27 28 28 29 29 30 30 31 31 32 32 78 33
REMARK SMILES IDX 33 34 77 35 34 36 35 37 36 38 71 39 37 40 76 41 70 42 72 43
REMARK SMILES IDX 38 44 75 45 69 46 68 47 39 49 61 50 46 51 60 52 47 53 50 54
REMARK SMILES IDX 59 55 73 56 48 57 49 58 58 60 74 61 51 62 40 63 41 64 45 65
REMARK SMILES IDX 42 66 44 67 43 68 62 69 63 70 67 71 64 72 66 73 65 74 52 75
REMARK SMILES IDX 53 76 57 77 54 78 56 79 55 80
REMARK H PARENT 72 48 50 59
REMARK Flexibility Score: inf
ROOT
ATOM      1  C   UNL A   1      32.889  35.600  30.339  1.00  0.00     0.274 C 
ENDROOT
BRANCH   1   2
ATOM      2  O   UNL A   1      32.142  36.499  31.178  1.00  0.00    -0.462 OA
BRANCH   2   3
ATOM      3  C   UNL A   1      32.359  36.743  32.488  1.00  0.00     0.305 C 
ATOM      4  O   UNL A   1      31.396  36.825  33.250  1.00  0.00    -0.252 OA
BRANCH   3   5
ATOM      5  C   UNL A   1      33.759  36.970  33.019  1.00  0.00     0.123 C 
BRANCH   5   6
ATOM      6  C   UNL A   1      34.404  35.824  33.786  1.00  0.00     0.021 C 
BRANCH   6   7
ATOM      7  C   UNL A   1      35.201  34.818  32.947  1.00  0.00     0.098 C 
BRANCH   7   8
ATOM      8  C   UNL A   1      36.043  33.854  33.727  1.00  0.00     0.195 A 
ATOM      9  N   UNL A   1      36.613  32.736  33.322  1.00  0.00    -0.213 NA
ATOM     10  O   UNL A   1      36.378  34.217  35.012  1.00  0.00    -0.440 OA
ATOM     11  C   UNL A   1      37.368  32.343  34.404  1.00  0.00     0.117 A 
ATOM     12  C   UNL A   1      37.232  33.240  35.441  1.00  0.00     0.162 A 
BRANCH  11  13
ATOM     13  C   UNL A   1      38.303  31.246  34.409  1.00  0.00     0.006 A 
ATOM     14  C   UNL A   1      38.165  30.235  33.455  1.00  0.00     0.012 A 
ATOM     15  C   UNL A   1      39.407  31.250  35.270  1.00  0.00     0.032 A 
ATOM     16  C   UNL A   1      39.146  29.250  33.335  1.00  0.00     0.023 A 
ATOM     17  C   UNL A   1      40.386  30.259  35.156  1.00  0.00     0.060 A 
ATOM     18  C   UNL A   1      40.261  29.264  34.179  1.00  0.00     0.059 A 
ATOM     19  Cl  UNL A   1      41.737  30.343  36.230  1.00  0.00    -0.083 Cl
ATOM     20  Cl  UNL A   1      41.455  28.038  33.950  1.00  0.00    -0.083 Cl
ENDBRANCH  11  13
BRANCH  12  21
ATOM     21  C   UNL A   1      37.861  33.409  36.740  1.00  0.00     0.020 A 
ATOM     22  C   UNL A   1      38.888  34.342  36.931  1.00  0.00     0.012 A 
ATOM     23  C   UNL A   1      37.393  32.690  37.847  1.00  0.00     0.012 A 
ATOM     24  C   UNL A   1      39.467  34.520  38.190  1.00  0.00     0.001 A 
ATOM     25  C   UNL A   1      37.958  32.883  39.112  1.00  0.00     0.001 A 
ATOM     26  C   UNL A   1      39.001  33.790  39.281  1.00  0.00     0.000 A 
ENDBRANCH  12  21
ENDBRANCH   7   8
ENDBRANCH   6   7
ENDBRANCH   5   6
ENDBRANCH   3   5
ENDBRANCH   2   3
ENDBRANCH   1   2
BRANCH   1  27
ATOM     27  C   UNL A   1      32.908  36.038  28.876  1.00  0.00     0.275 C 
BRANCH  27  28
ATOM     28  O   UNL A   1      33.921  35.316  28.146  1.00  0.00    -0.458 OA
BRANCH  28  29
ATOM     29  C   UNL A   1      33.880  33.970  28.260  1.00  0.00     0.338 C 
ATOM     30  O   UNL A   1      33.067  33.227  27.746  1.00  0.00    -0.246 OA
BRANCH  29  31
ATOM     31  C   UNL A   1      35.080  33.463  28.970  1.00  0.00     0.060 A 
ATOM     32  C   UNL A   1      36.285  34.106  28.677  1.00  0.00     0.016 A 
ATOM     33  C   UNL A   1      35.072  32.357  29.829  1.00  0.00     0.016 A 
ATOM     34  C   UNL A   1      37.492  33.583  29.138  1.00  0.00     0.010 A 
ATOM     35  C   UNL A   1      36.292  31.837  30.302  1.00  0.00     0.010 A 
ATOM     36  C   UNL A   1      37.516  32.409  29.903  1.00  0.00    -0.014 A 
BRANCH  36  37
ATOM     37  C   UNL A   1      38.827  31.722  30.089  1.00  0.00     0.031 A 
ATOM     38  C   UNL A   1      39.817  32.281  31.084  1.00  0.00     0.074 A 
ATOM     39  C   UNL A   1      39.094  30.539  29.502  1.00  0.00     0.049 A 
ATOM     40  N   UNL A   1      40.922  31.749  31.548  1.00  0.00    -0.248 NA
ATOM     41  C   UNL A   1      39.516  33.610  31.638  1.00  0.00     0.031 C 
ATOM     42  C   UNL A   1      38.222  29.847  28.555  1.00  0.00     0.029 A 
ATOM     43  N   UNL A   1      40.168  29.691  29.650  1.00  0.00    -0.354 N 
ATOM     44  C   UNL A   1      41.440  32.672  32.449  1.00  0.00     0.074 A 
ATOM     45  C   UNL A   1      40.556  33.817  32.431  1.00  0.00     0.031 C 
ATOM     46  C   UNL A   1      38.779  28.668  28.229  1.00  0.00     0.029 A 
ATOM     47  C   UNL A   1      40.056  28.527  28.928  1.00  0.00     0.049 A 
ATOM     48  H   UNL A   1      40.943  29.899  30.220  1.00  0.00     0.167 HD
ATOM     49  C   UNL A   1      42.540  32.580  33.237  1.00  0.00     0.031 A 
ATOM     50  C   UNL A   1      40.879  27.462  28.845  1.00  0.00     0.031 A 
ATOM     51  C   UNL A   1      43.441  31.457  33.257  1.00  0.00     0.049 A 
ATOM     52  C   UNL A   1      42.143  27.419  29.669  1.00  0.00     0.074 A 
ATOM     53  C   UNL A   1      44.565  31.271  34.044  1.00  0.00     0.029 A 
ATOM     54  N   UNL A   1      43.333  30.340  32.446  1.00  0.00    -0.354 N 
ATOM     55  N   UNL A   1      42.583  28.272  30.560  1.00  0.00    -0.248 NA
ATOM     56  C   UNL A   1      43.013  26.247  29.483  1.00  0.00     0.031 C 
ATOM     57  C   UNL A   1      45.179  30.075  33.656  1.00  0.00     0.029 A 
ATOM     58  C   UNL A   1      44.392  29.479  32.684  1.00  0.00     0.049 A 
ATOM     59  H   UNL A   1      42.610  30.181  31.797  1.00  0.00     0.167 HD
ATOM     60  C   UNL A   1      43.755  27.721  31.069  1.00  0.00     0.074 A 
ATOM     61  C   UNL A   1      43.949  26.455  30.396  1.00  0.00     0.031 C 
ATOM     62  C   UNL A   1      44.589  28.219  32.016  1.00  0.00     0.031 A 
BRANCH  49  63
ATOM     63  C   UNL A   1      42.855  33.757  34.121  1.00  0.00    -0.014 A 
ATOM     64  C   UNL A   1      43.644  34.826  33.666  1.00  0.00     0.009 A 
ATOM     65  C   UNL A   1      42.329  33.807  35.421  1.00  0.00     0.009 A 
ATOM     66  C   UNL A   1      43.933  35.901  34.512  1.00  0.00     0.001 A 
ATOM     67  C   UNL A   1      42.592  34.897  36.252  1.00  0.00     0.001 A 
ATOM     68  C   UNL A   1      43.405  35.936  35.802  1.00  0.00     0.000 A 
ENDBRANCH  49  63
BRANCH  50  69
ATOM     69  C   UNL A   1      40.544  26.322  27.947  1.00  0.00    -0.014 A 
ATOM     70  C   UNL A   1      41.015  26.284  26.626  1.00  0.00     0.009 A 
ATOM     71  C   UNL A   1      39.706  25.288  28.396  1.00  0.00     0.009 A 
ATOM     72  C   UNL A   1      40.626  25.255  25.763  1.00  0.00     0.001 A 
ATOM     73  C   UNL A   1      39.345  24.245  27.541  1.00  0.00     0.001 A 
ATOM     74  C   UNL A   1      39.795  24.235  26.223  1.00  0.00     0.000 A 
ENDBRANCH  50  69
BRANCH  62  75
ATOM     75  C   UNL A   1      45.768  27.373  32.423  1.00  0.00    -0.014 A 
ATOM     76  C   UNL A   1      45.673  26.413  33.442  1.00  0.00     0.009 A 
ATOM     77  C   UNL A   1      46.992  27.522  31.749  1.00  0.00     0.009 A 
ATOM     78  C   UNL A   1      46.788  25.654  33.808  1.00  0.00     0.001 A 
ATOM     79  C   UNL A   1      48.095  26.738  32.092  1.00  0.00     0.001 A 
ATOM     80  C   UNL A   1      47.996  25.814  33.130  1.00  0.00     0.000 A 
ENDBRANCH  62  75
ENDBRANCH  36  37
ENDBRANCH  29  31
ENDBRANCH  28  29
ENDBRANCH  27  28
ENDBRANCH   1  27
TORSDOF 16
ENDMDL
