MODEL 1
REMARK VINA RESULT:     -10.7      0.000      0.000
REMARK SMILES Cc1nn(C)c(=O)c(C(=O)N2CCCC[C@H]2C(=O)OCCOC(=O)c2ccc(-c3c4nc(c(-c5ccccc5)c5ccc([nH]5)c(-c5ccccc5)c5nc(c(-c6ccccc6)c6ccc3[nH]6)C=C5)C=C4)cc2)c1C
REMARK SMILES IDX 20 1 19 2 17 3 18 4 16 5 11 6 12 7 13 8 15 9 14 10 9 11
REMARK SMILES IDX 10 12 8 13 1 14 2 15 3 16 73 17 4 18 74 19 5 20 6 21 7 22
REMARK SMILES IDX 21 23 22 24 23 25 24 26 25 27 26 28 72 29 27 30 71 31 28 32
REMARK SMILES IDX 29 33 30 34 65 35 31 36 70 37 64 38 66 39 32 40 69 41 63 42
REMARK SMILES IDX 62 43 33 45 55 46 40 47 54 48 41 49 44 50 53 51 67 52 42 53
REMARK SMILES IDX 43 54 52 56 68 57 45 58 34 59 35 60 39 61 36 62 38 63 37 64
REMARK SMILES IDX 56 65 57 66 61 67 58 68 60 69 59 70 46 71 47 72 51 73 48 74
REMARK SMILES IDX 50 75 49 76
REMARK H PARENT 66 44 44 55
REMARK Flexibility Score: inf
ROOT
ATOM      1  C   UNL A   1      32.873  29.186  24.930  1.00  0.00     0.274 C 
ENDROOT
BRANCH   1   2
ATOM      2  O   UNL A   1      32.589  27.822  25.306  1.00  0.00    -0.461 OA
BRANCH   2   3
ATOM      3  C   UNL A   1      31.619  27.209  24.579  1.00  0.00     0.328 C 
ATOM      4  O   UNL A   1      30.617  27.787  24.165  1.00  0.00    -0.250 OA
BRANCH   3   5
ATOM      5  C   UNL A   1      31.961  25.751  24.193  1.00  0.00     0.195 C 
ATOM      6  N   UNL A   1      33.164  25.122  24.776  1.00  0.00    -0.325 N 
ATOM      7  C   UNL A   1      33.093  24.813  26.199  1.00  0.00     0.121 C 
ATOM      8  C   UNL A   1      31.872  23.968  26.543  1.00  0.00     0.022 C 
ATOM      9  C   UNL A   1      30.724  24.877  24.511  1.00  0.00     0.037 C 
ATOM     10  C   UNL A   1      30.599  24.621  26.016  1.00  0.00     0.005 C 
BRANCH   6  11
ATOM     11  C   UNL A   1      34.070  24.393  24.004  1.00  0.00     0.260 C 
ATOM     12  O   UNL A   1      34.305  24.687  22.832  1.00  0.00    -0.269 OA
BRANCH  11  13
ATOM     13  C   UNL A   1      34.571  23.097  24.548  1.00  0.00     0.111 A 
ATOM     14  C   UNL A   1      33.703  19.449  24.828  1.00  0.00     0.069 C 
ATOM     15  C   UNL A   1      34.551  20.698  24.723  1.00  0.00     0.062 A 
ATOM     16  N   UNL A   1      35.798  20.590  25.050  1.00  0.00    -0.175 NA
ATOM     17  C   UNL A   1      33.921  21.958  24.240  1.00  0.00    -0.010 A 
ATOM     18  N   UNL A   1      36.533  21.744  25.097  1.00  0.00    -0.232 N 
ATOM     19  C   UNL A   1      32.704  21.817  23.381  1.00  0.00     0.047 C 
ATOM     20  C   UNL A   1      37.959  21.563  25.303  1.00  0.00     0.178 C 
ATOM     21  C   UNL A   1      35.958  23.015  25.099  1.00  0.00     0.279 A 
ATOM     22  O   UNL A   1      36.550  24.027  25.471  1.00  0.00    -0.267 OA
ENDBRANCH  11  13
ENDBRANCH   6  11
ENDBRANCH   3   5
ENDBRANCH   2   3
ENDBRANCH   1   2
BRANCH   1  23
ATOM     23  C   UNL A   1      32.977  30.104  26.155  1.00  0.00     0.275 C 
BRANCH  23  24
ATOM     24  O   UNL A   1      33.833  29.566  27.183  1.00  0.00    -0.458 OA
BRANCH  24  25
ATOM     25  C   UNL A   1      34.574  30.484  27.843  1.00  0.00     0.338 C 
ATOM     26  O   UNL A   1      34.208  31.574  28.243  1.00  0.00    -0.246 OA
BRANCH  25  27
ATOM     27  C   UNL A   1      35.915  29.976  28.134  1.00  0.00     0.060 A 
ATOM     28  C   UNL A   1      36.174  29.475  29.413  1.00  0.00     0.016 A 
ATOM     29  C   UNL A   1      36.942  30.137  27.206  1.00  0.00     0.016 A 
ATOM     30  C   UNL A   1      37.469  29.133  29.773  1.00  0.00     0.010 A 
ATOM     31  C   UNL A   1      38.240  29.761  27.557  1.00  0.00     0.010 A 
ATOM     32  C   UNL A   1      38.506  29.256  28.841  1.00  0.00    -0.014 A 
BRANCH  32  33
ATOM     33  C   UNL A   1      39.859  28.789  29.202  1.00  0.00     0.031 A 
ATOM     34  C   UNL A   1      40.786  29.664  29.985  1.00  0.00     0.074 A 
ATOM     35  C   UNL A   1      40.226  27.551  28.828  1.00  0.00     0.049 A 
ATOM     36  N   UNL A   1      42.042  29.463  30.287  1.00  0.00    -0.248 NA
ATOM     37  C   UNL A   1      40.232  30.926  30.500  1.00  0.00     0.031 C 
ATOM     38  C   UNL A   1      39.370  26.593  28.125  1.00  0.00     0.029 A 
ATOM     39  N   UNL A   1      41.409  26.883  28.998  1.00  0.00    -0.354 N 
ATOM     40  C   UNL A   1      42.438  30.577  31.012  1.00  0.00     0.074 A 
ATOM     41  C   UNL A   1      41.290  31.455  31.102  1.00  0.00     0.031 C 
ATOM     42  C   UNL A   1      40.051  25.452  27.939  1.00  0.00     0.029 A 
ATOM     43  C   UNL A   1      41.405  25.624  28.450  1.00  0.00     0.049 A 
ATOM     44  H   UNL A   1      42.186  27.267  29.465  1.00  0.00     0.167 HD
ATOM     45  C   UNL A   1      43.654  30.840  31.547  1.00  0.00     0.031 A 
ATOM     46  C   UNL A   1      42.396  24.722  28.339  1.00  0.00     0.031 A 
ATOM     47  C   UNL A   1      44.788  29.960  31.440  1.00  0.00     0.049 A 
ATOM     48  C   UNL A   1      43.755  25.075  28.863  1.00  0.00     0.074 A 
ATOM     49  C   UNL A   1      46.075  30.146  31.913  1.00  0.00     0.029 A 
ATOM     50  N   UNL A   1      44.765  28.721  30.818  1.00  0.00    -0.354 N 
ATOM     51  N   UNL A   1      44.139  26.163  29.485  1.00  0.00    -0.248 NA
ATOM     52  C   UNL A   1      44.819  24.086  28.653  1.00  0.00     0.031 C 
ATOM     53  C   UNL A   1      46.841  29.034  31.544  1.00  0.00     0.029 A 
ATOM     54  C   UNL A   1      46.020  28.137  30.879  1.00  0.00     0.049 A 
ATOM     55  H   UNL A   1      43.975  28.316  30.394  1.00  0.00     0.167 HD
ATOM     56  C   UNL A   1      45.491  25.994  29.740  1.00  0.00     0.074 A 
ATOM     57  C   UNL A   1      45.853  24.687  29.226  1.00  0.00     0.031 C 
ATOM     58  C   UNL A   1      46.357  26.846  30.339  1.00  0.00     0.031 A 
BRANCH  45  59
ATOM     59  C   UNL A   1      43.828  32.150  32.257  1.00  0.00    -0.014 A 
ATOM     60  C   UNL A   1      43.601  32.268  33.636  1.00  0.00     0.009 A 
ATOM     61  C   UNL A   1      44.261  33.278  31.540  1.00  0.00     0.009 A 
ATOM     62  C   UNL A   1      43.784  33.495  34.280  1.00  0.00     0.001 A 
ATOM     63  C   UNL A   1      44.461  34.497  32.189  1.00  0.00     0.001 A 
ATOM     64  C   UNL A   1      44.216  34.606  33.557  1.00  0.00     0.000 A 
ENDBRANCH  45  59
BRANCH  46  65
ATOM     65  C   UNL A   1      42.134  23.427  27.666  1.00  0.00    -0.014 A 
ATOM     66  C   UNL A   1      41.545  22.366  28.368  1.00  0.00     0.009 A 
ATOM     67  C   UNL A   1      42.429  23.263  26.303  1.00  0.00     0.009 A 
ATOM     68  C   UNL A   1      41.260  21.164  27.717  1.00  0.00     0.001 A 
ATOM     69  C   UNL A   1      42.122  22.069  25.650  1.00  0.00     0.001 A 
ATOM     70  C   UNL A   1      41.541  21.018  26.359  1.00  0.00     0.000 A 
ENDBRANCH  46  65
BRANCH  58  71
ATOM     71  C   UNL A   1      47.777  26.382  30.466  1.00  0.00    -0.014 A 
ATOM     72  C   UNL A   1      48.688  26.563  29.413  1.00  0.00     0.009 A 
ATOM     73  C   UNL A   1      48.214  25.782  31.655  1.00  0.00     0.009 A 
ATOM     74  C   UNL A   1      50.006  26.125  29.542  1.00  0.00     0.001 A 
ATOM     75  C   UNL A   1      49.537  25.363  31.788  1.00  0.00     0.001 A 
ATOM     76  C   UNL A   1      50.430  25.529  30.729  1.00  0.00     0.000 A 
ENDBRANCH  58  71
ENDBRANCH  32  33
ENDBRANCH  25  27
ENDBRANCH  24  25
ENDBRANCH  23  24
ENDBRANCH   1  23
TORSDOF 13
ENDMDL
MODEL 2
REMARK VINA RESULT:     -10.7      2.453      7.910
REMARK SMILES Cc1nn(C)c(=O)c(C(=O)N2CCCC[C@H]2C(=O)OCCOC(=O)c2ccc(-c3c4nc(c(-c5ccccc5)c5ccc([nH]5)c(-c5ccccc5)c5nc(c(-c6ccccc6)c6ccc3[nH]6)C=C5)C=C4)cc2)c1C
REMARK SMILES IDX 20 1 19 2 17 3 18 4 16 5 11 6 12 7 13 8 15 9 14 10 9 11
REMARK SMILES IDX 10 12 8 13 1 14 2 15 3 16 73 17 4 18 74 19 5 20 6 21 7 22
REMARK SMILES IDX 21 23 22 24 23 25 24 26 25 27 26 28 72 29 27 30 71 31 28 32
REMARK SMILES IDX 29 33 30 34 65 35 31 36 70 37 64 38 66 39 32 40 69 41 63 42
REMARK SMILES IDX 62 43 33 45 55 46 40 47 54 48 41 49 44 50 53 51 67 52 42 53
REMARK SMILES IDX 43 54 52 56 68 57 45 58 34 59 35 60 39 61 36 62 38 63 37 64
REMARK SMILES IDX 56 65 57 66 61 67 58 68 60 69 59 70 46 71 47 72 51 73 48 74
REMARK SMILES IDX 50 75 49 76
REMARK H PARENT 66 44 44 55
REMARK Flexibility Score: inf
ROOT
ATOM      1  C   UNL A   1      35.993  21.721  24.358  1.00  0.00     0.274 C 
ENDROOT
BRANCH   1   2
ATOM      2  O   UNL A   1      35.902  22.998  23.692  1.00  0.00    -0.461 OA
BRANCH   2   3
ATOM      3  C   UNL A   1      34.641  23.430  23.433  1.00  0.00     0.328 C 
ATOM      4  O   UNL A   1      33.748  22.698  23.015  1.00  0.00    -0.250 OA
BRANCH   3   5
ATOM      5  C   UNL A   1      34.391  24.899  23.849  1.00  0.00     0.195 C 
ATOM      6  N   UNL A   1      33.109  25.535  23.483  1.00  0.00    -0.325 N 
ATOM      7  C   UNL A   1      31.932  25.049  24.195  1.00  0.00     0.121 C 
ATOM      8  C   UNL A   1      32.108  25.115  25.707  1.00  0.00     0.022 C 
ATOM      9  C   UNL A   1      34.588  24.994  25.381  1.00  0.00     0.037 C 
ATOM     10  C   UNL A   1      33.390  24.406  26.132  1.00  0.00     0.005 C 
BRANCH   6  11
ATOM     11  C   UNL A   1      33.046  26.817  22.935  1.00  0.00     0.260 C 
ATOM     12  O   UNL A   1      33.851  27.199  22.086  1.00  0.00    -0.269 OA
BRANCH  11  13
ATOM     13  C   UNL A   1      32.131  27.808  23.575  1.00  0.00     0.111 A 
ATOM     14  C   UNL A   1      31.855  30.152  26.502  1.00  0.00     0.069 C 
ATOM     15  C   UNL A   1      31.647  29.596  25.110  1.00  0.00     0.062 A 
ATOM     16  N   UNL A   1      30.664  30.082  24.424  1.00  0.00    -0.175 NA
ATOM     17  C   UNL A   1      32.579  28.549  24.607  1.00  0.00    -0.010 A 
ATOM     18  N   UNL A   1      30.384  29.483  23.226  1.00  0.00    -0.232 N 
ATOM     19  C   UNL A   1      33.942  28.505  25.224  1.00  0.00     0.047 C 
ATOM     20  C   UNL A   1      29.389  30.160  22.413  1.00  0.00     0.178 C 
ATOM     21  C   UNL A   1      30.892  28.237  22.858  1.00  0.00     0.279 A 
ATOM     22  O   UNL A   1      30.405  27.542  21.968  1.00  0.00    -0.267 OA
ENDBRANCH  11  13
ENDBRANCH   6  11
ENDBRANCH   3   5
ENDBRANCH   2   3
ENDBRANCH   1   2
BRANCH   1  23
ATOM     23  C   UNL A   1      37.037  21.738  25.481  1.00  0.00     0.275 C 
BRANCH  23  24
ATOM     24  O   UNL A   1      37.778  22.973  25.534  1.00  0.00    -0.458 OA
BRANCH  24  25
ATOM     25  C   UNL A   1      38.937  22.911  26.228  1.00  0.00     0.338 C 
ATOM     26  O   UNL A   1      39.695  21.961  26.310  1.00  0.00    -0.246 OA
BRANCH  25  27
ATOM     27  C   UNL A   1      39.267  24.203  26.830  1.00  0.00     0.060 A 
ATOM     28  C   UNL A   1      40.044  25.102  26.096  1.00  0.00     0.016 A 
ATOM     29  C   UNL A   1      38.944  24.457  28.163  1.00  0.00     0.016 A 
ATOM     30  C   UNL A   1      40.507  26.265  26.692  1.00  0.00     0.010 A 
ATOM     31  C   UNL A   1      39.382  25.644  28.752  1.00  0.00     0.010 A 
ATOM     32  C   UNL A   1      40.163  26.552  28.017  1.00  0.00    -0.014 A 
BRANCH  32  33
ATOM     33  C   UNL A   1      40.573  27.842  28.606  1.00  0.00     0.031 A 
ATOM     34  C   UNL A   1      41.983  28.064  29.055  1.00  0.00     0.074 A 
ATOM     35  C   UNL A   1      39.653  28.818  28.707  1.00  0.00     0.049 A 
ATOM     36  N   UNL A   1      42.487  29.086  29.695  1.00  0.00    -0.248 NA
ATOM     37  C   UNL A   1      42.955  27.005  28.740  1.00  0.00     0.031 C 
ATOM     38  C   UNL A   1      38.271  28.725  28.232  1.00  0.00     0.029 A 
ATOM     39  N   UNL A   1      39.745  30.079  29.230  1.00  0.00    -0.354 N 
ATOM     40  C   UNL A   1      43.830  28.790  29.879  1.00  0.00     0.074 A 
ATOM     41  C   UNL A   1      44.063  27.490  29.285  1.00  0.00     0.031 C 
ATOM     42  C   UNL A   1      37.648  29.890  28.470  1.00  0.00     0.029 A 
ATOM     43  C   UNL A   1      38.567  30.780  29.169  1.00  0.00     0.049 A 
ATOM     44  H   UNL A   1      40.574  30.447  29.613  1.00  0.00     0.167 HD
ATOM     45  C   UNL A   1      44.776  29.539  30.493  1.00  0.00     0.031 A 
ATOM     46  C   UNL A   1      38.251  31.993  29.657  1.00  0.00     0.031 A 
ATOM     47  C   UNL A   1      44.525  30.826  31.087  1.00  0.00     0.049 A 
ATOM     48  C   UNL A   1      39.294  32.762  30.408  1.00  0.00     0.074 A 
ATOM     49  C   UNL A   1      45.404  31.652  31.766  1.00  0.00     0.029 A 
ATOM     50  N   UNL A   1      43.300  31.475  31.066  1.00  0.00    -0.354 N 
ATOM     51  N   UNL A   1      40.544  32.442  30.639  1.00  0.00    -0.248 NA
ATOM     52  C   UNL A   1      38.879  34.048  30.983  1.00  0.00     0.031 C 
ATOM     53  C   UNL A   1      44.699  32.785  32.189  1.00  0.00     0.029 A 
ATOM     54  C   UNL A   1      43.394  32.685  31.734  1.00  0.00     0.049 A 
ATOM     55  H   UNL A   1      42.484  31.129  30.639  1.00  0.00     0.167 HD
ATOM     56  C   UNL A   1      41.067  33.485  31.389  1.00  0.00     0.074 A 
ATOM     57  C   UNL A   1      40.004  34.457  31.552  1.00  0.00     0.031 C 
ATOM     58  C   UNL A   1      42.314  33.621  31.901  1.00  0.00     0.031 A 
BRANCH  45  59
ATOM     59  C   UNL A   1      46.158  28.962  30.590  1.00  0.00    -0.014 A 
ATOM     60  C   UNL A   1      47.129  29.227  29.612  1.00  0.00     0.009 A 
ATOM     61  C   UNL A   1      46.505  28.170  31.696  1.00  0.00     0.009 A 
ATOM     62  C   UNL A   1      48.414  28.692  29.731  1.00  0.00     0.001 A 
ATOM     63  C   UNL A   1      47.795  27.652  31.821  1.00  0.00     0.001 A 
ATOM     64  C   UNL A   1      48.747  27.909  30.835  1.00  0.00     0.000 A 
ENDBRANCH  45  59
BRANCH  46  65
ATOM     65  C   UNL A   1      36.875  32.517  29.479  1.00  0.00    -0.014 A 
ATOM     66  C   UNL A   1      36.523  33.212  28.314  1.00  0.00     0.009 A 
ATOM     67  C   UNL A   1      35.894  32.282  30.456  1.00  0.00     0.009 A 
ATOM     68  C   UNL A   1      35.214  33.664  28.133  1.00  0.00     0.001 A 
ATOM     69  C   UNL A   1      34.582  32.714  30.262  1.00  0.00     0.001 A 
ATOM     70  C   UNL A   1      34.244  33.409  29.101  1.00  0.00     0.000 A 
ENDBRANCH  46  65
BRANCH  58  71
ATOM     71  C   UNL A   1      42.584  34.871  32.685  1.00  0.00    -0.014 A 
ATOM     72  C   UNL A   1      42.132  35.000  34.008  1.00  0.00     0.009 A 
ATOM     73  C   UNL A   1      43.317  35.916  32.105  1.00  0.00     0.009 A 
ATOM     74  C   UNL A   1      42.388  36.168  34.726  1.00  0.00     0.001 A 
ATOM     75  C   UNL A   1      43.588  37.075  32.833  1.00  0.00     0.001 A 
ATOM     76  C   UNL A   1      43.117  37.202  34.140  1.00  0.00     0.000 A 
ENDBRANCH  58  71
ENDBRANCH  32  33
ENDBRANCH  25  27
ENDBRANCH  24  25
ENDBRANCH  23  24
ENDBRANCH   1  23
TORSDOF 13
ENDMDL
MODEL 3
REMARK VINA RESULT:     -10.7      2.213      7.771
REMARK SMILES Cc1nn(C)c(=O)c(C(=O)N2CCCC[C@H]2C(=O)OCCOC(=O)c2ccc(-c3c4nc(c(-c5ccccc5)c5ccc([nH]5)c(-c5ccccc5)c5nc(c(-c6ccccc6)c6ccc3[nH]6)C=C5)C=C4)cc2)c1C
REMARK SMILES IDX 20 1 19 2 17 3 18 4 16 5 11 6 12 7 13 8 15 9 14 10 9 11
REMARK SMILES IDX 10 12 8 13 1 14 2 15 3 16 73 17 4 18 74 19 5 20 6 21 7 22
REMARK SMILES IDX 21 23 22 24 23 25 24 26 25 27 26 28 72 29 27 30 71 31 28 32
REMARK SMILES IDX 29 33 30 34 65 35 31 36 70 37 64 38 66 39 32 40 69 41 63 42
REMARK SMILES IDX 62 43 33 45 55 46 40 47 54 48 41 49 44 50 53 51 67 52 42 53
REMARK SMILES IDX 43 54 52 56 68 57 45 58 34 59 35 60 39 61 36 62 38 63 37 64
REMARK SMILES IDX 56 65 57 66 61 67 58 68 60 69 59 70 46 71 47 72 51 73 48 74
REMARK SMILES IDX 50 75 49 76
REMARK H PARENT 66 44 44 55
REMARK Flexibility Score: inf
ROOT
ATOM      1  C   UNL A   1      35.851  21.529  25.787  1.00  0.00     0.274 C 
ENDROOT
BRANCH   1   2
ATOM      2  O   UNL A   1      34.795  22.509  25.704  1.00  0.00    -0.461 OA
BRANCH   2   3
ATOM      3  C   UNL A   1      33.729  22.152  24.943  1.00  0.00     0.328 C 
ATOM      4  O   UNL A   1      33.544  21.009  24.534  1.00  0.00    -0.250 OA
BRANCH   3   5
ATOM      5  C   UNL A   1      32.691  23.283  24.759  1.00  0.00     0.195 C 
ATOM      6  N   UNL A   1      33.074  24.667  25.107  1.00  0.00    -0.325 N 
ATOM      7  C   UNL A   1      34.040  25.301  24.217  1.00  0.00     0.121 C 
ATOM      8  C   UNL A   1      33.594  25.258  22.761  1.00  0.00     0.022 C 
ATOM      9  C   UNL A   1      32.205  23.243  23.290  1.00  0.00     0.037 C 
ATOM     10  C   UNL A   1      33.255  23.832  22.343  1.00  0.00     0.005 C 
BRANCH   6  11
ATOM     11  C   UNL A   1      32.243  25.502  25.855  1.00  0.00     0.260 C 
ATOM     12  O   UNL A   1      31.593  25.081  26.811  1.00  0.00    -0.269 OA
BRANCH  11  13
ATOM     13  C   UNL A   1      31.965  26.871  25.327  1.00  0.00     0.111 A 
ATOM     14  C   UNL A   1      29.812  28.735  22.873  1.00  0.00     0.069 C 
ATOM     15  C   UNL A   1      30.639  28.467  24.111  1.00  0.00     0.062 A 
ATOM     16  N   UNL A   1      31.048  29.497  24.779  1.00  0.00    -0.175 NA
ATOM     17  C   UNL A   1      30.920  27.057  24.498  1.00  0.00    -0.010 A 
ATOM     18  N   UNL A   1      31.914  29.267  25.812  1.00  0.00    -0.232 N 
ATOM     19  C   UNL A   1      29.954  26.020  24.016  1.00  0.00     0.047 C 
ATOM     20  C   UNL A   1      32.216  30.422  26.638  1.00  0.00     0.178 C 
ATOM     21  C   UNL A   1      32.587  28.057  25.989  1.00  0.00     0.279 A 
ATOM     22  O   UNL A   1      33.594  27.936  26.684  1.00  0.00    -0.267 OA
ENDBRANCH  11  13
ENDBRANCH   6  11
ENDBRANCH   3   5
ENDBRANCH   2   3
ENDBRANCH   1   2
BRANCH   1  23
ATOM     23  C   UNL A   1      37.124  22.002  25.073  1.00  0.00     0.275 C 
BRANCH  23  24
ATOM     24  O   UNL A   1      37.694  23.182  25.674  1.00  0.00    -0.458 OA
BRANCH  24  25
ATOM     25  C   UNL A   1      38.930  23.014  26.194  1.00  0.00     0.338 C 
ATOM     26  O   UNL A   1      39.635  22.025  26.111  1.00  0.00    -0.246 OA
BRANCH  25  27
ATOM     27  C   UNL A   1      39.413  24.244  26.824  1.00  0.00     0.060 A 
ATOM     28  C   UNL A   1      39.053  24.500  28.149  1.00  0.00     0.016 A 
ATOM     29  C   UNL A   1      40.082  25.203  26.065  1.00  0.00     0.016 A 
ATOM     30  C   UNL A   1      39.358  25.724  28.726  1.00  0.00     0.010 A 
ATOM     31  C   UNL A   1      40.419  26.422  26.657  1.00  0.00     0.010 A 
ATOM     32  C   UNL A   1      40.060  26.684  27.989  1.00  0.00    -0.014 A 
BRANCH  32  33
ATOM     33  C   UNL A   1      40.470  27.939  28.648  1.00  0.00     0.031 A 
ATOM     34  C   UNL A   1      41.863  28.111  29.167  1.00  0.00     0.074 A 
ATOM     35  C   UNL A   1      39.567  28.930  28.749  1.00  0.00     0.049 A 
ATOM     36  N   UNL A   1      42.359  29.095  29.871  1.00  0.00    -0.248 NA
ATOM     37  C   UNL A   1      42.826  27.045  28.852  1.00  0.00     0.031 C 
ATOM     38  C   UNL A   1      38.206  28.889  28.211  1.00  0.00     0.029 A 
ATOM     39  N   UNL A   1      39.662  30.168  29.328  1.00  0.00    -0.354 N 
ATOM     40  C   UNL A   1      43.686  28.762  30.101  1.00  0.00     0.074 A 
ATOM     41  C   UNL A   1      43.918  27.482  29.465  1.00  0.00     0.031 C 
ATOM     42  C   UNL A   1      37.597  30.056  28.469  1.00  0.00     0.029 A 
ATOM     43  C   UNL A   1      38.502  30.896  29.244  1.00  0.00     0.049 A 
ATOM     44  H   UNL A   1      40.480  30.501  29.761  1.00  0.00     0.167 HD
ATOM     45  C   UNL A   1      44.619  29.464  30.787  1.00  0.00     0.031 A 
ATOM     46  C   UNL A   1      38.190  32.095  29.767  1.00  0.00     0.031 A 
ATOM     47  C   UNL A   1      44.368  30.731  31.422  1.00  0.00     0.049 A 
ATOM     48  C   UNL A   1      39.214  32.810  30.595  1.00  0.00     0.074 A 
ATOM     49  C   UNL A   1      45.232  31.509  32.173  1.00  0.00     0.029 A 
ATOM     50  N   UNL A   1      43.159  31.408  31.374  1.00  0.00    -0.354 N 
ATOM     51  N   UNL A   1      40.445  32.453  30.867  1.00  0.00    -0.248 NA
ATOM     52  C   UNL A   1      38.800  34.080  31.203  1.00  0.00     0.031 C 
ATOM     53  C   UNL A   1      44.533  32.640  32.610  1.00  0.00     0.029 A 
ATOM     54  C   UNL A   1      43.247  32.587  32.095  1.00  0.00     0.049 A 
ATOM     55  H   UNL A   1      42.356  31.098  30.897  1.00  0.00     0.167 HD
ATOM     56  C   UNL A   1      40.956  33.452  31.681  1.00  0.00     0.074 A 
ATOM     57  C   UNL A   1      39.907  34.441  31.837  1.00  0.00     0.031 C 
ATOM     58  C   UNL A   1      42.181  33.540  32.253  1.00  0.00     0.031 A 
BRANCH  45  59
ATOM     59  C   UNL A   1      45.982  28.852  30.920  1.00  0.00    -0.014 A 
ATOM     60  C   UNL A   1      46.308  28.027  32.007  1.00  0.00     0.009 A 
ATOM     61  C   UNL A   1      46.946  29.077  29.923  1.00  0.00     0.009 A 
ATOM     62  C   UNL A   1      47.579  27.456  32.103  1.00  0.00     0.001 A 
ATOM     63  C   UNL A   1      48.209  28.490  30.013  1.00  0.00     0.001 A 
ATOM     64  C   UNL A   1      48.527  27.685  31.106  1.00  0.00     0.000 A 
ENDBRANCH  45  59
BRANCH  46  65
ATOM     65  C   UNL A   1      36.834  32.657  29.551  1.00  0.00    -0.014 A 
ATOM     66  C   UNL A   1      36.529  33.347  28.369  1.00  0.00     0.009 A 
ATOM     67  C   UNL A   1      35.825  32.463  30.507  1.00  0.00     0.009 A 
ATOM     68  C   UNL A   1      35.240  33.835  28.152  1.00  0.00     0.001 A 
ATOM     69  C   UNL A   1      34.531  32.931  30.277  1.00  0.00     0.001 A 
ATOM     70  C   UNL A   1      34.240  33.621  29.101  1.00  0.00     0.000 A 
ENDBRANCH  46  65
BRANCH  58  71
ATOM     71  C   UNL A   1      42.441  34.751  33.099  1.00  0.00    -0.014 A 
ATOM     72  C   UNL A   1      42.069  34.774  34.452  1.00  0.00     0.009 A 
ATOM     73  C   UNL A   1      43.086  35.866  32.545  1.00  0.00     0.009 A 
ATOM     74  C   UNL A   1      42.315  35.907  35.228  1.00  0.00     0.001 A 
ATOM     75  C   UNL A   1      43.348  36.989  33.329  1.00  0.00     0.001 A 
ATOM     76  C   UNL A   1      42.956  37.011  34.668  1.00  0.00     0.000 A 
ENDBRANCH  58  71
ENDBRANCH  32  33
ENDBRANCH  25  27
ENDBRANCH  24  25
ENDBRANCH  23  24
ENDBRANCH   1  23
TORSDOF 13
ENDMDL
