MODEL 1
REMARK VINA RESULT:     -11.0      0.000      0.000
REMARK SMILES Cc1nc(-c2ccc(C(F)(F)F)cc2)nc(SCC(=O)OCCOC(=O)c2ccc(-c3c4nc(c(-c5ccccc5)c5ccc([nH]5)c(-c5ccccc5)c5nc(c(-c6ccccc6)c6ccc3[nH]6)C=C5)C=C4)cc2)c1C
REMARK SMILES IDX 22 1 21 2 19 3 20 4 18 5 17 6 16 7 1 8 2 9 3 10 75 11 4 12
REMARK SMILES IDX 76 13 15 14 5 15 6 16 14 17 7 18 13 19 8 20 9 21 10 22 11 23
REMARK SMILES IDX 12 24 23 25 24 26 25 27 26 28 27 29 28 30 74 31 29 32 73 33
REMARK SMILES IDX 30 34 31 35 32 36 67 37 33 38 72 39 66 40 68 41 34 42 71 43
REMARK SMILES IDX 65 44 64 45 35 47 57 48 42 49 56 50 43 51 46 52 55 53 69 54
REMARK SMILES IDX 44 55 45 56 54 58 70 59 47 60 36 61 37 62 41 63 38 64 40 65
REMARK SMILES IDX 39 66 58 67 59 68 63 69 60 70 62 71 61 72 48 73 49 74 53 75
REMARK SMILES IDX 50 76 52 77 51 78
REMARK H PARENT 68 46 46 57
REMARK Flexibility Score: inf
ROOT
ATOM      1  C   UNL A   1      31.013  29.404  24.541  1.00  0.00     0.274 C 
ENDROOT
BRANCH   1   2
ATOM      2  O   UNL A   1      30.922  27.983  24.286  1.00  0.00    -0.461 OA
BRANCH   2   3
ATOM      3  C   UNL A   1      31.121  27.613  22.998  1.00  0.00     0.316 C 
ATOM      4  O   UNL A   1      30.328  27.849  22.086  1.00  0.00    -0.251 OA
BRANCH   3   5
ATOM      5  C   UNL A   1      32.341  26.768  22.737  1.00  0.00     0.199 C 
BRANCH   5   6
ATOM      6  S   UNL A   1      33.483  26.402  24.088  1.00  0.00    -0.094 SA
BRANCH   6   7
ATOM      7  C   UNL A   1      33.712  24.640  24.243  1.00  0.00     0.104 A 
ATOM      8  C   UNL A   1      32.438  21.099  23.992  1.00  0.00     0.067 C 
ATOM      9  C   UNL A   1      33.274  22.323  24.199  1.00  0.00     0.045 A 
ATOM     10  N   UNL A   1      34.591  22.058  24.210  1.00  0.00    -0.233 NA
ATOM     11  C   UNL A   1      32.774  23.619  24.351  1.00  0.00     0.003 A 
ATOM     12  C   UNL A   1      35.414  23.095  24.367  1.00  0.00     0.160 A 
ATOM     13  C   UNL A   1      31.349  23.862  24.711  1.00  0.00     0.049 C 
ATOM     14  N   UNL A   1      35.033  24.374  24.326  1.00  0.00    -0.221 NA
BRANCH  12  15
ATOM     15  C   UNL A   1      36.740  22.776  24.894  1.00  0.00     0.019 A 
ATOM     16  C   UNL A   1      37.311  21.507  24.723  1.00  0.00     0.012 A 
ATOM     17  C   UNL A   1      37.413  23.706  25.705  1.00  0.00     0.012 A 
ATOM     18  C   UNL A   1      38.511  21.171  25.360  1.00  0.00     0.014 A 
ATOM     19  C   UNL A   1      38.602  23.369  26.357  1.00  0.00     0.014 A 
ATOM     20  C   UNL A   1      39.156  22.092  26.200  1.00  0.00     0.056 A 
BRANCH  20  21
ATOM     21  C   UNL A   1      40.418  21.699  26.926  1.00  0.00     0.416 C 
ATOM     22  F   UNL A   1      41.527  21.799  26.139  1.00  0.00    -0.166 F 
ATOM     23  F   UNL A   1      40.660  22.483  28.012  1.00  0.00    -0.166 F 
ATOM     24  F   UNL A   1      40.406  20.416  27.385  1.00  0.00    -0.166 F 
ENDBRANCH  20  21
ENDBRANCH  12  15
ENDBRANCH   6   7
ENDBRANCH   5   6
ENDBRANCH   3   5
ENDBRANCH   2   3
ENDBRANCH   1   2
BRANCH   1  25
ATOM     25  C   UNL A   1      32.332  29.800  25.200  1.00  0.00     0.275 C 
BRANCH  25  26
ATOM     26  O   UNL A   1      32.125  30.148  26.581  1.00  0.00    -0.458 OA
BRANCH  26  27
ATOM     27  C   UNL A   1      32.794  31.241  27.010  1.00  0.00     0.338 C 
ATOM     28  O   UNL A   1      32.356  32.383  27.069  1.00  0.00    -0.246 OA
BRANCH  27  29
ATOM     29  C   UNL A   1      34.163  30.909  27.473  1.00  0.00     0.060 A 
ATOM     30  C   UNL A   1      34.594  29.592  27.658  1.00  0.00     0.016 A 
ATOM     31  C   UNL A   1      34.987  31.965  27.882  1.00  0.00     0.016 A 
ATOM     32  C   UNL A   1      35.773  29.337  28.365  1.00  0.00     0.010 A 
ATOM     33  C   UNL A   1      36.204  31.707  28.517  1.00  0.00     0.010 A 
ATOM     34  C   UNL A   1      36.593  30.392  28.804  1.00  0.00    -0.014 A 
BRANCH  34  35
ATOM     35  C   UNL A   1      37.860  30.145  29.543  1.00  0.00     0.031 A 
ATOM     36  C   UNL A   1      38.981  29.346  28.927  1.00  0.00     0.074 A 
ATOM     37  C   UNL A   1      38.002  30.607  30.800  1.00  0.00     0.049 A 
ATOM     38  N   UNL A   1      40.041  28.826  29.495  1.00  0.00    -0.248 NA
ATOM     39  C   UNL A   1      38.899  29.099  27.482  1.00  0.00     0.031 C 
ATOM     40  C   UNL A   1      37.031  31.433  31.517  1.00  0.00     0.029 A 
ATOM     41  N   UNL A   1      39.024  30.433  31.698  1.00  0.00    -0.354 N 
ATOM     42  C   UNL A   1      40.725  28.155  28.486  1.00  0.00     0.074 A 
ATOM     43  C   UNL A   1      39.965  28.337  27.268  1.00  0.00     0.031 C 
ATOM     44  C   UNL A   1      37.513  31.716  32.735  1.00  0.00     0.029 A 
ATOM     45  C   UNL A   1      38.783  31.019  32.915  1.00  0.00     0.049 A 
ATOM     46  H   UNL A   1      39.848  29.937  31.491  1.00  0.00     0.167 HD
ATOM     47  C   UNL A   1      41.880  27.453  28.567  1.00  0.00     0.031 A 
ATOM     48  C   UNL A   1      39.470  30.964  34.069  1.00  0.00     0.031 A 
ATOM     49  C   UNL A   1      42.655  27.294  29.768  1.00  0.00     0.049 A 
ATOM     50  C   UNL A   1      40.706  30.123  34.159  1.00  0.00     0.074 A 
ATOM     51  C   UNL A   1      43.836  26.591  29.948  1.00  0.00     0.029 A 
ATOM     52  N   UNL A   1      42.337  27.860  30.990  1.00  0.00    -0.354 N 
ATOM     53  N   UNL A   1      41.285  29.411  33.224  1.00  0.00    -0.248 NA
ATOM     54  C   UNL A   1      41.363  30.057  35.471  1.00  0.00     0.031 C 
ATOM     55  C   UNL A   1      44.218  26.713  31.288  1.00  0.00     0.029 A 
ATOM     56  C   UNL A   1      43.293  27.519  31.932  1.00  0.00     0.049 A 
ATOM     57  H   UNL A   1      41.548  28.423  31.164  1.00  0.00     0.167 HD
ATOM     58  C   UNL A   1      42.372  28.803  33.837  1.00  0.00     0.074 A 
ATOM     59  C   UNL A   1      42.383  29.248  35.216  1.00  0.00     0.031 C 
ATOM     60  C   UNL A   1      43.275  27.947  33.304  1.00  0.00     0.031 A 
BRANCH  47  61
ATOM     61  C   UNL A   1      42.374  26.770  27.323  1.00  0.00    -0.014 A 
ATOM     62  C   UNL A   1      43.357  27.358  26.513  1.00  0.00     0.009 A 
ATOM     63  C   UNL A   1      41.903  25.487  27.001  1.00  0.00     0.009 A 
ATOM     64  C   UNL A   1      43.851  26.678  25.397  1.00  0.00     0.001 A 
ATOM     65  C   UNL A   1      42.410  24.804  25.894  1.00  0.00     0.001 A 
ATOM     66  C   UNL A   1      43.381  25.400  25.092  1.00  0.00     0.000 A 
ENDBRANCH  47  61
BRANCH  48  67
ATOM     67  C   UNL A   1      38.947  31.690  35.250  1.00  0.00    -0.014 A 
ATOM     68  C   UNL A   1      39.180  33.064  35.395  1.00  0.00     0.009 A 
ATOM     69  C   UNL A   1      38.154  31.023  36.198  1.00  0.00     0.009 A 
ATOM     70  C   UNL A   1      38.620  33.760  36.468  1.00  0.00     0.001 A 
ATOM     71  C   UNL A   1      37.580  31.726  37.256  1.00  0.00     0.001 A 
ATOM     72  C   UNL A   1      37.814  33.093  37.392  1.00  0.00     0.000 A 
ENDBRANCH  48  67
BRANCH  60  73
ATOM     73  C   UNL A   1      44.346  27.437  34.219  1.00  0.00    -0.014 A 
ATOM     74  C   UNL A   1      44.162  26.250  34.944  1.00  0.00     0.009 A 
ATOM     75  C   UNL A   1      45.554  28.138  34.344  1.00  0.00     0.009 A 
ATOM     76  C   UNL A   1      45.162  25.788  35.801  1.00  0.00     0.001 A 
ATOM     77  C   UNL A   1      46.558  27.665  35.189  1.00  0.00     0.001 A 
ATOM     78  C   UNL A   1      46.358  26.496  35.922  1.00  0.00     0.000 A 
ENDBRANCH  60  73
ENDBRANCH  34  35
ENDBRANCH  27  29
ENDBRANCH  26  27
ENDBRANCH  25  26
ENDBRANCH   1  25
TORSDOF 15
ENDMDL
MODEL 2
REMARK VINA RESULT:     -10.7      3.943      7.166
REMARK SMILES Cc1nc(-c2ccc(C(F)(F)F)cc2)nc(SCC(=O)OCCOC(=O)c2ccc(-c3c4nc(c(-c5ccccc5)c5ccc([nH]5)c(-c5ccccc5)c5nc(c(-c6ccccc6)c6ccc3[nH]6)C=C5)C=C4)cc2)c1C
REMARK SMILES IDX 22 1 21 2 19 3 20 4 18 5 17 6 16 7 1 8 2 9 3 10 75 11 4 12
REMARK SMILES IDX 76 13 15 14 5 15 6 16 14 17 7 18 13 19 8 20 9 21 10 22 11 23
REMARK SMILES IDX 12 24 23 25 24 26 25 27 26 28 27 29 28 30 74 31 29 32 73 33
REMARK SMILES IDX 30 34 31 35 32 36 67 37 33 38 72 39 66 40 68 41 34 42 71 43
REMARK SMILES IDX 65 44 64 45 35 47 57 48 42 49 56 50 43 51 46 52 55 53 69 54
REMARK SMILES IDX 44 55 45 56 54 58 70 59 47 60 36 61 37 62 41 63 38 64 40 65
REMARK SMILES IDX 39 66 58 67 59 68 63 69 60 70 62 71 61 72 48 73 49 74 53 75
REMARK SMILES IDX 50 76 52 77 51 78
REMARK H PARENT 68 46 46 57
REMARK Flexibility Score: inf
ROOT
ATOM      1  C   UNL A   1      32.557  29.770  26.115  1.00  0.00     0.274 C 
ENDROOT
BRANCH   1   2
ATOM      2  O   UNL A   1      33.300  28.706  25.477  1.00  0.00    -0.461 OA
BRANCH   2   3
ATOM      3  C   UNL A   1      33.199  27.493  26.073  1.00  0.00     0.316 C 
ATOM      4  O   UNL A   1      34.070  26.625  26.014  1.00  0.00    -0.251 OA
BRANCH   3   5
ATOM      5  C   UNL A   1      31.880  27.196  26.738  1.00  0.00     0.199 C 
BRANCH   5   6
ATOM      6  S   UNL A   1      30.892  25.789  26.182  1.00  0.00    -0.094 SA
BRANCH   6   7
ATOM      7  C   UNL A   1      31.595  25.088  24.700  1.00  0.00     0.104 A 
ATOM      8  C   UNL A   1      32.708  25.368  21.107  1.00  0.00     0.067 C 
ATOM      9  C   UNL A   1      32.398  24.890  22.492  1.00  0.00     0.045 A 
ATOM     10  N   UNL A   1      33.070  23.773  22.819  1.00  0.00    -0.233 NA
ATOM     11  C   UNL A   1      31.525  25.522  23.381  1.00  0.00     0.003 A 
ATOM     12  C   UNL A   1      32.871  23.287  24.044  1.00  0.00     0.160 A 
ATOM     13  C   UNL A   1      30.519  26.513  22.906  1.00  0.00     0.049 C 
ATOM     14  N   UNL A   1      32.211  23.928  25.012  1.00  0.00    -0.221 NA
BRANCH  12  15
ATOM     15  C   UNL A   1      33.154  21.863  24.213  1.00  0.00     0.019 A 
ATOM     16  C   UNL A   1      34.340  21.417  24.814  1.00  0.00     0.012 A 
ATOM     17  C   UNL A   1      32.291  20.906  23.651  1.00  0.00     0.012 A 
ATOM     18  C   UNL A   1      34.664  20.057  24.832  1.00  0.00     0.014 A 
ATOM     19  C   UNL A   1      32.620  19.548  23.652  1.00  0.00     0.014 A 
ATOM     20  C   UNL A   1      33.818  19.111  24.233  1.00  0.00     0.056 A 
BRANCH  20  21
ATOM     21  C   UNL A   1      34.205  17.654  24.209  1.00  0.00     0.416 C 
ATOM     22  F   UNL A   1      33.383  16.882  24.975  1.00  0.00    -0.166 F 
ATOM     23  F   UNL A   1      34.158  17.123  22.957  1.00  0.00    -0.166 F 
ATOM     24  F   UNL A   1      35.466  17.418  24.669  1.00  0.00    -0.166 F 
ENDBRANCH  20  21
ENDBRANCH  12  15
ENDBRANCH   6   7
ENDBRANCH   5   6
ENDBRANCH   3   5
ENDBRANCH   2   3
ENDBRANCH   1   2
BRANCH   1  25
ATOM     25  C   UNL A   1      33.462  30.781  26.815  1.00  0.00     0.275 C 
BRANCH  25  26
ATOM     26  O   UNL A   1      33.933  30.257  28.071  1.00  0.00    -0.458 OA
BRANCH  26  27
ATOM     27  C   UNL A   1      34.937  30.952  28.648  1.00  0.00     0.338 C 
ATOM     28  O   UNL A   1      34.863  32.084  29.111  1.00  0.00    -0.246 OA
BRANCH  27  29
ATOM     29  C   UNL A   1      36.190  30.163  28.720  1.00  0.00     0.060 A 
ATOM     30  C   UNL A   1      36.626  29.554  29.900  1.00  0.00     0.016 A 
ATOM     31  C   UNL A   1      37.030  30.170  27.600  1.00  0.00     0.016 A 
ATOM     32  C   UNL A   1      37.937  29.077  29.995  1.00  0.00     0.010 A 
ATOM     33  C   UNL A   1      38.312  29.621  27.674  1.00  0.00     0.010 A 
ATOM     34  C   UNL A   1      38.797  29.105  28.884  1.00  0.00    -0.014 A 
BRANCH  34  35
ATOM     35  C   UNL A   1      40.190  28.588  28.956  1.00  0.00     0.031 A 
ATOM     36  C   UNL A   1      41.340  29.490  29.330  1.00  0.00     0.074 A 
ATOM     37  C   UNL A   1      40.443  27.303  28.646  1.00  0.00     0.049 A 
ATOM     38  N   UNL A   1      42.629  29.287  29.209  1.00  0.00    -0.248 NA
ATOM     39  C   UNL A   1      40.995  30.791  29.917  1.00  0.00     0.031 C 
ATOM     40  C   UNL A   1      39.437  26.295  28.310  1.00  0.00     0.029 A 
ATOM     41  N   UNL A   1      41.636  26.631  28.554  1.00  0.00    -0.354 N 
ATOM     42  C   UNL A   1      43.243  30.449  29.663  1.00  0.00     0.074 A 
ATOM     43  C   UNL A   1      42.188  31.354  30.067  1.00  0.00     0.031 C 
ATOM     44  C   UNL A   1      40.051  25.127  28.074  1.00  0.00     0.029 A 
ATOM     45  C   UNL A   1      41.494  25.326  28.155  1.00  0.00     0.049 A 
ATOM     46  H   UNL A   1      42.506  27.043  28.755  1.00  0.00     0.167 HD
ATOM     47  C   UNL A   1      44.564  30.738  29.736  1.00  0.00     0.031 A 
ATOM     48  C   UNL A   1      42.414  24.400  27.833  1.00  0.00     0.031 A 
ATOM     49  C   UNL A   1      45.618  29.832  29.364  1.00  0.00     0.049 A 
ATOM     50  C   UNL A   1      43.868  24.759  27.850  1.00  0.00     0.074 A 
ATOM     51  C   UNL A   1      46.987  30.040  29.396  1.00  0.00     0.029 A 
ATOM     52  N   UNL A   1      45.420  28.541  28.909  1.00  0.00    -0.354 N 
ATOM     53  N   UNL A   1      44.430  25.895  28.182  1.00  0.00    -0.248 NA
ATOM     54  C   UNL A   1      44.809  23.718  27.419  1.00  0.00     0.031 C 
ATOM     55  C   UNL A   1      47.618  28.879  28.935  1.00  0.00     0.029 A 
ATOM     56  C   UNL A   1      46.640  27.939  28.650  1.00  0.00     0.049 A 
ATOM     57  H   UNL A   1      44.542  28.111  28.788  1.00  0.00     0.167 HD
ATOM     58  C   UNL A   1      45.791  25.709  27.992  1.00  0.00     0.074 A 
ATOM     59  C   UNL A   1      45.971  24.345  27.537  1.00  0.00     0.031 C 
ATOM     60  C   UNL A   1      46.801  26.593  28.172  1.00  0.00     0.031 A 
BRANCH  47  61
ATOM     61  C   UNL A   1      44.958  32.107  30.215  1.00  0.00    -0.014 A 
ATOM     62  C   UNL A   1      45.074  33.183  29.323  1.00  0.00     0.009 A 
ATOM     63  C   UNL A   1      45.138  32.337  31.588  1.00  0.00     0.009 A 
ATOM     64  C   UNL A   1      45.376  34.462  29.797  1.00  0.00     0.001 A 
ATOM     65  C   UNL A   1      45.424  33.619  32.060  1.00  0.00     0.001 A 
ATOM     66  C   UNL A   1      45.545  34.680  31.165  1.00  0.00     0.000 A 
ENDBRANCH  47  61
BRANCH  48  67
ATOM     67  C   UNL A   1      41.959  23.057  27.403  1.00  0.00    -0.014 A 
ATOM     68  C   UNL A   1      42.032  22.685  26.053  1.00  0.00     0.009 A 
ATOM     69  C   UNL A   1      41.517  22.121  28.351  1.00  0.00     0.009 A 
ATOM     70  C   UNL A   1      41.676  21.394  25.662  1.00  0.00     0.001 A 
ATOM     71  C   UNL A   1      41.183  20.825  27.958  1.00  0.00     0.001 A 
ATOM     72  C   UNL A   1      41.261  20.463  26.615  1.00  0.00     0.000 A 
ENDBRANCH  48  67
BRANCH  60  73
ATOM     73  C   UNL A   1      48.186  26.108  27.873  1.00  0.00    -0.014 A 
ATOM     74  C   UNL A   1      48.750  26.293  26.602  1.00  0.00     0.009 A 
ATOM     75  C   UNL A   1      48.940  25.477  28.874  1.00  0.00     0.009 A 
ATOM     76  C   UNL A   1      50.038  25.829  26.330  1.00  0.00     0.001 A 
ATOM     77  C   UNL A   1      50.233  25.029  28.604  1.00  0.00     0.001 A 
ATOM     78  C   UNL A   1      50.778  25.198  27.332  1.00  0.00     0.000 A 
ENDBRANCH  60  73
ENDBRANCH  34  35
ENDBRANCH  27  29
ENDBRANCH  26  27
ENDBRANCH  25  26
ENDBRANCH   1  25
TORSDOF 15
ENDMDL
MODEL 3
REMARK VINA RESULT:     -10.6      4.956      8.763
REMARK SMILES Cc1nc(-c2ccc(C(F)(F)F)cc2)nc(SCC(=O)OCCOC(=O)c2ccc(-c3c4nc(c(-c5ccccc5)c5ccc([nH]5)c(-c5ccccc5)c5nc(c(-c6ccccc6)c6ccc3[nH]6)C=C5)C=C4)cc2)c1C
REMARK SMILES IDX 22 1 21 2 19 3 20 4 18 5 17 6 16 7 1 8 2 9 3 10 75 11 4 12
REMARK SMILES IDX 76 13 15 14 5 15 6 16 14 17 7 18 13 19 8 20 9 21 10 22 11 23
REMARK SMILES IDX 12 24 23 25 24 26 25 27 26 28 27 29 28 30 74 31 29 32 73 33
REMARK SMILES IDX 30 34 31 35 32 36 67 37 33 38 72 39 66 40 68 41 34 42 71 43
REMARK SMILES IDX 65 44 64 45 35 47 57 48 42 49 56 50 43 51 46 52 55 53 69 54
REMARK SMILES IDX 44 55 45 56 54 58 70 59 47 60 36 61 37 62 41 63 38 64 40 65
REMARK SMILES IDX 39 66 58 67 59 68 63 69 60 70 62 71 61 72 48 73 49 74 53 75
REMARK SMILES IDX 50 76 52 77 51 78
REMARK H PARENT 68 46 46 57
REMARK Flexibility Score: inf
ROOT
ATOM      1  C   UNL A   1      35.548  34.189  32.971  1.00  0.00     0.274 C 
ENDROOT
BRANCH   1   2
ATOM      2  O   UNL A   1      34.140  34.513  32.937  1.00  0.00    -0.461 OA
BRANCH   2   3
ATOM      3  C   UNL A   1      33.649  34.830  31.715  1.00  0.00     0.316 C 
ATOM      4  O   UNL A   1      32.515  35.270  31.523  1.00  0.00    -0.251 OA
BRANCH   3   5
ATOM      5  C   UNL A   1      34.538  34.498  30.544  1.00  0.00     0.199 C 
BRANCH   5   6
ATOM      6  S   UNL A   1      33.801  34.081  28.948  1.00  0.00    -0.094 SA
BRANCH   6   7
ATOM      7  C   UNL A   1      34.534  32.590  28.299  1.00  0.00     0.104 A 
ATOM      8  C   UNL A   1      37.370  30.113  28.090  1.00  0.00     0.067 C 
ATOM      9  C   UNL A   1      36.077  30.848  27.920  1.00  0.00     0.045 A 
ATOM     10  N   UNL A   1      35.106  30.078  27.402  1.00  0.00    -0.233 NA
ATOM     11  C   UNL A   1      35.864  32.185  28.268  1.00  0.00     0.003 A 
ATOM     12  C   UNL A   1      33.911  30.646  27.236  1.00  0.00     0.160 A 
ATOM     13  C   UNL A   1      37.003  33.121  28.479  1.00  0.00     0.049 C 
ATOM     14  N   UNL A   1      33.572  31.845  27.715  1.00  0.00    -0.221 NA
BRANCH  12  15
ATOM     15  C   UNL A   1      33.049  30.023  26.232  1.00  0.00     0.019 A 
ATOM     16  C   UNL A   1      33.520  29.005  25.392  1.00  0.00     0.012 A 
ATOM     17  C   UNL A   1      31.759  30.534  26.004  1.00  0.00     0.012 A 
ATOM     18  C   UNL A   1      32.733  28.525  24.340  1.00  0.00     0.014 A 
ATOM     19  C   UNL A   1      30.977  30.070  24.943  1.00  0.00     0.014 A 
ATOM     20  C   UNL A   1      31.462  29.068  24.092  1.00  0.00     0.056 A 
BRANCH  20  21
ATOM     21  C   UNL A   1      30.646  28.583  22.921  1.00  0.00     0.416 C 
ATOM     22  F   UNL A   1      29.315  28.510  23.205  1.00  0.00    -0.166 F 
ATOM     23  F   UNL A   1      30.752  29.400  21.838  1.00  0.00    -0.166 F 
ATOM     24  F   UNL A   1      30.999  27.339  22.489  1.00  0.00    -0.166 F 
ENDBRANCH  20  21
ENDBRANCH  12  15
ENDBRANCH   6   7
ENDBRANCH   5   6
ENDBRANCH   3   5
ENDBRANCH   2   3
ENDBRANCH   1   2
BRANCH   1  25
ATOM     25  C   UNL A   1      35.998  33.658  34.330  1.00  0.00     0.275 C 
BRANCH  25  26
ATOM     26  O   UNL A   1      37.409  33.375  34.323  1.00  0.00    -0.458 OA
BRANCH  26  27
ATOM     27  C   UNL A   1      37.744  32.095  34.595  1.00  0.00     0.338 C 
ATOM     28  O   UNL A   1      37.449  31.466  35.603  1.00  0.00    -0.246 OA
BRANCH  27  29
ATOM     29  C   UNL A   1      38.500  31.469  33.483  1.00  0.00     0.060 A 
ATOM     30  C   UNL A   1      39.481  30.496  33.698  1.00  0.00     0.016 A 
ATOM     31  C   UNL A   1      38.322  31.992  32.197  1.00  0.00     0.016 A 
ATOM     32  C   UNL A   1      40.360  30.153  32.665  1.00  0.00     0.010 A 
ATOM     33  C   UNL A   1      39.150  31.588  31.148  1.00  0.00     0.010 A 
ATOM     34  C   UNL A   1      40.206  30.695  31.377  1.00  0.00    -0.014 A 
BRANCH  34  35
ATOM     35  C   UNL A   1      41.117  30.332  30.259  1.00  0.00     0.031 A 
ATOM     36  C   UNL A   1      40.976  29.019  29.531  1.00  0.00     0.074 A 
ATOM     37  C   UNL A   1      42.113  31.168  29.910  1.00  0.00     0.049 A 
ATOM     38  N   UNL A   1      41.811  28.429  28.712  1.00  0.00    -0.248 NA
ATOM     39  C   UNL A   1      39.732  28.271  29.753  1.00  0.00     0.031 C 
ATOM     40  C   UNL A   1      42.354  32.491  30.485  1.00  0.00     0.029 A 
ATOM     41  N   UNL A   1      43.118  31.015  28.988  1.00  0.00    -0.354 N 
ATOM     42  C   UNL A   1      41.213  27.224  28.358  1.00  0.00     0.074 A 
ATOM     43  C   UNL A   1      39.941  27.167  29.046  1.00  0.00     0.031 C 
ATOM     44  C   UNL A   1      43.420  33.041  29.887  1.00  0.00     0.029 A 
ATOM     45  C   UNL A   1      43.987  32.075  28.952  1.00  0.00     0.049 A 
ATOM     46  H   UNL A   1      43.205  30.224  28.409  1.00  0.00     0.167 HD
ATOM     47  C   UNL A   1      41.679  26.254  27.536  1.00  0.00     0.031 A 
ATOM     48  C   UNL A   1      45.145  32.241  28.288  1.00  0.00     0.031 A 
ATOM     49  C   UNL A   1      42.929  26.319  26.826  1.00  0.00     0.049 A 
ATOM     50  C   UNL A   1      45.681  31.129  27.441  1.00  0.00     0.074 A 
ATOM     51  C   UNL A   1      43.489  25.379  25.976  1.00  0.00     0.029 A 
ATOM     52  N   UNL A   1      43.802  27.391  26.869  1.00  0.00    -0.354 N 
ATOM     53  N   UNL A   1      45.155  29.954  27.197  1.00  0.00    -0.248 NA
ATOM     54  C   UNL A   1      46.984  31.356  26.803  1.00  0.00     0.031 C 
ATOM     55  C   UNL A   1      44.717  25.875  25.524  1.00  0.00     0.029 A 
ATOM     56  C   UNL A   1      44.902  27.136  26.067  1.00  0.00     0.049 A 
ATOM     57  H   UNL A   1      43.664  28.214  27.391  1.00  0.00     0.167 HD
ATOM     58  C   UNL A   1      46.067  29.297  26.383  1.00  0.00     0.074 A 
ATOM     59  C   UNL A   1      47.167  30.212  26.158  1.00  0.00     0.031 C 
ATOM     60  C   UNL A   1      46.000  28.044  25.875  1.00  0.00     0.031 A 
BRANCH  47  61
ATOM     61  C   UNL A   1      40.848  25.014  27.373  1.00  0.00    -0.014 A 
ATOM     62  C   UNL A   1      39.674  25.022  26.604  1.00  0.00     0.009 A 
ATOM     63  C   UNL A   1      41.289  23.803  27.932  1.00  0.00     0.009 A 
ATOM     64  C   UNL A   1      38.951  23.842  26.410  1.00  0.00     0.001 A 
ATOM     65  C   UNL A   1      40.572  22.624  27.722  1.00  0.00     0.001 A 
ATOM     66  C   UNL A   1      39.403  22.644  26.964  1.00  0.00     0.000 A 
ENDBRANCH  47  61
BRANCH  48  67
ATOM     67  C   UNL A   1      45.899  33.504  28.466  1.00  0.00    -0.014 A 
ATOM     68  C   UNL A   1      45.662  34.593  27.616  1.00  0.00     0.009 A 
ATOM     69  C   UNL A   1      46.805  33.645  29.528  1.00  0.00     0.009 A 
ATOM     70  C   UNL A   1      46.317  35.806  27.834  1.00  0.00     0.001 A 
ATOM     71  C   UNL A   1      47.441  34.865  29.755  1.00  0.00     0.001 A 
ATOM     72  C   UNL A   1      47.198  35.944  28.907  1.00  0.00     0.000 A 
ENDBRANCH  48  67
BRANCH  60  73
ATOM     73  C   UNL A   1      47.152  27.595  25.029  1.00  0.00    -0.014 A 
ATOM     74  C   UNL A   1      48.203  26.853  25.588  1.00  0.00     0.009 A 
ATOM     75  C   UNL A   1      47.177  27.899  23.660  1.00  0.00     0.009 A 
ATOM     76  C   UNL A   1      49.276  26.447  24.793  1.00  0.00     0.001 A 
ATOM     77  C   UNL A   1      48.243  27.478  22.865  1.00  0.00     0.001 A 
ATOM     78  C   UNL A   1      49.294  26.759  23.433  1.00  0.00     0.000 A 
ENDBRANCH  60  73
ENDBRANCH  34  35
ENDBRANCH  27  29
ENDBRANCH  26  27
ENDBRANCH  25  26
ENDBRANCH   1  25
TORSDOF 15
ENDMDL
