MODEL 1
REMARK VINA RESULT:     -10.6      0.000      0.000
REMARK SMILES COc1ccc(C(=O)c2c(OC)cccc2C(=O)OCCOC(=O)c2ccc(-c3c4nc(c(-c5ccccc5)c5ccc([nH]5)c(-c5ccccc5)c5nc(c(-c6ccccc6)c6ccc3[nH]6)C=C5)C=C4)cc2)cc1
REMARK SMILES IDX 20 1 19 2 17 3 18 4 16 5 9 6 10 7 13 8 15 9 14 10 7 11 8 12
REMARK SMILES IDX 6 13 3 14 4 15 74 16 5 17 73 18 2 19 1 20 11 21 12 22 21 23
REMARK SMILES IDX 22 24 23 25 24 26 25 27 26 28 72 29 27 30 71 31 28 32 29 33
REMARK SMILES IDX 30 34 65 35 31 36 70 37 64 38 66 39 32 40 69 41 63 42 62 43
REMARK SMILES IDX 33 45 55 46 40 47 54 48 41 49 44 50 53 51 67 52 42 53 43 54
REMARK SMILES IDX 52 56 68 57 45 58 34 59 35 60 39 61 36 62 38 63 37 64 56 65
REMARK SMILES IDX 57 66 61 67 58 68 60 69 59 70 46 71 47 72 51 73 48 74 50 75
REMARK SMILES IDX 49 76
REMARK H PARENT 66 44 44 55
REMARK Flexibility Score: inf
ROOT
ATOM      1  C   UNL A   1      32.298  30.170  27.112  1.00  0.00     0.275 C 
ENDROOT
BRANCH   1   2
ATOM      2  O   UNL A   1      31.657  29.280  26.171  1.00  0.00    -0.458 OA
BRANCH   2   3
ATOM      3  C   UNL A   1      31.550  27.987  26.551  1.00  0.00     0.339 C 
ATOM      4  O   UNL A   1      31.001  27.562  27.555  1.00  0.00    -0.246 OA
BRANCH   3   5
ATOM      5  C   UNL A   1      32.199  27.068  25.587  1.00  0.00     0.075 A 
ATOM      6  C   UNL A   1      31.558  26.570  24.436  1.00  0.00     0.079 A 
ATOM      7  C   UNL A   1      32.294  25.771  23.537  1.00  0.00     0.130 A 
ATOM      8  C   UNL A   1      33.634  25.460  23.821  1.00  0.00     0.047 A 
ATOM      9  C   UNL A   1      33.561  26.793  25.811  1.00  0.00     0.017 A 
ATOM     10  C   UNL A   1      34.269  25.970  24.945  1.00  0.00     0.005 A 
BRANCH   6  11
ATOM     11  C   UNL A   1      30.117  26.819  24.228  1.00  0.00     0.197 C 
ATOM     12  O   UNL A   1      29.319  26.093  24.817  1.00  0.00    -0.288 OA
BRANCH  11  13
ATOM     13  C   UNL A   1      29.610  27.928  23.365  1.00  0.00     0.023 A 
ATOM     14  C   UNL A   1      28.539  30.132  21.985  1.00  0.00     0.118 A 
ATOM     15  C   UNL A   1      27.698  29.231  22.641  1.00  0.00     0.047 A 
ATOM     16  C   UNL A   1      29.915  29.909  21.991  1.00  0.00     0.047 A 
ATOM     17  C   UNL A   1      28.227  28.137  23.326  1.00  0.00     0.016 A 
ATOM     18  C   UNL A   1      30.450  28.798  22.658  1.00  0.00     0.016 A 
BRANCH  14  19
ATOM     19  O   UNL A   1      27.896  31.183  21.394  1.00  0.00    -0.497 OA
ATOM     20  C   UNL A   1      28.452  32.476  21.597  1.00  0.00     0.278 C 
ENDBRANCH  14  19
ENDBRANCH  11  13
ENDBRANCH   6  11
BRANCH   7  21
ATOM     21  O   UNL A   1      31.875  25.189  22.370  1.00  0.00    -0.496 OA
ATOM     22  C   UNL A   1      32.459  25.629  21.152  1.00  0.00     0.278 C 
ENDBRANCH   7  21
ENDBRANCH   3   5
ENDBRANCH   2   3
ENDBRANCH   1   2
BRANCH   1  23
ATOM     23  C   UNL A   1      31.823  31.608  26.928  1.00  0.00     0.275 C 
BRANCH  23  24
ATOM     24  O   UNL A   1      32.960  32.474  26.783  1.00  0.00    -0.458 OA
BRANCH  24  25
ATOM     25  C   UNL A   1      33.099  33.397  27.757  1.00  0.00     0.338 C 
ATOM     26  O   UNL A   1      32.298  34.247  28.114  1.00  0.00    -0.246 OA
BRANCH  25  27
ATOM     27  C   UNL A   1      34.374  33.181  28.445  1.00  0.00     0.060 A 
ATOM     28  C   UNL A   1      35.519  33.742  27.890  1.00  0.00     0.016 A 
ATOM     29  C   UNL A   1      34.465  32.305  29.521  1.00  0.00     0.016 A 
ATOM     30  C   UNL A   1      36.775  33.349  28.329  1.00  0.00     0.010 A 
ATOM     31  C   UNL A   1      35.727  31.991  30.033  1.00  0.00     0.010 A 
ATOM     32  C   UNL A   1      36.897  32.472  29.413  1.00  0.00    -0.014 A 
BRANCH  32  33
ATOM     33  C   UNL A   1      38.238  32.016  29.863  1.00  0.00     0.031 A 
ATOM     34  C   UNL A   1      38.807  30.729  29.329  1.00  0.00     0.074 A 
ATOM     35  C   UNL A   1      38.955  32.748  30.738  1.00  0.00     0.049 A 
ATOM     36  N   UNL A   1      39.842  30.045  29.745  1.00  0.00    -0.248 NA
ATOM     37  C   UNL A   1      38.105  30.121  28.186  1.00  0.00     0.031 C 
ATOM     38  C   UNL A   1      38.560  34.048  31.286  1.00  0.00     0.029 A 
ATOM     39  N   UNL A   1      40.173  32.500  31.320  1.00  0.00    -0.354 N 
ATOM     40  C   UNL A   1      39.872  28.895  28.966  1.00  0.00     0.074 A 
ATOM     41  C   UNL A   1      38.753  28.974  28.053  1.00  0.00     0.031 C 
ATOM     42  C   UNL A   1      39.530  34.497  32.095  1.00  0.00     0.029 A 
ATOM     43  C   UNL A   1      40.565  33.476  32.201  1.00  0.00     0.049 A 
ATOM     44  H   UNL A   1      40.713  31.701  31.123  1.00  0.00     0.167 HD
ATOM     45  C   UNL A   1      40.748  27.863  29.017  1.00  0.00     0.031 A 
ATOM     46  C   UNL A   1      41.610  33.525  33.050  1.00  0.00     0.031 A 
ATOM     47  C   UNL A   1      41.882  27.812  29.902  1.00  0.00     0.049 A 
ATOM     48  C   UNL A   1      42.545  32.355  33.121  1.00  0.00     0.074 A 
ATOM     49  C   UNL A   1      42.838  26.818  30.028  1.00  0.00     0.029 A 
ATOM     50  N   UNL A   1      42.221  28.810  30.804  1.00  0.00    -0.354 N 
ATOM     51  N   UNL A   1      42.525  31.241  32.431  1.00  0.00    -0.248 NA
ATOM     52  C   UNL A   1      43.636  32.442  34.101  1.00  0.00     0.031 C 
ATOM     53  C   UNL A   1      43.731  27.197  31.036  1.00  0.00     0.029 A 
ATOM     54  C   UNL A   1      43.362  28.450  31.501  1.00  0.00     0.049 A 
ATOM     55  H   UNL A   1      41.724  29.650  30.929  1.00  0.00     0.167 HD
ATOM     56  C   UNL A   1      43.603  30.495  32.887  1.00  0.00     0.074 A 
ATOM     57  C   UNL A   1      44.268  31.295  33.897  1.00  0.00     0.031 C 
ATOM     58  C   UNL A   1      44.003  29.256  32.507  1.00  0.00     0.031 A 
BRANCH  45  59
ATOM     59  C   UNL A   1      40.472  26.679  28.130  1.00  0.00    -0.014 A 
ATOM     60  C   UNL A   1      39.630  25.631  28.530  1.00  0.00     0.009 A 
ATOM     61  C   UNL A   1      41.073  26.617  26.861  1.00  0.00     0.009 A 
ATOM     62  C   UNL A   1      39.431  24.526  27.697  1.00  0.00     0.001 A 
ATOM     63  C   UNL A   1      40.849  25.528  26.019  1.00  0.00     0.001 A 
ATOM     64  C   UNL A   1      40.038  24.477  26.442  1.00  0.00     0.000 A 
ENDBRANCH  45  59
BRANCH  46  65
ATOM     65  C   UNL A   1      41.778  34.705  33.938  1.00  0.00    -0.014 A 
ATOM     66  C   UNL A   1      42.550  35.802  33.530  1.00  0.00     0.009 A 
ATOM     67  C   UNL A   1      41.134  34.754  35.185  1.00  0.00     0.009 A 
ATOM     68  C   UNL A   1      42.676  36.922  34.355  1.00  0.00     0.001 A 
ATOM     69  C   UNL A   1      41.236  35.887  35.994  1.00  0.00     0.001 A 
ATOM     70  C   UNL A   1      42.012  36.968  35.581  1.00  0.00     0.000 A 
ENDBRANCH  46  65
BRANCH  58  71
ATOM     71  C   UNL A   1      45.233  28.708  33.171  1.00  0.00    -0.014 A 
ATOM     72  C   UNL A   1      45.146  27.930  34.335  1.00  0.00     0.009 A 
ATOM     73  C   UNL A   1      46.494  28.954  32.604  1.00  0.00     0.009 A 
ATOM     74  C   UNL A   1      46.304  27.435  34.938  1.00  0.00     0.001 A 
ATOM     75  C   UNL A   1      47.647  28.436  33.195  1.00  0.00     0.001 A 
ATOM     76  C   UNL A   1      47.552  27.684  34.366  1.00  0.00     0.000 A 
ENDBRANCH  58  71
ENDBRANCH  32  33
ENDBRANCH  25  27
ENDBRANCH  24  25
ENDBRANCH  23  24
ENDBRANCH   1  23
TORSDOF 15
ENDMDL
MODEL 2
REMARK VINA RESULT:     -10.4      4.596      8.984
REMARK SMILES COc1ccc(C(=O)c2c(OC)cccc2C(=O)OCCOC(=O)c2ccc(-c3c4nc(c(-c5ccccc5)c5ccc([nH]5)c(-c5ccccc5)c5nc(c(-c6ccccc6)c6ccc3[nH]6)C=C5)C=C4)cc2)cc1
REMARK SMILES IDX 20 1 19 2 17 3 18 4 16 5 9 6 10 7 13 8 15 9 14 10 7 11 8 12
REMARK SMILES IDX 6 13 3 14 4 15 74 16 5 17 73 18 2 19 1 20 11 21 12 22 21 23
REMARK SMILES IDX 22 24 23 25 24 26 25 27 26 28 72 29 27 30 71 31 28 32 29 33
REMARK SMILES IDX 30 34 65 35 31 36 70 37 64 38 66 39 32 40 69 41 63 42 62 43
REMARK SMILES IDX 33 45 55 46 40 47 54 48 41 49 44 50 53 51 67 52 42 53 43 54
REMARK SMILES IDX 52 56 68 57 45 58 34 59 35 60 39 61 36 62 38 63 37 64 56 65
REMARK SMILES IDX 57 66 61 67 58 68 60 69 59 70 46 71 47 72 51 73 48 74 50 75
REMARK SMILES IDX 49 76
REMARK H PARENT 66 44 44 55
REMARK Flexibility Score: inf
ROOT
ATOM      1  C   UNL A   1      35.647  21.262  25.061  1.00  0.00     0.275 C 
ENDROOT
BRANCH   1   2
ATOM      2  O   UNL A   1      35.708  22.323  26.041  1.00  0.00    -0.458 OA
BRANCH   2   3
ATOM      3  C   UNL A   1      34.529  22.704  26.581  1.00  0.00     0.339 C 
ATOM      4  O   UNL A   1      34.039  22.304  27.625  1.00  0.00    -0.246 OA
BRANCH   3   5
ATOM      5  C   UNL A   1      33.834  23.712  25.746  1.00  0.00     0.075 A 
ATOM      6  C   UNL A   1      32.521  23.549  25.264  1.00  0.00     0.079 A 
ATOM      7  C   UNL A   1      31.919  24.605  24.551  1.00  0.00     0.130 A 
ATOM      8  C   UNL A   1      32.647  25.781  24.307  1.00  0.00     0.047 A 
ATOM      9  C   UNL A   1      34.514  24.926  25.541  1.00  0.00     0.017 A 
ATOM     10  C   UNL A   1      33.934  25.948  24.801  1.00  0.00     0.005 A 
BRANCH   6  11
ATOM     11  C   UNL A   1      31.827  22.255  25.437  1.00  0.00     0.197 C 
ATOM     12  O   UNL A   1      30.891  22.208  26.231  1.00  0.00    -0.288 OA
BRANCH  11  13
ATOM     13  C   UNL A   1      32.203  21.034  24.664  1.00  0.00     0.023 A 
ATOM     14  C   UNL A   1      32.687  18.597  23.344  1.00  0.00     0.118 A 
ATOM     15  C   UNL A   1      32.791  18.682  24.734  1.00  0.00     0.047 A 
ATOM     16  C   UNL A   1      32.375  19.743  22.612  1.00  0.00     0.047 A 
ATOM     17  C   UNL A   1      32.551  19.890  25.391  1.00  0.00     0.016 A 
ATOM     18  C   UNL A   1      32.157  20.963  23.266  1.00  0.00     0.016 A 
BRANCH  14  19
ATOM     19  O   UNL A   1      32.901  17.348  22.833  1.00  0.00    -0.497 OA
ATOM     20  C   UNL A   1      33.351  16.350  23.740  1.00  0.00     0.278 C 
ENDBRANCH  14  19
ENDBRANCH  11  13
ENDBRANCH   6  11
BRANCH   7  21
ATOM     21  O   UNL A   1      30.667  24.661  23.999  1.00  0.00    -0.496 OA
ATOM     22  C   UNL A   1      30.185  25.921  23.551  1.00  0.00     0.278 C 
ENDBRANCH   7  21
ENDBRANCH   3   5
ENDBRANCH   2   3
ENDBRANCH   1   2
BRANCH   1  23
ATOM     23  C   UNL A   1      36.956  20.483  25.003  1.00  0.00     0.275 C 
BRANCH  23  24
ATOM     24  O   UNL A   1      38.062  21.399  25.046  1.00  0.00    -0.458 OA
BRANCH  24  25
ATOM     25  C   UNL A   1      39.052  21.055  25.895  1.00  0.00     0.338 C 
ATOM     26  O   UNL A   1      39.534  19.949  26.088  1.00  0.00    -0.246 OA
BRANCH  25  27
ATOM     27  C   UNL A   1      39.579  22.262  26.534  1.00  0.00     0.060 A 
ATOM     28  C   UNL A   1      39.030  23.487  26.169  1.00  0.00     0.016 A 
ATOM     29  C   UNL A   1      40.703  22.206  27.349  1.00  0.00     0.016 A 
ATOM     30  C   UNL A   1      39.664  24.671  26.520  1.00  0.00     0.010 A 
ATOM     31  C   UNL A   1      41.280  23.400  27.792  1.00  0.00     0.010 A 
ATOM     32  C   UNL A   1      40.794  24.644  27.345  1.00  0.00    -0.014 A 
BRANCH  32  33
ATOM     33  C   UNL A   1      41.501  25.905  27.692  1.00  0.00     0.031 A 
ATOM     34  C   UNL A   1      40.839  26.906  28.599  1.00  0.00     0.074 A 
ATOM     35  C   UNL A   1      42.733  26.157  27.209  1.00  0.00     0.049 A 
ATOM     36  N   UNL A   1      41.176  28.146  28.851  1.00  0.00    -0.248 NA
ATOM     37  C   UNL A   1      39.625  26.459  29.303  1.00  0.00     0.031 C 
ATOM     38  C   UNL A   1      43.523  25.248  26.374  1.00  0.00     0.029 A 
ATOM     39  N   UNL A   1      43.539  27.258  27.354  1.00  0.00    -0.354 N 
ATOM     40  C   UNL A   1      40.179  28.646  29.680  1.00  0.00     0.074 A 
ATOM     41  C   UNL A   1      39.227  27.577  29.890  1.00  0.00     0.031 C 
ATOM     42  C   UNL A   1      44.711  25.814  26.112  1.00  0.00     0.029 A 
ATOM     43  C   UNL A   1      44.726  27.160  26.671  1.00  0.00     0.049 A 
ATOM     44  H   UNL A   1      43.291  28.042  27.896  1.00  0.00     0.167 HD
ATOM     45  C   UNL A   1      40.065  29.888  30.208  1.00  0.00     0.031 A 
ATOM     46  C   UNL A   1      45.697  28.069  26.463  1.00  0.00     0.031 A 
ATOM     47  C   UNL A   1      41.038  30.933  30.027  1.00  0.00     0.049 A 
ATOM     48  C   UNL A   1      45.534  29.451  27.022  1.00  0.00     0.074 A 
ATOM     49  C   UNL A   1      41.024  32.224  30.527  1.00  0.00     0.029 A 
ATOM     50  N   UNL A   1      42.210  30.799  29.297  1.00  0.00    -0.354 N 
ATOM     51  N   UNL A   1      44.554  29.936  27.745  1.00  0.00    -0.248 NA
ATOM     52  C   UNL A   1      46.600  30.414  26.719  1.00  0.00     0.031 C 
ATOM     53  C   UNL A   1      42.169  32.883  30.063  1.00  0.00     0.029 A 
ATOM     54  C   UNL A   1      42.920  31.987  29.320  1.00  0.00     0.049 A 
ATOM     55  H   UNL A   1      42.494  29.979  28.832  1.00  0.00     0.167 HD
ATOM     56  C   UNL A   1      44.888  31.260  27.992  1.00  0.00     0.074 A 
ATOM     57  C   UNL A   1      46.171  31.494  27.359  1.00  0.00     0.031 C 
ATOM     58  C   UNL A   1      44.191  32.200  28.676  1.00  0.00     0.031 A 
BRANCH  45  59
ATOM     59  C   UNL A   1      38.811  30.197  30.981  1.00  0.00    -0.014 A 
ATOM     60  C   UNL A   1      37.665  30.718  30.361  1.00  0.00     0.009 A 
ATOM     61  C   UNL A   1      38.782  29.957  32.365  1.00  0.00     0.009 A 
ATOM     62  C   UNL A   1      36.533  31.033  31.118  1.00  0.00     0.001 A 
ATOM     63  C   UNL A   1      37.640  30.245  33.114  1.00  0.00     0.001 A 
ATOM     64  C   UNL A   1      36.520  30.794  32.493  1.00  0.00     0.000 A 
ENDBRANCH  45  59
BRANCH  46  65
ATOM     65  C   UNL A   1      46.878  27.704  25.636  1.00  0.00    -0.014 A 
ATOM     66  C   UNL A   1      48.025  27.159  26.229  1.00  0.00     0.009 A 
ATOM     67  C   UNL A   1      46.845  27.865  24.241  1.00  0.00     0.009 A 
ATOM     68  C   UNL A   1      49.117  26.787  25.442  1.00  0.00     0.001 A 
ATOM     69  C   UNL A   1      47.926  27.463  23.454  1.00  0.00     0.001 A 
ATOM     70  C   UNL A   1      49.063  26.929  24.056  1.00  0.00     0.000 A 
ENDBRANCH  46  65
BRANCH  58  71
ATOM     71  C   UNL A   1      44.822  33.558  28.797  1.00  0.00    -0.014 A 
ATOM     72  C   UNL A   1      45.704  33.859  29.846  1.00  0.00     0.009 A 
ATOM     73  C   UNL A   1      44.548  34.538  27.830  1.00  0.00     0.009 A 
ATOM     74  C   UNL A   1      46.275  35.129  29.941  1.00  0.00     0.001 A 
ATOM     75  C   UNL A   1      45.141  35.798  27.914  1.00  0.00     0.001 A 
ATOM     76  C   UNL A   1      45.997  36.095  28.974  1.00  0.00     0.000 A 
ENDBRANCH  58  71
ENDBRANCH  32  33
ENDBRANCH  25  27
ENDBRANCH  24  25
ENDBRANCH  23  24
ENDBRANCH   1  23
TORSDOF 15
ENDMDL
MODEL 3
REMARK VINA RESULT:     -10.4      2.068      2.638
REMARK SMILES COc1ccc(C(=O)c2c(OC)cccc2C(=O)OCCOC(=O)c2ccc(-c3c4nc(c(-c5ccccc5)c5ccc([nH]5)c(-c5ccccc5)c5nc(c(-c6ccccc6)c6ccc3[nH]6)C=C5)C=C4)cc2)cc1
REMARK SMILES IDX 20 1 19 2 17 3 18 4 16 5 9 6 10 7 13 8 15 9 14 10 7 11 8 12
REMARK SMILES IDX 6 13 3 14 4 15 74 16 5 17 73 18 2 19 1 20 11 21 12 22 21 23
REMARK SMILES IDX 22 24 23 25 24 26 25 27 26 28 72 29 27 30 71 31 28 32 29 33
REMARK SMILES IDX 30 34 65 35 31 36 70 37 64 38 66 39 32 40 69 41 63 42 62 43
REMARK SMILES IDX 33 45 55 46 40 47 54 48 41 49 44 50 53 51 67 52 42 53 43 54
REMARK SMILES IDX 52 56 68 57 45 58 34 59 35 60 39 61 36 62 38 63 37 64 56 65
REMARK SMILES IDX 57 66 61 67 58 68 60 69 59 70 46 71 47 72 51 73 48 74 50 75
REMARK SMILES IDX 49 76
REMARK H PARENT 66 44 44 55
REMARK Flexibility Score: inf
ROOT
ATOM      1  C   UNL A   1      31.701  28.912  27.247  1.00  0.00     0.275 C 
ENDROOT
BRANCH   1   2
ATOM      2  O   UNL A   1      32.116  28.080  26.140  1.00  0.00    -0.458 OA
BRANCH   2   3
ATOM      3  C   UNL A   1      31.754  26.779  26.204  1.00  0.00     0.339 C 
ATOM      4  O   UNL A   1      30.863  26.300  26.887  1.00  0.00    -0.246 OA
BRANCH   3   5
ATOM      5  C   UNL A   1      32.585  25.927  25.322  1.00  0.00     0.075 A 
ATOM      6  C   UNL A   1      32.181  25.511  24.038  1.00  0.00     0.079 A 
ATOM      7  C   UNL A   1      33.082  24.774  23.244  1.00  0.00     0.130 A 
ATOM      8  C   UNL A   1      34.347  24.441  23.756  1.00  0.00     0.047 A 
ATOM      9  C   UNL A   1      33.882  25.634  25.782  1.00  0.00     0.017 A 
ATOM     10  C   UNL A   1      34.751  24.870  25.014  1.00  0.00     0.005 A 
BRANCH   6  11
ATOM     11  C   UNL A   1      30.802  25.776  23.577  1.00  0.00     0.197 C 
ATOM     12  O   UNL A   1      30.026  24.827  23.512  1.00  0.00    -0.288 OA
BRANCH  11  13
ATOM     13  C   UNL A   1      30.324  27.147  23.225  1.00  0.00     0.023 A 
ATOM     14  C   UNL A   1      29.491  29.663  22.281  1.00  0.00     0.118 A 
ATOM     15  C   UNL A   1      30.820  29.258  22.140  1.00  0.00     0.047 A 
ATOM     16  C   UNL A   1      28.587  28.820  22.927  1.00  0.00     0.047 A 
ATOM     17  C   UNL A   1      31.236  28.011  22.608  1.00  0.00     0.016 A 
ATOM     18  C   UNL A   1      29.005  27.576  23.419  1.00  0.00     0.016 A 
BRANCH  14  19
ATOM     19  O   UNL A   1      29.208  30.885  21.739  1.00  0.00    -0.497 OA
ATOM     20  C   UNL A   1      28.117  31.602  22.302  1.00  0.00     0.278 C 
ENDBRANCH  14  19
ENDBRANCH  11  13
ENDBRANCH   6  11
BRANCH   7  21
ATOM     21  O   UNL A   1      32.899  24.273  21.982  1.00  0.00    -0.496 OA
ATOM     22  C   UNL A   1      33.135  22.888  21.768  1.00  0.00     0.278 C 
ENDBRANCH   7  21
ENDBRANCH   3   5
ENDBRANCH   2   3
ENDBRANCH   1   2
BRANCH   1  23
ATOM     23  C   UNL A   1      31.694  30.387  26.860  1.00  0.00     0.275 C 
BRANCH  23  24
ATOM     24  O   UNL A   1      33.025  30.800  26.514  1.00  0.00    -0.458 OA
BRANCH  24  25
ATOM     25  C   UNL A   1      33.530  31.790  27.278  1.00  0.00     0.338 C 
ATOM     26  O   UNL A   1      32.987  32.826  27.630  1.00  0.00    -0.246 OA
BRANCH  25  27
ATOM     27  C   UNL A   1      34.864  31.406  27.744  1.00  0.00     0.060 A 
ATOM     28  C   UNL A   1      35.090  30.068  28.049  1.00  0.00     0.016 A 
ATOM     29  C   UNL A   1      35.824  32.369  28.034  1.00  0.00     0.016 A 
ATOM     30  C   UNL A   1      36.226  29.692  28.750  1.00  0.00     0.010 A 
ATOM     31  C   UNL A   1      37.017  31.974  28.645  1.00  0.00     0.010 A 
ATOM     32  C   UNL A   1      37.211  30.640  29.051  1.00  0.00    -0.014 A 
BRANCH  32  33
ATOM     33  C   UNL A   1      38.412  30.251  29.837  1.00  0.00     0.031 A 
ATOM     34  C   UNL A   1      39.484  29.411  29.196  1.00  0.00     0.074 A 
ATOM     35  C   UNL A   1      38.555  30.652  31.115  1.00  0.00     0.049 A 
ATOM     36  N   UNL A   1      40.490  28.786  29.753  1.00  0.00    -0.248 NA
ATOM     37  C   UNL A   1      39.401  29.236  27.737  1.00  0.00     0.031 C 
ATOM     38  C   UNL A   1      37.631  31.524  31.844  1.00  0.00     0.029 A 
ATOM     39  N   UNL A   1      39.540  30.375  32.031  1.00  0.00    -0.354 N 
ATOM     40  C   UNL A   1      41.114  28.087  28.727  1.00  0.00     0.074 A 
ATOM     41  C   UNL A   1      40.375  28.366  27.515  1.00  0.00     0.031 C 
ATOM     42  C   UNL A   1      38.109  31.738  33.078  1.00  0.00     0.029 A 
ATOM     43  C   UNL A   1      39.315  30.941  33.261  1.00  0.00     0.049 A 
ATOM     44  H   UNL A   1      40.331  29.826  31.824  1.00  0.00     0.167 HD
ATOM     45  C   UNL A   1      42.198  27.278  28.794  1.00  0.00     0.031 A 
ATOM     46  C   UNL A   1      39.969  30.791  34.429  1.00  0.00     0.031 A 
ATOM     47  C   UNL A   1      42.952  27.038  29.997  1.00  0.00     0.049 A 
ATOM     48  C   UNL A   1      41.143  29.860  34.492  1.00  0.00     0.074 A 
ATOM     49  C   UNL A   1      44.072  26.244  30.172  1.00  0.00     0.029 A 
ATOM     50  N   UNL A   1      42.666  27.606  31.229  1.00  0.00    -0.354 N 
ATOM     51  N   UNL A   1      41.683  29.148  33.533  1.00  0.00    -0.248 NA
ATOM     52  C   UNL A   1      41.784  29.697  35.804  1.00  0.00     0.031 C 
ATOM     53  C   UNL A   1      44.439  26.300  31.522  1.00  0.00     0.029 A 
ATOM     54  C   UNL A   1      43.579  27.169  32.175  1.00  0.00     0.049 A 
ATOM     55  H   UNL A   1      41.924  28.228  31.406  1.00  0.00     0.167 HD
ATOM     56  C   UNL A   1      42.733  28.457  34.121  1.00  0.00     0.074 A 
ATOM     57  C   UNL A   1      42.766  28.854  35.515  1.00  0.00     0.031 C 
ATOM     58  C   UNL A   1      43.589  27.570  33.558  1.00  0.00     0.031 A 
BRANCH  45  59
ATOM     59  C   UNL A   1      42.593  26.547  27.539  1.00  0.00    -0.014 A 
ATOM     60  C   UNL A   1      43.510  27.085  26.623  1.00  0.00     0.009 A 
ATOM     61  C   UNL A   1      42.031  25.287  27.272  1.00  0.00     0.009 A 
ATOM     62  C   UNL A   1      43.821  26.398  25.447  1.00  0.00     0.001 A 
ATOM     63  C   UNL A   1      42.366  24.589  26.111  1.00  0.00     0.001 A 
ATOM     64  C   UNL A   1      43.251  25.150  25.193  1.00  0.00     0.000 A 
ENDBRANCH  45  59
BRANCH  46  65
ATOM     65  C   UNL A   1      39.480  31.502  35.639  1.00  0.00    -0.014 A 
ATOM     66  C   UNL A   1      40.085  32.693  36.062  1.00  0.00     0.009 A 
ATOM     67  C   UNL A   1      38.377  31.009  36.356  1.00  0.00     0.009 A 
ATOM     68  C   UNL A   1      39.598  33.374  37.180  1.00  0.00     0.001 A 
ATOM     69  C   UNL A   1      37.873  31.707  37.454  1.00  0.00     0.001 A 
ATOM     70  C   UNL A   1      38.487  32.886  37.869  1.00  0.00     0.000 A 
ENDBRANCH  46  65
BRANCH  58  71
ATOM     71  C   UNL A   1      44.650  26.993  34.450  1.00  0.00    -0.014 A 
ATOM     72  C   UNL A   1      44.442  25.792  35.145  1.00  0.00     0.009 A 
ATOM     73  C   UNL A   1      45.885  27.649  34.573  1.00  0.00     0.009 A 
ATOM     74  C   UNL A   1      45.441  25.276  35.973  1.00  0.00     0.001 A 
ATOM     75  C   UNL A   1      46.891  27.117  35.381  1.00  0.00     0.001 A 
ATOM     76  C   UNL A   1      46.664  25.936  36.087  1.00  0.00     0.000 A 
ENDBRANCH  58  71
ENDBRANCH  32  33
ENDBRANCH  25  27
ENDBRANCH  24  25
ENDBRANCH  23  24
ENDBRANCH   1  23
TORSDOF 15
ENDMDL
