MODEL 1
REMARK VINA RESULT:      -9.7      0.000      0.000
REMARK SMILES CC(C)(C[S@](=O)c1cccc(Cl)c1)C(=O)OCCOC(=O)c1ccc(-c2c3nc(c(-c4ccccc4)c4ccc([nH]4)c(-c4ccccc4)c4nc(c(-c5ccccc5)c5ccc2[nH]5)C=C4)C=C3)cc1
REMARK SMILES IDX 17 1 16 2 14 3 15 4 2 5 1 6 3 7 4 8 5 9 6 10 7 11 8 12 13 13
REMARK SMILES IDX 9 14 11 15 10 16 12 17 18 18 19 19 20 20 21 21 22 22 23 23
REMARK SMILES IDX 69 24 24 25 68 26 25 27 26 28 27 29 62 30 28 31 67 32 61 33
REMARK SMILES IDX 63 34 29 35 66 36 60 37 59 38 30 40 52 41 37 42 51 43 38 44
REMARK SMILES IDX 41 45 50 46 64 47 39 48 40 49 49 51 65 52 42 53 31 54 32 55
REMARK SMILES IDX 36 56 33 57 35 58 34 59 53 60 54 61 58 62 55 63 57 64 56 65
REMARK SMILES IDX 43 66 44 67 48 68 45 69 47 70 46 71
REMARK H PARENT 63 39 41 50
REMARK Flexibility Score: inf
ROOT
ATOM      1  C   UNL A   1      33.563  34.697  28.515  1.00  0.00     0.274 C 
ENDROOT
BRANCH   1   2
ATOM      2  O   UNL A   1      32.961  34.929  29.808  1.00  0.00    -0.462 OA
BRANCH   2   3
ATOM      3  C   UNL A   1      33.140  36.173  30.319  1.00  0.00     0.312 C 
ATOM      4  O   UNL A   1      33.278  37.184  29.634  1.00  0.00    -0.252 OA
BRANCH   3   5
ATOM      5  C   UNL A   1      33.339  36.195  31.835  1.00  0.00     0.074 C 
ATOM      6  C   UNL A   1      32.005  35.832  32.511  1.00  0.00     0.024 C 
ATOM      7  C   UNL A   1      33.617  37.687  32.151  1.00  0.00     0.024 C 
BRANCH   5   8
ATOM      8  C   UNL A   1      34.520  35.389  32.412  1.00  0.00     0.128 C 
BRANCH   8   9
ATOM      9  S   UNL A   1      34.825  33.675  31.908  1.00  0.00     0.054 S 
ATOM     10  O   UNL A   1      33.758  32.791  32.473  1.00  0.00    -0.254 OA
BRANCH   9  11
ATOM     11  C   UNL A   1      36.340  33.254  32.776  1.00  0.00     0.040 A 
ATOM     12  C   UNL A   1      36.506  31.953  33.255  1.00  0.00     0.018 A 
ATOM     13  C   UNL A   1      37.392  34.165  32.914  1.00  0.00     0.038 A 
ATOM     14  C   UNL A   1      37.664  31.586  33.931  1.00  0.00     0.003 A 
ATOM     15  C   UNL A   1      38.567  33.775  33.566  1.00  0.00     0.042 A 
ATOM     16  C   UNL A   1      38.701  32.494  34.093  1.00  0.00     0.020 A 
ATOM     17  Cl  UNL A   1      39.875  34.884  33.712  1.00  0.00    -0.084 Cl
ENDBRANCH   9  11
ENDBRANCH   8   9
ENDBRANCH   5   8
ENDBRANCH   3   5
ENDBRANCH   2   3
ENDBRANCH   1   2
BRANCH   1  18
ATOM     18  C   UNL A   1      33.330  33.271  28.001  1.00  0.00     0.275 C 
BRANCH  18  19
ATOM     19  O   UNL A   1      34.453  32.436  28.326  1.00  0.00    -0.458 OA
BRANCH  19  20
ATOM     20  C   UNL A   1      34.317  31.129  28.003  1.00  0.00     0.338 C 
ATOM     21  O   UNL A   1      33.330  30.606  27.512  1.00  0.00    -0.246 OA
BRANCH  20  22
ATOM     22  C   UNL A   1      35.573  30.383  28.298  1.00  0.00     0.060 A 
ATOM     23  C   UNL A   1      35.822  29.820  29.552  1.00  0.00     0.016 A 
ATOM     24  C   UNL A   1      36.576  30.330  27.324  1.00  0.00     0.016 A 
ATOM     25  C   UNL A   1      37.090  29.320  29.863  1.00  0.00     0.010 A 
ATOM     26  C   UNL A   1      37.821  29.749  27.613  1.00  0.00     0.010 A 
ATOM     27  C   UNL A   1      38.117  29.289  28.905  1.00  0.00    -0.014 A 
BRANCH  27  28
ATOM     28  C   UNL A   1      39.495  28.844  29.286  1.00  0.00     0.031 A 
ATOM     29  C   UNL A   1      40.357  29.668  30.222  1.00  0.00     0.074 A 
ATOM     30  C   UNL A   1      39.964  27.651  28.861  1.00  0.00     0.049 A 
ATOM     31  N   UNL A   1      41.548  29.396  30.701  1.00  0.00    -0.248 NA
ATOM     32  C   UNL A   1      39.806  30.943  30.710  1.00  0.00     0.031 C 
ATOM     33  C   UNL A   1      39.248  26.719  27.990  1.00  0.00     0.029 A 
ATOM     34  N   UNL A   1      41.150  27.008  29.129  1.00  0.00    -0.354 N 
ATOM     35  C   UNL A   1      41.875  30.451  31.546  1.00  0.00     0.074 A 
ATOM     36  C   UNL A   1      40.764  31.374  31.516  1.00  0.00     0.031 C 
ATOM     37  C   UNL A   1      39.981  25.605  27.841  1.00  0.00     0.029 A 
ATOM     38  C   UNL A   1      41.251  25.773  28.536  1.00  0.00     0.049 A 
ATOM     39  H   UNL A   1      41.857  27.396  29.693  1.00  0.00     0.167 HD
ATOM     40  C   UNL A   1      42.997  30.650  32.280  1.00  0.00     0.031 A 
ATOM     41  C   UNL A   1      42.261  24.881  28.517  1.00  0.00     0.031 A 
ATOM     42  C   UNL A   1      44.145  29.786  32.282  1.00  0.00     0.049 A 
ATOM     43  C   UNL A   1      43.547  25.193  29.223  1.00  0.00     0.074 A 
ATOM     44  C   UNL A   1      45.342  29.946  32.959  1.00  0.00     0.029 A 
ATOM     45  N   UNL A   1      44.249  28.612  31.557  1.00  0.00    -0.354 N 
ATOM     46  N   UNL A   1      43.844  26.218  29.981  1.00  0.00    -0.248 NA
ATOM     47  C   UNL A   1      44.646  24.232  29.046  1.00  0.00     0.031 C 
ATOM     48  C   UNL A   1      46.193  28.894  32.601  1.00  0.00     0.029 A 
ATOM     49  C   UNL A   1      45.503  28.053  31.745  1.00  0.00     0.049 A 
ATOM     50  H   UNL A   1      43.539  28.231  30.993  1.00  0.00     0.167 HD
ATOM     51  C   UNL A   1      45.165  26.031  30.367  1.00  0.00     0.074 A 
ATOM     52  C   UNL A   1      45.602  24.779  29.784  1.00  0.00     0.031 C 
ATOM     53  C   UNL A   1      45.946  26.830  31.132  1.00  0.00     0.031 A 
BRANCH  40  54
ATOM     54  C   UNL A   1      43.061  31.896  33.118  1.00  0.00    -0.014 A 
ATOM     55  C   UNL A   1      42.608  31.899  34.446  1.00  0.00     0.009 A 
ATOM     56  C   UNL A   1      43.634  33.063  32.588  1.00  0.00     0.009 A 
ATOM     57  C   UNL A   1      42.717  33.055  35.224  1.00  0.00     0.001 A 
ATOM     58  C   UNL A   1      43.758  34.209  33.374  1.00  0.00     0.001 A 
ATOM     59  C   UNL A   1      43.297  34.205  34.689  1.00  0.00     0.000 A 
ENDBRANCH  40  54
BRANCH  41  60
ATOM     60  C   UNL A   1      42.113  23.624  27.738  1.00  0.00    -0.014 A 
ATOM     61  C   UNL A   1      42.533  23.554  26.401  1.00  0.00     0.009 A 
ATOM     62  C   UNL A   1      41.562  22.481  28.340  1.00  0.00     0.009 A 
ATOM     63  C   UNL A   1      42.401  22.361  25.684  1.00  0.00     0.001 A 
ATOM     64  C   UNL A   1      41.461  21.285  27.631  1.00  0.00     0.001 A 
ATOM     65  C   UNL A   1      41.876  21.226  26.303  1.00  0.00     0.000 A 
ENDBRANCH  41  60
BRANCH  53  66
ATOM     66  C   UNL A   1      47.355  26.374  31.372  1.00  0.00    -0.014 A 
ATOM     67  C   UNL A   1      48.370  26.648  30.442  1.00  0.00     0.009 A 
ATOM     68  C   UNL A   1      47.673  25.664  32.539  1.00  0.00     0.009 A 
ATOM     69  C   UNL A   1      49.669  26.184  30.657  1.00  0.00     0.001 A 
ATOM     70  C   UNL A   1      48.978  25.220  32.763  1.00  0.00     0.001 A 
ATOM     71  C   UNL A   1      49.971  25.471  31.817  1.00  0.00     0.000 A 
ENDBRANCH  53  66
ENDBRANCH  27  28
ENDBRANCH  20  22
ENDBRANCH  19  20
ENDBRANCH  18  19
ENDBRANCH   1  18
TORSDOF 14
ENDMDL
MODEL 2
REMARK VINA RESULT:      -9.5      1.497      6.274
REMARK SMILES CC(C)(C[S@](=O)c1cccc(Cl)c1)C(=O)OCCOC(=O)c1ccc(-c2c3nc(c(-c4ccccc4)c4ccc([nH]4)c(-c4ccccc4)c4nc(c(-c5ccccc5)c5ccc2[nH]5)C=C4)C=C3)cc1
REMARK SMILES IDX 17 1 16 2 14 3 15 4 2 5 1 6 3 7 4 8 5 9 6 10 7 11 8 12 13 13
REMARK SMILES IDX 9 14 11 15 10 16 12 17 18 18 19 19 20 20 21 21 22 22 23 23
REMARK SMILES IDX 69 24 24 25 68 26 25 27 26 28 27 29 62 30 28 31 67 32 61 33
REMARK SMILES IDX 63 34 29 35 66 36 60 37 59 38 30 40 52 41 37 42 51 43 38 44
REMARK SMILES IDX 41 45 50 46 64 47 39 48 40 49 49 51 65 52 42 53 31 54 32 55
REMARK SMILES IDX 36 56 33 57 35 58 34 59 53 60 54 61 58 62 55 63 57 64 56 65
REMARK SMILES IDX 43 66 44 67 48 68 45 69 47 70 46 71
REMARK H PARENT 63 39 41 50
REMARK Flexibility Score: inf
ROOT
ATOM      1  C   UNL A   1      33.569  34.969  28.720  1.00  0.00     0.274 C 
ENDROOT
BRANCH   1   2
ATOM      2  O   UNL A   1      32.820  34.992  29.955  1.00  0.00    -0.462 OA
BRANCH   2   3
ATOM      3  C   UNL A   1      32.894  36.150  30.659  1.00  0.00     0.312 C 
ATOM      4  O   UNL A   1      32.943  37.265  30.145  1.00  0.00    -0.252 OA
BRANCH   3   5
ATOM      5  C   UNL A   1      33.093  35.947  32.162  1.00  0.00     0.074 C 
ATOM      6  C   UNL A   1      31.726  36.063  32.859  1.00  0.00     0.024 C 
ATOM      7  C   UNL A   1      33.929  37.179  32.594  1.00  0.00     0.024 C 
BRANCH   5   8
ATOM      8  C   UNL A   1      33.872  34.696  32.615  1.00  0.00     0.128 C 
BRANCH   8   9
ATOM      9  S   UNL A   1      35.344  34.127  31.723  1.00  0.00     0.054 S 
ATOM     10  O   UNL A   1      35.158  32.700  31.314  1.00  0.00    -0.254 OA
BRANCH   9  11
ATOM     11  C   UNL A   1      36.618  34.127  32.988  1.00  0.00     0.040 A 
ATOM     12  C   UNL A   1      37.903  34.562  32.655  1.00  0.00     0.018 A 
ATOM     13  C   UNL A   1      36.343  33.784  34.316  1.00  0.00     0.038 A 
ATOM     14  C   UNL A   1      38.917  34.578  33.606  1.00  0.00     0.003 A 
ATOM     15  C   UNL A   1      37.363  33.837  35.272  1.00  0.00     0.042 A 
ATOM     16  C   UNL A   1      38.655  34.215  34.919  1.00  0.00     0.020 A 
ATOM     17  Cl  UNL A   1      37.022  33.444  36.913  1.00  0.00    -0.084 Cl
ENDBRANCH   9  11
ENDBRANCH   8   9
ENDBRANCH   5   8
ENDBRANCH   3   5
ENDBRANCH   2   3
ENDBRANCH   1   2
BRANCH   1  18
ATOM     18  C   UNL A   1      33.316  33.700  27.898  1.00  0.00     0.275 C 
BRANCH  18  19
ATOM     19  O   UNL A   1      34.499  32.886  27.863  1.00  0.00    -0.458 OA
BRANCH  19  20
ATOM     20  C   UNL A   1      34.284  31.551  27.803  1.00  0.00     0.338 C 
ATOM     21  O   UNL A   1      33.259  31.002  27.433  1.00  0.00    -0.246 OA
BRANCH  20  22
ATOM     22  C   UNL A   1      35.503  30.804  28.225  1.00  0.00     0.060 A 
ATOM     23  C   UNL A   1      35.454  29.794  29.188  1.00  0.00     0.016 A 
ATOM     24  C   UNL A   1      36.748  31.193  27.719  1.00  0.00     0.016 A 
ATOM     25  C   UNL A   1      36.635  29.265  29.718  1.00  0.00     0.010 A 
ATOM     26  C   UNL A   1      37.928  30.599  28.192  1.00  0.00     0.010 A 
ATOM     27  C   UNL A   1      37.893  29.669  29.243  1.00  0.00    -0.014 A 
BRANCH  27  28
ATOM     28  C   UNL A   1      39.146  29.168  29.892  1.00  0.00     0.031 A 
ATOM     29  C   UNL A   1      39.942  28.028  29.289  1.00  0.00     0.074 A 
ATOM     30  C   UNL A   1      39.632  29.784  30.991  1.00  0.00     0.049 A 
ATOM     31  N   UNL A   1      41.081  27.514  29.691  1.00  0.00    -0.248 NA
ATOM     32  C   UNL A   1      39.417  27.402  28.064  1.00  0.00     0.031 C 
ATOM     33  C   UNL A   1      39.011  30.919  31.673  1.00  0.00     0.029 A 
ATOM     34  N   UNL A   1      40.780  29.552  31.713  1.00  0.00    -0.354 N 
ATOM     35  C   UNL A   1      41.406  26.525  28.769  1.00  0.00     0.074 A 
ATOM     36  C   UNL A   1      40.347  26.502  27.786  1.00  0.00     0.031 C 
ATOM     37  C   UNL A   1      39.809  31.320  32.675  1.00  0.00     0.029 A 
ATOM     38  C   UNL A   1      40.955  30.424  32.761  1.00  0.00     0.049 A 
ATOM     39  H   UNL A   1      41.415  28.832  31.498  1.00  0.00     0.167 HD
ATOM     40  C   UNL A   1      42.480  25.700  28.734  1.00  0.00     0.031 A 
ATOM     41  C   UNL A   1      41.908  30.484  33.712  1.00  0.00     0.031 A 
ATOM     42  C   UNL A   1      43.516  25.652  29.730  1.00  0.00     0.049 A 
ATOM     43  C   UNL A   1      43.009  29.466  33.731  1.00  0.00     0.074 A 
ATOM     44  C   UNL A   1      44.611  24.807  29.793  1.00  0.00     0.029 A 
ATOM     45  N   UNL A   1      43.575  26.469  30.845  1.00  0.00    -0.354 N 
ATOM     46  N   UNL A   1      43.270  28.516  32.869  1.00  0.00    -0.248 NA
ATOM     47  C   UNL A   1      43.934  29.517  34.874  1.00  0.00     0.031 C 
ATOM     48  C   UNL A   1      45.305  25.077  30.979  1.00  0.00     0.029 A 
ATOM     49  C   UNL A   1      44.671  26.126  31.621  1.00  0.00     0.049 A 
ATOM     50  H   UNL A   1      42.935  27.186  31.056  1.00  0.00     0.167 HD
ATOM     51  C   UNL A   1      44.383  27.851  33.366  1.00  0.00     0.074 A 
ATOM     52  C   UNL A   1      44.766  28.525  34.589  1.00  0.00     0.031 C 
ATOM     53  C   UNL A   1      45.024  26.773  32.855  1.00  0.00     0.031 A 
BRANCH  40  54
ATOM     54  C   UNL A   1      42.566  24.727  27.592  1.00  0.00    -0.014 A 
ATOM     55  C   UNL A   1      41.952  23.468  27.667  1.00  0.00     0.009 A 
ATOM     56  C   UNL A   1      43.220  25.100  26.407  1.00  0.00     0.009 A 
ATOM     57  C   UNL A   1      42.004  22.594  26.577  1.00  0.00     0.001 A 
ATOM     58  C   UNL A   1      43.254  24.232  25.315  1.00  0.00     0.001 A 
ATOM     59  C   UNL A   1      42.649  22.980  25.402  1.00  0.00     0.000 A 
ENDBRANCH  40  54
BRANCH  41  60
ATOM     60  C   UNL A   1      41.818  31.520  34.773  1.00  0.00    -0.014 A 
ATOM     61  C   UNL A   1      41.131  31.267  35.969  1.00  0.00     0.009 A 
ATOM     62  C   UNL A   1      42.440  32.767  34.596  1.00  0.00     0.009 A 
ATOM     63  C   UNL A   1      41.066  32.245  36.964  1.00  0.00     0.001 A 
ATOM     64  C   UNL A   1      42.400  33.729  35.604  1.00  0.00     0.001 A 
ATOM     65  C   UNL A   1      41.710  33.470  36.786  1.00  0.00     0.000 A 
ENDBRANCH  41  60
BRANCH  53  66
ATOM     66  C   UNL A   1      46.202  26.255  33.628  1.00  0.00    -0.014 A 
ATOM     67  C   UNL A   1      46.041  25.267  34.612  1.00  0.00     0.009 A 
ATOM     68  C   UNL A   1      47.486  26.758  33.369  1.00  0.00     0.009 A 
ATOM     69  C   UNL A   1      47.138  24.822  35.351  1.00  0.00     0.001 A 
ATOM     70  C   UNL A   1      48.585  26.295  34.095  1.00  0.00     0.001 A 
ATOM     71  C   UNL A   1      48.409  25.337  35.092  1.00  0.00     0.000 A 
ENDBRANCH  53  66
ENDBRANCH  27  28
ENDBRANCH  20  22
ENDBRANCH  19  20
ENDBRANCH  18  19
ENDBRANCH   1  18
TORSDOF 14
ENDMDL
MODEL 3
REMARK VINA RESULT:      -9.4      5.560     10.806
REMARK SMILES CC(C)(C[S@](=O)c1cccc(Cl)c1)C(=O)OCCOC(=O)c1ccc(-c2c3nc(c(-c4ccccc4)c4ccc([nH]4)c(-c4ccccc4)c4nc(c(-c5ccccc5)c5ccc2[nH]5)C=C4)C=C3)cc1
REMARK SMILES IDX 17 1 16 2 14 3 15 4 2 5 1 6 3 7 4 8 5 9 6 10 7 11 8 12 13 13
REMARK SMILES IDX 9 14 11 15 10 16 12 17 18 18 19 19 20 20 21 21 22 22 23 23
REMARK SMILES IDX 69 24 24 25 68 26 25 27 26 28 27 29 62 30 28 31 67 32 61 33
REMARK SMILES IDX 63 34 29 35 66 36 60 37 59 38 30 40 52 41 37 42 51 43 38 44
REMARK SMILES IDX 41 45 50 46 64 47 39 48 40 49 49 51 65 52 42 53 31 54 32 55
REMARK SMILES IDX 36 56 33 57 35 58 34 59 53 60 54 61 58 62 55 63 57 64 56 65
REMARK SMILES IDX 43 66 44 67 48 68 45 69 47 70 46 71
REMARK H PARENT 63 39 41 50
REMARK Flexibility Score: inf
ROOT
ATOM      1  C   UNL A   1      38.927  21.620  25.805  1.00  0.00     0.274 C 
ENDROOT
BRANCH   1   2
ATOM      2  O   UNL A   1      37.497  21.775  25.934  1.00  0.00    -0.462 OA
BRANCH   2   3
ATOM      3  C   UNL A   1      37.015  23.006  25.630  1.00  0.00     0.312 C 
ATOM      4  O   UNL A   1      37.534  24.058  25.996  1.00  0.00    -0.252 OA
BRANCH   3   5
ATOM      5  C   UNL A   1      35.653  22.981  24.935  1.00  0.00     0.074 C 
ATOM      6  C   UNL A   1      35.879  22.938  23.413  1.00  0.00     0.024 C 
ATOM      7  C   UNL A   1      35.043  24.368  25.263  1.00  0.00     0.024 C 
BRANCH   5   8
ATOM      8  C   UNL A   1      34.633  21.923  25.400  1.00  0.00     0.128 C 
BRANCH   8   9
ATOM      9  S   UNL A   1      33.050  21.699  24.546  1.00  0.00     0.054 S 
ATOM     10  O   UNL A   1      31.930  21.816  25.532  1.00  0.00    -0.254 OA
BRANCH   9  11
ATOM     11  C   UNL A   1      33.096  19.977  24.038  1.00  0.00     0.040 A 
ATOM     12  C   UNL A   1      32.302  19.567  22.965  1.00  0.00     0.018 A 
ATOM     13  C   UNL A   1      33.963  19.054  24.630  1.00  0.00     0.038 A 
ATOM     14  C   UNL A   1      32.310  18.244  22.539  1.00  0.00     0.003 A 
ATOM     15  C   UNL A   1      33.988  17.732  24.171  1.00  0.00     0.042 A 
ATOM     16  C   UNL A   1      33.150  17.317  23.140  1.00  0.00     0.020 A 
ATOM     17  Cl  UNL A   1      35.075  16.599  24.877  1.00  0.00    -0.084 Cl
ENDBRANCH   9  11
ENDBRANCH   8   9
ENDBRANCH   5   8
ENDBRANCH   3   5
ENDBRANCH   2   3
ENDBRANCH   1   2
BRANCH   1  18
ATOM     18  C   UNL A   1      39.344  20.169  25.540  1.00  0.00     0.275 C 
BRANCH  18  19
ATOM     19  O   UNL A   1      40.378  19.772  26.456  1.00  0.00    -0.458 OA
BRANCH  19  20
ATOM     20  C   UNL A   1      41.644  19.959  26.018  1.00  0.00     0.338 C 
ATOM     21  O   UNL A   1      42.252  19.241  25.241  1.00  0.00    -0.246 OA
BRANCH  20  22
ATOM     22  C   UNL A   1      42.218  21.209  26.592  1.00  0.00     0.060 A 
ATOM     23  C   UNL A   1      42.225  21.457  27.966  1.00  0.00     0.016 A 
ATOM     24  C   UNL A   1      42.671  22.209  25.724  1.00  0.00     0.016 A 
ATOM     25  C   UNL A   1      42.567  22.721  28.454  1.00  0.00     0.010 A 
ATOM     26  C   UNL A   1      43.097  23.449  26.225  1.00  0.00     0.010 A 
ATOM     27  C   UNL A   1      42.995  23.746  27.593  1.00  0.00    -0.014 A 
BRANCH  27  28
ATOM     28  C   UNL A   1      43.259  25.121  28.123  1.00  0.00     0.031 A 
ATOM     29  C   UNL A   1      42.135  26.118  28.316  1.00  0.00     0.074 A 
ATOM     30  C   UNL A   1      44.503  25.468  28.516  1.00  0.00     0.049 A 
ATOM     31  N   UNL A   1      42.183  27.329  28.821  1.00  0.00    -0.248 NA
ATOM     32  C   UNL A   1      40.778  25.701  27.924  1.00  0.00     0.031 C 
ATOM     33  C   UNL A   1      45.689  24.614  28.435  1.00  0.00     0.029 A 
ATOM     34  N   UNL A   1      44.971  26.629  29.086  1.00  0.00    -0.354 N 
ATOM     35  C   UNL A   1      40.875  27.802  28.818  1.00  0.00     0.074 A 
ATOM     36  C   UNL A   1      40.051  26.757  28.257  1.00  0.00     0.031 C 
ATOM     37  C   UNL A   1      46.731  25.255  28.987  1.00  0.00     0.029 A 
ATOM     38  C   UNL A   1      46.312  26.593  29.386  1.00  0.00     0.049 A 
ATOM     39  H   UNL A   1      44.399  27.410  29.264  1.00  0.00     0.167 HD
ATOM     40  C   UNL A   1      40.392  28.998  29.233  1.00  0.00     0.031 A 
ATOM     41  C   UNL A   1      47.131  27.535  29.892  1.00  0.00     0.031 A 
ATOM     42  C   UNL A   1      41.192  30.083  29.734  1.00  0.00     0.049 A 
ATOM     43  C   UNL A   1      46.594  28.899  30.209  1.00  0.00     0.074 A 
ATOM     44  C   UNL A   1      40.782  31.345  30.126  1.00  0.00     0.029 A 
ATOM     45  N   UNL A   1      42.566  30.041  29.892  1.00  0.00    -0.354 N 
ATOM     46  N   UNL A   1      45.360  29.333  30.157  1.00  0.00    -0.248 NA
ATOM     47  C   UNL A   1      47.574  29.911  30.632  1.00  0.00     0.031 C 
ATOM     48  C   UNL A   1      41.917  32.088  30.472  1.00  0.00     0.029 A 
ATOM     49  C   UNL A   1      43.024  31.267  30.346  1.00  0.00     0.049 A 
ATOM     50  H   UNL A   1      43.132  29.257  29.709  1.00  0.00     0.167 HD
ATOM     51  C   UNL A   1      45.414  30.669  30.533  1.00  0.00     0.074 A 
ATOM     52  C   UNL A   1      46.798  30.966  30.839  1.00  0.00     0.031 C 
ATOM     53  C   UNL A   1      44.405  31.568  30.610  1.00  0.00     0.031 A 
BRANCH  40  54
ATOM     54  C   UNL A   1      38.911  29.222  29.113  1.00  0.00    -0.014 A 
ATOM     55  C   UNL A   1      38.061  29.041  30.215  1.00  0.00     0.009 A 
ATOM     56  C   UNL A   1      38.371  29.676  27.899  1.00  0.00     0.009 A 
ATOM     57  C   UNL A   1      36.692  29.298  30.097  1.00  0.00     0.001 A 
ATOM     58  C   UNL A   1      37.006  29.948  27.791  1.00  0.00     0.001 A 
ATOM     59  C   UNL A   1      36.168  29.756  28.888  1.00  0.00     0.000 A 
ENDBRANCH  40  54
BRANCH  41  60
ATOM     60  C   UNL A   1      48.575  27.232  30.067  1.00  0.00    -0.014 A 
ATOM     61  C   UNL A   1      49.060  26.713  31.276  1.00  0.00     0.009 A 
ATOM     62  C   UNL A   1      49.474  27.449  29.010  1.00  0.00     0.009 A 
ATOM     63  C   UNL A   1      50.418  26.419  31.422  1.00  0.00     0.001 A 
ATOM     64  C   UNL A   1      50.823  27.126  29.148  1.00  0.00     0.001 A 
ATOM     65  C   UNL A   1      51.296  26.615  30.355  1.00  0.00     0.000 A 
ENDBRANCH  41  60
BRANCH  53  66
ATOM     66  C   UNL A   1      44.768  32.961  31.036  1.00  0.00    -0.014 A 
ATOM     67  C   UNL A   1      44.783  33.320  32.393  1.00  0.00     0.009 A 
ATOM     68  C   UNL A   1      45.098  33.924  30.071  1.00  0.00     0.009 A 
ATOM     69  C   UNL A   1      45.084  34.629  32.773  1.00  0.00     0.001 A 
ATOM     70  C   UNL A   1      45.420  35.228  30.456  1.00  0.00     0.001 A 
ATOM     71  C   UNL A   1      45.401  35.581  31.804  1.00  0.00     0.000 A 
ENDBRANCH  53  66
ENDBRANCH  27  28
ENDBRANCH  20  22
ENDBRANCH  19  20
ENDBRANCH  18  19
ENDBRANCH   1  18
TORSDOF 14
ENDMDL
