MODEL 1
REMARK VINA RESULT:     -11.1      0.000      0.000
REMARK SMILES O=C(OCCOC(=O)c1ccncc1-c1ccc(F)cc1F)c1ccc(-c2c3nc(c(-c4ccccc4)c4ccc([nH]4)c(-c4ccccc4)c4nc(c(-c5ccccc5)c5ccc2[nH]5)C=C4)C=C3)cc1
REMARK SMILES IDX 4 1 3 2 2 3 1 4 23 5 24 6 70 7 25 8 69 9 26 10 27 11 28 12
REMARK SMILES IDX 63 13 29 14 68 15 62 16 64 17 30 18 67 19 61 20 60 21 31 23
REMARK SMILES IDX 53 24 38 25 52 26 39 27 42 28 51 29 65 30 40 31 41 32 50 34
REMARK SMILES IDX 66 35 43 36 32 37 33 38 37 39 34 40 36 41 35 42 54 43 55 44
REMARK SMILES IDX 59 45 56 46 58 47 57 48 44 49 45 50 49 51 46 52 48 53 47 54
REMARK SMILES IDX 5 55 6 56 7 57 8 58 9 59 10 60 14 61 11 62 13 63 12 64 15 65
REMARK SMILES IDX 16 66 21 67 17 68 20 69 22 70 18 71 19 72
REMARK H PARENT 64 22 42 33
REMARK Flexibility Score: inf
ROOT
ATOM      1  C   UNL A   1      31.681  32.303  26.919  1.00  0.00     0.275 C 
ENDROOT
BRANCH   1   2
ATOM      2  O   UNL A   1      32.843  33.137  26.938  1.00  0.00    -0.458 OA
BRANCH   2   3
ATOM      3  C   UNL A   1      33.137  33.795  28.074  1.00  0.00     0.338 C 
ATOM      4  O   UNL A   1      32.548  34.764  28.509  1.00  0.00    -0.246 OA
BRANCH   3   5
ATOM      5  C   UNL A   1      34.393  33.206  28.615  1.00  0.00     0.060 A 
ATOM      6  C   UNL A   1      34.386  31.899  29.125  1.00  0.00     0.016 A 
ATOM      7  C   UNL A   1      35.604  33.888  28.474  1.00  0.00     0.016 A 
ATOM      8  C   UNL A   1      35.566  31.288  29.498  1.00  0.00     0.010 A 
ATOM      9  C   UNL A   1      36.802  33.241  28.755  1.00  0.00     0.010 A 
ATOM     10  C   UNL A   1      36.774  31.961  29.316  1.00  0.00    -0.014 A 
BRANCH  10  11
ATOM     11  C   UNL A   1      37.980  31.392  29.929  1.00  0.00     0.031 A 
ATOM     12  C   UNL A   1      38.284  31.786  31.343  1.00  0.00     0.074 A 
ATOM     13  C   UNL A   1      38.699  30.477  29.258  1.00  0.00     0.049 A 
ATOM     14  N   UNL A   1      39.198  31.319  32.148  1.00  0.00    -0.248 NA
ATOM     15  C   UNL A   1      37.435  32.835  31.940  1.00  0.00     0.031 C 
ATOM     16  C   UNL A   1      38.424  30.016  27.895  1.00  0.00     0.029 A 
ATOM     17  N   UNL A   1      39.799  29.761  29.635  1.00  0.00    -0.354 N 
ATOM     18  C   UNL A   1      39.009  31.995  33.346  1.00  0.00     0.074 A 
ATOM     19  C   UNL A   1      37.967  32.969  33.142  1.00  0.00     0.031 C 
ATOM     20  C   UNL A   1      39.355  29.117  27.537  1.00  0.00     0.029 A 
ATOM     21  C   UNL A   1      40.273  28.928  28.652  1.00  0.00     0.049 A 
ATOM     22  H   UNL A   1      40.212  29.835  30.525  1.00  0.00     0.167 HD
ATOM     23  C   UNL A   1      39.618  31.776  34.531  1.00  0.00     0.031 A 
ATOM     24  C   UNL A   1      41.326  28.094  28.673  1.00  0.00     0.031 A 
ATOM     25  C   UNL A   1      40.665  30.812  34.695  1.00  0.00     0.049 A 
ATOM     26  C   UNL A   1      42.059  27.941  29.976  1.00  0.00     0.074 A 
ATOM     27  C   UNL A   1      41.379  30.488  35.831  1.00  0.00     0.029 A 
ATOM     28  N   UNL A   1      41.152  30.017  33.664  1.00  0.00    -0.354 N 
ATOM     29  N   UNL A   1      41.832  28.537  31.125  1.00  0.00    -0.248 NA
ATOM     30  C   UNL A   1      43.157  26.970  30.005  1.00  0.00     0.031 C 
ATOM     31  C   UNL A   1      42.332  29.526  35.473  1.00  0.00     0.029 A 
ATOM     32  C   UNL A   1      42.171  29.213  34.130  1.00  0.00     0.049 A 
ATOM     33  H   UNL A   1      40.817  30.026  32.738  1.00  0.00     0.167 HD
ATOM     34  C   UNL A   1      42.728  27.983  32.026  1.00  0.00     0.074 A 
ATOM     35  C   UNL A   1      43.496  26.998  31.286  1.00  0.00     0.031 C 
ATOM     36  C   UNL A   1      42.900  28.249  33.345  1.00  0.00     0.031 A 
BRANCH  23  37
ATOM     37  C   UNL A   1      39.153  32.606  35.694  1.00  0.00    -0.014 A 
ATOM     38  C   UNL A   1      39.700  33.879  35.943  1.00  0.00     0.009 A 
ATOM     39  C   UNL A   1      38.200  32.095  36.586  1.00  0.00     0.009 A 
ATOM     40  C   UNL A   1      39.340  34.597  37.085  1.00  0.00     0.001 A 
ATOM     41  C   UNL A   1      37.820  32.830  37.712  1.00  0.00     0.001 A 
ATOM     42  C   UNL A   1      38.398  34.072  37.968  1.00  0.00     0.000 A 
ENDBRANCH  23  37
BRANCH  24  43
ATOM     43  C   UNL A   1      41.704  27.330  27.457  1.00  0.00    -0.014 A 
ATOM     44  C   UNL A   1      42.606  27.856  26.520  1.00  0.00     0.009 A 
ATOM     45  C   UNL A   1      41.168  26.050  27.232  1.00  0.00     0.009 A 
ATOM     46  C   UNL A   1      42.935  27.134  25.369  1.00  0.00     0.001 A 
ATOM     47  C   UNL A   1      41.520  25.320  26.094  1.00  0.00     0.001 A 
ATOM     48  C   UNL A   1      42.395  25.866  25.158  1.00  0.00     0.000 A 
ENDBRANCH  24  43
BRANCH  36  49
ATOM     49  C   UNL A   1      43.932  27.431  34.061  1.00  0.00    -0.014 A 
ATOM     50  C   UNL A   1      45.256  27.878  34.184  1.00  0.00     0.009 A 
ATOM     51  C   UNL A   1      43.554  26.219  34.661  1.00  0.00     0.009 A 
ATOM     52  C   UNL A   1      46.193  27.104  34.865  1.00  0.00     0.001 A 
ATOM     53  C   UNL A   1      44.487  25.466  35.371  1.00  0.00     0.001 A 
ATOM     54  C   UNL A   1      45.807  25.904  35.464  1.00  0.00     0.000 A 
ENDBRANCH  36  49
ENDBRANCH  10  11
ENDBRANCH   3   5
ENDBRANCH   2   3
ENDBRANCH   1   2
BRANCH   1  55
ATOM     55  C   UNL A   1      31.794  30.802  26.558  1.00  0.00     0.275 C 
BRANCH  55  56
ATOM     56  O   UNL A   1      31.084  30.356  25.390  1.00  0.00    -0.458 OA
BRANCH  56  57
ATOM     57  C   UNL A   1      31.702  29.423  24.610  1.00  0.00     0.338 C 
ATOM     58  O   UNL A   1      32.811  29.507  24.113  1.00  0.00    -0.246 OA
BRANCH  57  59
ATOM     59  C   UNL A   1      30.785  28.278  24.396  1.00  0.00     0.071 A 
ATOM     60  C   UNL A   1      31.125  27.062  25.013  1.00  0.00     0.036 A 
ATOM     61  C   UNL A   1      29.586  28.388  23.671  1.00  0.00     0.017 A 
ATOM     62  C   UNL A   1      30.284  25.977  24.851  1.00  0.00     0.112 A 
ATOM     63  C   UNL A   1      28.849  27.203  23.548  1.00  0.00     0.120 A 
ATOM     64  N   UNL A   1      29.170  26.012  24.105  1.00  0.00    -0.264 NA
BRANCH  61  65
ATOM     65  C   UNL A   1      29.032  29.602  23.046  1.00  0.00     0.020 A 
ATOM     66  C   UNL A   1      27.982  30.326  23.622  1.00  0.00     0.015 A 
ATOM     67  C   UNL A   1      29.652  30.174  21.925  1.00  0.00     0.134 A 
ATOM     68  C   UNL A   1      27.592  31.577  23.140  1.00  0.00     0.040 A 
ATOM     69  C   UNL A   1      29.268  31.418  21.421  1.00  0.00     0.079 A 
ATOM     70  F   UNL A   1      30.682  29.544  21.341  1.00  0.00    -0.206 F 
ATOM     71  C   UNL A   1      28.246  32.114  22.045  1.00  0.00     0.126 A 
ATOM     72  F   UNL A   1      27.895  33.326  21.598  1.00  0.00    -0.207 F 
ENDBRANCH  61  65
ENDBRANCH  57  59
ENDBRANCH  56  57
ENDBRANCH  55  56
ENDBRANCH   1  55
TORSDOF 12
ENDMDL
MODEL 2
REMARK VINA RESULT:     -11.0      1.704      2.149
REMARK SMILES O=C(OCCOC(=O)c1ccncc1-c1ccc(F)cc1F)c1ccc(-c2c3nc(c(-c4ccccc4)c4ccc([nH]4)c(-c4ccccc4)c4nc(c(-c5ccccc5)c5ccc2[nH]5)C=C4)C=C3)cc1
REMARK SMILES IDX 4 1 3 2 2 3 1 4 23 5 24 6 70 7 25 8 69 9 26 10 27 11 28 12
REMARK SMILES IDX 63 13 29 14 68 15 62 16 64 17 30 18 67 19 61 20 60 21 31 23
REMARK SMILES IDX 53 24 38 25 52 26 39 27 42 28 51 29 65 30 40 31 41 32 50 34
REMARK SMILES IDX 66 35 43 36 32 37 33 38 37 39 34 40 36 41 35 42 54 43 55 44
REMARK SMILES IDX 59 45 56 46 58 47 57 48 44 49 45 50 49 51 46 52 48 53 47 54
REMARK SMILES IDX 5 55 6 56 7 57 8 58 9 59 10 60 14 61 11 62 13 63 12 64 15 65
REMARK SMILES IDX 16 66 21 67 17 68 20 69 22 70 18 71 19 72
REMARK H PARENT 64 22 42 33
REMARK Flexibility Score: inf
ROOT
ATOM      1  C   UNL A   1      32.012  30.293  26.639  1.00  0.00     0.275 C 
ENDROOT
BRANCH   1   2
ATOM      2  O   UNL A   1      33.332  30.837  26.566  1.00  0.00    -0.458 OA
BRANCH   2   3
ATOM      3  C   UNL A   1      33.682  31.783  27.455  1.00  0.00     0.338 C 
ATOM      4  O   UNL A   1      33.114  32.843  27.630  1.00  0.00    -0.246 OA
BRANCH   3   5
ATOM      5  C   UNL A   1      34.966  31.355  28.076  1.00  0.00     0.060 A 
ATOM      6  C   UNL A   1      35.183  29.998  28.358  1.00  0.00     0.016 A 
ATOM      7  C   UNL A   1      36.008  32.271  28.236  1.00  0.00     0.016 A 
ATOM      8  C   UNL A   1      36.418  29.565  28.800  1.00  0.00     0.010 A 
ATOM      9  C   UNL A   1      37.277  31.826  28.585  1.00  0.00     0.010 A 
ATOM     10  C   UNL A   1      37.463  30.480  28.917  1.00  0.00    -0.014 A 
BRANCH  10  11
ATOM     11  C   UNL A   1      38.686  30.047  29.604  1.00  0.00     0.031 A 
ATOM     12  C   UNL A   1      38.862  30.476  31.029  1.00  0.00     0.074 A 
ATOM     13  C   UNL A   1      39.538  29.214  28.984  1.00  0.00     0.049 A 
ATOM     14  N   UNL A   1      39.772  30.112  31.890  1.00  0.00    -0.248 NA
ATOM     15  C   UNL A   1      37.871  31.428  31.567  1.00  0.00     0.031 C 
ATOM     16  C   UNL A   1      39.396  28.723  27.612  1.00  0.00     0.029 A 
ATOM     17  N   UNL A   1      40.685  28.623  29.431  1.00  0.00    -0.354 N 
ATOM     18  C   UNL A   1      39.441  30.766  33.070  1.00  0.00     0.074 A 
ATOM     19  C   UNL A   1      38.313  31.621  32.797  1.00  0.00     0.031 C 
ATOM     20  C   UNL A   1      40.437  27.929  27.316  1.00  0.00     0.029 A 
ATOM     21  C   UNL A   1      41.303  27.843  28.485  1.00  0.00     0.049 A 
ATOM     22  H   UNL A   1      41.035  28.744  30.342  1.00  0.00     0.167 HD
ATOM     23  C   UNL A   1      39.999  30.618  34.290  1.00  0.00     0.031 A 
ATOM     24  C   UNL A   1      42.438  27.129  28.574  1.00  0.00     0.031 A 
ATOM     25  C   UNL A   1      41.133  29.773  34.523  1.00  0.00     0.049 A 
ATOM     26  C   UNL A   1      43.105  27.061  29.919  1.00  0.00     0.074 A 
ATOM     27  C   UNL A   1      41.810  29.531  35.701  1.00  0.00     0.029 A 
ATOM     28  N   UNL A   1      41.763  29.033  33.529  1.00  0.00    -0.354 N 
ATOM     29  N   UNL A   1      42.747  27.631  31.047  1.00  0.00    -0.248 NA
ATOM     30  C   UNL A   1      44.299  26.214  30.020  1.00  0.00     0.031 C 
ATOM     31  C   UNL A   1      42.881  28.678  35.408  1.00  0.00     0.029 A 
ATOM     32  C   UNL A   1      42.834  28.347  34.061  1.00  0.00     0.049 A 
ATOM     33  H   UNL A   1      41.484  29.005  32.585  1.00  0.00     0.167 HD
ATOM     34  C   UNL A   1      43.643  27.180  32.003  1.00  0.00     0.074 A 
ATOM     35  C   UNL A   1      44.556  26.282  31.319  1.00  0.00     0.031 C 
ATOM     36  C   UNL A   1      43.708  27.465  33.328  1.00  0.00     0.031 A 
BRANCH  23  37
ATOM     37  C   UNL A   1      39.379  31.395  35.417  1.00  0.00    -0.014 A 
ATOM     38  C   UNL A   1      39.860  32.670  35.770  1.00  0.00     0.009 A 
ATOM     39  C   UNL A   1      38.342  30.831  36.173  1.00  0.00     0.009 A 
ATOM     40  C   UNL A   1      39.350  33.339  36.885  1.00  0.00     0.001 A 
ATOM     41  C   UNL A   1      37.813  31.517  37.269  1.00  0.00     0.001 A 
ATOM     42  C   UNL A   1      38.325  32.762  37.633  1.00  0.00     0.000 A 
ENDBRANCH  23  37
BRANCH  24  43
ATOM     43  C   UNL A   1      42.967  26.408  27.388  1.00  0.00    -0.014 A 
ATOM     44  C   UNL A   1      43.886  27.016  26.519  1.00  0.00     0.009 A 
ATOM     45  C   UNL A   1      42.561  25.089  27.125  1.00  0.00     0.009 A 
ATOM     46  C   UNL A   1      44.359  26.331  25.395  1.00  0.00     0.001 A 
ATOM     47  C   UNL A   1      43.055  24.398  26.015  1.00  0.00     0.001 A 
ATOM     48  C   UNL A   1      43.946  25.023  25.146  1.00  0.00     0.000 A 
ENDBRANCH  24  43
BRANCH  36  49
ATOM     49  C   UNL A   1      44.779  26.766  34.110  1.00  0.00    -0.014 A 
ATOM     50  C   UNL A   1      46.050  27.336  34.271  1.00  0.00     0.009 A 
ATOM     51  C   UNL A   1      44.487  25.542  34.733  1.00  0.00     0.009 A 
ATOM     52  C   UNL A   1      47.024  26.672  35.014  1.00  0.00     0.001 A 
ATOM     53  C   UNL A   1      45.453  24.898  35.502  1.00  0.00     0.001 A 
ATOM     54  C   UNL A   1      46.724  25.458  35.634  1.00  0.00     0.000 A 
ENDBRANCH  36  49
ENDBRANCH  10  11
ENDBRANCH   3   5
ENDBRANCH   2   3
ENDBRANCH   1   2
BRANCH   1  55
ATOM     55  C   UNL A   1      31.764  28.908  27.286  1.00  0.00     0.275 C 
BRANCH  55  56
ATOM     56  O   UNL A   1      32.496  27.794  26.746  1.00  0.00    -0.458 OA
BRANCH  56  57
ATOM     57  C   UNL A   1      31.764  26.775  26.212  1.00  0.00     0.338 C 
ATOM     58  O   UNL A   1      30.849  26.174  26.749  1.00  0.00    -0.246 OA
BRANCH  57  59
ATOM     59  C   UNL A   1      32.289  26.449  24.864  1.00  0.00     0.071 A 
ATOM     60  C   UNL A   1      33.370  25.554  24.799  1.00  0.00     0.036 A 
ATOM     61  C   UNL A   1      31.710  26.942  23.682  1.00  0.00     0.017 A 
ATOM     62  C   UNL A   1      33.876  25.213  23.559  1.00  0.00     0.112 A 
ATOM     63  C   UNL A   1      32.345  26.551  22.496  1.00  0.00     0.120 A 
ATOM     64  N   UNL A   1      33.407  25.716  22.407  1.00  0.00    -0.264 NA
BRANCH  61  65
ATOM     65  C   UNL A   1      30.521  27.804  23.565  1.00  0.00     0.020 A 
ATOM     66  C   UNL A   1      30.617  29.181  23.330  1.00  0.00     0.015 A 
ATOM     67  C   UNL A   1      29.235  27.245  23.520  1.00  0.00     0.134 A 
ATOM     68  C   UNL A   1      29.499  29.960  23.022  1.00  0.00     0.040 A 
ATOM     69  C   UNL A   1      28.105  28.009  23.226  1.00  0.00     0.079 A 
ATOM     70  F   UNL A   1      29.077  25.926  23.710  1.00  0.00    -0.206 F 
ATOM     71  C   UNL A   1      28.252  29.362  22.967  1.00  0.00     0.126 A 
ATOM     72  F   UNL A   1      27.183  30.099  22.643  1.00  0.00    -0.207 F 
ENDBRANCH  61  65
ENDBRANCH  57  59
ENDBRANCH  56  57
ENDBRANCH  55  56
ENDBRANCH   1  55
TORSDOF 12
ENDMDL
MODEL 3
REMARK VINA RESULT:     -11.0      5.557      9.998
REMARK SMILES O=C(OCCOC(=O)c1ccncc1-c1ccc(F)cc1F)c1ccc(-c2c3nc(c(-c4ccccc4)c4ccc([nH]4)c(-c4ccccc4)c4nc(c(-c5ccccc5)c5ccc2[nH]5)C=C4)C=C3)cc1
REMARK SMILES IDX 4 1 3 2 2 3 1 4 23 5 24 6 70 7 25 8 69 9 26 10 27 11 28 12
REMARK SMILES IDX 63 13 29 14 68 15 62 16 64 17 30 18 67 19 61 20 60 21 31 23
REMARK SMILES IDX 53 24 38 25 52 26 39 27 42 28 51 29 65 30 40 31 41 32 50 34
REMARK SMILES IDX 66 35 43 36 32 37 33 38 37 39 34 40 36 41 35 42 54 43 55 44
REMARK SMILES IDX 59 45 56 46 58 47 57 48 44 49 45 50 49 51 46 52 48 53 47 54
REMARK SMILES IDX 5 55 6 56 7 57 8 58 9 59 10 60 14 61 11 62 13 63 12 64 15 65
REMARK SMILES IDX 16 66 21 67 17 68 20 69 22 70 18 71 19 72
REMARK H PARENT 64 22 42 33
REMARK Flexibility Score: inf
ROOT
ATOM      1  C   UNL A   1      38.887  19.867  25.433  1.00  0.00     0.275 C 
ENDROOT
BRANCH   1   2
ATOM      2  O   UNL A   1      39.887  19.518  26.394  1.00  0.00    -0.458 OA
BRANCH   2   3
ATOM      3  C   UNL A   1      41.179  19.678  26.056  1.00  0.00     0.338 C 
ATOM      4  O   UNL A   1      41.895  18.834  25.554  1.00  0.00    -0.246 OA
BRANCH   3   5
ATOM      5  C   UNL A   1      41.601  21.022  26.541  1.00  0.00     0.060 A 
ATOM      6  C   UNL A   1      41.791  21.237  27.914  1.00  0.00     0.016 A 
ATOM      7  C   UNL A   1      41.955  22.017  25.628  1.00  0.00     0.016 A 
ATOM      8  C   UNL A   1      42.318  22.430  28.367  1.00  0.00     0.010 A 
ATOM      9  C   UNL A   1      42.577  23.178  26.072  1.00  0.00     0.010 A 
ATOM     10  C   UNL A   1      42.706  23.402  27.446  1.00  0.00    -0.014 A 
BRANCH  10  11
ATOM     11  C   UNL A   1      43.041  24.739  27.952  1.00  0.00     0.031 A 
ATOM     12  C   UNL A   1      44.490  25.123  27.972  1.00  0.00     0.074 A 
ATOM     13  C   UNL A   1      42.056  25.594  28.275  1.00  0.00     0.049 A 
ATOM     14  N   UNL A   1      45.029  26.282  28.235  1.00  0.00    -0.248 NA
ATOM     15  C   UNL A   1      45.465  24.068  27.634  1.00  0.00     0.031 C 
ATOM     16  C   UNL A   1      40.624  25.293  28.230  1.00  0.00     0.029 A 
ATOM     17  N   UNL A   1      42.110  26.893  28.691  1.00  0.00    -0.354 N 
ATOM     18  C   UNL A   1      46.394  26.096  28.062  1.00  0.00     0.074 A 
ATOM     19  C   UNL A   1      46.616  24.702  27.770  1.00  0.00     0.031 C 
ATOM     20  C   UNL A   1      39.933  26.369  28.638  1.00  0.00     0.029 A 
ATOM     21  C   UNL A   1      40.876  27.436  28.951  1.00  0.00     0.049 A 
ATOM     22  H   UNL A   1      42.951  27.392  28.797  1.00  0.00     0.167 HD
ATOM     23  C   UNL A   1      47.371  27.027  28.089  1.00  0.00     0.031 A 
ATOM     24  C   UNL A   1      40.557  28.669  29.377  1.00  0.00     0.031 A 
ATOM     25  C   UNL A   1      47.119  28.403  28.402  1.00  0.00     0.049 A 
ATOM     26  C   UNL A   1      41.675  29.666  29.503  1.00  0.00     0.074 A 
ATOM     27  C   UNL A   1      48.009  29.456  28.475  1.00  0.00     0.029 A 
ATOM     28  N   UNL A   1      45.860  28.908  28.705  1.00  0.00    -0.354 N 
ATOM     29  N   UNL A   1      42.958  29.499  29.273  1.00  0.00    -0.248 NA
ATOM     30  C   UNL A   1      41.302  31.029  29.894  1.00  0.00     0.031 C 
ATOM     31  C   UNL A   1      47.291  30.591  28.870  1.00  0.00     0.029 A 
ATOM     32  C   UNL A   1      45.949  30.256  28.986  1.00  0.00     0.049 A 
ATOM     33  H   UNL A   1      45.029  28.381  28.717  1.00  0.00     0.167 HD
ATOM     34  C   UNL A   1      43.541  30.744  29.449  1.00  0.00     0.074 A 
ATOM     35  C   UNL A   1      42.466  31.655  29.797  1.00  0.00     0.031 C 
ATOM     36  C   UNL A   1      44.841  31.113  29.326  1.00  0.00     0.031 A 
BRANCH  23  37
ATOM     37  C   UNL A   1      48.764  26.556  27.781  1.00  0.00    -0.014 A 
ATOM     38  C   UNL A   1      49.237  26.509  26.456  1.00  0.00     0.009 A 
ATOM     39  C   UNL A   1      49.597  26.099  28.811  1.00  0.00     0.009 A 
ATOM     40  C   UNL A   1      50.493  25.969  26.168  1.00  0.00     0.001 A 
ATOM     41  C   UNL A   1      50.865  25.589  28.523  1.00  0.00     0.001 A 
ATOM     42  C   UNL A   1      51.306  25.511  27.202  1.00  0.00     0.000 A 
ENDBRANCH  23  37
BRANCH  24  43
ATOM     43  C   UNL A   1      39.143  29.023  29.665  1.00  0.00    -0.014 A 
ATOM     44  C   UNL A   1      38.311  29.554  28.669  1.00  0.00     0.009 A 
ATOM     45  C   UNL A   1      38.611  28.816  30.949  1.00  0.00     0.009 A 
ATOM     46  C   UNL A   1      36.988  29.902  28.960  1.00  0.00     0.001 A 
ATOM     47  C   UNL A   1      37.281  29.140  31.230  1.00  0.00     0.001 A 
ATOM     48  C   UNL A   1      36.473  29.692  30.239  1.00  0.00     0.000 A 
ENDBRANCH  24  43
BRANCH  36  49
ATOM     49  C   UNL A   1      45.145  32.565  29.534  1.00  0.00    -0.014 A 
ATOM     50  C   UNL A   1      45.512  33.057  30.795  1.00  0.00     0.009 A 
ATOM     51  C   UNL A   1      45.109  33.440  28.436  1.00  0.00     0.009 A 
ATOM     52  C   UNL A   1      45.803  34.410  30.960  1.00  0.00     0.001 A 
ATOM     53  C   UNL A   1      45.433  34.785  28.599  1.00  0.00     0.001 A 
ATOM     54  C   UNL A   1      45.770  35.271  29.862  1.00  0.00     0.000 A 
ENDBRANCH  36  49
ENDBRANCH  10  11
ENDBRANCH   3   5
ENDBRANCH   2   3
ENDBRANCH   1   2
BRANCH   1  55
ATOM     55  C   UNL A   1      38.248  21.278  25.437  1.00  0.00     0.275 C 
BRANCH  55  56
ATOM     56  O   UNL A   1      36.822  21.349  25.605  1.00  0.00    -0.458 OA
BRANCH  56  57
ATOM     57  C   UNL A   1      36.088  21.694  24.509  1.00  0.00     0.338 C 
ATOM     58  O   UNL A   1      36.463  22.362  23.561  1.00  0.00    -0.246 OA
BRANCH  57  59
ATOM     59  C   UNL A   1      34.707  21.178  24.662  1.00  0.00     0.071 A 
ATOM     60  C   UNL A   1      34.560  19.795  24.865  1.00  0.00     0.036 A 
ATOM     61  C   UNL A   1      33.578  22.016  24.677  1.00  0.00     0.017 A 
ATOM     62  C   UNL A   1      33.288  19.279  25.030  1.00  0.00     0.112 A 
ATOM     63  C   UNL A   1      32.347  21.360  24.810  1.00  0.00     0.120 A 
ATOM     64  N   UNL A   1      32.176  20.027  24.975  1.00  0.00    -0.264 NA
BRANCH  61  65
ATOM     65  C   UNL A   1      33.558  23.485  24.577  1.00  0.00     0.020 A 
ATOM     66  C   UNL A   1      33.758  24.312  25.689  1.00  0.00     0.015 A 
ATOM     67  C   UNL A   1      33.503  24.116  23.324  1.00  0.00     0.134 A 
ATOM     68  C   UNL A   1      33.939  25.691  25.564  1.00  0.00     0.040 A 
ATOM     69  C   UNL A   1      33.668  25.493  23.181  1.00  0.00     0.079 A 
ATOM     70  F   UNL A   1      33.340  23.377  22.216  1.00  0.00    -0.206 F 
ATOM     71  C   UNL A   1      33.897  26.268  24.307  1.00  0.00     0.126 A 
ATOM     72  F   UNL A   1      34.100  27.585  24.180  1.00  0.00    -0.207 F 
ENDBRANCH  61  65
ENDBRANCH  57  59
ENDBRANCH  56  57
ENDBRANCH  55  56
ENDBRANCH   1  55
TORSDOF 12
ENDMDL
