MODEL 1
REMARK VINA RESULT:     -12.6      0.000      0.000
REMARK SMILES O=C(OCCOC(=O)[C@H]1Cc2[nH]cnc2CN1C(=O)c1ccncc1Cl)c1ccc(-c2c3nc(c(-c4ccccc4)c4ccc([nH]4)c(-c4ccccc4)c4nc(c(-c5ccccc5)c5ccc2[nH]5)C=C4)C=C3)cc1
REMARK SMILES IDX 4 1 3 2 2 3 1 4 27 5 28 6 74 7 29 8 73 9 30 10 31 11 32 12
REMARK SMILES IDX 67 13 33 14 72 15 66 16 68 17 34 18 71 19 65 20 64 21 35 23
REMARK SMILES IDX 57 24 42 25 56 26 43 27 46 28 55 29 69 30 44 31 45 32 54 34
REMARK SMILES IDX 70 35 47 36 36 37 37 38 41 39 38 40 40 41 39 42 58 43 59 44
REMARK SMILES IDX 63 45 60 46 62 47 61 48 48 49 49 50 53 51 50 52 52 53 51 54
REMARK SMILES IDX 5 55 6 56 7 57 8 58 9 59 10 60 17 61 11 62 16 63 12 64 15 65
REMARK SMILES IDX 13 66 14 68 18 69 19 70 20 71 21 72 25 73 22 74 24 75 26 76
REMARK SMILES IDX 23 77
REMARK H PARENT 68 22 46 33 12 67
REMARK Flexibility Score: inf
ROOT
ATOM      1  C   UNL A   1      34.774  21.808  26.892  1.00  0.00     0.275 C 
ENDROOT
BRANCH   1   2
ATOM      2  O   UNL A   1      35.655  22.400  25.955  1.00  0.00    -0.458 OA
BRANCH   2   3
ATOM      3  C   UNL A   1      36.582  21.562  25.500  1.00  0.00     0.338 C 
ATOM      4  O   UNL A   1      36.422  20.382  25.166  1.00  0.00    -0.246 OA
BRANCH   3   5
ATOM      5  C   UNL A   1      37.871  22.172  25.780  1.00  0.00     0.060 A 
ATOM      6  C   UNL A   1      39.073  21.497  25.925  1.00  0.00     0.016 A 
ATOM      7  C   UNL A   1      37.878  23.543  25.795  1.00  0.00     0.016 A 
ATOM      8  C   UNL A   1      40.135  22.179  26.512  1.00  0.00     0.010 A 
ATOM      9  C   UNL A   1      38.993  24.224  26.153  1.00  0.00     0.010 A 
ATOM     10  C   UNL A   1      39.980  23.529  26.805  1.00  0.00    -0.014 A 
BRANCH  10  11
ATOM     11  C   UNL A   1      40.869  24.366  27.584  1.00  0.00     0.031 A 
ATOM     12  C   UNL A   1      40.265  25.680  27.842  1.00  0.00     0.074 A 
ATOM     13  C   UNL A   1      41.893  23.948  28.358  1.00  0.00     0.049 A 
ATOM     14  N   UNL A   1      40.238  26.652  26.994  1.00  0.00    -0.248 NA
ATOM     15  C   UNL A   1      39.338  25.831  28.980  1.00  0.00     0.031 C 
ATOM     16  C   UNL A   1      42.430  22.618  28.627  1.00  0.00     0.029 A 
ATOM     17  N   UNL A   1      42.664  24.730  29.159  1.00  0.00    -0.354 N 
ATOM     18  C   UNL A   1      39.516  27.633  27.638  1.00  0.00     0.074 A 
ATOM     19  C   UNL A   1      38.701  26.943  28.604  1.00  0.00     0.031 C 
ATOM     20  C   UNL A   1      43.297  22.663  29.671  1.00  0.00     0.029 A 
ATOM     21  C   UNL A   1      43.526  24.055  30.008  1.00  0.00     0.049 A 
ATOM     22  H   UNL A   1      42.613  25.714  29.137  1.00  0.00     0.167 HD
ATOM     23  C   UNL A   1      39.939  28.927  27.641  1.00  0.00     0.031 A 
ATOM     24  C   UNL A   1      44.374  24.631  30.897  1.00  0.00     0.031 A 
ATOM     25  C   UNL A   1      41.107  29.097  26.800  1.00  0.00     0.049 A 
ATOM     26  C   UNL A   1      44.573  26.034  30.446  1.00  0.00     0.074 A 
ATOM     27  C   UNL A   1      41.400  28.839  25.474  1.00  0.00     0.029 A 
ATOM     28  N   UNL A   1      42.326  29.148  27.447  1.00  0.00    -0.354 N 
ATOM     29  N   UNL A   1      45.153  26.347  29.321  1.00  0.00    -0.248 NA
ATOM     30  C   UNL A   1      43.700  27.061  30.996  1.00  0.00     0.031 C 
ATOM     31  C   UNL A   1      42.717  28.281  25.485  1.00  0.00     0.029 A 
ATOM     32  C   UNL A   1      43.194  28.301  26.799  1.00  0.00     0.049 A 
ATOM     33  H   UNL A   1      42.537  29.695  28.237  1.00  0.00     0.167 HD
ATOM     34  C   UNL A   1      44.389  27.384  28.798  1.00  0.00     0.074 A 
ATOM     35  C   UNL A   1      43.582  27.854  29.924  1.00  0.00     0.031 C 
ATOM     36  C   UNL A   1      44.261  27.560  27.447  1.00  0.00     0.031 A 
BRANCH  23  37
ATOM     37  C   UNL A   1      39.586  29.913  28.721  1.00  0.00    -0.014 A 
ATOM     38  C   UNL A   1      40.374  29.928  29.880  1.00  0.00     0.009 A 
ATOM     39  C   UNL A   1      38.408  30.686  28.745  1.00  0.00     0.009 A 
ATOM     40  C   UNL A   1      39.975  30.640  31.017  1.00  0.00     0.001 A 
ATOM     41  C   UNL A   1      38.029  31.433  29.859  1.00  0.00     0.001 A 
ATOM     42  C   UNL A   1      38.803  31.389  31.006  1.00  0.00     0.000 A 
ENDBRANCH  23  37
BRANCH  24  43
ATOM     43  C   UNL A   1      44.820  24.147  32.221  1.00  0.00    -0.014 A 
ATOM     44  C   UNL A   1      45.888  24.761  32.898  1.00  0.00     0.009 A 
ATOM     45  C   UNL A   1      44.009  23.259  32.949  1.00  0.00     0.009 A 
ATOM     46  C   UNL A   1      46.105  24.527  34.265  1.00  0.00     0.001 A 
ATOM     47  C   UNL A   1      44.224  23.028  34.314  1.00  0.00     0.001 A 
ATOM     48  C   UNL A   1      45.263  23.675  34.975  1.00  0.00     0.000 A 
ENDBRANCH  24  43
BRANCH  36  49
ATOM     49  C   UNL A   1      45.141  26.716  26.543  1.00  0.00    -0.014 A 
ATOM     50  C   UNL A   1      46.388  27.153  26.056  1.00  0.00     0.009 A 
ATOM     51  C   UNL A   1      44.777  25.383  26.304  1.00  0.00     0.009 A 
ATOM     52  C   UNL A   1      47.232  26.294  25.342  1.00  0.00     0.001 A 
ATOM     53  C   UNL A   1      45.626  24.519  25.603  1.00  0.00     0.001 A 
ATOM     54  C   UNL A   1      46.852  24.974  25.120  1.00  0.00     0.000 A 
ENDBRANCH  36  49
ENDBRANCH  10  11
ENDBRANCH   3   5
ENDBRANCH   2   3
ENDBRANCH   1   2
BRANCH   1  55
ATOM     55  C   UNL A   1      33.874  22.793  27.691  1.00  0.00     0.274 C 
BRANCH  55  56
ATOM     56  O   UNL A   1      32.495  22.387  27.927  1.00  0.00    -0.461 OA
BRANCH  56  57
ATOM     57  C   UNL A   1      31.482  23.038  27.246  1.00  0.00     0.329 C 
ATOM     58  O   UNL A   1      30.296  22.987  27.544  1.00  0.00    -0.250 OA
BRANCH  57  59
ATOM     59  C   UNL A   1      32.031  23.733  25.967  1.00  0.00     0.201 C 
ATOM     60  C   UNL A   1      31.603  22.800  24.768  1.00  0.00     0.093 C 
ATOM     61  N   UNL A   1      31.908  25.217  25.523  1.00  0.00    -0.318 N 
ATOM     62  C   UNL A   1      32.301  23.249  23.536  1.00  0.00     0.042 A 
ATOM     63  C   UNL A   1      32.846  25.554  24.403  1.00  0.00     0.179 C 
ATOM     64  N   UNL A   1      32.554  22.576  22.377  1.00  0.00    -0.348 N 
ATOM     65  C   UNL A   1      32.853  24.493  23.366  1.00  0.00     0.081 A 
ATOM     66  C   UNL A   1      33.311  23.410  21.592  1.00  0.00     0.197 A 
ATOM     67  H   UNL A   1      32.252  21.667  22.148  1.00  0.00     0.167 HD
ATOM     68  N   UNL A   1      33.521  24.572  22.173  1.00  0.00    -0.240 NA
BRANCH  61  69
ATOM     69  C   UNL A   1      31.319  26.374  26.106  1.00  0.00     0.256 C 
ATOM     70  O   UNL A   1      30.241  26.300  26.706  1.00  0.00    -0.269 OA
BRANCH  69  71
ATOM     71  C   UNL A   1      31.875  27.750  26.089  1.00  0.00     0.061 A 
ATOM     72  C   UNL A   1      32.458  28.221  27.261  1.00  0.00     0.035 A 
ATOM     73  C   UNL A   1      31.507  28.718  25.138  1.00  0.00     0.072 A 
ATOM     74  C   UNL A   1      32.787  29.572  27.349  1.00  0.00     0.112 A 
ATOM     75  C   UNL A   1      31.991  30.015  25.261  1.00  0.00     0.132 A 
ATOM     76  Cl  UNL A   1      30.344  28.506  23.905  1.00  0.00    -0.082 Cl
ATOM     77  N   UNL A   1      32.631  30.467  26.353  1.00  0.00    -0.263 NA
ENDBRANCH  69  71
ENDBRANCH  61  69
ENDBRANCH  57  59
ENDBRANCH  56  57
ENDBRANCH  55  56
ENDBRANCH   1  55
TORSDOF 13
ENDMDL
MODEL 2
REMARK VINA RESULT:     -12.4      1.817      3.045
REMARK SMILES O=C(OCCOC(=O)[C@H]1Cc2[nH]cnc2CN1C(=O)c1ccncc1Cl)c1ccc(-c2c3nc(c(-c4ccccc4)c4ccc([nH]4)c(-c4ccccc4)c4nc(c(-c5ccccc5)c5ccc2[nH]5)C=C4)C=C3)cc1
REMARK SMILES IDX 4 1 3 2 2 3 1 4 27 5 28 6 74 7 29 8 73 9 30 10 31 11 32 12
REMARK SMILES IDX 67 13 33 14 72 15 66 16 68 17 34 18 71 19 65 20 64 21 35 23
REMARK SMILES IDX 57 24 42 25 56 26 43 27 46 28 55 29 69 30 44 31 45 32 54 34
REMARK SMILES IDX 70 35 47 36 36 37 37 38 41 39 38 40 40 41 39 42 58 43 59 44
REMARK SMILES IDX 63 45 60 46 62 47 61 48 48 49 49 50 53 51 50 52 52 53 51 54
REMARK SMILES IDX 5 55 6 56 7 57 8 58 9 59 10 60 17 61 11 62 16 63 12 64 15 65
REMARK SMILES IDX 13 66 14 68 18 69 19 70 20 71 21 72 25 73 22 74 24 75 26 76
REMARK SMILES IDX 23 77
REMARK H PARENT 68 22 46 33 12 67
REMARK Flexibility Score: inf
ROOT
ATOM      1  C   UNL A   1      34.425  22.441  25.027  1.00  0.00     0.275 C 
ENDROOT
BRANCH   1   2
ATOM      2  O   UNL A   1      35.698  22.781  25.545  1.00  0.00    -0.458 OA
BRANCH   2   3
ATOM      3  C   UNL A   1      36.565  21.774  25.518  1.00  0.00     0.338 C 
ATOM      4  O   UNL A   1      36.305  20.565  25.518  1.00  0.00    -0.246 OA
BRANCH   3   5
ATOM      5  C   UNL A   1      37.870  22.336  25.824  1.00  0.00     0.060 A 
ATOM      6  C   UNL A   1      39.041  21.616  26.005  1.00  0.00     0.016 A 
ATOM      7  C   UNL A   1      37.930  23.706  25.826  1.00  0.00     0.016 A 
ATOM      8  C   UNL A   1      40.115  22.262  26.611  1.00  0.00     0.010 A 
ATOM      9  C   UNL A   1      39.062  24.347  26.205  1.00  0.00     0.010 A 
ATOM     10  C   UNL A   1      40.005  23.620  26.888  1.00  0.00    -0.014 A 
BRANCH  10  11
ATOM     11  C   UNL A   1      40.907  24.431  27.681  1.00  0.00     0.031 A 
ATOM     12  C   UNL A   1      40.323  25.749  27.961  1.00  0.00     0.074 A 
ATOM     13  C   UNL A   1      41.924  23.984  28.447  1.00  0.00     0.049 A 
ATOM     14  N   UNL A   1      40.312  26.736  27.129  1.00  0.00    -0.248 NA
ATOM     15  C   UNL A   1      39.398  25.896  29.101  1.00  0.00     0.031 C 
ATOM     16  C   UNL A   1      42.440  22.641  28.694  1.00  0.00     0.029 A 
ATOM     17  N   UNL A   1      42.707  24.741  29.261  1.00  0.00    -0.354 N 
ATOM     18  C   UNL A   1      39.605  27.717  27.790  1.00  0.00     0.074 A 
ATOM     19  C   UNL A   1      38.779  27.023  28.745  1.00  0.00     0.031 C 
ATOM     20  C   UNL A   1      43.308  22.656  29.739  1.00  0.00     0.029 A 
ATOM     21  C   UNL A   1      43.558  24.038  30.099  1.00  0.00     0.049 A 
ATOM     22  H   UNL A   1      42.671  25.725  29.256  1.00  0.00     0.167 HD
ATOM     23  C   UNL A   1      40.048  29.004  27.815  1.00  0.00     0.031 A 
ATOM     24  C   UNL A   1      44.415  24.585  30.997  1.00  0.00     0.031 A 
ATOM     25  C   UNL A   1      41.218  29.170  26.976  1.00  0.00     0.049 A 
ATOM     26  C   UNL A   1      44.636  25.993  30.570  1.00  0.00     0.074 A 
ATOM     27  C   UNL A   1      41.507  28.929  25.645  1.00  0.00     0.029 A 
ATOM     28  N   UNL A   1      42.438  29.191  27.623  1.00  0.00    -0.354 N 
ATOM     29  N   UNL A   1      45.221  26.315  29.450  1.00  0.00    -0.248 NA
ATOM     30  C   UNL A   1      43.779  27.024  31.136  1.00  0.00     0.031 C 
ATOM     31  C   UNL A   1      42.815  28.351  25.648  1.00  0.00     0.029 A 
ATOM     32  C   UNL A   1      43.292  28.342  26.961  1.00  0.00     0.049 A 
ATOM     33  H   UNL A   1      42.658  29.721  28.422  1.00  0.00     0.167 HD
ATOM     34  C   UNL A   1      44.473  27.373  28.945  1.00  0.00     0.074 A 
ATOM     35  C   UNL A   1      43.673  27.837  30.078  1.00  0.00     0.031 C 
ATOM     36  C   UNL A   1      44.348  27.573  27.597  1.00  0.00     0.031 A 
BRANCH  23  37
ATOM     37  C   UNL A   1      39.710  29.977  28.910  1.00  0.00    -0.014 A 
ATOM     38  C   UNL A   1      40.470  29.931  30.087  1.00  0.00     0.009 A 
ATOM     39  C   UNL A   1      38.565  30.798  28.927  1.00  0.00     0.009 A 
ATOM     40  C   UNL A   1      40.074  30.630  31.232  1.00  0.00     0.001 A 
ATOM     41  C   UNL A   1      38.190  31.532  30.051  1.00  0.00     0.001 A 
ATOM     42  C   UNL A   1      38.934  31.428  31.214  1.00  0.00     0.000 A 
ENDBRANCH  23  37
BRANCH  24  43
ATOM     43  C   UNL A   1      44.854  24.072  32.312  1.00  0.00    -0.014 A 
ATOM     44  C   UNL A   1      45.908  24.680  33.015  1.00  0.00     0.009 A 
ATOM     45  C   UNL A   1      44.045  23.158  33.009  1.00  0.00     0.009 A 
ATOM     46  C   UNL A   1      46.114  24.414  34.378  1.00  0.00     0.001 A 
ATOM     47  C   UNL A   1      44.249  22.894  34.370  1.00  0.00     0.001 A 
ATOM     48  C   UNL A   1      45.275  23.535  35.058  1.00  0.00     0.000 A 
ENDBRANCH  24  43
BRANCH  36  49
ATOM     49  C   UNL A   1      45.214  26.731  26.679  1.00  0.00    -0.014 A 
ATOM     50  C   UNL A   1      46.504  27.119  26.268  1.00  0.00     0.009 A 
ATOM     51  C   UNL A   1      44.785  25.438  26.346  1.00  0.00     0.009 A 
ATOM     52  C   UNL A   1      47.326  26.253  25.537  1.00  0.00     0.001 A 
ATOM     53  C   UNL A   1      45.610  24.566  25.628  1.00  0.00     0.001 A 
ATOM     54  C   UNL A   1      46.880  24.973  25.221  1.00  0.00     0.000 A 
ENDBRANCH  36  49
ENDBRANCH  10  11
ENDBRANCH   3   5
ENDBRANCH   2   3
ENDBRANCH   1   2
BRANCH   1  55
ATOM     55  C   UNL A   1      33.497  23.637  24.671  1.00  0.00     0.274 C 
BRANCH  55  56
ATOM     56  O   UNL A   1      34.141  24.913  24.388  1.00  0.00    -0.461 OA
BRANCH  56  57
ATOM     57  C   UNL A   1      33.540  25.781  23.494  1.00  0.00     0.329 C 
ATOM     58  O   UNL A   1      33.581  25.667  22.276  1.00  0.00    -0.250 OA
BRANCH  57  59
ATOM     59  C   UNL A   1      32.919  27.000  24.236  1.00  0.00     0.201 C 
ATOM     60  C   UNL A   1      34.136  27.942  24.583  1.00  0.00     0.093 C 
ATOM     61  N   UNL A   1      31.697  27.875  23.841  1.00  0.00    -0.318 N 
ATOM     62  C   UNL A   1      33.674  29.003  25.514  1.00  0.00     0.042 A 
ATOM     63  C   UNL A   1      31.224  28.734  24.975  1.00  0.00     0.179 C 
ATOM     64  N   UNL A   1      34.387  29.794  26.366  1.00  0.00    -0.348 N 
ATOM     65  C   UNL A   1      32.362  29.369  25.684  1.00  0.00     0.081 A 
ATOM     66  C   UNL A   1      33.475  30.543  27.067  1.00  0.00     0.197 A 
ATOM     67  H   UNL A   1      35.366  29.822  26.460  1.00  0.00     0.167 HD
ATOM     68  N   UNL A   1      32.240  30.295  26.685  1.00  0.00    -0.240 NA
BRANCH  61  69
ATOM     69  C   UNL A   1      30.774  27.847  22.758  1.00  0.00     0.256 C 
ATOM     70  O   UNL A   1      31.024  27.203  21.733  1.00  0.00    -0.269 OA
BRANCH  69  71
ATOM     71  C   UNL A   1      29.460  28.534  22.703  1.00  0.00     0.061 A 
ATOM     72  C   UNL A   1      29.464  29.914  22.529  1.00  0.00     0.035 A 
ATOM     73  C   UNL A   1      28.273  27.967  23.200  1.00  0.00     0.072 A 
ATOM     74  C   UNL A   1      28.270  30.613  22.693  1.00  0.00     0.112 A 
ATOM     75  C   UNL A   1      27.107  28.723  23.210  1.00  0.00     0.132 A 
ATOM     76  Cl  UNL A   1      28.149  26.457  23.988  1.00  0.00    -0.082 Cl
ATOM     77  N   UNL A   1      27.078  30.044  22.962  1.00  0.00    -0.263 NA
ENDBRANCH  69  71
ENDBRANCH  61  69
ENDBRANCH  57  59
ENDBRANCH  56  57
ENDBRANCH  55  56
ENDBRANCH   1  55
TORSDOF 13
ENDMDL
MODEL 3
REMARK VINA RESULT:     -12.3      3.470      8.638
REMARK SMILES O=C(OCCOC(=O)[C@H]1Cc2[nH]cnc2CN1C(=O)c1ccncc1Cl)c1ccc(-c2c3nc(c(-c4ccccc4)c4ccc([nH]4)c(-c4ccccc4)c4nc(c(-c5ccccc5)c5ccc2[nH]5)C=C4)C=C3)cc1
REMARK SMILES IDX 4 1 3 2 2 3 1 4 27 5 28 6 74 7 29 8 73 9 30 10 31 11 32 12
REMARK SMILES IDX 67 13 33 14 72 15 66 16 68 17 34 18 71 19 65 20 64 21 35 23
REMARK SMILES IDX 57 24 42 25 56 26 43 27 46 28 55 29 69 30 44 31 45 32 54 34
REMARK SMILES IDX 70 35 47 36 36 37 37 38 41 39 38 40 40 41 39 42 58 43 59 44
REMARK SMILES IDX 63 45 60 46 62 47 61 48 48 49 49 50 53 51 50 52 52 53 51 54
REMARK SMILES IDX 5 55 6 56 7 57 8 58 9 59 10 60 17 61 11 62 16 63 12 64 15 65
REMARK SMILES IDX 13 66 14 68 18 69 19 70 20 71 21 72 25 73 22 74 24 75 26 76
REMARK SMILES IDX 23 77
REMARK H PARENT 68 22 46 33 12 67
REMARK Flexibility Score: inf
ROOT
ATOM      1  C   UNL A   1      33.661  29.328  23.758  1.00  0.00     0.275 C 
ENDROOT
BRANCH   1   2
ATOM      2  O   UNL A   1      33.398  28.907  25.084  1.00  0.00    -0.458 OA
BRANCH   2   3
ATOM      3  C   UNL A   1      32.747  29.814  25.806  1.00  0.00     0.338 C 
ATOM      4  O   UNL A   1      31.697  30.394  25.505  1.00  0.00    -0.246 OA
BRANCH   3   5
ATOM      5  C   UNL A   1      33.656  30.246  26.854  1.00  0.00     0.060 A 
ATOM      6  C   UNL A   1      33.707  31.513  27.413  1.00  0.00     0.016 A 
ATOM      7  C   UNL A   1      34.451  29.260  27.382  1.00  0.00     0.016 A 
ATOM      8  C   UNL A   1      34.835  31.854  28.153  1.00  0.00     0.010 A 
ATOM      9  C   UNL A   1      35.415  29.560  28.285  1.00  0.00     0.010 A 
ATOM     10  C   UNL A   1      35.790  30.875  28.401  1.00  0.00    -0.014 A 
BRANCH  10  11
ATOM     11  C   UNL A   1      37.110  31.059  28.969  1.00  0.00     0.031 A 
ATOM     12  C   UNL A   1      37.931  29.853  28.797  1.00  0.00     0.074 A 
ATOM     13  C   UNL A   1      37.716  32.237  29.227  1.00  0.00     0.049 A 
ATOM     14  N   UNL A   1      37.855  28.803  29.543  1.00  0.00    -0.248 NA
ATOM     15  C   UNL A   1      38.650  29.651  27.524  1.00  0.00     0.031 C 
ATOM     16  C   UNL A   1      37.270  33.617  29.065  1.00  0.00     0.029 A 
ATOM     17  N   UNL A   1      38.989  32.403  29.673  1.00  0.00    -0.354 N 
ATOM     18  C   UNL A   1      38.742  27.921  28.966  1.00  0.00     0.074 A 
ATOM     19  C   UNL A   1      38.859  28.335  27.591  1.00  0.00     0.031 C 
ATOM     20  C   UNL A   1      38.316  34.470  29.213  1.00  0.00     0.029 A 
ATOM     21  C   UNL A   1      39.458  33.707  29.679  1.00  0.00     0.049 A 
ATOM     22  H   UNL A   1      39.544  31.645  29.971  1.00  0.00     0.167 HD
ATOM     23  C   UNL A   1      39.621  27.213  29.726  1.00  0.00     0.031 A 
ATOM     24  C   UNL A   1      40.696  34.102  30.070  1.00  0.00     0.031 A 
ATOM     25  C   UNL A   1      39.382  27.428  31.139  1.00  0.00     0.049 A 
ATOM     26  C   UNL A   1      41.237  33.014  30.929  1.00  0.00     0.074 A 
ATOM     27  C   UNL A   1      38.293  27.279  31.978  1.00  0.00     0.029 A 
ATOM     28  N   UNL A   1      40.219  28.325  31.773  1.00  0.00    -0.354 N 
ATOM     29  N   UNL A   1      40.714  32.685  32.077  1.00  0.00    -0.248 NA
ATOM     30  C   UNL A   1      42.040  31.977  30.298  1.00  0.00     0.031 C 
ATOM     31  C   UNL A   1      38.310  28.435  32.819  1.00  0.00     0.029 A 
ATOM     32  C   UNL A   1      39.446  29.189  32.512  1.00  0.00     0.049 A 
ATOM     33  H   UNL A   1      41.201  28.343  31.707  1.00  0.00     0.167 HD
ATOM     34  C   UNL A   1      40.734  31.295  32.097  1.00  0.00     0.074 A 
ATOM     35  C   UNL A   1      41.663  30.922  31.030  1.00  0.00     0.031 C 
ATOM     36  C   UNL A   1      39.775  30.581  32.762  1.00  0.00     0.031 A 
BRANCH  23  37
ATOM     37  C   UNL A   1      40.939  26.701  29.211  1.00  0.00    -0.014 A 
ATOM     38  C   UNL A   1      42.064  27.524  29.355  1.00  0.00     0.009 A 
ATOM     39  C   UNL A   1      41.095  25.546  28.420  1.00  0.00     0.009 A 
ATOM     40  C   UNL A   1      43.265  27.229  28.700  1.00  0.00     0.001 A 
ATOM     41  C   UNL A   1      42.301  25.224  27.801  1.00  0.00     0.001 A 
ATOM     42  C   UNL A   1      43.381  26.082  27.921  1.00  0.00     0.000 A 
ENDBRANCH  23  37
BRANCH  24  43
ATOM     43  C   UNL A   1      41.533  35.211  29.566  1.00  0.00    -0.014 A 
ATOM     44  C   UNL A   1      42.714  35.590  30.226  1.00  0.00     0.009 A 
ATOM     45  C   UNL A   1      41.320  35.712  28.269  1.00  0.00     0.009 A 
ATOM     46  C   UNL A   1      43.666  36.404  29.592  1.00  0.00     0.001 A 
ATOM     47  C   UNL A   1      42.271  36.522  27.636  1.00  0.00     0.001 A 
ATOM     48  C   UNL A   1      43.451  36.855  28.292  1.00  0.00     0.000 A 
ENDBRANCH  24  43
BRANCH  36  49
ATOM     49  C   UNL A   1      38.812  31.353  33.645  1.00  0.00    -0.014 A 
ATOM     50  C   UNL A   1      39.057  31.616  35.007  1.00  0.00     0.009 A 
ATOM     51  C   UNL A   1      37.701  31.968  33.051  1.00  0.00     0.009 A 
ATOM     52  C   UNL A   1      38.214  32.449  35.750  1.00  0.00     0.001 A 
ATOM     53  C   UNL A   1      36.865  32.813  33.789  1.00  0.00     0.001 A 
ATOM     54  C   UNL A   1      37.119  33.053  35.139  1.00  0.00     0.000 A 
ENDBRANCH  36  49
ENDBRANCH  10  11
ENDBRANCH   3   5
ENDBRANCH   2   3
ENDBRANCH   1   2
BRANCH   1  55
ATOM     55  C   UNL A   1      32.982  28.494  22.635  1.00  0.00     0.274 C 
BRANCH  55  56
ATOM     56  O   UNL A   1      33.807  27.506  21.953  1.00  0.00    -0.461 OA
BRANCH  56  57
ATOM     57  C   UNL A   1      33.330  26.214  21.820  1.00  0.00     0.329 C 
ATOM     58  O   UNL A   1      33.213  25.620  20.758  1.00  0.00    -0.250 OA
BRANCH  57  59
ATOM     59  C   UNL A   1      32.831  25.665  23.188  1.00  0.00     0.201 C 
ATOM     60  C   UNL A   1      31.256  25.671  23.091  1.00  0.00     0.093 C 
ATOM     61  N   UNL A   1      33.286  24.398  23.964  1.00  0.00    -0.318 N 
ATOM     62  C   UNL A   1      30.690  25.405  24.439  1.00  0.00     0.042 A 
ATOM     63  C   UNL A   1      32.801  24.398  25.384  1.00  0.00     0.179 C 
ATOM     64  N   UNL A   1      29.448  25.672  24.937  1.00  0.00    -0.348 N 
ATOM     65  C   UNL A   1      31.382  24.822  25.470  1.00  0.00     0.081 A 
ATOM     66  C   UNL A   1      29.468  25.313  26.262  1.00  0.00     0.197 A 
ATOM     67  H   UNL A   1      28.686  26.049  24.442  1.00  0.00     0.167 HD
ATOM     68  N   UNL A   1      30.632  24.809  26.616  1.00  0.00    -0.240 NA
BRANCH  61  69
ATOM     69  C   UNL A   1      34.265  23.394  23.725  1.00  0.00     0.256 C 
ATOM     70  O   UNL A   1      35.278  23.646  23.063  1.00  0.00    -0.269 OA
BRANCH  69  71
ATOM     71  C   UNL A   1      34.224  21.991  24.205  1.00  0.00     0.061 A 
ATOM     72  C   UNL A   1      35.402  21.452  24.713  1.00  0.00     0.035 A 
ATOM     73  C   UNL A   1      33.229  21.073  23.822  1.00  0.00     0.072 A 
ATOM     74  C   UNL A   1      35.459  20.083  24.965  1.00  0.00     0.112 A 
ATOM     75  C   UNL A   1      33.328  19.748  24.229  1.00  0.00     0.132 A 
ATOM     76  Cl  UNL A   1      31.961  21.388  22.722  1.00  0.00    -0.082 Cl
ATOM     77  N   UNL A   1      34.429  19.229  24.799  1.00  0.00    -0.263 NA
ENDBRANCH  69  71
ENDBRANCH  61  69
ENDBRANCH  57  59
ENDBRANCH  56  57
ENDBRANCH  55  56
ENDBRANCH   1  55
TORSDOF 13
ENDMDL
