MODEL 1
REMARK VINA RESULT:     -10.2      0.000      0.000
REMARK SMILES COc1ccc(/C=C2\SC(=S)N=C2OCCOC(=O)c2ccc(-c3c4nc(c(-c5ccccc5)c5ccc([nH]5)c(-c5ccccc5)c5nc(c(-c6ccccc6)c6ccc3[nH]6)C=C5)C=C4)cc2)c(C(=O)[O-])c1OC
REMARK SMILES IDX 16 1 15 2 14 3 13 4 7 5 8 6 9 7 10 8 12 9 11 10 6 11 3 12
REMARK SMILES IDX 4 13 72 14 5 15 68 16 2 17 1 18 73 19 74 20 69 21 70 22
REMARK SMILES IDX 71 23 17 24 18 25 19 26 20 27 21 28 67 29 22 30 66 31 23 32
REMARK SMILES IDX 24 33 25 34 60 35 26 36 65 37 59 38 61 39 27 40 64 41 58 42
REMARK SMILES IDX 57 43 28 45 50 46 35 47 49 48 36 49 39 50 48 51 62 52 37 53
REMARK SMILES IDX 38 54 47 56 63 57 40 58 29 59 30 60 34 61 31 62 33 63 32 64
REMARK SMILES IDX 51 65 52 66 56 67 53 68 55 69 54 70 41 71 42 72 46 73 43 74
REMARK SMILES IDX 45 75 44 76
REMARK H PARENT 61 44 39 55
REMARK Flexibility Score: inf
ROOT
ATOM      1  C   UNL A   1      32.496  30.279  26.886  1.00  0.00     0.274 C 
ENDROOT
BRANCH   1   2
ATOM      2  C   UNL A   1      32.115  28.845  27.292  1.00  0.00     0.273 C 
BRANCH   2   3
ATOM      3  O   UNL A   1      33.013  27.853  26.756  1.00  0.00    -0.473 OA
BRANCH   3   4
ATOM      4  C   UNL A   1      32.966  27.176  25.601  1.00  0.00     0.229 C 
ATOM      5  C   UNL A   1      34.300  25.057  26.116  1.00  0.00     0.030 C 
ATOM      6  C   UNL A   1      33.641  25.883  25.288  1.00  0.00     0.077 C 
ATOM      7  S   UNL A   1      33.281  25.554  23.619  1.00  0.00    -0.053 SA
ATOM      8  C   UNL A   1      32.152  26.918  23.562  1.00  0.00     0.168 C 
ATOM      9  N   UNL A   1      32.207  27.701  24.685  1.00  0.00    -0.194 NA
ATOM     10  S   UNL A   1      31.082  27.128  22.295  1.00  0.00    -0.050 S 
BRANCH   5  11
ATOM     11  C   UNL A   1      34.818  23.666  26.022  1.00  0.00    -0.011 A 
ATOM     12  C   UNL A   1      35.730  21.100  25.246  1.00  0.00     0.161 A 
ATOM     13  C   UNL A   1      36.544  22.217  25.085  1.00  0.00     0.051 A 
ATOM     14  C   UNL A   1      34.451  21.228  25.816  1.00  0.00     0.170 A 
ATOM     15  C   UNL A   1      36.079  23.479  25.447  1.00  0.00     0.013 A 
ATOM     16  C   UNL A   1      34.002  22.517  26.233  1.00  0.00     0.050 A 
BRANCH  12  17
ATOM     17  O   UNL A   1      36.274  19.888  24.915  1.00  0.00    -0.493 OA
ATOM     18  C   UNL A   1      37.699  19.917  24.851  1.00  0.00     0.278 C 
ENDBRANCH  12  17
BRANCH  14  19
ATOM     19  O   UNL A   1      33.537  20.215  25.929  1.00  0.00    -0.492 OA
ATOM     20  C   UNL A   1      32.839  19.722  24.801  1.00  0.00     0.278 C 
ENDBRANCH  14  19
BRANCH  16  21
ATOM     21  C   UNL A   1      32.646  22.686  26.864  1.00  0.00     0.076 C 
ATOM     22  O   UNL A   1      32.382  22.642  28.053  1.00  0.00    -0.545 OA
ATOM     23  O   UNL A   1      31.639  22.854  25.990  1.00  0.00    -0.545 OA
ENDBRANCH  16  21
ENDBRANCH   5  11
ENDBRANCH   3   4
ENDBRANCH   2   3
ENDBRANCH   1   2
BRANCH   1  24
ATOM     24  O   UNL A   1      33.921  30.509  26.831  1.00  0.00    -0.458 OA
BRANCH  24  25
ATOM     25  C   UNL A   1      34.471  31.084  27.933  1.00  0.00     0.338 C 
ATOM     26  O   UNL A   1      33.932  31.869  28.685  1.00  0.00    -0.246 OA
BRANCH  25  27
ATOM     27  C   UNL A   1      35.805  30.488  28.210  1.00  0.00     0.060 A 
ATOM     28  C   UNL A   1      36.021  29.943  29.482  1.00  0.00     0.016 A 
ATOM     29  C   UNL A   1      36.832  30.460  27.262  1.00  0.00     0.016 A 
ATOM     30  C   UNL A   1      37.248  29.354  29.804  1.00  0.00     0.010 A 
ATOM     31  C   UNL A   1      38.069  29.881  27.594  1.00  0.00     0.010 A 
ATOM     32  C   UNL A   1      38.290  29.323  28.868  1.00  0.00    -0.014 A 
BRANCH  32  33
ATOM     33  C   UNL A   1      39.627  28.798  29.269  1.00  0.00     0.031 A 
ATOM     34  C   UNL A   1      40.501  29.628  30.169  1.00  0.00     0.074 A 
ATOM     35  C   UNL A   1      40.056  27.578  28.885  1.00  0.00     0.049 A 
ATOM     36  N   UNL A   1      41.666  29.339  30.692  1.00  0.00    -0.248 NA
ATOM     37  C   UNL A   1      39.986  30.956  30.537  1.00  0.00     0.031 C 
ATOM     38  C   UNL A   1      39.305  26.633  28.066  1.00  0.00     0.029 A 
ATOM     39  N   UNL A   1      41.239  26.922  29.140  1.00  0.00    -0.354 N 
ATOM     40  C   UNL A   1      42.008  30.433  31.477  1.00  0.00     0.074 A 
ATOM     41  C   UNL A   1      40.964  31.419  31.300  1.00  0.00     0.031 C 
ATOM     42  C   UNL A   1      40.053  25.537  27.849  1.00  0.00     0.029 A 
ATOM     43  C   UNL A   1      41.332  25.691  28.534  1.00  0.00     0.049 A 
ATOM     44  H   UNL A   1      41.951  27.299  29.703  1.00  0.00     0.167 HD
ATOM     45  C   UNL A   1      43.077  30.599  32.293  1.00  0.00     0.031 A 
ATOM     46  C   UNL A   1      42.323  24.778  28.536  1.00  0.00     0.031 A 
ATOM     47  C   UNL A   1      44.145  29.644  32.442  1.00  0.00     0.049 A 
ATOM     48  C   UNL A   1      43.550  25.023  29.371  1.00  0.00     0.074 A 
ATOM     49  C   UNL A   1      45.277  29.732  33.233  1.00  0.00     0.029 A 
ATOM     50  N   UNL A   1      44.220  28.432  31.774  1.00  0.00    -0.354 N 
ATOM     51  N   UNL A   1      43.836  26.044  30.140  1.00  0.00    -0.248 NA
ATOM     52  C   UNL A   1      44.576  23.969  29.364  1.00  0.00     0.031 C 
ATOM     53  C   UNL A   1      46.069  28.602  32.992  1.00  0.00     0.029 A 
ATOM     54  C   UNL A   1      45.395  27.776  32.107  1.00  0.00     0.049 A 
ATOM     55  H   UNL A   1      43.537  28.086  31.152  1.00  0.00     0.167 HD
ATOM     56  C   UNL A   1      45.058  25.744  30.733  1.00  0.00     0.074 A 
ATOM     57  C   UNL A   1      45.445  24.435  30.248  1.00  0.00     0.031 C 
ATOM     58  C   UNL A   1      45.787  26.484  31.605  1.00  0.00     0.031 A 
BRANCH  45  59
ATOM     59  C   UNL A   1      43.148  31.894  33.055  1.00  0.00    -0.014 A 
ATOM     60  C   UNL A   1      42.458  32.063  34.269  1.00  0.00     0.009 A 
ATOM     61  C   UNL A   1      43.889  32.969  32.543  1.00  0.00     0.009 A 
ATOM     62  C   UNL A   1      42.462  33.299  34.919  1.00  0.00     0.001 A 
ATOM     63  C   UNL A   1      43.919  34.193  33.213  1.00  0.00     0.001 A 
ATOM     64  C   UNL A   1      43.193  34.362  34.391  1.00  0.00     0.000 A 
ENDBRANCH  45  59
BRANCH  46  65
ATOM     65  C   UNL A   1      42.195  23.535  27.724  1.00  0.00    -0.014 A 
ATOM     66  C   UNL A   1      41.668  22.357  28.277  1.00  0.00     0.009 A 
ATOM     67  C   UNL A   1      42.625  23.519  26.388  1.00  0.00     0.009 A 
ATOM     68  C   UNL A   1      41.602  21.184  27.519  1.00  0.00     0.001 A 
ATOM     69  C   UNL A   1      42.530  22.354  25.623  1.00  0.00     0.001 A 
ATOM     70  C   UNL A   1      42.029  21.185  26.192  1.00  0.00     0.000 A 
ENDBRANCH  46  65
BRANCH  58  71
ATOM     71  C   UNL A   1      47.073  25.883  32.106  1.00  0.00    -0.014 A 
ATOM     72  C   UNL A   1      48.283  26.047  31.411  1.00  0.00     0.009 A 
ATOM     73  C   UNL A   1      47.078  25.151  33.305  1.00  0.00     0.009 A 
ATOM     74  C   UNL A   1      49.456  25.452  31.880  1.00  0.00     0.001 A 
ATOM     75  C   UNL A   1      48.259  24.587  33.790  1.00  0.00     0.001 A 
ATOM     76  C   UNL A   1      49.444  24.726  33.071  1.00  0.00     0.000 A 
ENDBRANCH  58  71
ENDBRANCH  32  33
ENDBRANCH  25  27
ENDBRANCH  24  25
ENDBRANCH   1  24
TORSDOF 14
ENDMDL
MODEL 2
REMARK VINA RESULT:     -10.1      2.653      7.981
REMARK SMILES COc1ccc(/C=C2\SC(=S)N=C2OCCOC(=O)c2ccc(-c3c4nc(c(-c5ccccc5)c5ccc([nH]5)c(-c5ccccc5)c5nc(c(-c6ccccc6)c6ccc3[nH]6)C=C5)C=C4)cc2)c(C(=O)[O-])c1OC
REMARK SMILES IDX 16 1 15 2 14 3 13 4 7 5 8 6 9 7 10 8 12 9 11 10 6 11 3 12
REMARK SMILES IDX 4 13 72 14 5 15 68 16 2 17 1 18 73 19 74 20 69 21 70 22
REMARK SMILES IDX 71 23 17 24 18 25 19 26 20 27 21 28 67 29 22 30 66 31 23 32
REMARK SMILES IDX 24 33 25 34 60 35 26 36 65 37 59 38 61 39 27 40 64 41 58 42
REMARK SMILES IDX 57 43 28 45 50 46 35 47 49 48 36 49 39 50 48 51 62 52 37 53
REMARK SMILES IDX 38 54 47 56 63 57 40 58 29 59 30 60 34 61 31 62 33 63 32 64
REMARK SMILES IDX 51 65 52 66 56 67 53 68 55 69 54 70 41 71 42 72 46 73 43 74
REMARK SMILES IDX 45 75 44 76
REMARK H PARENT 61 44 39 55
REMARK Flexibility Score: inf
ROOT
ATOM      1  C   UNL A   1      39.520  19.910  25.553  1.00  0.00     0.274 C 
ENDROOT
BRANCH   1   2
ATOM      2  C   UNL A   1      38.255  19.100  25.224  1.00  0.00     0.273 C 
BRANCH   2   3
ATOM      3  O   UNL A   1      37.121  19.934  24.910  1.00  0.00    -0.473 OA
BRANCH   3   4
ATOM      4  C   UNL A   1      35.815  19.639  24.867  1.00  0.00     0.229 C 
ATOM      5  C   UNL A   1      34.698  21.890  25.342  1.00  0.00     0.030 C 
ATOM      6  C   UNL A   1      34.675  20.561  25.144  1.00  0.00     0.077 C 
ATOM      7  S   UNL A   1      33.240  19.590  25.015  1.00  0.00    -0.053 SA
ATOM      8  C   UNL A   1      34.184  18.221  24.407  1.00  0.00     0.168 C 
ATOM      9  N   UNL A   1      35.536  18.424  24.497  1.00  0.00    -0.194 NA
ATOM     10  S   UNL A   1      33.458  16.883  23.714  1.00  0.00    -0.050 S 
BRANCH   5  11
ATOM     11  C   UNL A   1      33.669  22.961  25.401  1.00  0.00    -0.011 A 
ATOM     12  C   UNL A   1      31.344  24.552  25.691  1.00  0.00     0.161 A 
ATOM     13  C   UNL A   1      32.056  24.131  26.810  1.00  0.00     0.051 A 
ATOM     14  C   UNL A   1      31.783  24.210  24.400  1.00  0.00     0.170 A 
ATOM     15  C   UNL A   1      33.185  23.329  26.660  1.00  0.00     0.013 A 
ATOM     16  C   UNL A   1      32.970  23.432  24.252  1.00  0.00     0.050 A 
BRANCH  12  17
ATOM     17  O   UNL A   1      30.276  25.379  25.914  1.00  0.00    -0.493 OA
ATOM     18  C   UNL A   1      30.655  26.746  26.068  1.00  0.00     0.278 C 
ENDBRANCH  12  17
BRANCH  14  19
ATOM     19  O   UNL A   1      31.107  24.488  23.241  1.00  0.00    -0.492 OA
ATOM     20  C   UNL A   1      31.288  25.714  22.558  1.00  0.00     0.278 C 
ENDBRANCH  14  19
BRANCH  16  21
ATOM     21  C   UNL A   1      33.478  23.064  22.883  1.00  0.00     0.076 C 
ATOM     22  O   UNL A   1      34.377  23.608  22.266  1.00  0.00    -0.545 OA
ATOM     23  O   UNL A   1      32.812  22.057  22.291  1.00  0.00    -0.545 OA
ENDBRANCH  16  21
ENDBRANCH   5  11
ENDBRANCH   3   4
ENDBRANCH   2   3
ENDBRANCH   1   2
BRANCH   1  24
ATOM     24  O   UNL A   1      40.633  19.098  25.990  1.00  0.00    -0.458 OA
BRANCH  24  25
ATOM     25  C   UNL A   1      41.869  19.622  25.774  1.00  0.00     0.338 C 
ATOM     26  O   UNL A   1      42.726  19.176  25.039  1.00  0.00    -0.246 OA
BRANCH  25  27
ATOM     27  C   UNL A   1      41.989  20.943  26.446  1.00  0.00     0.060 A 
ATOM     28  C   UNL A   1      42.372  22.037  25.660  1.00  0.00     0.016 A 
ATOM     29  C   UNL A   1      41.742  21.124  27.809  1.00  0.00     0.016 A 
ATOM     30  C   UNL A   1      42.490  23.311  26.224  1.00  0.00     0.010 A 
ATOM     31  C   UNL A   1      41.876  22.403  28.377  1.00  0.00     0.010 A 
ATOM     32  C   UNL A   1      42.252  23.509  27.590  1.00  0.00    -0.014 A 
BRANCH  32  33
ATOM     33  C   UNL A   1      42.498  24.849  28.197  1.00  0.00     0.031 A 
ATOM     34  C   UNL A   1      43.882  25.195  28.674  1.00  0.00     0.074 A 
ATOM     35  C   UNL A   1      41.525  25.779  28.285  1.00  0.00     0.049 A 
ATOM     36  N   UNL A   1      44.332  26.321  29.170  1.00  0.00    -0.248 NA
ATOM     37  C   UNL A   1      44.894  24.134  28.569  1.00  0.00     0.031 C 
ATOM     38  C   UNL A   1      40.153  25.620  27.814  1.00  0.00     0.029 A 
ATOM     39  N   UNL A   1      41.546  27.053  28.805  1.00  0.00    -0.354 N 
ATOM     40  C   UNL A   1      45.686  26.115  29.403  1.00  0.00     0.074 A 
ATOM     41  C   UNL A   1      45.964  24.734  29.066  1.00  0.00     0.031 C 
ATOM     42  C   UNL A   1      39.451  26.730  28.099  1.00  0.00     0.029 A 
ATOM     43  C   UNL A   1      40.330  27.693  28.755  1.00  0.00     0.049 A 
ATOM     44  H   UNL A   1      42.356  27.468  29.178  1.00  0.00     0.167 HD
ATOM     45  C   UNL A   1      46.623  26.994  29.833  1.00  0.00     0.031 A 
ATOM     46  C   UNL A   1      39.958  28.919  29.173  1.00  0.00     0.031 A 
ATOM     47  C   UNL A   1      46.350  28.355  30.214  1.00  0.00     0.049 A 
ATOM     48  C   UNL A   1      40.995  29.851  29.740  1.00  0.00     0.074 A 
ATOM     49  C   UNL A   1      47.232  29.316  30.676  1.00  0.00     0.029 A 
ATOM     50  N   UNL A   1      45.096  28.946  30.190  1.00  0.00    -0.354 N 
ATOM     51  N   UNL A   1      42.278  29.652  29.914  1.00  0.00    -0.248 NA
ATOM     52  C   UNL A   1      40.534  31.189  30.138  1.00  0.00     0.031 C 
ATOM     53  C   UNL A   1      46.500  30.466  30.996  1.00  0.00     0.029 A 
ATOM     54  C   UNL A   1      45.173  30.247  30.663  1.00  0.00     0.049 A 
ATOM     55  H   UNL A   1      44.270  28.505  29.884  1.00  0.00     0.167 HD
ATOM     56  C   UNL A   1      42.785  30.848  30.410  1.00  0.00     0.074 A 
ATOM     57  C   UNL A   1      41.671  31.771  30.489  1.00  0.00     0.031 C 
ATOM     58  C   UNL A   1      44.058  31.154  30.761  1.00  0.00     0.031 A 
BRANCH  45  59
ATOM     59  C   UNL A   1      48.031  26.475  29.946  1.00  0.00    -0.014 A 
ATOM     60  C   UNL A   1      48.929  26.564  28.867  1.00  0.00     0.009 A 
ATOM     61  C   UNL A   1      48.460  25.865  31.134  1.00  0.00     0.009 A 
ATOM     62  C   UNL A   1      50.203  25.999  28.958  1.00  0.00     0.001 A 
ATOM     63  C   UNL A   1      49.746  25.333  31.234  1.00  0.00     0.001 A 
ATOM     64  C   UNL A   1      50.610  25.385  30.141  1.00  0.00     0.000 A 
ENDBRANCH  45  59
BRANCH  46  65
ATOM     65  C   UNL A   1      38.535  29.347  29.061  1.00  0.00    -0.014 A 
ATOM     66  C   UNL A   1      37.647  29.207  30.140  1.00  0.00     0.009 A 
ATOM     67  C   UNL A   1      38.054  29.882  27.856  1.00  0.00     0.009 A 
ATOM     68  C   UNL A   1      36.303  29.565  30.003  1.00  0.00     0.001 A 
ATOM     69  C   UNL A   1      36.716  30.267  27.732  1.00  0.00     0.001 A 
ATOM     70  C   UNL A   1      35.840  30.098  28.802  1.00  0.00     0.000 A 
ENDBRANCH  46  65
BRANCH  58  71
ATOM     71  C   UNL A   1      44.319  32.556  31.246  1.00  0.00    -0.014 A 
ATOM     72  C   UNL A   1      44.651  33.591  30.356  1.00  0.00     0.009 A 
ATOM     73  C   UNL A   1      44.215  32.849  32.615  1.00  0.00     0.009 A 
ATOM     74  C   UNL A   1      44.919  34.877  30.834  1.00  0.00     0.001 A 
ATOM     75  C   UNL A   1      44.448  34.142  33.086  1.00  0.00     0.001 A 
ATOM     76  C   UNL A   1      44.814  35.152  32.198  1.00  0.00     0.000 A 
ENDBRANCH  58  71
ENDBRANCH  32  33
ENDBRANCH  25  27
ENDBRANCH  24  25
ENDBRANCH   1  24
TORSDOF 14
ENDMDL
MODEL 3
REMARK VINA RESULT:      -9.9      2.094      6.711
REMARK SMILES COc1ccc(/C=C2\SC(=S)N=C2OCCOC(=O)c2ccc(-c3c4nc(c(-c5ccccc5)c5ccc([nH]5)c(-c5ccccc5)c5nc(c(-c6ccccc6)c6ccc3[nH]6)C=C5)C=C4)cc2)c(C(=O)[O-])c1OC
REMARK SMILES IDX 16 1 15 2 14 3 13 4 7 5 8 6 9 7 10 8 12 9 11 10 6 11 3 12
REMARK SMILES IDX 4 13 72 14 5 15 68 16 2 17 1 18 73 19 74 20 69 21 70 22
REMARK SMILES IDX 71 23 17 24 18 25 19 26 20 27 21 28 67 29 22 30 66 31 23 32
REMARK SMILES IDX 24 33 25 34 60 35 26 36 65 37 59 38 61 39 27 40 64 41 58 42
REMARK SMILES IDX 57 43 28 45 50 46 35 47 49 48 36 49 39 50 48 51 62 52 37 53
REMARK SMILES IDX 38 54 47 56 63 57 40 58 29 59 30 60 34 61 31 62 33 63 32 64
REMARK SMILES IDX 51 65 52 66 56 67 53 68 55 69 54 70 41 71 42 72 46 73 43 74
REMARK SMILES IDX 45 75 44 76
REMARK H PARENT 61 44 39 55
REMARK Flexibility Score: inf
ROOT
ATOM      1  C   UNL A   1      32.839  31.813  27.439  1.00  0.00     0.274 C 
ENDROOT
BRANCH   1   2
ATOM      2  C   UNL A   1      31.815  30.798  26.904  1.00  0.00     0.273 C 
BRANCH   2   3
ATOM      3  O   UNL A   1      32.424  29.574  26.448  1.00  0.00    -0.473 OA
BRANCH   3   4
ATOM      4  C   UNL A   1      32.217  28.867  25.329  1.00  0.00     0.229 C 
ATOM      5  C   UNL A   1      33.482  26.691  25.775  1.00  0.00     0.030 C 
ATOM      6  C   UNL A   1      32.784  27.529  24.992  1.00  0.00     0.077 C 
ATOM      7  S   UNL A   1      32.230  27.173  23.383  1.00  0.00    -0.053 SA
ATOM      8  C   UNL A   1      31.177  28.597  23.398  1.00  0.00     0.168 C 
ATOM      9  N   UNL A   1      31.394  29.409  24.480  1.00  0.00    -0.194 NA
ATOM     10  S   UNL A   1      29.991  28.833  22.243  1.00  0.00    -0.050 S 
BRANCH   5  11
ATOM     11  C   UNL A   1      33.911  25.270  25.675  1.00  0.00    -0.011 A 
ATOM     12  C   UNL A   1      34.745  22.681  24.890  1.00  0.00     0.161 A 
ATOM     13  C   UNL A   1      35.649  23.738  24.908  1.00  0.00     0.051 A 
ATOM     14  C   UNL A   1      33.410  22.880  25.282  1.00  0.00     0.170 A 
ATOM     15  C   UNL A   1      35.225  25.014  25.273  1.00  0.00     0.013 A 
ATOM     16  C   UNL A   1      32.996  24.179  25.705  1.00  0.00     0.050 A 
BRANCH  12  17
ATOM     17  O   UNL A   1      35.245  21.447  24.571  1.00  0.00    -0.493 OA
ATOM     18  C   UNL A   1      36.632  21.313  24.879  1.00  0.00     0.278 C 
ENDBRANCH  12  17
BRANCH  14  19
ATOM     19  O   UNL A   1      32.420  21.935  25.209  1.00  0.00    -0.492 OA
ATOM     20  C   UNL A   1      32.078  21.319  23.981  1.00  0.00     0.278 C 
ENDBRANCH  14  19
BRANCH  16  21
ATOM     21  C   UNL A   1      31.578  24.422  26.149  1.00  0.00     0.076 C 
ATOM     22  O   UNL A   1      31.162  24.432  27.294  1.00  0.00    -0.545 OA
ATOM     23  O   UNL A   1      30.699  24.594  25.147  1.00  0.00    -0.545 OA
ENDBRANCH  16  21
ENDBRANCH   5  11
ENDBRANCH   3   4
ENDBRANCH   2   3
ENDBRANCH   1   2
BRANCH   1  24
ATOM     24  O   UNL A   1      32.373  33.180  27.409  1.00  0.00    -0.458 OA
BRANCH  24  25
ATOM     25  C   UNL A   1      32.997  34.038  28.258  1.00  0.00     0.338 C 
ATOM     26  O   UNL A   1      32.524  35.042  28.751  1.00  0.00    -0.246 OA
BRANCH  25  27
ATOM     27  C   UNL A   1      34.322  33.491  28.655  1.00  0.00     0.060 A 
ATOM     28  C   UNL A   1      34.401  32.808  29.875  1.00  0.00     0.016 A 
ATOM     29  C   UNL A   1      35.468  33.639  27.869  1.00  0.00     0.016 A 
ATOM     30  C   UNL A   1      35.613  32.256  30.303  1.00  0.00     0.010 A 
ATOM     31  C   UNL A   1      36.688  33.097  28.309  1.00  0.00     0.010 A 
ATOM     32  C   UNL A   1      36.773  32.400  29.530  1.00  0.00    -0.014 A 
BRANCH  32  33
ATOM     33  C   UNL A   1      38.079  31.909  30.057  1.00  0.00     0.031 A 
ATOM     34  C   UNL A   1      38.598  30.573  29.601  1.00  0.00     0.074 A 
ATOM     35  C   UNL A   1      38.831  32.652  30.895  1.00  0.00     0.049 A 
ATOM     36  N   UNL A   1      39.735  29.985  29.880  1.00  0.00    -0.248 NA
ATOM     37  C   UNL A   1      37.724  29.803  28.704  1.00  0.00     0.031 C 
ATOM     38  C   UNL A   1      38.496  33.987  31.380  1.00  0.00     0.029 A 
ATOM     39  N   UNL A   1      40.043  32.383  31.489  1.00  0.00    -0.354 N 
ATOM     40  C   UNL A   1      39.727  28.794  29.166  1.00  0.00     0.074 A 
ATOM     41  C   UNL A   1      38.443  28.709  28.504  1.00  0.00     0.031 C 
ATOM     42  C   UNL A   1      39.452  34.408  32.225  1.00  0.00     0.029 A 
ATOM     43  C   UNL A   1      40.483  33.380  32.327  1.00  0.00     0.049 A 
ATOM     44  H   UNL A   1      40.548  31.554  31.327  1.00  0.00     0.167 HD
ATOM     45  C   UNL A   1      40.705  27.863  29.046  1.00  0.00     0.031 A 
ATOM     46  C   UNL A   1      41.595  33.472  33.083  1.00  0.00     0.031 A 
ATOM     47  C   UNL A   1      41.968  27.914  29.734  1.00  0.00     0.049 A 
ATOM     48  C   UNL A   1      42.628  32.381  33.013  1.00  0.00     0.074 A 
ATOM     49  C   UNL A   1      43.014  27.009  29.687  1.00  0.00     0.029 A 
ATOM     50  N   UNL A   1      42.352  28.919  30.608  1.00  0.00    -0.354 N 
ATOM     51  N   UNL A   1      42.622  31.282  32.300  1.00  0.00    -0.248 NA
ATOM     52  C   UNL A   1      43.837  32.561  33.830  1.00  0.00     0.031 C 
ATOM     53  C   UNL A   1      44.002  27.433  30.584  1.00  0.00     0.029 A 
ATOM     54  C   UNL A   1      43.604  28.640  31.134  1.00  0.00     0.049 A 
ATOM     55  H   UNL A   1      41.813  29.715  30.825  1.00  0.00     0.167 HD
ATOM     56  C   UNL A   1      43.837  30.655  32.555  1.00  0.00     0.074 A 
ATOM     57  C   UNL A   1      44.561  31.510  33.473  1.00  0.00     0.031 C 
ATOM     58  C   UNL A   1      44.310  29.482  32.066  1.00  0.00     0.031 A 
BRANCH  45  59
ATOM     59  C   UNL A   1      40.409  26.688  28.154  1.00  0.00    -0.014 A 
ATOM     60  C   UNL A   1      40.869  26.647  26.826  1.00  0.00     0.009 A 
ATOM     61  C   UNL A   1      39.638  25.620  28.635  1.00  0.00     0.009 A 
ATOM     62  C   UNL A   1      40.512  25.591  25.984  1.00  0.00     0.001 A 
ATOM     63  C   UNL A   1      39.311  24.548  27.802  1.00  0.00     0.001 A 
ATOM     64  C   UNL A   1      39.734  24.543  26.474  1.00  0.00     0.000 A 
ENDBRANCH  45  59
BRANCH  46  65
ATOM     65  C   UNL A   1      41.799  34.652  33.971  1.00  0.00    -0.014 A 
ATOM     66  C   UNL A   1      42.459  35.803  33.510  1.00  0.00     0.009 A 
ATOM     67  C   UNL A   1      41.350  34.619  35.300  1.00  0.00     0.009 A 
ATOM     68  C   UNL A   1      42.689  36.881  34.370  1.00  0.00     0.001 A 
ATOM     69  C   UNL A   1      41.555  35.710  36.149  1.00  0.00     0.001 A 
ATOM     70  C   UNL A   1      42.232  36.835  35.686  1.00  0.00     0.000 A 
ENDBRANCH  46  65
BRANCH  58  71
ATOM     71  C   UNL A   1      45.690  29.064  32.502  1.00  0.00    -0.014 A 
ATOM     72  C   UNL A   1      45.890  28.263  33.639  1.00  0.00     0.009 A 
ATOM     73  C   UNL A   1      46.808  29.466  31.754  1.00  0.00     0.009 A 
ATOM     74  C   UNL A   1      47.182  27.916  34.042  1.00  0.00     0.001 A 
ATOM     75  C   UNL A   1      48.095  29.087  32.139  1.00  0.00     0.001 A 
ATOM     76  C   UNL A   1      48.283  28.324  33.290  1.00  0.00     0.000 A 
ENDBRANCH  58  71
ENDBRANCH  32  33
ENDBRANCH  25  27
ENDBRANCH  24  25
ENDBRANCH   1  24
TORSDOF 14
ENDMDL
