MODEL 1
REMARK VINA RESULT:     -12.0      0.000      0.000
REMARK SMILES Cc1ccc(OCC(=O)NNC(=O)[C@H]2CCCC[C@@H]2C(=O)OCCOC(=O)c2ccc(-c3c4nc(c(-c5ccccc5)c5ccc([nH]5)c(-c5ccccc5)c5nc(c(-c6ccccc6)c6ccc3[nH]6)C=C5)C=C4)cc2)cc1
REMARK SMILES IDX 22 1 20 2 21 3 19 4 14 5 15 6 16 7 18 8 17 9 12 10 11 11
REMARK SMILES IDX 13 13 10 14 8 15 9 16 7 18 6 19 5 20 1 21 2 22 3 23 77 24
REMARK SMILES IDX 4 25 76 26 23 27 24 28 25 29 26 30 27 31 28 32 29 33 75 34
REMARK SMILES IDX 30 35 74 36 31 37 32 38 33 39 68 40 34 41 73 42 67 43 69 44
REMARK SMILES IDX 35 45 72 46 66 47 65 48 36 50 58 51 43 52 57 53 44 54 47 55
REMARK SMILES IDX 56 56 70 57 45 58 46 59 55 61 71 62 48 63 37 64 38 65 42 66
REMARK SMILES IDX 39 67 41 68 40 69 59 70 60 71 64 72 61 73 63 74 62 75 49 76
REMARK SMILES IDX 50 77 54 78 51 79 53 80 52 81
REMARK H PARENT 11 12 10 17 69 49 47 60
REMARK Flexibility Score: inf
ROOT
ATOM      1  O   UNL A   1      36.322  20.387  25.262  1.00  0.00    -0.462 OA
ENDROOT
BRANCH   1   2
ATOM      2  C   UNL A   1      35.885  21.444  24.517  1.00  0.00     0.309 C 
ATOM      3  O   UNL A   1      36.637  22.239  23.965  1.00  0.00    -0.252 OA
BRANCH   2   4
ATOM      4  C   UNL A   1      34.369  21.585  24.525  1.00  0.00     0.111 C 
ATOM      5  C   UNL A   1      33.904  22.980  24.062  1.00  0.00     0.094 C 
ATOM      6  C   UNL A   1      34.261  24.092  25.069  1.00  0.00     0.014 C 
ATOM      7  C   UNL A   1      33.901  23.771  26.521  1.00  0.00     0.001 C 
ATOM      8  C   UNL A   1      33.887  21.277  25.949  1.00  0.00     0.016 C 
ATOM      9  C   UNL A   1      34.272  22.360  26.962  1.00  0.00     0.001 C 
BRANCH   5  10
ATOM     10  C   UNL A   1      32.390  22.996  23.813  1.00  0.00     0.242 C 
ATOM     11  N   UNL A   1      31.873  23.596  22.702  1.00  0.00    -0.267 N 
ATOM     12  H   UNL A   1      30.891  23.636  22.638  1.00  0.00     0.191 HD
ATOM     13  O   UNL A   1      31.588  22.470  24.587  1.00  0.00    -0.273 OA
BRANCH  11  14
ATOM     14  N   UNL A   1      32.585  24.154  21.656  1.00  0.00    -0.265 N 
ATOM     15  C   UNL A   1      32.465  25.481  21.303  1.00  0.00     0.276 C 
ATOM     16  O   UNL A   1      33.197  25.948  20.429  1.00  0.00    -0.269 OA
ATOM     17  H   UNL A   1      33.201  23.582  21.144  1.00  0.00     0.191 HD
BRANCH  15  18
ATOM     18  C   UNL A   1      31.474  26.363  22.075  1.00  0.00     0.331 C 
BRANCH  18  19
ATOM     19  O   UNL A   1      31.379  26.127  23.470  1.00  0.00    -0.484 OA
BRANCH  19  20
ATOM     20  C   UNL A   1      32.153  26.889  24.300  1.00  0.00     0.120 A 
ATOM     21  C   UNL A   1      34.427  29.047  27.264  1.00  0.00     0.044 C 
ATOM     22  C   UNL A   1      33.625  28.315  26.230  1.00  0.00    -0.051 A 
ATOM     23  C   UNL A   1      32.615  27.430  26.621  1.00  0.00     0.007 A 
ATOM     24  C   UNL A   1      33.885  28.484  24.867  1.00  0.00     0.007 A 
ATOM     25  C   UNL A   1      31.885  26.725  25.661  1.00  0.00     0.047 A 
ATOM     26  C   UNL A   1      33.154  27.777  23.907  1.00  0.00     0.047 A 
ENDBRANCH  19  20
ENDBRANCH  18  19
ENDBRANCH  15  18
ENDBRANCH  11  14
ENDBRANCH   5  10
ENDBRANCH   2   4
ENDBRANCH   1   2
BRANCH   1  27
ATOM     27  C   UNL A   1      37.573  19.849  24.802  1.00  0.00     0.274 C 
BRANCH  27  28
ATOM     28  C   UNL A   1      38.755  20.178  25.718  1.00  0.00     0.275 C 
BRANCH  28  29
ATOM     29  O   UNL A   1      39.901  19.287  25.694  1.00  0.00    -0.458 OA
BRANCH  29  30
ATOM     30  C   UNL A   1      41.189  19.562  26.002  1.00  0.00     0.338 C 
ATOM     31  O   UNL A   1      42.115  18.818  25.711  1.00  0.00    -0.246 OA
BRANCH  30  32
ATOM     32  C   UNL A   1      41.469  20.863  26.611  1.00  0.00     0.060 A 
ATOM     33  C   UNL A   1      41.638  21.960  25.758  1.00  0.00     0.016 A 
ATOM     34  C   UNL A   1      41.502  21.006  27.997  1.00  0.00     0.016 A 
ATOM     35  C   UNL A   1      41.709  23.238  26.298  1.00  0.00     0.010 A 
ATOM     36  C   UNL A   1      41.546  22.281  28.532  1.00  0.00     0.010 A 
ATOM     37  C   UNL A   1      41.619  23.397  27.684  1.00  0.00    -0.014 A 
BRANCH  37  38
ATOM     38  C   UNL A   1      41.868  24.686  28.317  1.00  0.00     0.031 A 
ATOM     39  C   UNL A   1      40.909  25.810  28.278  1.00  0.00     0.074 A 
ATOM     40  C   UNL A   1      43.125  24.859  28.776  1.00  0.00     0.049 A 
ATOM     41  N   UNL A   1      41.265  27.044  28.119  1.00  0.00    -0.248 NA
ATOM     42  C   UNL A   1      39.459  25.635  28.358  1.00  0.00     0.031 C 
ATOM     43  C   UNL A   1      43.683  25.981  29.513  1.00  0.00     0.029 A 
ATOM     44  N   UNL A   1      44.240  24.113  28.378  1.00  0.00    -0.354 N 
ATOM     45  C   UNL A   1      40.148  27.820  28.336  1.00  0.00     0.074 A 
ATOM     46  C   UNL A   1      39.031  26.905  28.366  1.00  0.00     0.031 C 
ATOM     47  C   UNL A   1      45.005  26.020  29.266  1.00  0.00     0.029 A 
ATOM     48  C   UNL A   1      45.278  25.027  28.229  1.00  0.00     0.049 A 
ATOM     49  H   UNL A   1      44.281  23.140  28.232  1.00  0.00     0.167 HD
ATOM     50  C   UNL A   1      40.271  29.136  28.659  1.00  0.00     0.031 A 
ATOM     51  C   UNL A   1      45.907  25.264  27.045  1.00  0.00     0.031 A 
ATOM     52  C   UNL A   1      41.662  29.529  28.804  1.00  0.00     0.049 A 
ATOM     53  C   UNL A   1      46.000  26.734  26.743  1.00  0.00     0.074 A 
ATOM     54  C   UNL A   1      42.485  29.562  29.916  1.00  0.00     0.029 A 
ATOM     55  N   UNL A   1      42.481  29.637  27.692  1.00  0.00    -0.354 N 
ATOM     56  N   UNL A   1      45.091  27.605  27.077  1.00  0.00    -0.248 NA
ATOM     57  C   UNL A   1      47.103  27.315  25.996  1.00  0.00     0.031 C 
ATOM     58  C   UNL A   1      43.820  29.687  29.471  1.00  0.00     0.029 A 
ATOM     59  C   UNL A   1      43.800  29.754  28.090  1.00  0.00     0.049 A 
ATOM     60  H   UNL A   1      42.172  29.631  26.758  1.00  0.00     0.167 HD
ATOM     61  C   UNL A   1      45.529  28.858  26.724  1.00  0.00     0.074 A 
ATOM     62  C   UNL A   1      46.751  28.612  25.980  1.00  0.00     0.031 C 
ATOM     63  C   UNL A   1      44.855  29.982  27.114  1.00  0.00     0.031 A 
BRANCH  50  64
ATOM     64  C   UNL A   1      39.125  29.943  29.208  1.00  0.00    -0.014 A 
ATOM     65  C   UNL A   1      38.106  30.379  28.340  1.00  0.00     0.009 A 
ATOM     66  C   UNL A   1      39.015  30.322  30.555  1.00  0.00     0.009 A 
ATOM     67  C   UNL A   1      37.076  31.224  28.768  1.00  0.00     0.001 A 
ATOM     68  C   UNL A   1      37.991  31.183  30.987  1.00  0.00     0.001 A 
ATOM     69  C   UNL A   1      37.031  31.645  30.089  1.00  0.00     0.000 A 
ENDBRANCH  50  64
BRANCH  51  70
ATOM     70  C   UNL A   1      45.777  24.238  25.966  1.00  0.00    -0.014 A 
ATOM     71  C   UNL A   1      46.415  22.990  26.094  1.00  0.00     0.009 A 
ATOM     72  C   UNL A   1      44.856  24.402  24.920  1.00  0.00     0.009 A 
ATOM     73  C   UNL A   1      46.097  21.925  25.244  1.00  0.00     0.001 A 
ATOM     74  C   UNL A   1      44.553  23.341  24.056  1.00  0.00     0.001 A 
ATOM     75  C   UNL A   1      45.158  22.098  24.231  1.00  0.00     0.000 A 
ENDBRANCH  51  70
BRANCH  63  76
ATOM     76  C   UNL A   1      45.132  31.424  26.743  1.00  0.00    -0.014 A 
ATOM     77  C   UNL A   1      46.288  32.145  27.054  1.00  0.00     0.009 A 
ATOM     78  C   UNL A   1      44.138  32.133  26.022  1.00  0.00     0.009 A 
ATOM     79  C   UNL A   1      46.463  33.472  26.629  1.00  0.00     0.001 A 
ATOM     80  C   UNL A   1      44.301  33.454  25.602  1.00  0.00     0.001 A 
ATOM     81  C   UNL A   1      45.476  34.122  25.898  1.00  0.00     0.000 A 
ENDBRANCH  63  76
ENDBRANCH  37  38
ENDBRANCH  30  32
ENDBRANCH  29  30
ENDBRANCH  28  29
ENDBRANCH  27  28
ENDBRANCH   1  27
TORSDOF 16
ENDMDL
MODEL 2
REMARK VINA RESULT:     -11.8      3.682      9.868
REMARK SMILES Cc1ccc(OCC(=O)NNC(=O)[C@H]2CCCC[C@@H]2C(=O)OCCOC(=O)c2ccc(-c3c4nc(c(-c5ccccc5)c5ccc([nH]5)c(-c5ccccc5)c5nc(c(-c6ccccc6)c6ccc3[nH]6)C=C5)C=C4)cc2)cc1
REMARK SMILES IDX 22 1 20 2 21 3 19 4 14 5 15 6 16 7 18 8 17 9 12 10 11 11
REMARK SMILES IDX 13 13 10 14 8 15 9 16 7 18 6 19 5 20 1 21 2 22 3 23 77 24
REMARK SMILES IDX 4 25 76 26 23 27 24 28 25 29 26 30 27 31 28 32 29 33 75 34
REMARK SMILES IDX 30 35 74 36 31 37 32 38 33 39 68 40 34 41 73 42 67 43 69 44
REMARK SMILES IDX 35 45 72 46 66 47 65 48 36 50 58 51 43 52 57 53 44 54 47 55
REMARK SMILES IDX 56 56 70 57 45 58 46 59 55 61 71 62 48 63 37 64 38 65 42 66
REMARK SMILES IDX 39 67 41 68 40 69 59 70 60 71 64 72 61 73 63 74 62 75 49 76
REMARK SMILES IDX 50 77 54 78 51 79 53 80 52 81
REMARK H PARENT 11 12 10 17 69 49 47 60
REMARK Flexibility Score: inf
ROOT
ATOM      1  O   UNL A   1      31.599  30.179  25.667  1.00  0.00    -0.462 OA
ENDROOT
BRANCH   1   2
ATOM      2  C   UNL A   1      31.873  28.850  25.822  1.00  0.00     0.309 C 
ATOM      3  O   UNL A   1      32.642  28.412  26.670  1.00  0.00    -0.252 OA
BRANCH   2   4
ATOM      4  C   UNL A   1      31.196  27.982  24.769  1.00  0.00     0.111 C 
ATOM      5  C   UNL A   1      31.830  26.579  24.665  1.00  0.00     0.094 C 
ATOM      6  C   UNL A   1      33.256  26.612  24.079  1.00  0.00     0.014 C 
ATOM      7  C   UNL A   1      33.400  27.451  22.808  1.00  0.00     0.001 C 
ATOM      8  C   UNL A   1      31.276  28.734  23.433  1.00  0.00     0.016 C 
ATOM      9  C   UNL A   1      32.696  28.802  22.865  1.00  0.00     0.001 C 
BRANCH   5  10
ATOM     10  C   UNL A   1      30.958  25.649  23.813  1.00  0.00     0.242 C 
ATOM     11  N   UNL A   1      30.304  24.594  24.379  1.00  0.00    -0.267 N 
ATOM     12  H   UNL A   1      29.821  23.993  23.767  1.00  0.00     0.191 HD
ATOM     13  O   UNL A   1      30.806  25.813  22.601  1.00  0.00    -0.273 OA
BRANCH  11  14
ATOM     14  N   UNL A   1      30.249  24.281  25.725  1.00  0.00    -0.265 N 
ATOM     15  C   UNL A   1      30.994  23.263  26.280  1.00  0.00     0.276 C 
ATOM     16  O   UNL A   1      30.982  23.094  27.501  1.00  0.00    -0.269 OA
ATOM     17  H   UNL A   1      29.655  24.805  26.310  1.00  0.00     0.191 HD
BRANCH  15  18
ATOM     18  C   UNL A   1      31.889  22.419  25.362  1.00  0.00     0.331 C 
BRANCH  18  19
ATOM     19  O   UNL A   1      32.923  23.114  24.682  1.00  0.00    -0.484 OA
BRANCH  19  20
ATOM     20  C   UNL A   1      34.210  22.702  24.888  1.00  0.00     0.120 A 
ATOM     21  C   UNL A   1      38.344  21.807  25.739  1.00  0.00     0.044 C 
ATOM     22  C   UNL A   1      36.912  22.118  25.422  1.00  0.00    -0.051 A 
ATOM     23  C   UNL A   1      36.418  23.414  25.604  1.00  0.00     0.007 A 
ATOM     24  C   UNL A   1      36.044  21.122  24.965  1.00  0.00     0.007 A 
ATOM     25  C   UNL A   1      35.077  23.701  25.336  1.00  0.00     0.047 A 
ATOM     26  C   UNL A   1      34.701  21.411  24.698  1.00  0.00     0.047 A 
ENDBRANCH  19  20
ENDBRANCH  18  19
ENDBRANCH  15  18
ENDBRANCH  11  14
ENDBRANCH   5  10
ENDBRANCH   2   4
ENDBRANCH   1   2
BRANCH   1  27
ATOM     27  C   UNL A   1      31.942  30.965  26.820  1.00  0.00     0.274 C 
BRANCH  27  28
ATOM     28  C   UNL A   1      31.921  32.474  26.561  1.00  0.00     0.275 C 
BRANCH  28  29
ATOM     29  O   UNL A   1      31.823  33.358  27.708  1.00  0.00    -0.458 OA
BRANCH  29  30
ATOM     30  C   UNL A   1      32.802  34.079  28.302  1.00  0.00     0.338 C 
ATOM     31  O   UNL A   1      32.618  35.199  28.758  1.00  0.00    -0.246 OA
BRANCH  30  32
ATOM     32  C   UNL A   1      34.096  33.423  28.493  1.00  0.00     0.060 A 
ATOM     33  C   UNL A   1      35.193  33.925  27.785  1.00  0.00     0.016 A 
ATOM     34  C   UNL A   1      34.233  32.374  29.401  1.00  0.00     0.016 A 
ATOM     35  C   UNL A   1      36.468  33.463  28.085  1.00  0.00     0.010 A 
ATOM     36  C   UNL A   1      35.506  31.932  29.718  1.00  0.00     0.010 A 
ATOM     37  C   UNL A   1      36.623  32.496  29.084  1.00  0.00    -0.014 A 
BRANCH  37  38
ATOM     38  C   UNL A   1      37.906  31.843  29.315  1.00  0.00     0.031 A 
ATOM     39  C   UNL A   1      38.182  30.440  28.943  1.00  0.00     0.074 A 
ATOM     40  C   UNL A   1      38.771  32.545  30.077  1.00  0.00     0.049 A 
ATOM     41  N   UNL A   1      38.868  29.629  29.684  1.00  0.00    -0.248 NA
ATOM     42  C   UNL A   1      37.662  29.810  27.730  1.00  0.00     0.031 C 
ATOM     43  C   UNL A   1      40.142  32.224  30.434  1.00  0.00     0.029 A 
ATOM     44  N   UNL A   1      38.424  33.599  30.929  1.00  0.00    -0.354 N 
ATOM     45  C   UNL A   1      39.093  28.491  28.941  1.00  0.00     0.074 A 
ATOM     46  C   UNL A   1      38.234  28.598  27.786  1.00  0.00     0.031 C 
ATOM     47  C   UNL A   1      40.417  32.835  31.602  1.00  0.00     0.029 A 
ATOM     48  C   UNL A   1      39.166  33.412  32.090  1.00  0.00     0.049 A 
ATOM     49  H   UNL A   1      37.784  34.325  30.745  1.00  0.00     0.167 HD
ATOM     50  C   UNL A   1      40.113  27.649  29.257  1.00  0.00     0.031 A 
ATOM     51  C   UNL A   1      38.608  33.186  33.311  1.00  0.00     0.031 A 
ATOM     52  C   UNL A   1      40.906  28.151  30.365  1.00  0.00     0.049 A 
ATOM     53  C   UNL A   1      39.229  32.003  34.001  1.00  0.00     0.074 A 
ATOM     54  C   UNL A   1      42.045  28.939  30.383  1.00  0.00     0.029 A 
ATOM     55  N   UNL A   1      40.395  28.152  31.652  1.00  0.00    -0.354 N 
ATOM     56  N   UNL A   1      39.665  30.944  33.382  1.00  0.00    -0.248 NA
ATOM     57  C   UNL A   1      39.352  31.912  35.447  1.00  0.00     0.031 C 
ATOM     58  C   UNL A   1      42.221  29.425  31.698  1.00  0.00     0.029 A 
ATOM     59  C   UNL A   1      41.203  28.911  32.479  1.00  0.00     0.049 A 
ATOM     60  H   UNL A   1      39.578  27.683  31.937  1.00  0.00     0.167 HD
ATOM     61  C   UNL A   1      40.241  30.100  34.300  1.00  0.00     0.074 A 
ATOM     62  C   UNL A   1      39.946  30.715  35.583  1.00  0.00     0.031 C 
ATOM     63  C   UNL A   1      40.939  28.993  33.907  1.00  0.00     0.031 A 
BRANCH  50  64
ATOM     64  C   UNL A   1      40.598  26.580  28.314  1.00  0.00    -0.014 A 
ATOM     65  C   UNL A   1      39.999  25.306  28.345  1.00  0.00     0.009 A 
ATOM     66  C   UNL A   1      41.651  26.763  27.404  1.00  0.00     0.009 A 
ATOM     67  C   UNL A   1      40.479  24.241  27.574  1.00  0.00     0.001 A 
ATOM     68  C   UNL A   1      42.146  25.694  26.639  1.00  0.00     0.001 A 
ATOM     69  C   UNL A   1      41.569  24.429  26.736  1.00  0.00     0.000 A 
ENDBRANCH  50  64
BRANCH  51  70
ATOM     70  C   UNL A   1      37.173  33.554  33.503  1.00  0.00    -0.014 A 
ATOM     71  C   UNL A   1      36.798  34.906  33.629  1.00  0.00     0.009 A 
ATOM     72  C   UNL A   1      36.154  32.601  33.347  1.00  0.00     0.009 A 
ATOM     73  C   UNL A   1      35.458  35.295  33.538  1.00  0.00     0.001 A 
ATOM     74  C   UNL A   1      34.810  32.991  33.276  1.00  0.00     0.001 A 
ATOM     75  C   UNL A   1      34.464  34.338  33.352  1.00  0.00     0.000 A 
ENDBRANCH  51  70
BRANCH  63  76
ATOM     76  C   UNL A   1      41.554  27.910  34.770  1.00  0.00    -0.014 A 
ATOM     77  C   UNL A   1      41.476  27.825  36.162  1.00  0.00     0.009 A 
ATOM     78  C   UNL A   1      42.289  26.880  34.129  1.00  0.00     0.009 A 
ATOM     79  C   UNL A   1      42.050  26.755  36.867  1.00  0.00     0.001 A 
ATOM     80  C   UNL A   1      42.870  25.818  34.823  1.00  0.00     0.001 A 
ATOM     81  C   UNL A   1      42.739  25.750  36.198  1.00  0.00     0.000 A 
ENDBRANCH  63  76
ENDBRANCH  37  38
ENDBRANCH  30  32
ENDBRANCH  29  30
ENDBRANCH  28  29
ENDBRANCH  27  28
ENDBRANCH   1  27
TORSDOF 16
ENDMDL
MODEL 3
REMARK VINA RESULT:     -11.6      1.584      2.353
REMARK SMILES Cc1ccc(OCC(=O)NNC(=O)[C@H]2CCCC[C@@H]2C(=O)OCCOC(=O)c2ccc(-c3c4nc(c(-c5ccccc5)c5ccc([nH]5)c(-c5ccccc5)c5nc(c(-c6ccccc6)c6ccc3[nH]6)C=C5)C=C4)cc2)cc1
REMARK SMILES IDX 22 1 20 2 21 3 19 4 14 5 15 6 16 7 18 8 17 9 12 10 11 11
REMARK SMILES IDX 13 13 10 14 8 15 9 16 7 18 6 19 5 20 1 21 2 22 3 23 77 24
REMARK SMILES IDX 4 25 76 26 23 27 24 28 25 29 26 30 27 31 28 32 29 33 75 34
REMARK SMILES IDX 30 35 74 36 31 37 32 38 33 39 68 40 34 41 73 42 67 43 69 44
REMARK SMILES IDX 35 45 72 46 66 47 65 48 36 50 58 51 43 52 57 53 44 54 47 55
REMARK SMILES IDX 56 56 70 57 45 58 46 59 55 61 71 62 48 63 37 64 38 65 42 66
REMARK SMILES IDX 39 67 41 68 40 69 59 70 60 71 64 72 61 73 63 74 62 75 49 76
REMARK SMILES IDX 50 77 54 78 51 79 53 80 52 81
REMARK H PARENT 11 12 10 17 69 49 47 60
REMARK Flexibility Score: inf
ROOT
ATOM      1  O   UNL A   1      37.375  21.236  25.759  1.00  0.00    -0.462 OA
ENDROOT
BRANCH   1   2
ATOM      2  C   UNL A   1      36.029  21.457  25.708  1.00  0.00     0.309 C 
ATOM      3  O   UNL A   1      35.197  20.558  25.642  1.00  0.00    -0.252 OA
BRANCH   2   4
ATOM      4  C   UNL A   1      35.676  22.937  25.645  1.00  0.00     0.111 C 
ATOM      5  C   UNL A   1      34.204  23.177  25.251  1.00  0.00     0.094 C 
ATOM      6  C   UNL A   1      33.908  22.790  23.788  1.00  0.00     0.014 C 
ATOM      7  C   UNL A   1      34.916  23.332  22.773  1.00  0.00     0.001 C 
ATOM      8  C   UNL A   1      36.638  23.596  24.647  1.00  0.00     0.016 C 
ATOM      9  C   UNL A   1      36.373  23.186  23.195  1.00  0.00     0.001 C 
BRANCH   5  10
ATOM     10  C   UNL A   1      33.812  24.643  25.471  1.00  0.00     0.242 C 
ATOM     11  N   UNL A   1      32.726  24.968  26.230  1.00  0.00    -0.267 N 
ATOM     12  H   UNL A   1      32.485  25.922  26.272  1.00  0.00     0.191 HD
ATOM     13  O   UNL A   1      34.453  25.578  24.987  1.00  0.00    -0.273 OA
BRANCH  11  14
ATOM     14  N   UNL A   1      31.927  24.096  26.947  1.00  0.00    -0.265 N 
ATOM     15  C   UNL A   1      30.557  24.055  26.802  1.00  0.00     0.276 C 
ATOM     16  O   UNL A   1      29.907  23.191  27.392  1.00  0.00    -0.269 OA
ATOM     17  H   UNL A   1      32.354  23.480  27.586  1.00  0.00     0.191 HD
BRANCH  15  18
ATOM     18  C   UNL A   1      29.889  25.044  25.837  1.00  0.00     0.331 C 
BRANCH  18  19
ATOM     19  O   UNL A   1      30.415  25.089  24.520  1.00  0.00    -0.484 OA
BRANCH  19  20
ATOM     20  C   UNL A   1      30.318  26.268  23.834  1.00  0.00     0.120 A 
ATOM     21  C   UNL A   1      29.596  30.033  21.856  1.00  0.00     0.044 C 
ATOM     22  C   UNL A   1      29.847  28.714  22.524  1.00  0.00    -0.051 A 
ATOM     23  C   UNL A   1      28.809  28.058  23.194  1.00  0.00     0.007 A 
ATOM     24  C   UNL A   1      31.117  28.132  22.511  1.00  0.00     0.007 A 
ATOM     25  C   UNL A   1      29.045  26.843  23.842  1.00  0.00     0.047 A 
ATOM     26  C   UNL A   1      31.353  26.916  23.161  1.00  0.00     0.047 A 
ENDBRANCH  19  20
ENDBRANCH  18  19
ENDBRANCH  15  18
ENDBRANCH  11  14
ENDBRANCH   5  10
ENDBRANCH   2   4
ENDBRANCH   1   2
BRANCH   1  27
ATOM     27  C   UNL A   1      37.829  20.284  24.783  1.00  0.00     0.274 C 
BRANCH  27  28
ATOM     28  C   UNL A   1      38.740  19.198  25.364  1.00  0.00     0.275 C 
BRANCH  28  29
ATOM     29  O   UNL A   1      39.747  19.602  26.328  1.00  0.00    -0.458 OA
BRANCH  29  30
ATOM     30  C   UNL A   1      41.000  20.056  26.097  1.00  0.00     0.338 C 
ATOM     31  O   UNL A   1      41.791  19.479  25.363  1.00  0.00    -0.246 OA
BRANCH  30  32
ATOM     32  C   UNL A   1      41.359  21.353  26.672  1.00  0.00     0.060 A 
ATOM     33  C   UNL A   1      40.972  22.505  25.979  1.00  0.00     0.016 A 
ATOM     34  C   UNL A   1      42.010  21.428  27.903  1.00  0.00     0.016 A 
ATOM     35  C   UNL A   1      41.118  23.747  26.583  1.00  0.00     0.010 A 
ATOM     36  C   UNL A   1      42.132  22.663  28.515  1.00  0.00     0.010 A 
ATOM     37  C   UNL A   1      41.660  23.816  27.871  1.00  0.00    -0.014 A 
BRANCH  37  38
ATOM     38  C   UNL A   1      42.005  25.094  28.480  1.00  0.00     0.031 A 
ATOM     39  C   UNL A   1      41.065  26.232  28.568  1.00  0.00     0.074 A 
ATOM     40  C   UNL A   1      43.311  25.245  28.784  1.00  0.00     0.049 A 
ATOM     41  N   UNL A   1      41.419  27.463  28.378  1.00  0.00    -0.248 NA
ATOM     42  C   UNL A   1      39.634  26.078  28.823  1.00  0.00     0.031 C 
ATOM     43  C   UNL A   1      43.971  26.350  29.458  1.00  0.00     0.029 A 
ATOM     44  N   UNL A   1      44.357  24.486  28.246  1.00  0.00    -0.354 N 
ATOM     45  C   UNL A   1      40.349  28.253  28.736  1.00  0.00     0.074 A 
ATOM     46  C   UNL A   1      39.230  27.355  28.894  1.00  0.00     0.031 C 
ATOM     47  C   UNL A   1      45.255  26.372  29.052  1.00  0.00     0.029 A 
ATOM     48  C   UNL A   1      45.383  25.387  27.981  1.00  0.00     0.049 A 
ATOM     49  H   UNL A   1      44.364  23.515  28.088  1.00  0.00     0.167 HD
ATOM     50  C   UNL A   1      40.531  29.563  29.054  1.00  0.00     0.031 A 
ATOM     51  C   UNL A   1      45.867  25.627  26.731  1.00  0.00     0.031 A 
ATOM     52  C   UNL A   1      41.935  29.935  29.031  1.00  0.00     0.049 A 
ATOM     53  C   UNL A   1      45.946  27.098  26.433  1.00  0.00     0.074 A 
ATOM     54  C   UNL A   1      42.889  29.943  30.036  1.00  0.00     0.029 A 
ATOM     55  N   UNL A   1      42.615  30.043  27.830  1.00  0.00    -0.354 N 
ATOM     56  N   UNL A   1      45.099  27.979  26.883  1.00  0.00    -0.248 NA
ATOM     57  C   UNL A   1      46.959  27.672  25.562  1.00  0.00     0.031 C 
ATOM     58  C   UNL A   1      44.161  30.053  29.432  1.00  0.00     0.029 A 
ATOM     59  C   UNL A   1      43.975  30.136  28.065  1.00  0.00     0.049 A 
ATOM     60  H   UNL A   1      42.194  30.051  26.940  1.00  0.00     0.167 HD
ATOM     61  C   UNL A   1      45.510  29.230  26.491  1.00  0.00     0.074 A 
ATOM     62  C   UNL A   1      46.628  28.973  25.601  1.00  0.00     0.031 C 
ATOM     63  C   UNL A   1      44.906  30.359  26.969  1.00  0.00     0.031 A 
BRANCH  50  64
ATOM     64  C   UNL A   1      39.474  30.381  29.746  1.00  0.00    -0.014 A 
ATOM     65  C   UNL A   1      38.438  30.960  28.987  1.00  0.00     0.009 A 
ATOM     66  C   UNL A   1      39.465  30.635  31.126  1.00  0.00     0.009 A 
ATOM     67  C   UNL A   1      37.492  31.820  29.554  1.00  0.00     0.001 A 
ATOM     68  C   UNL A   1      38.526  31.510  31.699  1.00  0.00     0.001 A 
ATOM     69  C   UNL A   1      37.549  32.113  30.909  1.00  0.00     0.000 A 
ENDBRANCH  50  64
BRANCH  51  70
ATOM     70  C   UNL A   1      45.590  24.615  25.667  1.00  0.00    -0.014 A 
ATOM     71  C   UNL A   1      46.539  23.616  25.374  1.00  0.00     0.009 A 
ATOM     72  C   UNL A   1      44.314  24.499  25.093  1.00  0.00     0.009 A 
ATOM     73  C   UNL A   1      46.203  22.509  24.587  1.00  0.00     0.001 A 
ATOM     74  C   UNL A   1      43.985  23.400  24.289  1.00  0.00     0.001 A 
ATOM     75  C   UNL A   1      44.923  22.397  24.052  1.00  0.00     0.000 A 
ENDBRANCH  51  70
BRANCH  63  76
ATOM     76  C   UNL A   1      45.159  31.801  26.580  1.00  0.00    -0.014 A 
ATOM     77  C   UNL A   1      46.302  32.545  26.882  1.00  0.00     0.009 A 
ATOM     78  C   UNL A   1      44.154  32.483  25.850  1.00  0.00     0.009 A 
ATOM     79  C   UNL A   1      46.455  33.869  26.440  1.00  0.00     0.001 A 
ATOM     80  C   UNL A   1      44.294  33.801  25.413  1.00  0.00     0.001 A 
ATOM     81  C   UNL A   1      45.457  34.493  25.701  1.00  0.00     0.000 A 
ENDBRANCH  63  76
ENDBRANCH  37  38
ENDBRANCH  30  32
ENDBRANCH  29  30
ENDBRANCH  28  29
ENDBRANCH  27  28
ENDBRANCH   1  27
TORSDOF 16
ENDMDL
