MODEL 1
REMARK VINA RESULT:     -10.0      0.000      0.000
REMARK SMILES O=C(OCCOC(=O)[C@H]1C[C@](F)(c2cccc(F)c2)C1)c1ccc(-c2c3nc(c(-c4ccccc4)c4ccc([nH]4)c(-c4ccccc4)c4nc(c(-c5ccccc5)c5ccc2[nH]5)C=C4)C=C3)cc1
REMARK SMILES IDX 4 1 3 2 2 3 1 4 21 5 22 6 68 7 23 8 67 9 24 10 25 11 26 12
REMARK SMILES IDX 61 13 27 14 66 15 60 16 62 17 28 18 65 19 59 20 58 21 29 23
REMARK SMILES IDX 51 24 36 25 50 26 37 27 40 28 49 29 63 30 38 31 39 32 48 34
REMARK SMILES IDX 64 35 41 36 30 37 31 38 35 39 32 40 34 41 33 42 52 43 53 44
REMARK SMILES IDX 57 45 54 46 56 47 55 48 42 49 43 50 47 51 44 52 46 53 45 54
REMARK SMILES IDX 5 55 6 56 7 57 8 58 9 59 10 60 20 61 11 62 12 63 13 64 14 65
REMARK SMILES IDX 19 66 15 67 17 68 16 69 18 70
REMARK H PARENT 62 22 40 33
REMARK Flexibility Score: inf
ROOT
ATOM      1  C   UNL A   1      33.150  36.362  29.843  1.00  0.00     0.275 C 
ENDROOT
BRANCH   1   2
ATOM      2  O   UNL A   1      32.531  35.433  28.937  1.00  0.00    -0.458 OA
BRANCH   2   3
ATOM      3  C   UNL A   1      33.011  34.315  28.346  1.00  0.00     0.338 C 
ATOM      4  O   UNL A   1      32.261  33.702  27.584  1.00  0.00    -0.246 OA
BRANCH   3   5
ATOM      5  C   UNL A   1      34.363  33.707  28.603  1.00  0.00     0.060 A 
ATOM      6  C   UNL A   1      35.531  33.907  27.860  1.00  0.00     0.016 A 
ATOM      7  C   UNL A   1      34.452  32.858  29.725  1.00  0.00     0.016 A 
ATOM      8  C   UNL A   1      36.758  33.359  28.259  1.00  0.00     0.010 A 
ATOM      9  C   UNL A   1      35.672  32.301  30.123  1.00  0.00     0.010 A 
ATOM     10  C   UNL A   1      36.845  32.571  29.406  1.00  0.00    -0.014 A 
BRANCH  10  11
ATOM     11  C   UNL A   1      38.133  31.943  29.786  1.00  0.00     0.031 A 
ATOM     12  C   UNL A   1      39.047  32.718  30.682  1.00  0.00     0.074 A 
ATOM     13  C   UNL A   1      38.478  30.708  29.369  1.00  0.00     0.049 A 
ATOM     14  N   UNL A   1      40.163  32.337  31.241  1.00  0.00    -0.248 NA
ATOM     15  C   UNL A   1      38.632  34.089  31.021  1.00  0.00     0.031 C 
ATOM     16  C   UNL A   1      37.647  29.825  28.559  1.00  0.00     0.029 A 
ATOM     17  N   UNL A   1      39.623  29.976  29.561  1.00  0.00    -0.354 N 
ATOM     18  C   UNL A   1      40.558  33.404  32.031  1.00  0.00     0.074 A 
ATOM     19  C   UNL A   1      39.618  34.479  31.811  1.00  0.00     0.031 C 
ATOM     20  C   UNL A   1      38.324  28.705  28.259  1.00  0.00     0.029 A 
ATOM     21  C   UNL A   1      39.625  28.765  28.904  1.00  0.00     0.049 A 
ATOM     22  H   UNL A   1      40.373  30.288  30.117  1.00  0.00     0.167 HD
ATOM     23  C   UNL A   1      41.586  33.466  32.905  1.00  0.00     0.031 A 
ATOM     24  C   UNL A   1      40.558  27.796  28.859  1.00  0.00     0.031 A 
ATOM     25  C   UNL A   1      42.546  32.414  33.076  1.00  0.00     0.049 A 
ATOM     26  C   UNL A   1      41.776  27.946  29.727  1.00  0.00     0.074 A 
ATOM     27  C   UNL A   1      43.635  32.368  33.925  1.00  0.00     0.029 A 
ATOM     28  N   UNL A   1      42.543  31.230  32.352  1.00  0.00    -0.354 N 
ATOM     29  N   UNL A   1      42.081  28.921  30.551  1.00  0.00    -0.248 NA
ATOM     30  C   UNL A   1      42.743  26.843  29.708  1.00  0.00     0.031 C 
ATOM     31  C   UNL A   1      44.326  31.177  33.671  1.00  0.00     0.029 A 
ATOM     32  C   UNL A   1      43.632  30.457  32.710  1.00  0.00     0.049 A 
ATOM     33  H   UNL A   1      41.864  30.977  31.685  1.00  0.00     0.167 HD
ATOM     34  C   UNL A   1      43.242  28.520  31.197  1.00  0.00     0.074 A 
ATOM     35  C   UNL A   1      43.585  27.216  30.661  1.00  0.00     0.031 C 
ATOM     36  C   UNL A   1      43.947  29.162  32.160  1.00  0.00     0.031 A 
BRANCH  23  37
ATOM     37  C   UNL A   1      41.706  34.737  33.692  1.00  0.00    -0.014 A 
ATOM     38  C   UNL A   1      42.587  35.757  33.289  1.00  0.00     0.009 A 
ATOM     39  C   UNL A   1      40.998  34.885  34.892  1.00  0.00     0.009 A 
ATOM     40  C   UNL A   1      42.800  36.870  34.103  1.00  0.00     0.001 A 
ATOM     41  C   UNL A   1      41.192  36.013  35.689  1.00  0.00     0.001 A 
ATOM     42  C   UNL A   1      42.103  36.996  35.303  1.00  0.00     0.000 A 
ENDBRANCH  23  37
BRANCH  24  43
ATOM     43  C   UNL A   1      40.350  26.571  28.036  1.00  0.00    -0.014 A 
ATOM     44  C   UNL A   1      40.923  26.455  26.760  1.00  0.00     0.009 A 
ATOM     45  C   UNL A   1      39.552  25.518  28.512  1.00  0.00     0.009 A 
ATOM     46  C   UNL A   1      40.672  25.332  25.964  1.00  0.00     0.001 A 
ATOM     47  C   UNL A   1      39.321  24.386  27.724  1.00  0.00     0.001 A 
ATOM     48  C   UNL A   1      39.871  24.300  26.446  1.00  0.00     0.000 A 
ENDBRANCH  24  43
BRANCH  36  49
ATOM     49  C   UNL A   1      45.131  28.438  32.730  1.00  0.00    -0.014 A 
ATOM     50  C   UNL A   1      46.419  28.606  32.199  1.00  0.00     0.009 A 
ATOM     51  C   UNL A   1      44.955  27.606  33.848  1.00  0.00     0.009 A 
ATOM     52  C   UNL A   1      47.502  27.926  32.757  1.00  0.00     0.001 A 
ATOM     53  C   UNL A   1      46.045  26.957  34.425  1.00  0.00     0.001 A 
ATOM     54  C   UNL A   1      47.315  27.109  33.873  1.00  0.00     0.000 A 
ENDBRANCH  36  49
ENDBRANCH  10  11
ENDBRANCH   3   5
ENDBRANCH   2   3
ENDBRANCH   1   2
BRANCH   1  55
ATOM     55  C   UNL A   1      32.515  36.382  31.235  1.00  0.00     0.274 C 
BRANCH  55  56
ATOM     56  O   UNL A   1      33.117  35.416  32.110  1.00  0.00    -0.462 OA
BRANCH  56  57
ATOM     57  C   UNL A   1      34.302  35.744  32.720  1.00  0.00     0.309 C 
ATOM     58  O   UNL A   1      34.575  36.883  33.091  1.00  0.00    -0.252 OA
BRANCH  57  59
ATOM     59  C   UNL A   1      35.219  34.495  32.892  1.00  0.00     0.106 C 
ATOM     60  C   UNL A   1      34.867  33.423  33.947  1.00  0.00     0.061 C 
ATOM     61  C   UNL A   1      36.530  34.719  33.644  1.00  0.00     0.061 C 
ATOM     62  C   UNL A   1      36.332  33.446  34.484  1.00  0.00     0.137 C 
ATOM     63  F   UNL A   1      36.404  33.691  35.820  1.00  0.00    -0.239 F 
BRANCH  62  64
ATOM     64  C   UNL A   1      37.289  32.179  34.217  1.00  0.00    -0.008 A 
ATOM     65  C   UNL A   1      38.532  32.068  34.879  1.00  0.00     0.007 A 
ATOM     66  C   UNL A   1      37.022  31.161  33.276  1.00  0.00     0.046 A 
ATOM     67  C   UNL A   1      39.435  31.023  34.629  1.00  0.00     0.003 A 
ATOM     68  C   UNL A   1      37.914  30.117  33.028  1.00  0.00     0.123 A 
ATOM     69  C   UNL A   1      39.122  30.039  33.699  1.00  0.00     0.039 A 
ATOM     70  F   UNL A   1      37.598  29.182  32.122  1.00  0.00    -0.207 F 
ENDBRANCH  62  64
ENDBRANCH  57  59
ENDBRANCH  56  57
ENDBRANCH  55  56
ENDBRANCH   1  55
TORSDOF 12
ENDMDL
MODEL 2
REMARK VINA RESULT:      -9.9      5.983     11.644
REMARK SMILES O=C(OCCOC(=O)[C@H]1C[C@](F)(c2cccc(F)c2)C1)c1ccc(-c2c3nc(c(-c4ccccc4)c4ccc([nH]4)c(-c4ccccc4)c4nc(c(-c5ccccc5)c5ccc2[nH]5)C=C4)C=C3)cc1
REMARK SMILES IDX 4 1 3 2 2 3 1 4 21 5 22 6 68 7 23 8 67 9 24 10 25 11 26 12
REMARK SMILES IDX 61 13 27 14 66 15 60 16 62 17 28 18 65 19 59 20 58 21 29 23
REMARK SMILES IDX 51 24 36 25 50 26 37 27 40 28 49 29 63 30 38 31 39 32 48 34
REMARK SMILES IDX 64 35 41 36 30 37 31 38 35 39 32 40 34 41 33 42 52 43 53 44
REMARK SMILES IDX 57 45 54 46 56 47 55 48 42 49 43 50 47 51 44 52 46 53 45 54
REMARK SMILES IDX 5 55 6 56 7 57 8 58 9 59 10 60 20 61 11 62 12 63 13 64 14 65
REMARK SMILES IDX 19 66 15 67 17 68 16 69 18 70
REMARK H PARENT 62 22 40 33
REMARK Flexibility Score: inf
ROOT
ATOM      1  C   UNL A   1      43.539  18.476  26.191  1.00  0.00     0.275 C 
ENDROOT
BRANCH   1   2
ATOM      2  O   UNL A   1      42.172  18.540  25.748  1.00  0.00    -0.458 OA
BRANCH   2   3
ATOM      3  C   UNL A   1      41.191  19.430  26.020  1.00  0.00     0.338 C 
ATOM      4  O   UNL A   1      40.051  19.161  25.638  1.00  0.00    -0.246 OA
BRANCH   3   5
ATOM      5  C   UNL A   1      41.388  20.767  26.682  1.00  0.00     0.060 A 
ATOM      6  C   UNL A   1      41.216  21.068  28.037  1.00  0.00     0.016 A 
ATOM      7  C   UNL A   1      41.803  21.815  25.837  1.00  0.00     0.016 A 
ATOM      8  C   UNL A   1      41.527  22.334  28.553  1.00  0.00     0.010 A 
ATOM      9  C   UNL A   1      42.107  23.084  26.345  1.00  0.00     0.010 A 
ATOM     10  C   UNL A   1      41.996  23.346  27.717  1.00  0.00    -0.014 A 
BRANCH  10  11
ATOM     11  C   UNL A   1      42.262  24.700  28.259  1.00  0.00     0.031 A 
ATOM     12  C   UNL A   1      43.647  24.999  28.738  1.00  0.00     0.074 A 
ATOM     13  C   UNL A   1      41.308  25.652  28.305  1.00  0.00     0.049 A 
ATOM     14  N   UNL A   1      44.149  26.134  29.140  1.00  0.00    -0.248 NA
ATOM     15  C   UNL A   1      44.603  23.879  28.730  1.00  0.00     0.031 C 
ATOM     16  C   UNL A   1      39.947  25.512  27.802  1.00  0.00     0.029 A 
ATOM     17  N   UNL A   1      41.331  26.931  28.804  1.00  0.00    -0.354 N 
ATOM     18  C   UNL A   1      45.487  25.875  29.389  1.00  0.00     0.074 A 
ATOM     19  C   UNL A   1      45.700  24.461  29.183  1.00  0.00     0.031 C 
ATOM     20  C   UNL A   1      39.239  26.620  28.077  1.00  0.00     0.029 A 
ATOM     21  C   UNL A   1      40.116  27.577  28.731  1.00  0.00     0.049 A 
ATOM     22  H   UNL A   1      42.140  27.347  29.179  1.00  0.00     0.167 HD
ATOM     23  C   UNL A   1      46.465  26.749  29.711  1.00  0.00     0.031 A 
ATOM     24  C   UNL A   1      39.761  28.818  29.114  1.00  0.00     0.031 A 
ATOM     25  C   UNL A   1      46.233  28.141  29.966  1.00  0.00     0.049 A 
ATOM     26  C   UNL A   1      40.839  29.738  29.614  1.00  0.00     0.074 A 
ATOM     27  C   UNL A   1      47.144  29.121  30.309  1.00  0.00     0.029 A 
ATOM     28  N   UNL A   1      44.981  28.741  29.935  1.00  0.00    -0.354 N 
ATOM     29  N   UNL A   1      42.123  29.505  29.744  1.00  0.00    -0.248 NA
ATOM     30  C   UNL A   1      40.433  31.105  29.961  1.00  0.00     0.031 C 
ATOM     31  C   UNL A   1      46.434  30.304  30.545  1.00  0.00     0.029 A 
ATOM     32  C   UNL A   1      45.091  30.075  30.287  1.00  0.00     0.049 A 
ATOM     33  H   UNL A   1      44.142  28.286  29.697  1.00  0.00     0.167 HD
ATOM     34  C   UNL A   1      42.690  30.712  30.125  1.00  0.00     0.074 A 
ATOM     35  C   UNL A   1      41.606  31.671  30.211  1.00  0.00     0.031 C 
ATOM     36  C   UNL A   1      43.992  31.005  30.362  1.00  0.00     0.031 A 
BRANCH  23  37
ATOM     37  C   UNL A   1      47.847  26.177  29.826  1.00  0.00    -0.014 A 
ATOM     38  C   UNL A   1      48.391  25.852  31.082  1.00  0.00     0.009 A 
ATOM     39  C   UNL A   1      48.645  26.042  28.683  1.00  0.00     0.009 A 
ATOM     40  C   UNL A   1      49.726  25.459  31.194  1.00  0.00     0.001 A 
ATOM     41  C   UNL A   1      49.970  25.621  28.795  1.00  0.00     0.001 A 
ATOM     42  C   UNL A   1      50.514  25.345  30.049  1.00  0.00     0.000 A 
ENDBRANCH  23  37
BRANCH  24  43
ATOM     43  C   UNL A   1      38.355  29.291  28.967  1.00  0.00    -0.014 A 
ATOM     44  C   UNL A   1      37.894  29.809  27.747  1.00  0.00     0.009 A 
ATOM     45  C   UNL A   1      37.471  29.251  30.058  1.00  0.00     0.009 A 
ATOM     46  C   UNL A   1      36.594  30.313  27.632  1.00  0.00     0.001 A 
ATOM     47  C   UNL A   1      36.165  29.734  29.934  1.00  0.00     0.001 A 
ATOM     48  C   UNL A   1      35.731  30.275  28.725  1.00  0.00     0.000 A 
ENDBRANCH  24  43
BRANCH  36  49
ATOM     49  C   UNL A   1      44.318  32.434  30.687  1.00  0.00    -0.014 A 
ATOM     50  C   UNL A   1      44.606  33.367  29.680  1.00  0.00     0.009 A 
ATOM     51  C   UNL A   1      44.291  32.857  32.025  1.00  0.00     0.009 A 
ATOM     52  C   UNL A   1      44.896  34.691  30.013  1.00  0.00     0.001 A 
ATOM     53  C   UNL A   1      44.546  34.188  32.352  1.00  0.00     0.001 A 
ATOM     54  C   UNL A   1      44.859  35.101  31.347  1.00  0.00     0.000 A 
ENDBRANCH  36  49
ENDBRANCH  10  11
ENDBRANCH   3   5
ENDBRANCH   2   3
ENDBRANCH   1   2
BRANCH   1  55
ATOM     55  C   UNL A   1      44.558  18.469  25.049  1.00  0.00     0.274 C 
BRANCH  55  56
ATOM     56  O   UNL A   1      44.624  19.740  24.385  1.00  0.00    -0.462 OA
BRANCH  56  57
ATOM     57  C   UNL A   1      45.737  20.517  24.582  1.00  0.00     0.309 C 
ATOM     58  O   UNL A   1      46.877  20.061  24.615  1.00  0.00    -0.252 OA
BRANCH  57  59
ATOM     59  C   UNL A   1      45.363  22.023  24.729  1.00  0.00     0.106 C 
ATOM     60  C   UNL A   1      46.248  23.103  24.067  1.00  0.00     0.061 C 
ATOM     61  C   UNL A   1      45.686  22.670  26.076  1.00  0.00     0.061 C 
ATOM     62  C   UNL A   1      46.283  23.915  25.399  1.00  0.00     0.137 C 
ATOM     63  F   UNL A   1      47.547  24.180  25.826  1.00  0.00    -0.239 F 
BRANCH  62  64
ATOM     64  C   UNL A   1      45.485  25.311  25.491  1.00  0.00    -0.008 A 
ATOM     65  C   UNL A   1      46.134  26.478  25.952  1.00  0.00     0.007 A 
ATOM     66  C   UNL A   1      44.109  25.463  25.217  1.00  0.00     0.046 A 
ATOM     67  C   UNL A   1      45.468  27.702  26.120  1.00  0.00     0.003 A 
ATOM     68  C   UNL A   1      43.443  26.679  25.377  1.00  0.00     0.123 A 
ATOM     69  C   UNL A   1      44.113  27.803  25.827  1.00  0.00     0.039 A 
ATOM     70  F   UNL A   1      42.135  26.756  25.097  1.00  0.00    -0.207 F 
ENDBRANCH  62  64
ENDBRANCH  57  59
ENDBRANCH  56  57
ENDBRANCH  55  56
ENDBRANCH   1  55
TORSDOF 12
ENDMDL
MODEL 3
REMARK VINA RESULT:      -8.7      0.824      6.308
REMARK SMILES O=C(OCCOC(=O)[C@H]1C[C@](F)(c2cccc(F)c2)C1)c1ccc(-c2c3nc(c(-c4ccccc4)c4ccc([nH]4)c(-c4ccccc4)c4nc(c(-c5ccccc5)c5ccc2[nH]5)C=C4)C=C3)cc1
REMARK SMILES IDX 4 1 3 2 2 3 1 4 21 5 22 6 68 7 23 8 67 9 24 10 25 11 26 12
REMARK SMILES IDX 61 13 27 14 66 15 60 16 62 17 28 18 65 19 59 20 58 21 29 23
REMARK SMILES IDX 51 24 36 25 50 26 37 27 40 28 49 29 63 30 38 31 39 32 48 34
REMARK SMILES IDX 64 35 41 36 30 37 31 38 35 39 32 40 34 41 33 42 52 43 53 44
REMARK SMILES IDX 57 45 54 46 56 47 55 48 42 49 43 50 47 51 44 52 46 53 45 54
REMARK SMILES IDX 5 55 6 56 7 57 8 58 9 59 10 60 20 61 11 62 12 63 13 64 14 65
REMARK SMILES IDX 19 66 15 67 17 68 16 69 18 70
REMARK H PARENT 62 22 40 33
REMARK Flexibility Score: inf
ROOT
ATOM      1  C   UNL A   1      32.898  36.118  29.529  1.00  0.00     0.275 C 
ENDROOT
BRANCH   1   2
ATOM      2  O   UNL A   1      32.512  34.806  29.084  1.00  0.00    -0.458 OA
BRANCH   2   3
ATOM      3  C   UNL A   1      33.188  33.873  28.377  1.00  0.00     0.338 C 
ATOM      4  O   UNL A   1      32.601  33.324  27.444  1.00  0.00    -0.246 OA
BRANCH   3   5
ATOM      5  C   UNL A   1      34.579  33.387  28.685  1.00  0.00     0.060 A 
ATOM      6  C   UNL A   1      35.744  33.653  27.958  1.00  0.00     0.016 A 
ATOM      7  C   UNL A   1      34.709  32.591  29.840  1.00  0.00     0.016 A 
ATOM      8  C   UNL A   1      37.001  33.222  28.403  1.00  0.00     0.010 A 
ATOM      9  C   UNL A   1      35.962  32.150  30.285  1.00  0.00     0.010 A 
ATOM     10  C   UNL A   1      37.125  32.488  29.581  1.00  0.00    -0.014 A 
BRANCH  10  11
ATOM     11  C   UNL A   1      38.450  31.981  30.011  1.00  0.00     0.031 A 
ATOM     12  C   UNL A   1      38.844  30.604  29.578  1.00  0.00     0.074 A 
ATOM     13  C   UNL A   1      39.297  32.729  30.747  1.00  0.00     0.049 A 
ATOM     14  N   UNL A   1      39.987  29.993  29.728  1.00  0.00    -0.248 NA
ATOM     15  C   UNL A   1      37.827  29.827  28.849  1.00  0.00     0.031 C 
ATOM     16  C   UNL A   1      39.065  34.106  31.167  1.00  0.00     0.029 A 
ATOM     17  N   UNL A   1      40.527  32.438  31.283  1.00  0.00    -0.354 N 
ATOM     18  C   UNL A   1      39.841  28.780  29.075  1.00  0.00     0.074 A 
ATOM     19  C   UNL A   1      38.476  28.701  28.607  1.00  0.00     0.031 C 
ATOM     20  C   UNL A   1      40.072  34.523  31.952  1.00  0.00     0.029 A 
ATOM     21  C   UNL A   1      41.055  33.456  32.047  1.00  0.00     0.049 A 
ATOM     22  H   UNL A   1      40.989  31.582  31.135  1.00  0.00     0.167 HD
ATOM     23  C   UNL A   1      40.777  27.836  28.839  1.00  0.00     0.031 A 
ATOM     24  C   UNL A   1      42.220  33.533  32.718  1.00  0.00     0.031 A 
ATOM     25  C   UNL A   1      42.114  27.899  29.354  1.00  0.00     0.049 A 
ATOM     26  C   UNL A   1      43.197  32.402  32.567  1.00  0.00     0.074 A 
ATOM     27  C   UNL A   1      43.147  26.997  29.188  1.00  0.00     0.029 A 
ATOM     28  N   UNL A   1      42.589  28.919  30.168  1.00  0.00    -0.354 N 
ATOM     29  N   UNL A   1      43.081  31.305  31.856  1.00  0.00    -0.248 NA
ATOM     30  C   UNL A   1      44.485  32.544  33.256  1.00  0.00     0.031 C 
ATOM     31  C   UNL A   1      44.233  27.443  29.953  1.00  0.00     0.029 A 
ATOM     32  C   UNL A   1      43.894  28.652  30.542  1.00  0.00     0.049 A 
ATOM     33  H   UNL A   1      42.075  29.714  30.436  1.00  0.00     0.167 HD
ATOM     34  C   UNL A   1      44.304  30.657  31.959  1.00  0.00     0.074 A 
ATOM     35  C   UNL A   1      45.142  31.483  32.807  1.00  0.00     0.031 C 
ATOM     36  C   UNL A   1      44.703  29.495  31.387  1.00  0.00     0.031 A 
BRANCH  23  37
ATOM     37  C   UNL A   1      40.337  26.662  28.015  1.00  0.00    -0.014 A 
ATOM     38  C   UNL A   1      39.594  25.615  28.590  1.00  0.00     0.009 A 
ATOM     39  C   UNL A   1      40.738  26.559  26.677  1.00  0.00     0.009 A 
ATOM     40  C   UNL A   1      39.313  24.462  27.855  1.00  0.00     0.001 A 
ATOM     41  C   UNL A   1      40.431  25.417  25.937  1.00  0.00     0.001 A 
ATOM     42  C   UNL A   1      39.734  24.364  26.530  1.00  0.00     0.000 A 
ENDBRANCH  23  37
BRANCH  24  43
ATOM     43  C   UNL A   1      42.563  34.741  33.520  1.00  0.00    -0.014 A 
ATOM     44  C   UNL A   1      43.232  35.827  32.934  1.00  0.00     0.009 A 
ATOM     45  C   UNL A   1      42.245  34.806  34.886  1.00  0.00     0.009 A 
ATOM     46  C   UNL A   1      43.610  36.932  33.705  1.00  0.00     0.001 A 
ATOM     47  C   UNL A   1      42.604  35.921  35.650  1.00  0.00     0.001 A 
ATOM     48  C   UNL A   1      43.297  36.977  35.061  1.00  0.00     0.000 A 
ENDBRANCH  24  43
BRANCH  36  49
ATOM     49  C   UNL A   1      46.126  29.078  31.620  1.00  0.00    -0.014 A 
ATOM     50  C   UNL A   1      46.480  28.249  32.695  1.00  0.00     0.009 A 
ATOM     51  C   UNL A   1      47.119  29.490  30.718  1.00  0.00     0.009 A 
ATOM     52  C   UNL A   1      47.810  27.870  32.880  1.00  0.00     0.001 A 
ATOM     53  C   UNL A   1      48.441  29.081  30.885  1.00  0.00     0.001 A 
ATOM     54  C   UNL A   1      48.787  28.280  31.972  1.00  0.00     0.000 A 
ENDBRANCH  36  49
ENDBRANCH  10  11
ENDBRANCH   3   5
ENDBRANCH   2   3
ENDBRANCH   1   2
BRANCH   1  55
ATOM     55  C   UNL A   1      32.754  36.325  31.039  1.00  0.00     0.274 C 
BRANCH  55  56
ATOM     56  O   UNL A   1      34.026  36.511  31.676  1.00  0.00    -0.462 OA
BRANCH  56  57
ATOM     57  C   UNL A   1      34.151  36.149  32.994  1.00  0.00     0.309 C 
ATOM     58  O   UNL A   1      33.649  36.787  33.916  1.00  0.00    -0.252 OA
BRANCH  57  59
ATOM     59  C   UNL A   1      34.977  34.837  33.150  1.00  0.00     0.106 C 
ATOM     60  C   UNL A   1      35.270  34.277  34.560  1.00  0.00     0.061 C 
ATOM     61  C   UNL A   1      36.487  34.963  32.952  1.00  0.00     0.061 C 
ATOM     62  C   UNL A   1      36.779  34.112  34.200  1.00  0.00     0.137 C 
ATOM     63  F   UNL A   1      37.606  34.745  35.075  1.00  0.00    -0.239 F 
BRANCH  62  64
ATOM     64  C   UNL A   1      37.388  32.633  34.011  1.00  0.00    -0.008 A 
ATOM     65  C   UNL A   1      38.656  32.307  34.540  1.00  0.00     0.007 A 
ATOM     66  C   UNL A   1      36.774  31.609  33.258  1.00  0.00     0.046 A 
ATOM     67  C   UNL A   1      39.263  31.057  34.342  1.00  0.00     0.003 A 
ATOM     68  C   UNL A   1      37.371  30.362  33.064  1.00  0.00     0.123 A 
ATOM     69  C   UNL A   1      38.614  30.077  33.602  1.00  0.00     0.039 A 
ATOM     70  F   UNL A   1      36.733  29.432  32.340  1.00  0.00    -0.207 F 
ENDBRANCH  62  64
ENDBRANCH  57  59
ENDBRANCH  56  57
ENDBRANCH  55  56
ENDBRANCH   1  55
TORSDOF 12
ENDMDL
