MODEL 1
REMARK VINA RESULT:     -10.7      0.000      0.000
REMARK SMILES NC(=O)[C@@H]1CCCCN1C(=O)N[C@H]1C=C[C@@H](C(=O)OCCOC(=O)c2ccc(-c3c4nc(c(-c5ccccc5)c5ccc([nH]5)c(-c5ccccc5)c5nc(c(-c6ccccc6)c6ccc3[nH]6)C=C5)C=C4)cc2)C1
REMARK SMILES IDX 20 1 19 2 17 3 18 4 16 5 13 6 14 7 73 8 15 9 12 10 10 11
REMARK SMILES IDX 11 12 9 14 4 15 5 16 6 17 8 18 7 19 2 20 1 21 3 24 21 25
REMARK SMILES IDX 22 26 23 27 24 28 25 29 26 30 72 31 27 32 71 33 28 34 29 35
REMARK SMILES IDX 30 36 65 37 31 38 70 39 64 40 66 41 32 42 69 43 63 44 62 45
REMARK SMILES IDX 33 47 55 48 40 49 54 50 41 51 44 52 53 53 67 54 42 55 43 56
REMARK SMILES IDX 52 58 68 59 45 60 34 61 35 62 39 63 36 64 38 65 37 66 56 67
REMARK SMILES IDX 57 68 61 69 58 70 60 71 59 72 46 73 47 74 51 75 48 76 50 77
REMARK SMILES IDX 49 78
REMARK H PARENT 12 13 1 22 1 23 66 46 44 57
REMARK Flexibility Score: inf
ROOT
ATOM      1  C   UNL A   1      41.998  19.010  26.597  1.00  0.00     0.274 C 
ENDROOT
BRANCH   1   2
ATOM      2  O   UNL A   1      41.356  20.129  25.956  1.00  0.00    -0.462 OA
BRANCH   2   3
ATOM      3  C   UNL A   1      40.683  20.988  26.766  1.00  0.00     0.312 C 
ATOM      4  O   UNL A   1      40.686  20.936  27.992  1.00  0.00    -0.252 OA
BRANCH   3   5
ATOM      5  C   UNL A   1      39.885  22.036  26.001  1.00  0.00     0.124 C 
ATOM      6  C   UNL A   1      37.633  22.975  25.797  1.00  0.00     0.107 C 
ATOM      7  C   UNL A   1      38.525  23.834  26.642  1.00  0.00    -0.006 C 
ATOM      8  C   UNL A   1      38.427  21.666  25.718  1.00  0.00     0.048 C 
ATOM      9  C   UNL A   1      39.762  23.331  26.743  1.00  0.00    -0.014 C 
BRANCH   6  10
ATOM     10  N   UNL A   1      36.374  22.768  26.466  1.00  0.00    -0.332 N 
ATOM     11  C   UNL A   1      35.275  22.023  26.259  1.00  0.00     0.318 C 
ATOM     12  O   UNL A   1      34.499  21.991  27.219  1.00  0.00    -0.249 OA
ATOM     13  H   UNL A   1      36.300  23.310  27.285  1.00  0.00     0.165 HD
BRANCH  11  14
ATOM     14  N   UNL A   1      34.999  21.373  25.087  1.00  0.00    -0.313 N 
ATOM     15  C   UNL A   1      34.107  22.047  24.113  1.00  0.00     0.176 C 
ATOM     16  C   UNL A   1      32.687  21.474  24.226  1.00  0.00     0.035 C 
ATOM     17  C   UNL A   1      32.718  19.960  23.980  1.00  0.00     0.004 C 
ATOM     18  C   UNL A   1      35.119  19.946  24.794  1.00  0.00     0.122 C 
ATOM     19  C   UNL A   1      33.745  19.271  24.880  1.00  0.00     0.022 C 
BRANCH  15  20
ATOM     20  C   UNL A   1      34.194  23.585  23.937  1.00  0.00     0.240 C 
ATOM     21  N   UNL A   1      33.620  24.356  24.909  1.00  0.00    -0.368 N 
ATOM     22  H   UNL A   1      33.649  25.338  24.841  1.00  0.00     0.159 HD
ATOM     23  H   UNL A   1      33.177  23.929  25.678  1.00  0.00     0.159 HD
ATOM     24  O   UNL A   1      34.774  24.118  22.993  1.00  0.00    -0.273 OA
ENDBRANCH  15  20
ENDBRANCH  11  14
ENDBRANCH   6  10
ENDBRANCH   3   5
ENDBRANCH   2   3
ENDBRANCH   1   2
BRANCH   1  25
ATOM     25  C   UNL A   1      43.316  18.646  25.906  1.00  0.00     0.275 C 
BRANCH  25  26
ATOM     26  O   UNL A   1      43.470  19.341  24.654  1.00  0.00    -0.458 OA
BRANCH  26  27
ATOM     27  C   UNL A   1      44.742  19.665  24.327  1.00  0.00     0.338 C 
ATOM     28  O   UNL A   1      45.563  18.973  23.752  1.00  0.00    -0.246 OA
BRANCH  27  29
ATOM     29  C   UNL A   1      44.998  21.071  24.665  1.00  0.00     0.060 A 
ATOM     30  C   UNL A   1      45.528  21.364  25.925  1.00  0.00     0.016 A 
ATOM     31  C   UNL A   1      44.637  22.094  23.787  1.00  0.00     0.016 A 
ATOM     32  C   UNL A   1      45.691  22.688  26.321  1.00  0.00     0.010 A 
ATOM     33  C   UNL A   1      44.802  23.422  24.185  1.00  0.00     0.010 A 
ATOM     34  C   UNL A   1      45.317  23.726  25.458  1.00  0.00    -0.014 A 
BRANCH  34  35
ATOM     35  C   UNL A   1      45.417  25.135  25.899  1.00  0.00     0.031 A 
ATOM     36  C   UNL A   1      46.745  25.834  25.859  1.00  0.00     0.074 A 
ATOM     37  C   UNL A   1      44.323  25.781  26.337  1.00  0.00     0.049 A 
ATOM     38  N   UNL A   1      47.068  27.019  26.309  1.00  0.00    -0.248 NA
ATOM     39  C   UNL A   1      47.855  25.101  25.230  1.00  0.00     0.031 C 
ATOM     40  C   UNL A   1      42.968  25.229  26.367  1.00  0.00     0.029 A 
ATOM     41  N   UNL A   1      44.183  27.045  26.851  1.00  0.00    -0.354 N 
ATOM     42  C   UNL A   1      48.421  27.170  26.035  1.00  0.00     0.074 A 
ATOM     43  C   UNL A   1      48.862  25.949  25.391  1.00  0.00     0.031 C 
ATOM     44  C   UNL A   1      42.134  26.149  26.880  1.00  0.00     0.029 A 
ATOM     45  C   UNL A   1      42.904  27.331  27.259  1.00  0.00     0.049 A 
ATOM     46  H   UNL A   1      44.928  27.686  26.921  1.00  0.00     0.167 HD
ATOM     47  C   UNL A   1      49.222  28.229  26.298  1.00  0.00     0.031 A 
ATOM     48  C   UNL A   1      42.415  28.411  27.898  1.00  0.00     0.031 A 
ATOM     49  C   UNL A   1      48.786  29.435  26.946  1.00  0.00     0.049 A 
ATOM     50  C   UNL A   1      43.345  29.535  28.260  1.00  0.00     0.074 A 
ATOM     51  C   UNL A   1      49.523  30.561  27.265  1.00  0.00     0.029 A 
ATOM     52  N   UNL A   1      47.489  29.669  27.379  1.00  0.00    -0.354 N 
ATOM     53  N   UNL A   1      44.625  29.660  28.008  1.00  0.00    -0.248 NA
ATOM     54  C   UNL A   1      42.762  30.664  29.000  1.00  0.00     0.031 C 
ATOM     55  C   UNL A   1      48.683  31.462  27.928  1.00  0.00     0.029 A 
ATOM     56  C   UNL A   1      47.411  30.915  27.978  1.00  0.00     0.049 A 
ATOM     57  H   UNL A   1      46.737  29.044  27.275  1.00  0.00     0.167 HD
ATOM     58  C   UNL A   1      44.995  30.891  28.535  1.00  0.00     0.074 A 
ATOM     59  C   UNL A   1      43.803  31.478  29.111  1.00  0.00     0.031 C 
ATOM     60  C   UNL A   1      46.214  31.484  28.539  1.00  0.00     0.031 A 
BRANCH  47  61
ATOM     61  C   UNL A   1      50.669  28.110  25.912  1.00  0.00    -0.014 A 
ATOM     62  C   UNL A   1      51.630  27.645  26.824  1.00  0.00     0.009 A 
ATOM     63  C   UNL A   1      51.070  28.436  24.607  1.00  0.00     0.009 A 
ATOM     64  C   UNL A   1      52.970  27.540  26.444  1.00  0.00     0.001 A 
ATOM     65  C   UNL A   1      52.406  28.307  24.224  1.00  0.00     0.001 A 
ATOM     66  C   UNL A   1      53.356  27.867  25.145  1.00  0.00     0.000 A 
ENDBRANCH  47  61
BRANCH  48  67
ATOM     67  C   UNL A   1      40.978  28.467  28.270  1.00  0.00    -0.014 A 
ATOM     68  C   UNL A   1      40.045  29.078  27.421  1.00  0.00     0.009 A 
ATOM     69  C   UNL A   1      40.537  27.918  29.485  1.00  0.00     0.009 A 
ATOM     70  C   UNL A   1      38.700  29.158  27.791  1.00  0.00     0.001 A 
ATOM     71  C   UNL A   1      39.188  27.976  29.840  1.00  0.00     0.001 A 
ATOM     72  C   UNL A   1      38.272  28.604  28.996  1.00  0.00     0.000 A 
ENDBRANCH  48  67
BRANCH  60  73
ATOM     73  C   UNL A   1      46.309  32.854  29.146  1.00  0.00    -0.014 A 
ATOM     74  C   UNL A   1      46.657  33.030  30.493  1.00  0.00     0.009 A 
ATOM     75  C   UNL A   1      46.093  33.984  28.341  1.00  0.00     0.009 A 
ATOM     76  C   UNL A   1      46.765  34.315  31.029  1.00  0.00     0.001 A 
ATOM     77  C   UNL A   1      46.224  35.266  28.874  1.00  0.00     0.001 A 
ATOM     78  C   UNL A   1      46.553  35.431  30.219  1.00  0.00     0.000 A 
ENDBRANCH  60  73
ENDBRANCH  34  35
ENDBRANCH  27  29
ENDBRANCH  26  27
ENDBRANCH  25  26
ENDBRANCH   1  25
TORSDOF 14
ENDMDL
MODEL 2
REMARK VINA RESULT:     -10.7      4.348      9.396
REMARK SMILES NC(=O)[C@@H]1CCCCN1C(=O)N[C@H]1C=C[C@@H](C(=O)OCCOC(=O)c2ccc(-c3c4nc(c(-c5ccccc5)c5ccc([nH]5)c(-c5ccccc5)c5nc(c(-c6ccccc6)c6ccc3[nH]6)C=C5)C=C4)cc2)C1
REMARK SMILES IDX 20 1 19 2 17 3 18 4 16 5 13 6 14 7 73 8 15 9 12 10 10 11
REMARK SMILES IDX 11 12 9 14 4 15 5 16 6 17 8 18 7 19 2 20 1 21 3 24 21 25
REMARK SMILES IDX 22 26 23 27 24 28 25 29 26 30 72 31 27 32 71 33 28 34 29 35
REMARK SMILES IDX 30 36 65 37 31 38 70 39 64 40 66 41 32 42 69 43 63 44 62 45
REMARK SMILES IDX 33 47 55 48 40 49 54 50 41 51 44 52 53 53 67 54 42 55 43 56
REMARK SMILES IDX 52 58 68 59 45 60 34 61 35 62 39 63 36 64 38 65 37 66 56 67
REMARK SMILES IDX 57 68 61 69 58 70 60 71 59 72 46 73 47 74 51 75 48 76 50 77
REMARK SMILES IDX 49 78
REMARK H PARENT 12 13 1 22 1 23 66 46 44 57
REMARK Flexibility Score: inf
ROOT
ATOM      1  C   UNL A   1      34.306  34.493  29.912  1.00  0.00     0.274 C 
ENDROOT
BRANCH   1   2
ATOM      2  O   UNL A   1      33.720  33.572  28.971  1.00  0.00    -0.462 OA
BRANCH   2   3
ATOM      3  C   UNL A   1      34.585  32.811  28.249  1.00  0.00     0.312 C 
ATOM      4  O   UNL A   1      35.537  33.251  27.613  1.00  0.00    -0.252 OA
BRANCH   3   5
ATOM      5  C   UNL A   1      34.248  31.326  28.281  1.00  0.00     0.124 C 
ATOM      6  C   UNL A   1      33.830  29.411  26.812  1.00  0.00     0.107 C 
ATOM      7  C   UNL A   1      35.231  29.414  27.347  1.00  0.00    -0.006 C 
ATOM      8  C   UNL A   1      33.359  30.835  27.136  1.00  0.00     0.048 C 
ATOM      9  C   UNL A   1      35.458  30.451  28.163  1.00  0.00    -0.014 C 
BRANCH   6  10
ATOM     10  N   UNL A   1      33.847  29.192  25.389  1.00  0.00    -0.332 N 
ATOM     11  C   UNL A   1      32.933  29.115  24.407  1.00  0.00     0.318 C 
ATOM     12  O   UNL A   1      33.414  29.124  23.269  1.00  0.00    -0.249 OA
ATOM     13  H   UNL A   1      34.763  29.067  25.048  1.00  0.00     0.165 HD
BRANCH  11  14
ATOM     14  N   UNL A   1      31.587  29.002  24.619  1.00  0.00    -0.313 N 
ATOM     15  C   UNL A   1      31.030  27.646  24.842  1.00  0.00     0.176 C 
ATOM     16  C   UNL A   1      30.400  27.123  23.544  1.00  0.00     0.035 C 
ATOM     17  C   UNL A   1      29.306  28.090  23.072  1.00  0.00     0.004 C 
ATOM     18  C   UNL A   1      30.534  29.956  24.273  1.00  0.00     0.122 C 
ATOM     19  C   UNL A   1      29.833  29.523  22.980  1.00  0.00     0.022 C 
BRANCH  15  20
ATOM     20  C   UNL A   1      31.850  26.608  25.651  1.00  0.00     0.240 C 
ATOM     21  N   UNL A   1      31.362  26.248  26.876  1.00  0.00    -0.368 N 
ATOM     22  H   UNL A   1      31.848  25.593  27.426  1.00  0.00     0.159 HD
ATOM     23  H   UNL A   1      30.524  26.645  27.208  1.00  0.00     0.159 HD
ATOM     24  O   UNL A   1      32.880  26.090  25.223  1.00  0.00    -0.273 OA
ENDBRANCH  15  20
ENDBRANCH  11  14
ENDBRANCH   6  10
ENDBRANCH   3   5
ENDBRANCH   2   3
ENDBRANCH   1   2
BRANCH   1  25
ATOM     25  C   UNL A   1      34.386  33.886  31.317  1.00  0.00     0.275 C 
BRANCH  25  26
ATOM     26  O   UNL A   1      35.712  33.993  31.868  1.00  0.00    -0.458 OA
BRANCH  26  27
ATOM     27  C   UNL A   1      36.132  32.916  32.571  1.00  0.00     0.338 C 
ATOM     28  O   UNL A   1      35.682  32.488  33.619  1.00  0.00    -0.246 OA
BRANCH  27  29
ATOM     29  C   UNL A   1      37.183  32.214  31.822  1.00  0.00     0.060 A 
ATOM     30  C   UNL A   1      38.006  31.321  32.515  1.00  0.00     0.016 A 
ATOM     31  C   UNL A   1      37.411  32.498  30.475  1.00  0.00     0.016 A 
ATOM     32  C   UNL A   1      39.076  30.713  31.865  1.00  0.00     0.010 A 
ATOM     33  C   UNL A   1      38.484  31.885  29.824  1.00  0.00     0.010 A 
ATOM     34  C   UNL A   1      39.329  31.001  30.517  1.00  0.00    -0.014 A 
BRANCH  34  35
ATOM     35  C   UNL A   1      40.506  30.417  29.838  1.00  0.00     0.031 A 
ATOM     36  C   UNL A   1      41.741  31.247  29.647  1.00  0.00     0.074 A 
ATOM     37  C   UNL A   1      40.464  29.149  29.391  1.00  0.00     0.049 A 
ATOM     38  N   UNL A   1      42.830  30.965  28.977  1.00  0.00    -0.248 NA
ATOM     39  C   UNL A   1      41.753  32.568  30.295  1.00  0.00     0.031 C 
ATOM     40  C   UNL A   1      39.343  28.225  29.569  1.00  0.00     0.029 A 
ATOM     41  N   UNL A   1      41.389  28.425  28.684  1.00  0.00    -0.354 N 
ATOM     42  C   UNL A   1      43.650  32.079  29.107  1.00  0.00     0.074 A 
ATOM     43  C   UNL A   1      42.928  33.046  29.908  1.00  0.00     0.031 C 
ATOM     44  C   UNL A   1      39.645  27.055  28.980  1.00  0.00     0.029 A 
ATOM     45  C   UNL A   1      40.955  27.168  28.344  1.00  0.00     0.049 A 
ATOM     46  H   UNL A   1      42.279  28.772  28.444  1.00  0.00     0.167 HD
ATOM     47  C   UNL A   1      44.890  32.277  28.602  1.00  0.00     0.031 A 
ATOM     48  C   UNL A   1      41.534  26.226  27.575  1.00  0.00     0.031 A 
ATOM     49  C   UNL A   1      45.601  31.320  27.798  1.00  0.00     0.049 A 
ATOM     50  C   UNL A   1      42.872  26.507  26.951  1.00  0.00     0.074 A 
ATOM     51  C   UNL A   1      46.859  31.430  27.233  1.00  0.00     0.029 A 
ATOM     52  N   UNL A   1      45.109  30.073  27.443  1.00  0.00    -0.354 N 
ATOM     53  N   UNL A   1      43.632  27.568  27.069  1.00  0.00    -0.248 NA
ATOM     54  C   UNL A   1      43.430  25.458  26.083  1.00  0.00     0.031 C 
ATOM     55  C   UNL A   1      47.113  30.266  26.501  1.00  0.00     0.029 A 
ATOM     56  C   UNL A   1      46.032  29.411  26.652  1.00  0.00     0.049 A 
ATOM     57  H   UNL A   1      44.236  29.711  27.714  1.00  0.00     0.167 HD
ATOM     58  C   UNL A   1      44.767  27.307  26.312  1.00  0.00     0.074 A 
ATOM     59  C   UNL A   1      44.601  25.983  25.748  1.00  0.00     0.031 C 
ATOM     60  C   UNL A   1      45.852  28.092  26.105  1.00  0.00     0.031 A 
BRANCH  47  61
ATOM     61  C   UNL A   1      45.543  33.601  28.879  1.00  0.00    -0.014 A 
ATOM     62  C   UNL A   1      46.369  33.785  29.999  1.00  0.00     0.009 A 
ATOM     63  C   UNL A   1      45.354  34.669  27.989  1.00  0.00     0.009 A 
ATOM     64  C   UNL A   1      46.969  35.024  30.236  1.00  0.00     0.001 A 
ATOM     65  C   UNL A   1      45.973  35.899  28.217  1.00  0.00     0.001 A 
ATOM     66  C   UNL A   1      46.774  36.078  29.344  1.00  0.00     0.000 A 
ENDBRANCH  47  61
BRANCH  48  67
ATOM     67  C   UNL A   1      40.834  24.940  27.321  1.00  0.00    -0.014 A 
ATOM     68  C   UNL A   1      39.698  24.896  26.502  1.00  0.00     0.009 A 
ATOM     69  C   UNL A   1      41.296  23.752  27.909  1.00  0.00     0.009 A 
ATOM     70  C   UNL A   1      39.024  23.691  26.293  1.00  0.00     0.001 A 
ATOM     71  C   UNL A   1      40.636  22.544  27.677  1.00  0.00     0.001 A 
ATOM     72  C   UNL A   1      39.496  22.515  26.876  1.00  0.00     0.000 A 
ENDBRANCH  48  67
BRANCH  60  73
ATOM     73  C   UNL A   1      46.962  27.523  25.270  1.00  0.00    -0.014 A 
ATOM     74  C   UNL A   1      47.075  27.828  23.905  1.00  0.00     0.009 A 
ATOM     75  C   UNL A   1      47.935  26.710  25.872  1.00  0.00     0.009 A 
ATOM     76  C   UNL A   1      48.131  27.308  23.154  1.00  0.00     0.001 A 
ATOM     77  C   UNL A   1      49.001  26.211  25.124  1.00  0.00     0.001 A 
ATOM     78  C   UNL A   1      49.094  26.505  23.764  1.00  0.00     0.000 A 
ENDBRANCH  60  73
ENDBRANCH  34  35
ENDBRANCH  27  29
ENDBRANCH  26  27
ENDBRANCH  25  26
ENDBRANCH   1  25
TORSDOF 14
ENDMDL
MODEL 3
REMARK VINA RESULT:     -10.6      7.228     12.431
REMARK SMILES NC(=O)[C@@H]1CCCCN1C(=O)N[C@H]1C=C[C@@H](C(=O)OCCOC(=O)c2ccc(-c3c4nc(c(-c5ccccc5)c5ccc([nH]5)c(-c5ccccc5)c5nc(c(-c6ccccc6)c6ccc3[nH]6)C=C5)C=C4)cc2)C1
REMARK SMILES IDX 20 1 19 2 17 3 18 4 16 5 13 6 14 7 73 8 15 9 12 10 10 11
REMARK SMILES IDX 11 12 9 14 4 15 5 16 6 17 8 18 7 19 2 20 1 21 3 24 21 25
REMARK SMILES IDX 22 26 23 27 24 28 25 29 26 30 72 31 27 32 71 33 28 34 29 35
REMARK SMILES IDX 30 36 65 37 31 38 70 39 64 40 66 41 32 42 69 43 63 44 62 45
REMARK SMILES IDX 33 47 55 48 40 49 54 50 41 51 44 52 53 53 67 54 42 55 43 56
REMARK SMILES IDX 52 58 68 59 45 60 34 61 35 62 39 63 36 64 38 65 37 66 56 67
REMARK SMILES IDX 57 68 61 69 58 70 60 71 59 72 46 73 47 74 51 75 48 76 50 77
REMARK SMILES IDX 49 78
REMARK H PARENT 12 13 1 22 1 23 66 46 44 57
REMARK Flexibility Score: inf
ROOT
ATOM      1  C   UNL A   1      33.762  35.247  28.630  1.00  0.00     0.274 C 
ENDROOT
BRANCH   1   2
ATOM      2  O   UNL A   1      33.561  33.823  28.732  1.00  0.00    -0.462 OA
BRANCH   2   3
ATOM      3  C   UNL A   1      34.515  33.035  28.170  1.00  0.00     0.312 C 
ATOM      4  O   UNL A   1      35.531  33.452  27.624  1.00  0.00    -0.252 OA
BRANCH   3   5
ATOM      5  C   UNL A   1      34.195  31.548  28.260  1.00  0.00     0.124 C 
ATOM      6  C   UNL A   1      33.803  29.572  26.868  1.00  0.00     0.107 C 
ATOM      7  C   UNL A   1      35.202  29.612  27.405  1.00  0.00    -0.006 C 
ATOM      8  C   UNL A   1      33.315  31.002  27.133  1.00  0.00     0.048 C 
ATOM      9  C   UNL A   1      35.415  30.683  28.180  1.00  0.00    -0.014 C 
BRANCH   6  10
ATOM     10  N   UNL A   1      33.827  29.296  25.455  1.00  0.00    -0.332 N 
ATOM     11  C   UNL A   1      32.918  29.177  24.473  1.00  0.00     0.318 C 
ATOM     12  O   UNL A   1      33.403  29.143  23.337  1.00  0.00    -0.249 OA
ATOM     13  H   UNL A   1      34.744  29.161  25.123  1.00  0.00     0.165 HD
BRANCH  11  14
ATOM     14  N   UNL A   1      31.571  29.068  24.684  1.00  0.00    -0.313 N 
ATOM     15  C   UNL A   1      30.998  27.708  24.829  1.00  0.00     0.176 C 
ATOM     16  C   UNL A   1      30.357  27.270  23.505  1.00  0.00     0.035 C 
ATOM     17  C   UNL A   1      29.273  28.276  23.096  1.00  0.00     0.004 C 
ATOM     18  C   UNL A   1      30.528  30.053  24.399  1.00  0.00     0.122 C 
ATOM     19  C   UNL A   1      29.818  29.705  23.085  1.00  0.00     0.022 C 
BRANCH  15  20
ATOM     20  C   UNL A   1      31.809  26.615  25.573  1.00  0.00     0.240 C 
ATOM     21  N   UNL A   1      32.561  25.770  24.806  1.00  0.00    -0.368 N 
ATOM     22  H   UNL A   1      33.092  25.059  25.232  1.00  0.00     0.159 HD
ATOM     23  H   UNL A   1      32.570  25.871  23.826  1.00  0.00     0.159 HD
ATOM     24  O   UNL A   1      31.821  26.508  26.797  1.00  0.00    -0.273 OA
ENDBRANCH  15  20
ENDBRANCH  11  14
ENDBRANCH   6  10
ENDBRANCH   3   5
ENDBRANCH   2   3
ENDBRANCH   1   2
BRANCH   1  25
ATOM     25  C   UNL A   1      32.733  36.021  29.458  1.00  0.00     0.275 C 
BRANCH  25  26
ATOM     26  O   UNL A   1      33.275  36.438  30.726  1.00  0.00    -0.458 OA
BRANCH  26  27
ATOM     27  C   UNL A   1      32.884  35.701  31.791  1.00  0.00     0.338 C 
ATOM     28  O   UNL A   1      31.757  35.572  32.235  1.00  0.00    -0.246 OA
BRANCH  27  29
ATOM     29  C   UNL A   1      34.025  34.938  32.312  1.00  0.00     0.060 A 
ATOM     30  C   UNL A   1      35.310  35.456  32.125  1.00  0.00     0.016 A 
ATOM     31  C   UNL A   1      33.839  33.685  32.899  1.00  0.00     0.016 A 
ATOM     32  C   UNL A   1      36.423  34.717  32.513  1.00  0.00     0.010 A 
ATOM     33  C   UNL A   1      34.957  32.945  33.290  1.00  0.00     0.010 A 
ATOM     34  C   UNL A   1      36.254  33.450  33.088  1.00  0.00    -0.014 A 
BRANCH  34  35
ATOM     35  C   UNL A   1      37.432  32.626  33.437  1.00  0.00     0.031 A 
ATOM     36  C   UNL A   1      38.169  32.887  34.717  1.00  0.00     0.074 A 
ATOM     37  C   UNL A   1      37.840  31.652  32.605  1.00  0.00     0.049 A 
ATOM     38  N   UNL A   1      39.287  32.361  35.148  1.00  0.00    -0.248 NA
ATOM     39  C   UNL A   1      37.568  33.869  35.634  1.00  0.00     0.031 C 
ATOM     40  C   UNL A   1      37.173  31.264  31.361  1.00  0.00     0.029 A 
ATOM     41  N   UNL A   1      38.925  30.816  32.679  1.00  0.00    -0.354 N 
ATOM     42  C   UNL A   1      39.535  32.960  36.377  1.00  0.00     0.074 A 
ATOM     43  C   UNL A   1      38.457  33.899  36.617  1.00  0.00     0.031 C 
ATOM     44  C   UNL A   1      37.868  30.269  30.786  1.00  0.00     0.029 A 
ATOM     45  C   UNL A   1      39.052  29.987  31.592  1.00  0.00     0.049 A 
ATOM     46  H   UNL A   1      39.553  30.812  33.438  1.00  0.00     0.167 HD
ATOM     47  C   UNL A   1      40.567  32.748  37.226  1.00  0.00     0.031 A 
ATOM     48  C   UNL A   1      40.031  29.122  31.268  1.00  0.00     0.031 A 
ATOM     49  C   UNL A   1      41.641  31.824  36.982  1.00  0.00     0.049 A 
ATOM     50  C   UNL A   1      41.213  28.971  32.185  1.00  0.00     0.074 A 
ATOM     51  C   UNL A   1      42.738  31.543  37.777  1.00  0.00     0.029 A 
ATOM     52  N   UNL A   1      41.753  31.030  35.850  1.00  0.00    -0.354 N 
ATOM     53  N   UNL A   1      41.444  29.553  33.336  1.00  0.00    -0.248 NA
ATOM     54  C   UNL A   1      42.272  28.047  31.752  1.00  0.00     0.031 C 
ATOM     55  C   UNL A   1      43.536  30.609  37.108  1.00  0.00     0.029 A 
ATOM     56  C   UNL A   1      42.909  30.273  35.919  1.00  0.00     0.049 A 
ATOM     57  H   UNL A   1      41.106  31.007  35.110  1.00  0.00     0.167 HD
ATOM     58  C   UNL A   1      42.660  29.048  33.778  1.00  0.00     0.074 A 
ATOM     59  C   UNL A   1      43.113  28.106  32.776  1.00  0.00     0.031 C 
ATOM     60  C   UNL A   1      43.340  29.336  34.915  1.00  0.00     0.031 A 
BRANCH  47  61
ATOM     61  C   UNL A   1      40.600  33.562  38.488  1.00  0.00    -0.014 A 
ATOM     62  C   UNL A   1      41.225  34.818  38.528  1.00  0.00     0.009 A 
ATOM     63  C   UNL A   1      39.967  33.079  39.644  1.00  0.00     0.009 A 
ATOM     64  C   UNL A   1      41.242  35.560  39.711  1.00  0.00     0.001 A 
ATOM     65  C   UNL A   1      39.966  33.833  40.818  1.00  0.00     0.001 A 
ATOM     66  C   UNL A   1      40.609  35.070  40.853  1.00  0.00     0.000 A 
ENDBRANCH  47  61
BRANCH  48  67
ATOM     67  C   UNL A   1      39.955  28.355  29.999  1.00  0.00    -0.014 A 
ATOM     68  C   UNL A   1      39.319  27.106  29.956  1.00  0.00     0.009 A 
ATOM     69  C   UNL A   1      40.531  28.865  28.824  1.00  0.00     0.009 A 
ATOM     70  C   UNL A   1      39.278  26.374  28.767  1.00  0.00     0.001 A 
ATOM     71  C   UNL A   1      40.466  28.143  27.631  1.00  0.00     0.001 A 
ATOM     72  C   UNL A   1      39.848  26.894  27.606  1.00  0.00     0.000 A 
ENDBRANCH  48  67
BRANCH  60  73
ATOM     73  C   UNL A   1      44.622  28.593  35.155  1.00  0.00    -0.014 A 
ATOM     74  C   UNL A   1      44.633  27.354  35.813  1.00  0.00     0.009 A 
ATOM     75  C   UNL A   1      45.829  29.122  34.671  1.00  0.00     0.009 A 
ATOM     76  C   UNL A   1      45.836  26.670  36.002  1.00  0.00     0.001 A 
ATOM     77  C   UNL A   1      47.025  28.425  34.841  1.00  0.00     0.001 A 
ATOM     78  C   UNL A   1      47.028  27.202  35.512  1.00  0.00     0.000 A 
ENDBRANCH  60  73
ENDBRANCH  34  35
ENDBRANCH  27  29
ENDBRANCH  26  27
ENDBRANCH  25  26
ENDBRANCH   1  25
TORSDOF 14
ENDMDL
