MODEL 1
REMARK VINA RESULT:     -11.0      0.000      0.000
REMARK SMILES O=C(CC1CC[NH+](C[C@H]2COc3ccccc3O2)CC1)OCCOC(=O)c1ccc(-c2c3nc(c(-c4ccccc4)c4ccc([nH]4)c(-c4ccccc4)c4nc(c(-c5ccccc5)c5ccc2[nH]5)C=C4)C=C3)cc1
REMARK SMILES IDX 22 1 21 2 2 3 1 4 3 5 4 6 5 7 20 8 6 9 19 10 7 11 8 13 9 14
REMARK SMILES IDX 10 15 18 16 11 17 17 18 12 19 16 20 13 21 15 22 14 23 23 24
REMARK SMILES IDX 24 25 25 26 26 27 27 28 28 29 74 30 29 31 73 32 30 33 31 34
REMARK SMILES IDX 32 35 67 36 33 37 72 38 66 39 68 40 34 41 71 42 65 43 64 44
REMARK SMILES IDX 35 46 57 47 42 48 56 49 43 50 46 51 55 52 69 53 44 54 45 55
REMARK SMILES IDX 54 57 70 58 47 59 36 60 37 61 41 62 38 63 40 64 39 65 58 66
REMARK SMILES IDX 59 67 63 68 60 69 62 70 61 71 48 72 49 73 53 74 50 75 52 76
REMARK SMILES IDX 51 77
REMARK H PARENT 7 12 68 45 46 56
REMARK Flexibility Score: inf
ROOT
ATOM      1  C   UNL A   1      38.551  21.362  25.436  1.00  0.00     0.274 C 
ENDROOT
BRANCH   1   2
ATOM      2  O   UNL A   1      37.150  21.451  25.773  1.00  0.00    -0.462 OA
BRANCH   2   3
ATOM      3  C   UNL A   1      36.235  22.270  25.205  1.00  0.00     0.306 C 
ATOM      4  O   UNL A   1      36.479  23.471  25.104  1.00  0.00    -0.252 OA
BRANCH   3   5
ATOM      5  C   UNL A   1      34.908  21.711  24.736  1.00  0.00     0.126 C 
BRANCH   5   6
ATOM      6  C   UNL A   1      34.022  20.916  25.714  1.00  0.00     0.011 C 
ATOM      7  C   UNL A   1      32.620  20.573  25.212  1.00  0.00     0.066 C 
ATOM      8  C   UNL A   1      33.903  21.515  27.118  1.00  0.00     0.066 C 
ATOM      9  C   UNL A   1      31.668  21.763  25.264  1.00  0.00     0.262 C 
ATOM     10  C   UNL A   1      32.900  22.665  27.223  1.00  0.00     0.262 C 
ATOM     11  N   UNL A   1      31.616  22.419  26.562  1.00  0.00    -0.332 N 
ATOM     12  H   UNL A   1      31.179  21.699  27.137  1.00  0.00     0.348 HD
BRANCH  11  13
ATOM     13  C   UNL A   1      30.733  23.608  26.602  1.00  0.00     0.311 C 
BRANCH  13  14
ATOM     14  C   UNL A   1      31.176  24.960  25.967  1.00  0.00     0.265 C 
ATOM     15  C   UNL A   1      30.249  25.471  24.865  1.00  0.00     0.281 C 
ATOM     16  O   UNL A   1      31.188  25.941  27.036  1.00  0.00    -0.477 OA
ATOM     17  O   UNL A   1      30.769  26.666  24.266  1.00  0.00    -0.486 OA
ATOM     18  C   UNL A   1      31.381  27.211  26.554  1.00  0.00     0.162 A 
ATOM     19  C   UNL A   1      31.202  27.553  25.211  1.00  0.00     0.161 A 
ATOM     20  C   UNL A   1      31.760  28.187  27.472  1.00  0.00     0.050 A 
ATOM     21  C   UNL A   1      31.459  28.851  24.774  1.00  0.00     0.050 A 
ATOM     22  C   UNL A   1      31.993  29.495  27.040  1.00  0.00     0.004 A 
ATOM     23  C   UNL A   1      31.854  29.825  25.690  1.00  0.00     0.004 A 
ENDBRANCH  13  14
ENDBRANCH  11  13
ENDBRANCH   5   6
ENDBRANCH   3   5
ENDBRANCH   2   3
ENDBRANCH   1   2
BRANCH   1  24
ATOM     24  C   UNL A   1      39.022  19.911  25.338  1.00  0.00     0.275 C 
BRANCH  24  25
ATOM     25  O   UNL A   1      39.908  19.613  26.427  1.00  0.00    -0.458 OA
BRANCH  25  26
ATOM     26  C   UNL A   1      41.230  19.719  26.131  1.00  0.00     0.338 C 
ATOM     27  O   UNL A   1      41.896  18.958  25.460  1.00  0.00    -0.246 OA
BRANCH  26  28
ATOM     28  C   UNL A   1      41.708  21.036  26.604  1.00  0.00     0.060 A 
ATOM     29  C   UNL A   1      41.571  21.336  27.966  1.00  0.00     0.016 A 
ATOM     30  C   UNL A   1      42.312  21.949  25.735  1.00  0.00     0.016 A 
ATOM     31  C   UNL A   1      42.009  22.565  28.457  1.00  0.00     0.010 A 
ATOM     32  C   UNL A   1      42.743  23.181  26.225  1.00  0.00     0.010 A 
ATOM     33  C   UNL A   1      42.566  23.504  27.581  1.00  0.00    -0.014 A 
BRANCH  33  34
ATOM     34  C   UNL A   1      42.795  24.899  28.019  1.00  0.00     0.031 A 
ATOM     35  C   UNL A   1      44.175  25.280  28.472  1.00  0.00     0.074 A 
ATOM     36  C   UNL A   1      41.791  25.790  28.072  1.00  0.00     0.049 A 
ATOM     37  N   UNL A   1      44.595  26.401  28.997  1.00  0.00    -0.248 NA
ATOM     38  C   UNL A   1      45.216  24.249  28.327  1.00  0.00     0.031 C 
ATOM     39  C   UNL A   1      40.415  25.548  27.646  1.00  0.00     0.029 A 
ATOM     40  N   UNL A   1      41.781  27.079  28.542  1.00  0.00    -0.354 N 
ATOM     41  C   UNL A   1      45.946  26.206  29.253  1.00  0.00     0.074 A 
ATOM     42  C   UNL A   1      46.269  24.855  28.851  1.00  0.00     0.031 C 
ATOM     43  C   UNL A   1      39.683  26.647  27.901  1.00  0.00     0.029 A 
ATOM     44  C   UNL A   1      40.535  27.655  28.531  1.00  0.00     0.049 A 
ATOM     45  H   UNL A   1      42.589  27.546  28.856  1.00  0.00     0.167 HD
ATOM     46  C   UNL A   1      46.841  27.076  29.778  1.00  0.00     0.031 A 
ATOM     47  C   UNL A   1      40.126  28.848  29.003  1.00  0.00     0.031 A 
ATOM     48  C   UNL A   1      46.520  28.410  30.199  1.00  0.00     0.049 A 
ATOM     49  C   UNL A   1      41.124  29.777  29.643  1.00  0.00     0.074 A 
ATOM     50  C   UNL A   1      47.362  29.379  30.712  1.00  0.00     0.029 A 
ATOM     51  N   UNL A   1      45.246  28.956  30.171  1.00  0.00    -0.354 N 
ATOM     52  N   UNL A   1      42.411  29.607  29.828  1.00  0.00    -0.248 NA
ATOM     53  C   UNL A   1      40.613  31.067  30.133  1.00  0.00     0.031 C 
ATOM     54  C   UNL A   1      46.588  30.496  31.044  1.00  0.00     0.029 A 
ATOM     55  C   UNL A   1      45.273  30.238  30.691  1.00  0.00     0.049 A 
ATOM     56  H   UNL A   1      44.442  28.500  29.832  1.00  0.00     0.167 HD
ATOM     57  C   UNL A   1      42.866  30.774  30.431  1.00  0.00     0.074 A 
ATOM     58  C   UNL A   1      41.721  31.646  30.576  1.00  0.00     0.031 C 
ATOM     59  C   UNL A   1      44.124  31.094  30.825  1.00  0.00     0.031 A 
BRANCH  46  60
ATOM     60  C   UNL A   1      48.245  26.579  29.959  1.00  0.00    -0.014 A 
ATOM     61  C   UNL A   1      49.213  26.753  28.959  1.00  0.00     0.009 A 
ATOM     62  C   UNL A   1      48.600  25.924  31.147  1.00  0.00     0.009 A 
ATOM     63  C   UNL A   1      50.502  26.244  29.129  1.00  0.00     0.001 A 
ATOM     64  C   UNL A   1      49.896  25.436  31.324  1.00  0.00     0.001 A 
ATOM     65  C   UNL A   1      50.842  25.587  30.311  1.00  0.00     0.000 A 
ENDBRANCH  46  60
BRANCH  47  66
ATOM     66  C   UNL A   1      38.693  29.225  28.916  1.00  0.00    -0.014 A 
ATOM     67  C   UNL A   1      37.842  29.065  30.019  1.00  0.00     0.009 A 
ATOM     68  C   UNL A   1      38.167  29.743  27.721  1.00  0.00     0.009 A 
ATOM     69  C   UNL A   1      36.488  29.398  29.922  1.00  0.00     0.001 A 
ATOM     70  C   UNL A   1      36.820  30.097  27.634  1.00  0.00     0.001 A 
ATOM     71  C   UNL A   1      35.980  29.917  28.732  1.00  0.00     0.000 A 
ENDBRANCH  47  66
BRANCH  59  72
ATOM     72  C   UNL A   1      44.341  32.455  31.422  1.00  0.00    -0.014 A 
ATOM     73  C   UNL A   1      44.582  33.574  30.612  1.00  0.00     0.009 A 
ATOM     74  C   UNL A   1      44.221  32.629  32.810  1.00  0.00     0.009 A 
ATOM     75  C   UNL A   1      44.715  34.842  31.183  1.00  0.00     0.001 A 
ATOM     76  C   UNL A   1      44.330  33.901  33.375  1.00  0.00     0.001 A 
ATOM     77  C   UNL A   1      44.582  35.004  32.562  1.00  0.00     0.000 A 
ENDBRANCH  59  72
ENDBRANCH  33  34
ENDBRANCH  26  28
ENDBRANCH  25  26
ENDBRANCH  24  25
ENDBRANCH   1  24
TORSDOF 14
ENDMDL
MODEL 2
REMARK VINA RESULT:     -10.9      0.567      6.002
REMARK SMILES O=C(CC1CC[NH+](C[C@H]2COc3ccccc3O2)CC1)OCCOC(=O)c1ccc(-c2c3nc(c(-c4ccccc4)c4ccc([nH]4)c(-c4ccccc4)c4nc(c(-c5ccccc5)c5ccc2[nH]5)C=C4)C=C3)cc1
REMARK SMILES IDX 22 1 21 2 2 3 1 4 3 5 4 6 5 7 20 8 6 9 19 10 7 11 8 13 9 14
REMARK SMILES IDX 10 15 18 16 11 17 17 18 12 19 16 20 13 21 15 22 14 23 23 24
REMARK SMILES IDX 24 25 25 26 26 27 27 28 28 29 74 30 29 31 73 32 30 33 31 34
REMARK SMILES IDX 32 35 67 36 33 37 72 38 66 39 68 40 34 41 71 42 65 43 64 44
REMARK SMILES IDX 35 46 57 47 42 48 56 49 43 50 46 51 55 52 69 53 44 54 45 55
REMARK SMILES IDX 54 57 70 58 47 59 36 60 37 61 41 62 38 63 40 64 39 65 58 66
REMARK SMILES IDX 59 67 63 68 60 69 62 70 61 71 48 72 49 73 53 74 50 75 52 76
REMARK SMILES IDX 51 77
REMARK H PARENT 7 12 68 45 46 56
REMARK Flexibility Score: inf
ROOT
ATOM      1  C   UNL A   1      38.590  20.919  25.598  1.00  0.00     0.274 C 
ENDROOT
BRANCH   1   2
ATOM      2  O   UNL A   1      37.616  21.254  24.586  1.00  0.00    -0.462 OA
BRANCH   2   3
ATOM      3  C   UNL A   1      36.595  22.134  24.710  1.00  0.00     0.306 C 
ATOM      4  O   UNL A   1      36.839  23.311  24.964  1.00  0.00    -0.252 OA
BRANCH   3   5
ATOM      5  C   UNL A   1      35.165  21.653  24.575  1.00  0.00     0.126 C 
BRANCH   5   6
ATOM      6  C   UNL A   1      34.441  21.047  25.793  1.00  0.00     0.011 C 
ATOM      7  C   UNL A   1      33.069  20.436  25.513  1.00  0.00     0.066 C 
ATOM      8  C   UNL A   1      34.323  21.972  27.007  1.00  0.00     0.066 C 
ATOM      9  C   UNL A   1      31.977  21.488  25.346  1.00  0.00     0.262 C 
ATOM     10  C   UNL A   1      33.190  22.994  26.905  1.00  0.00     0.262 C 
ATOM     11  N   UNL A   1      31.914  22.448  26.439  1.00  0.00    -0.332 N 
ATOM     12  H   UNL A   1      31.603  21.857  27.211  1.00  0.00     0.348 HD
BRANCH  11  13
ATOM     13  C   UNL A   1      30.891  23.504  26.255  1.00  0.00     0.311 C 
BRANCH  13  14
ATOM     14  C   UNL A   1      31.281  24.920  25.737  1.00  0.00     0.265 C 
ATOM     15  C   UNL A   1      30.335  25.486  24.679  1.00  0.00     0.281 C 
ATOM     16  O   UNL A   1      31.256  25.808  26.885  1.00  0.00    -0.477 OA
ATOM     17  O   UNL A   1      30.810  26.747  24.184  1.00  0.00    -0.486 OA
ATOM     18  C   UNL A   1      31.401  27.120  26.511  1.00  0.00     0.162 A 
ATOM     19  C   UNL A   1      31.208  27.567  25.202  1.00  0.00     0.161 A 
ATOM     20  C   UNL A   1      31.741  28.029  27.509  1.00  0.00     0.050 A 
ATOM     21  C   UNL A   1      31.415  28.906  24.875  1.00  0.00     0.050 A 
ATOM     22  C   UNL A   1      31.925  29.377  27.189  1.00  0.00     0.004 A 
ATOM     23  C   UNL A   1      31.773  29.813  25.872  1.00  0.00     0.004 A 
ENDBRANCH  13  14
ENDBRANCH  11  13
ENDBRANCH   5   6
ENDBRANCH   3   5
ENDBRANCH   2   3
ENDBRANCH   1   2
BRANCH   1  24
ATOM     24  C   UNL A   1      39.311  19.609  25.283  1.00  0.00     0.275 C 
BRANCH  24  25
ATOM     25  O   UNL A   1      40.311  19.353  26.280  1.00  0.00    -0.458 OA
BRANCH  25  26
ATOM     26  C   UNL A   1      41.560  19.781  25.957  1.00  0.00     0.338 C 
ATOM     27  O   UNL A   1      42.339  19.260  25.186  1.00  0.00    -0.246 OA
BRANCH  26  28
ATOM     28  C   UNL A   1      41.763  21.116  26.561  1.00  0.00     0.060 A 
ATOM     29  C   UNL A   1      42.105  22.177  25.712  1.00  0.00     0.016 A 
ATOM     30  C   UNL A   1      41.586  21.332  27.930  1.00  0.00     0.016 A 
ATOM     31  C   UNL A   1      42.306  23.453  26.237  1.00  0.00     0.010 A 
ATOM     32  C   UNL A   1      41.794  22.607  28.455  1.00  0.00     0.010 A 
ATOM     33  C   UNL A   1      42.183  23.664  27.615  1.00  0.00    -0.014 A 
BRANCH  33  34
ATOM     34  C   UNL A   1      42.641  24.931  28.227  1.00  0.00     0.031 A 
ATOM     35  C   UNL A   1      41.623  26.010  28.464  1.00  0.00     0.074 A 
ATOM     36  C   UNL A   1      43.937  25.145  28.508  1.00  0.00     0.049 A 
ATOM     37  N   UNL A   1      41.796  27.235  28.884  1.00  0.00    -0.248 NA
ATOM     38  C   UNL A   1      40.223  25.660  28.171  1.00  0.00     0.031 C 
ATOM     39  C   UNL A   1      45.015  24.174  28.340  1.00  0.00     0.029 A 
ATOM     40  N   UNL A   1      44.563  26.274  28.972  1.00  0.00    -0.354 N 
ATOM     41  C   UNL A   1      40.530  27.805  28.897  1.00  0.00     0.074 A 
ATOM     42  C   UNL A   1      39.603  26.803  28.419  1.00  0.00     0.031 C 
ATOM     43  C   UNL A   1      46.180  24.760  28.669  1.00  0.00     0.029 A 
ATOM     44  C   UNL A   1      45.928  26.151  29.044  1.00  0.00     0.049 A 
ATOM     45  H   UNL A   1      44.081  27.093  29.229  1.00  0.00     0.167 HD
ATOM     46  C   UNL A   1      40.169  29.054  29.273  1.00  0.00     0.031 A 
ATOM     47  C   UNL A   1      46.867  27.067  29.350  1.00  0.00     0.031 A 
ATOM     48  C   UNL A   1      41.088  30.059  29.726  1.00  0.00     0.049 A 
ATOM     49  C   UNL A   1      46.451  28.471  29.704  1.00  0.00     0.074 A 
ATOM     50  C   UNL A   1      40.816  31.343  30.161  1.00  0.00     0.029 A 
ATOM     51  N   UNL A   1      42.463  29.895  29.785  1.00  0.00    -0.354 N 
ATOM     52  N   UNL A   1      45.246  28.984  29.769  1.00  0.00    -0.248 NA
ATOM     53  C   UNL A   1      47.526  29.420  30.032  1.00  0.00     0.031 C 
ATOM     54  C   UNL A   1      42.034  31.976  30.434  1.00  0.00     0.029 A 
ATOM     55  C   UNL A   1      43.058  31.067  30.217  1.00  0.00     0.049 A 
ATOM     56  H   UNL A   1      42.944  29.068  29.555  1.00  0.00     0.167 HD
ATOM     57  C   UNL A   1      45.416  30.304  30.168  1.00  0.00     0.074 A 
ATOM     58  C   UNL A   1      46.838  30.513  30.336  1.00  0.00     0.031 C 
ATOM     59  C   UNL A   1      44.475  31.257  30.382  1.00  0.00     0.031 A 
BRANCH  46  60
ATOM     60  C   UNL A   1      38.713  29.402  29.163  1.00  0.00    -0.014 A 
ATOM     61  C   UNL A   1      38.171  29.895  27.966  1.00  0.00     0.009 A 
ATOM     62  C   UNL A   1      37.875  29.238  30.276  1.00  0.00     0.009 A 
ATOM     63  C   UNL A   1      36.824  30.255  27.898  1.00  0.00     0.001 A 
ATOM     64  C   UNL A   1      36.524  29.576  30.198  1.00  0.00     0.001 A 
ATOM     65  C   UNL A   1      36.001  30.094  29.013  1.00  0.00     0.000 A 
ENDBRANCH  46  60
BRANCH  47  66
ATOM     66  C   UNL A   1      48.304  26.694  29.308  1.00  0.00    -0.014 A 
ATOM     67  C   UNL A   1      49.056  26.875  28.139  1.00  0.00     0.009 A 
ATOM     68  C   UNL A   1      48.928  26.148  30.441  1.00  0.00     0.009 A 
ATOM     69  C   UNL A   1      50.402  26.497  28.099  1.00  0.00     0.001 A 
ATOM     70  C   UNL A   1      50.278  25.795  30.405  1.00  0.00     0.001 A 
ATOM     71  C   UNL A   1      51.011  25.963  29.233  1.00  0.00     0.000 A 
ENDBRANCH  47  66
BRANCH  59  72
ATOM     72  C   UNL A   1      44.943  32.605  30.851  1.00  0.00    -0.014 A 
ATOM     73  C   UNL A   1      45.125  32.876  32.215  1.00  0.00     0.009 A 
ATOM     74  C   UNL A   1      45.281  33.587  29.908  1.00  0.00     0.009 A 
ATOM     75  C   UNL A   1      45.624  34.114  32.626  1.00  0.00     0.001 A 
ATOM     76  C   UNL A   1      45.802  34.814  30.321  1.00  0.00     0.001 A 
ATOM     77  C   UNL A   1      45.969  35.078  31.679  1.00  0.00     0.000 A 
ENDBRANCH  59  72
ENDBRANCH  33  34
ENDBRANCH  26  28
ENDBRANCH  25  26
ENDBRANCH  24  25
ENDBRANCH   1  24
TORSDOF 14
ENDMDL
MODEL 3
REMARK VINA RESULT:     -10.8      2.155      6.828
REMARK SMILES O=C(CC1CC[NH+](C[C@H]2COc3ccccc3O2)CC1)OCCOC(=O)c1ccc(-c2c3nc(c(-c4ccccc4)c4ccc([nH]4)c(-c4ccccc4)c4nc(c(-c5ccccc5)c5ccc2[nH]5)C=C4)C=C3)cc1
REMARK SMILES IDX 22 1 21 2 2 3 1 4 3 5 4 6 5 7 20 8 6 9 19 10 7 11 8 13 9 14
REMARK SMILES IDX 10 15 18 16 11 17 17 18 12 19 16 20 13 21 15 22 14 23 23 24
REMARK SMILES IDX 24 25 25 26 26 27 27 28 28 29 74 30 29 31 73 32 30 33 31 34
REMARK SMILES IDX 32 35 67 36 33 37 72 38 66 39 68 40 34 41 71 42 65 43 64 44
REMARK SMILES IDX 35 46 57 47 42 48 56 49 43 50 46 51 55 52 69 53 44 54 45 55
REMARK SMILES IDX 54 57 70 58 47 59 36 60 37 61 41 62 38 63 40 64 39 65 58 66
REMARK SMILES IDX 59 67 63 68 60 69 62 70 61 71 48 72 49 73 53 74 50 75 52 76
REMARK SMILES IDX 51 77
REMARK H PARENT 7 12 68 45 46 56
REMARK Flexibility Score: inf
ROOT
ATOM      1  C   UNL A   1      36.076  21.417  25.455  1.00  0.00     0.274 C 
ENDROOT
BRANCH   1   2
ATOM      2  O   UNL A   1      35.523  20.362  24.637  1.00  0.00    -0.462 OA
BRANCH   2   3
ATOM      3  C   UNL A   1      34.373  19.687  24.864  1.00  0.00     0.306 C 
ATOM      4  O   UNL A   1      34.216  18.575  24.363  1.00  0.00    -0.252 OA
BRANCH   3   5
ATOM      5  C   UNL A   1      33.277  20.320  25.695  1.00  0.00     0.126 C 
BRANCH   5   6
ATOM      6  C   UNL A   1      32.167  21.138  25.008  1.00  0.00     0.011 C 
ATOM      7  C   UNL A   1      32.445  21.552  23.563  1.00  0.00     0.066 C 
ATOM      8  C   UNL A   1      31.690  22.369  25.783  1.00  0.00     0.066 C 
ATOM      9  C   UNL A   1      33.417  22.723  23.462  1.00  0.00     0.262 C 
ATOM     10  C   UNL A   1      32.604  23.587  25.645  1.00  0.00     0.262 C 
ATOM     11  N   UNL A   1      33.042  23.870  24.276  1.00  0.00    -0.332 N 
ATOM     12  H   UNL A   1      32.192  24.184  23.807  1.00  0.00     0.348 HD
BRANCH  11  13
ATOM     13  C   UNL A   1      34.012  24.990  24.222  1.00  0.00     0.311 C 
BRANCH  13  14
ATOM     14  C   UNL A   1      33.552  26.462  24.435  1.00  0.00     0.265 C 
ATOM     15  C   UNL A   1      32.038  26.643  24.531  1.00  0.00     0.281 C 
ATOM     16  O   UNL A   1      34.139  26.908  25.685  1.00  0.00    -0.477 OA
ATOM     17  O   UNL A   1      31.688  28.030  24.631  1.00  0.00    -0.486 OA
ATOM     18  C   UNL A   1      33.647  28.131  26.066  1.00  0.00     0.162 A 
ATOM     19  C   UNL A   1      32.477  28.681  25.538  1.00  0.00     0.161 A 
ATOM     20  C   UNL A   1      34.362  28.827  27.038  1.00  0.00     0.050 A 
ATOM     21  C   UNL A   1      32.053  29.950  25.931  1.00  0.00     0.050 A 
ATOM     22  C   UNL A   1      33.925  30.088  27.452  1.00  0.00     0.004 A 
ATOM     23  C   UNL A   1      32.778  30.653  26.892  1.00  0.00     0.004 A 
ENDBRANCH  13  14
ENDBRANCH  11  13
ENDBRANCH   5   6
ENDBRANCH   3   5
ENDBRANCH   2   3
ENDBRANCH   1   2
BRANCH   1  24
ATOM     24  C   UNL A   1      37.601  21.461  25.371  1.00  0.00     0.275 C 
BRANCH  24  25
ATOM     25  O   UNL A   1      38.073  22.748  25.798  1.00  0.00    -0.458 OA
BRANCH  25  26
ATOM     26  C   UNL A   1      39.307  22.743  26.366  1.00  0.00     0.338 C 
ATOM     27  O   UNL A   1      40.149  21.872  26.287  1.00  0.00    -0.246 OA
BRANCH  26  28
ATOM     28  C   UNL A   1      39.552  24.077  26.956  1.00  0.00     0.060 A 
ATOM     29  C   UNL A   1      40.186  25.041  26.163  1.00  0.00     0.016 A 
ATOM     30  C   UNL A   1      39.134  24.388  28.253  1.00  0.00     0.016 A 
ATOM     31  C   UNL A   1      40.436  26.313  26.677  1.00  0.00     0.010 A 
ATOM     32  C   UNL A   1      39.391  25.657  28.770  1.00  0.00     0.010 A 
ATOM     33  C   UNL A   1      40.069  26.614  27.995  1.00  0.00    -0.014 A 
BRANCH  33  34
ATOM     34  C   UNL A   1      40.550  27.851  28.647  1.00  0.00     0.031 A 
ATOM     35  C   UNL A   1      39.577  28.982  28.824  1.00  0.00     0.074 A 
ATOM     36  C   UNL A   1      41.833  27.994  29.017  1.00  0.00     0.049 A 
ATOM     37  N   UNL A   1      39.787  30.194  29.265  1.00  0.00    -0.248 NA
ATOM     38  C   UNL A   1      38.184  28.709  28.433  1.00  0.00     0.031 C 
ATOM     39  C   UNL A   1      42.868  26.967  28.915  1.00  0.00     0.029 A 
ATOM     40  N   UNL A   1      42.486  29.085  29.533  1.00  0.00    -0.354 N 
ATOM     41  C   UNL A   1      38.555  30.831  29.197  1.00  0.00     0.074 A 
ATOM     42  C   UNL A   1      37.611  29.882  28.648  1.00  0.00     0.031 C 
ATOM     43  C   UNL A   1      44.037  27.488  29.328  1.00  0.00     0.029 A 
ATOM     44  C   UNL A   1      43.834  28.889  29.697  1.00  0.00     0.049 A 
ATOM     45  H   UNL A   1      42.032  29.928  29.764  1.00  0.00     0.167 HD
ATOM     46  C   UNL A   1      38.235  32.096  29.558  1.00  0.00     0.031 A 
ATOM     47  C   UNL A   1      44.798  29.751  30.073  1.00  0.00     0.031 A 
ATOM     48  C   UNL A   1      39.173  33.047  30.082  1.00  0.00     0.049 A 
ATOM     49  C   UNL A   1      44.433  31.173  30.411  1.00  0.00     0.074 A 
ATOM     50  C   UNL A   1      38.941  34.342  30.508  1.00  0.00     0.029 A 
ATOM     51  N   UNL A   1      40.531  32.809  30.233  1.00  0.00    -0.354 N 
ATOM     52  N   UNL A   1      43.256  31.750  30.398  1.00  0.00    -0.248 NA
ATOM     53  C   UNL A   1      45.532  32.062  30.819  1.00  0.00     0.031 C 
ATOM     54  C   UNL A   1      40.170  34.907  30.870  1.00  0.00     0.029 A 
ATOM     55  C   UNL A   1      41.156  33.946  30.714  1.00  0.00     0.049 A 
ATOM     56  H   UNL A   1      40.982  31.959  30.029  1.00  0.00     0.167 HD
ATOM     57  C   UNL A   1      43.468  33.058  30.820  1.00  0.00     0.074 A 
ATOM     58  C   UNL A   1      44.885  33.188  31.086  1.00  0.00     0.031 C 
ATOM     59  C   UNL A   1      42.567  34.058  30.977  1.00  0.00     0.031 A 
BRANCH  46  60
ATOM     60  C   UNL A   1      36.811  32.522  29.353  1.00  0.00    -0.014 A 
ATOM     61  C   UNL A   1      36.396  33.117  28.152  1.00  0.00     0.009 A 
ATOM     62  C   UNL A   1      35.875  32.328  30.379  1.00  0.00     0.009 A 
ATOM     63  C   UNL A   1      35.077  33.547  27.997  1.00  0.00     0.001 A 
ATOM     64  C   UNL A   1      34.551  32.737  30.213  1.00  0.00     0.001 A 
ATOM     65  C   UNL A   1      34.156  33.355  29.027  1.00  0.00     0.000 A 
ENDBRANCH  46  60
BRANCH  47  66
ATOM     66  C   UNL A   1      46.212  29.302  30.126  1.00  0.00    -0.014 A 
ATOM     67  C   UNL A   1      46.793  28.910  31.341  1.00  0.00     0.009 A 
ATOM     68  C   UNL A   1      46.991  29.272  28.958  1.00  0.00     0.009 A 
ATOM     69  C   UNL A   1      48.133  28.514  31.388  1.00  0.00     0.001 A 
ATOM     70  C   UNL A   1      48.321  28.853  29.004  1.00  0.00     0.001 A 
ATOM     71  C   UNL A   1      48.893  28.482  30.220  1.00  0.00     0.000 A 
ENDBRANCH  47  66
BRANCH  59  72
ATOM     72  C   UNL A   1      43.072  35.377  31.489  1.00  0.00    -0.014 A 
ATOM     73  C   UNL A   1      43.100  35.660  32.862  1.00  0.00     0.009 A 
ATOM     74  C   UNL A   1      43.602  36.313  30.587  1.00  0.00     0.009 A 
ATOM     75  C   UNL A   1      43.636  36.865  33.322  1.00  0.00     0.001 A 
ATOM     76  C   UNL A   1      44.158  37.505  31.051  1.00  0.00     0.001 A 
ATOM     77  C   UNL A   1      44.171  37.783  32.417  1.00  0.00     0.000 A 
ENDBRANCH  59  72
ENDBRANCH  33  34
ENDBRANCH  26  28
ENDBRANCH  25  26
ENDBRANCH  24  25
ENDBRANCH   1  24
TORSDOF 14
ENDMDL
