MODEL 1
REMARK VINA RESULT:     -10.8      0.000      0.000
REMARK SMILES Cc1ccc(Br)cc1C(=O)N1CCO[C@H](CC(=O)OCCOC(=O)c2ccc(-c3c4nc(c(-c5ccccc5)c5ccc([nH]5)c(-c5ccccc5)c5nc(c(-c6ccccc6)c6ccc3[nH]6)C=C5)C=C4)cc2)C1
REMARK SMILES IDX 20 1 19 2 17 3 18 4 16 5 15 6 11 7 12 8 73 9 13 10 14 11
REMARK SMILES IDX 9 12 10 13 8 14 1 15 2 16 3 17 4 18 7 19 5 20 6 21 21 22
REMARK SMILES IDX 22 23 23 24 24 25 25 26 26 27 72 28 27 29 71 30 28 31 29 32
REMARK SMILES IDX 30 33 65 34 31 35 70 36 64 37 66 38 32 39 69 40 63 41 62 42
REMARK SMILES IDX 33 44 55 45 40 46 54 47 41 48 44 49 53 50 67 51 42 52 43 53
REMARK SMILES IDX 52 55 68 56 45 57 34 58 35 59 39 60 36 61 38 62 37 63 56 64
REMARK SMILES IDX 57 65 61 66 58 67 60 68 59 69 46 70 47 71 51 72 48 73 50 74
REMARK SMILES IDX 49 75
REMARK H PARENT 66 43 44 54
REMARK Flexibility Score: inf
ROOT
ATOM      1  C   UNL A   1      35.085  20.758  25.445  1.00  0.00     0.274 C 
ENDROOT
BRANCH   1   2
ATOM      2  O   UNL A   1      34.138  20.598  24.371  1.00  0.00    -0.462 OA
BRANCH   2   3
ATOM      3  C   UNL A   1      33.038  21.385  24.450  1.00  0.00     0.308 C 
ATOM      4  O   UNL A   1      32.226  21.364  25.369  1.00  0.00    -0.252 OA
BRANCH   3   5
ATOM      5  C   UNL A   1      32.822  22.205  23.211  1.00  0.00     0.156 C 
BRANCH   5   6
ATOM      6  C   UNL A   1      34.021  23.008  22.685  1.00  0.00     0.148 C 
ATOM      7  N   UNL A   1      33.574  24.904  24.168  1.00  0.00    -0.334 N 
ATOM      8  C   UNL A   1      33.078  25.730  23.070  1.00  0.00     0.148 C 
ATOM      9  C   UNL A   1      34.609  23.962  23.739  1.00  0.00     0.152 C 
ATOM     10  C   UNL A   1      32.726  24.879  21.827  1.00  0.00     0.182 C 
ATOM     11  O   UNL A   1      33.653  23.814  21.535  1.00  0.00    -0.374 OA
BRANCH   7  12
ATOM     12  C   UNL A   1      33.548  25.260  25.507  1.00  0.00     0.254 C 
ATOM     13  O   UNL A   1      33.835  24.414  26.361  1.00  0.00    -0.269 OA
BRANCH  12  14
ATOM     14  C   UNL A   1      33.014  26.588  25.999  1.00  0.00     0.044 A 
ATOM     15  C   UNL A   1      30.436  26.153  26.062  1.00  0.00     0.045 C 
ATOM     16  C   UNL A   1      31.682  26.938  26.325  1.00  0.00    -0.038 A 
ATOM     17  C   UNL A   1      31.437  28.143  27.030  1.00  0.00     0.005 A 
ATOM     18  C   UNL A   1      32.466  28.996  27.411  1.00  0.00     0.016 A 
ATOM     19  C   UNL A   1      34.038  27.497  26.365  1.00  0.00     0.029 A 
ATOM     20  C   UNL A   1      33.766  28.674  27.066  1.00  0.00     0.018 A 
ATOM     21  Br  UNL A   1      35.180  29.808  27.601  1.00  0.00    -0.051 Br
ENDBRANCH  12  14
ENDBRANCH   7  12
ENDBRANCH   5   6
ENDBRANCH   3   5
ENDBRANCH   2   3
ENDBRANCH   1   2
BRANCH   1  22
ATOM     22  C   UNL A   1      36.530  20.488  25.013  1.00  0.00     0.275 C 
BRANCH  22  23
ATOM     23  O   UNL A   1      37.404  21.606  25.257  1.00  0.00    -0.458 OA
BRANCH  23  24
ATOM     24  C   UNL A   1      38.586  21.286  25.829  1.00  0.00     0.338 C 
ATOM     25  O   UNL A   1      39.149  20.203  25.801  1.00  0.00    -0.246 OA
BRANCH  24  26
ATOM     26  C   UNL A   1      39.216  22.475  26.421  1.00  0.00     0.060 A 
ATOM     27  C   UNL A   1      38.692  23.720  26.072  1.00  0.00     0.016 A 
ATOM     28  C   UNL A   1      40.378  22.389  27.184  1.00  0.00     0.016 A 
ATOM     29  C   UNL A   1      39.361  24.889  26.411  1.00  0.00     0.010 A 
ATOM     30  C   UNL A   1      41.029  23.567  27.570  1.00  0.00     0.010 A 
ATOM     31  C   UNL A   1      40.540  24.822  27.160  1.00  0.00    -0.014 A 
BRANCH  31  32
ATOM     32  C   UNL A   1      41.259  26.072  27.502  1.00  0.00     0.031 A 
ATOM     33  C   UNL A   1      40.622  27.091  28.402  1.00  0.00     0.074 A 
ATOM     34  C   UNL A   1      42.496  26.278  27.016  1.00  0.00     0.049 A 
ATOM     35  N   UNL A   1      41.065  28.271  28.755  1.00  0.00    -0.248 NA
ATOM     36  C   UNL A   1      39.313  26.742  28.975  1.00  0.00     0.031 C 
ATOM     37  C   UNL A   1      43.240  25.345  26.168  1.00  0.00     0.029 A 
ATOM     38  N   UNL A   1      43.347  27.343  27.170  1.00  0.00    -0.354 N 
ATOM     39  C   UNL A   1      40.083  28.814  29.571  1.00  0.00     0.074 A 
ATOM     40  C   UNL A   1      39.012  27.844  29.648  1.00  0.00     0.031 C 
ATOM     41  C   UNL A   1      44.437  25.878  25.879  1.00  0.00     0.029 A 
ATOM     42  C   UNL A   1      44.527  27.203  26.484  1.00  0.00     0.049 A 
ATOM     43  H   UNL A   1      43.131  28.131  27.718  1.00  0.00     0.167 HD
ATOM     44  C   UNL A   1      40.075  30.015  30.200  1.00  0.00     0.031 A 
ATOM     45  C   UNL A   1      45.557  28.056  26.337  1.00  0.00     0.031 A 
ATOM     46  C   UNL A   1      41.146  30.975  30.136  1.00  0.00     0.049 A 
ATOM     47  C   UNL A   1      45.502  29.398  27.006  1.00  0.00     0.074 A 
ATOM     48  C   UNL A   1      41.238  32.207  30.759  1.00  0.00     0.029 A 
ATOM     49  N   UNL A   1      42.312  30.806  29.406  1.00  0.00    -0.354 N 
ATOM     50  N   UNL A   1      44.566  29.902  27.774  1.00  0.00    -0.248 NA
ATOM     51  C   UNL A   1      46.648  30.293  26.785  1.00  0.00     0.031 C 
ATOM     52  C   UNL A   1      42.442  32.805  30.370  1.00  0.00     0.029 A 
ATOM     53  C   UNL A   1      43.118  31.925  29.541  1.00  0.00     0.049 A 
ATOM     54  H   UNL A   1      42.535  30.011  28.870  1.00  0.00     0.167 HD
ATOM     55  C   UNL A   1      45.013  31.163  28.139  1.00  0.00     0.074 A 
ATOM     56  C   UNL A   1      46.313  31.342  27.525  1.00  0.00     0.031 C 
ATOM     57  C   UNL A   1      44.402  32.091  28.913  1.00  0.00     0.031 A 
BRANCH  44  58
ATOM     58  C   UNL A   1      38.848  30.375  30.987  1.00  0.00    -0.014 A 
ATOM     59  C   UNL A   1      38.744  30.080  32.355  1.00  0.00     0.009 A 
ATOM     60  C   UNL A   1      37.797  31.058  30.355  1.00  0.00     0.009 A 
ATOM     61  C   UNL A   1      37.598  30.440  33.068  1.00  0.00     0.001 A 
ATOM     62  C   UNL A   1      36.663  31.435  31.075  1.00  0.00     0.001 A 
ATOM     63  C   UNL A   1      36.561  31.120  32.429  1.00  0.00     0.000 A 
ENDBRANCH  44  58
BRANCH  45  64
ATOM     64  C   UNL A   1      46.714  27.677  25.489  1.00  0.00    -0.014 A 
ATOM     65  C   UNL A   1      47.837  27.051  26.051  1.00  0.00     0.009 A 
ATOM     66  C   UNL A   1      46.698  27.940  24.111  1.00  0.00     0.009 A 
ATOM     67  C   UNL A   1      48.930  26.716  25.249  1.00  0.00     0.001 A 
ATOM     68  C   UNL A   1      47.782  27.581  23.308  1.00  0.00     0.001 A 
ATOM     69  C   UNL A   1      48.900  26.977  23.879  1.00  0.00     0.000 A 
ENDBRANCH  45  64
BRANCH  57  70
ATOM     70  C   UNL A   1      45.143  33.376  29.147  1.00  0.00    -0.014 A 
ATOM     71  C   UNL A   1      44.961  34.480  28.300  1.00  0.00     0.009 A 
ATOM     72  C   UNL A   1      46.015  33.489  30.240  1.00  0.00     0.009 A 
ATOM     73  C   UNL A   1      45.664  35.664  28.527  1.00  0.00     0.001 A 
ATOM     74  C   UNL A   1      46.698  34.683  30.477  1.00  0.00     0.001 A 
ATOM     75  C   UNL A   1      46.529  35.766  29.616  1.00  0.00     0.000 A 
ENDBRANCH  57  70
ENDBRANCH  31  32
ENDBRANCH  24  26
ENDBRANCH  23  24
ENDBRANCH  22  23
ENDBRANCH   1  22
TORSDOF 14
ENDMDL
MODEL 2
REMARK VINA RESULT:     -10.4      2.623      3.736
REMARK SMILES Cc1ccc(Br)cc1C(=O)N1CCO[C@H](CC(=O)OCCOC(=O)c2ccc(-c3c4nc(c(-c5ccccc5)c5ccc([nH]5)c(-c5ccccc5)c5nc(c(-c6ccccc6)c6ccc3[nH]6)C=C5)C=C4)cc2)C1
REMARK SMILES IDX 20 1 19 2 17 3 18 4 16 5 15 6 11 7 12 8 73 9 13 10 14 11
REMARK SMILES IDX 9 12 10 13 8 14 1 15 2 16 3 17 4 18 7 19 5 20 6 21 21 22
REMARK SMILES IDX 22 23 23 24 24 25 25 26 26 27 72 28 27 29 71 30 28 31 29 32
REMARK SMILES IDX 30 33 65 34 31 35 70 36 64 37 66 38 32 39 69 40 63 41 62 42
REMARK SMILES IDX 33 44 55 45 40 46 54 47 41 48 44 49 53 50 67 51 42 52 43 53
REMARK SMILES IDX 52 55 68 56 45 57 34 58 35 59 39 60 36 61 38 62 37 63 56 64
REMARK SMILES IDX 57 65 61 66 58 67 60 68 59 69 46 70 47 71 51 72 48 73 50 74
REMARK SMILES IDX 49 75
REMARK H PARENT 66 43 44 54
REMARK Flexibility Score: inf
ROOT
ATOM      1  C   UNL A   1      35.557  22.758  24.084  1.00  0.00     0.274 C 
ENDROOT
BRANCH   1   2
ATOM      2  O   UNL A   1      35.302  23.257  22.756  1.00  0.00    -0.462 OA
BRANCH   2   3
ATOM      3  C   UNL A   1      34.000  23.505  22.473  1.00  0.00     0.308 C 
ATOM      4  O   UNL A   1      33.545  23.665  21.345  1.00  0.00    -0.252 OA
BRANCH   3   5
ATOM      5  C   UNL A   1      33.170  23.716  23.706  1.00  0.00     0.156 C 
BRANCH   5   6
ATOM      6  C   UNL A   1      31.914  22.845  23.861  1.00  0.00     0.148 C 
ATOM      7  N   UNL A   1      31.050  24.185  25.718  1.00  0.00    -0.334 N 
ATOM      8  C   UNL A   1      31.372  23.153  26.700  1.00  0.00     0.148 C 
ATOM      9  C   UNL A   1      30.709  23.629  24.408  1.00  0.00     0.152 C 
ATOM     10  C   UNL A   1      32.377  22.121  26.136  1.00  0.00     0.182 C 
ATOM     11  O   UNL A   1      32.149  21.734  24.766  1.00  0.00    -0.374 OA
BRANCH   7  12
ATOM     12  C   UNL A   1      30.569  25.450  26.021  1.00  0.00     0.254 C 
ATOM     13  O   UNL A   1      29.520  25.557  26.664  1.00  0.00    -0.269 OA
BRANCH  12  14
ATOM     14  C   UNL A   1      31.168  26.719  25.455  1.00  0.00     0.044 A 
ATOM     15  C   UNL A   1      29.537  27.263  23.484  1.00  0.00     0.045 C 
ATOM     16  C   UNL A   1      30.668  27.547  24.422  1.00  0.00    -0.038 A 
ATOM     17  C   UNL A   1      31.232  28.833  24.233  1.00  0.00     0.005 A 
ATOM     18  C   UNL A   1      32.265  29.309  25.031  1.00  0.00     0.016 A 
ATOM     19  C   UNL A   1      32.248  27.216  26.226  1.00  0.00     0.029 A 
ATOM     20  C   UNL A   1      32.779  28.491  26.021  1.00  0.00     0.018 A 
ATOM     21  Br  UNL A   1      34.164  29.133  27.135  1.00  0.00    -0.051 Br
ENDBRANCH  12  14
ENDBRANCH   7  12
ENDBRANCH   5   6
ENDBRANCH   3   5
ENDBRANCH   2   3
ENDBRANCH   1   2
BRANCH   1  22
ATOM     22  C   UNL A   1      37.049  22.579  24.378  1.00  0.00     0.275 C 
BRANCH  22  23
ATOM     23  O   UNL A   1      37.541  23.516  25.356  1.00  0.00    -0.458 OA
BRANCH  23  24
ATOM     24  C   UNL A   1      38.639  23.106  26.030  1.00  0.00     0.338 C 
ATOM     25  O   UNL A   1      39.118  21.983  26.045  1.00  0.00    -0.246 OA
BRANCH  24  26
ATOM     26  C   UNL A   1      39.301  24.242  26.685  1.00  0.00     0.060 A 
ATOM     27  C   UNL A   1      39.017  24.462  28.033  1.00  0.00     0.016 A 
ATOM     28  C   UNL A   1      40.070  25.158  25.969  1.00  0.00     0.016 A 
ATOM     29  C   UNL A   1      39.427  25.631  28.661  1.00  0.00     0.010 A 
ATOM     30  C   UNL A   1      40.526  26.315  26.613  1.00  0.00     0.010 A 
ATOM     31  C   UNL A   1      40.182  26.571  27.954  1.00  0.00    -0.014 A 
BRANCH  31  32
ATOM     32  C   UNL A   1      40.599  27.825  28.624  1.00  0.00     0.031 A 
ATOM     33  C   UNL A   1      39.615  28.940  28.825  1.00  0.00     0.074 A 
ATOM     34  C   UNL A   1      41.862  27.950  29.071  1.00  0.00     0.049 A 
ATOM     35  N   UNL A   1      39.812  30.134  29.324  1.00  0.00    -0.248 NA
ATOM     36  C   UNL A   1      38.229  28.684  28.403  1.00  0.00     0.031 C 
ATOM     37  C   UNL A   1      42.900  26.921  28.975  1.00  0.00     0.029 A 
ATOM     38  N   UNL A   1      42.486  28.998  29.697  1.00  0.00    -0.354 N 
ATOM     39  C   UNL A   1      38.584  30.779  29.257  1.00  0.00     0.074 A 
ATOM     40  C   UNL A   1      37.652  29.851  28.653  1.00  0.00     0.031 C 
ATOM     41  C   UNL A   1      44.030  27.390  29.526  1.00  0.00     0.029 A 
ATOM     42  C   UNL A   1      43.809  28.761  29.972  1.00  0.00     0.049 A 
ATOM     43  H   UNL A   1      42.029  29.840  29.925  1.00  0.00     0.167 HD
ATOM     44  C   UNL A   1      38.264  32.032  29.663  1.00  0.00     0.031 A 
ATOM     45  C   UNL A   1      44.747  29.567  30.503  1.00  0.00     0.031 A 
ATOM     46  C   UNL A   1      39.187  32.949  30.277  1.00  0.00     0.049 A 
ATOM     47  C   UNL A   1      44.377  30.966  30.901  1.00  0.00     0.074 A 
ATOM     48  C   UNL A   1      38.948  34.230  30.744  1.00  0.00     0.029 A 
ATOM     49  N   UNL A   1      40.526  32.681  30.512  1.00  0.00    -0.354 N 
ATOM     50  N   UNL A   1      43.212  31.565  30.830  1.00  0.00    -0.248 NA
ATOM     51  C   UNL A   1      45.453  31.802  31.451  1.00  0.00     0.031 C 
ATOM     52  C   UNL A   1      40.154  34.755  31.221  1.00  0.00     0.029 A 
ATOM     53  C   UNL A   1      41.133  33.783  31.093  1.00  0.00     0.049 A 
ATOM     54  H   UNL A   1      40.979  31.833  30.298  1.00  0.00     0.167 HD
ATOM     55  C   UNL A   1      43.411  32.840  31.338  1.00  0.00     0.074 A 
ATOM     56  C   UNL A   1      44.803  32.924  31.730  1.00  0.00     0.031 C 
ATOM     57  C   UNL A   1      42.521  33.853  31.466  1.00  0.00     0.031 A 
BRANCH  44  58
ATOM     58  C   UNL A   1      36.858  32.498  29.421  1.00  0.00    -0.014 A 
ATOM     59  C   UNL A   1      36.483  33.089  28.205  1.00  0.00     0.009 A 
ATOM     60  C   UNL A   1      35.883  32.305  30.413  1.00  0.00     0.009 A 
ATOM     61  C   UNL A   1      35.164  33.502  27.998  1.00  0.00     0.001 A 
ATOM     62  C   UNL A   1      34.562  32.698  30.195  1.00  0.00     0.001 A 
ATOM     63  C   UNL A   1      34.206  33.302  28.991  1.00  0.00     0.000 A 
ENDBRANCH  44  58
BRANCH  45  64
ATOM     64  C   UNL A   1      46.139  29.078  30.655  1.00  0.00    -0.014 A 
ATOM     65  C   UNL A   1      46.551  28.449  31.839  1.00  0.00     0.009 A 
ATOM     66  C   UNL A   1      47.064  29.238  29.611  1.00  0.00     0.009 A 
ATOM     67  C   UNL A   1      47.870  28.010  31.981  1.00  0.00     0.001 A 
ATOM     68  C   UNL A   1      48.374  28.776  29.747  1.00  0.00     0.001 A 
ATOM     69  C   UNL A   1      48.778  28.170  30.934  1.00  0.00     0.000 A 
ENDBRANCH  45  64
BRANCH  57  70
ATOM     70  C   UNL A   1      43.028  35.132  32.068  1.00  0.00    -0.014 A 
ATOM     71  C   UNL A   1      43.669  36.098  31.279  1.00  0.00     0.009 A 
ATOM     72  C   UNL A   1      42.841  35.380  33.436  1.00  0.00     0.009 A 
ATOM     73  C   UNL A   1      44.142  37.278  31.856  1.00  0.00     0.001 A 
ATOM     74  C   UNL A   1      43.294  36.572  34.005  1.00  0.00     0.001 A 
ATOM     75  C   UNL A   1      43.951  37.514  33.217  1.00  0.00     0.000 A 
ENDBRANCH  57  70
ENDBRANCH  31  32
ENDBRANCH  24  26
ENDBRANCH  23  24
ENDBRANCH  22  23
ENDBRANCH   1  22
TORSDOF 14
ENDMDL
MODEL 3
REMARK VINA RESULT:     -10.4      2.830      6.473
REMARK SMILES Cc1ccc(Br)cc1C(=O)N1CCO[C@H](CC(=O)OCCOC(=O)c2ccc(-c3c4nc(c(-c5ccccc5)c5ccc([nH]5)c(-c5ccccc5)c5nc(c(-c6ccccc6)c6ccc3[nH]6)C=C5)C=C4)cc2)C1
REMARK SMILES IDX 20 1 19 2 17 3 18 4 16 5 15 6 11 7 12 8 73 9 13 10 14 11
REMARK SMILES IDX 9 12 10 13 8 14 1 15 2 16 3 17 4 18 7 19 5 20 6 21 21 22
REMARK SMILES IDX 22 23 23 24 24 25 25 26 26 27 72 28 27 29 71 30 28 31 29 32
REMARK SMILES IDX 30 33 65 34 31 35 70 36 64 37 66 38 32 39 69 40 63 41 62 42
REMARK SMILES IDX 33 44 55 45 40 46 54 47 41 48 44 49 53 50 67 51 42 52 43 53
REMARK SMILES IDX 52 55 68 56 45 57 34 58 35 59 39 60 36 61 38 62 37 63 56 64
REMARK SMILES IDX 57 65 61 66 58 67 60 68 59 69 46 70 47 71 51 72 48 73 50 74
REMARK SMILES IDX 49 75
REMARK H PARENT 66 43 44 54
REMARK Flexibility Score: inf
ROOT
ATOM      1  C   UNL A   1      35.829  22.727  23.991  1.00  0.00     0.274 C 
ENDROOT
BRANCH   1   2
ATOM      2  O   UNL A   1      35.346  23.168  22.706  1.00  0.00    -0.462 OA
BRANCH   2   3
ATOM      3  C   UNL A   1      34.039  23.526  22.673  1.00  0.00     0.308 C 
ATOM      4  O   UNL A   1      33.444  23.917  21.675  1.00  0.00    -0.252 OA
BRANCH   3   5
ATOM      5  C   UNL A   1      33.408  23.538  24.035  1.00  0.00     0.156 C 
BRANCH   5   6
ATOM      6  C   UNL A   1      32.247  22.562  24.277  1.00  0.00     0.148 C 
ATOM      7  N   UNL A   1      31.225  23.987  25.984  1.00  0.00    -0.334 N 
ATOM      8  C   UNL A   1      31.640  23.101  27.068  1.00  0.00     0.148 C 
ATOM      9  C   UNL A   1      30.960  23.267  24.738  1.00  0.00     0.152 C 
ATOM     10  C   UNL A   1      32.753  22.126  26.615  1.00  0.00     0.182 C 
ATOM     11  O   UNL A   1      32.584  21.580  25.291  1.00  0.00    -0.374 OA
BRANCH   7  12
ATOM     12  C   UNL A   1      30.612  25.220  26.154  1.00  0.00     0.254 C 
ATOM     13  O   UNL A   1      29.501  25.270  26.691  1.00  0.00    -0.269 OA
BRANCH  12  14
ATOM     14  C   UNL A   1      31.153  26.500  25.557  1.00  0.00     0.044 A 
ATOM     15  C   UNL A   1      29.511  26.911  23.563  1.00  0.00     0.045 C 
ATOM     16  C   UNL A   1      30.620  27.275  24.499  1.00  0.00    -0.038 A 
ATOM     17  C   UNL A   1      31.122  28.582  24.278  1.00  0.00     0.005 A 
ATOM     18  C   UNL A   1      32.126  29.129  25.069  1.00  0.00     0.016 A 
ATOM     19  C   UNL A   1      32.202  27.070  26.320  1.00  0.00     0.029 A 
ATOM     20  C   UNL A   1      32.672  28.363  26.083  1.00  0.00     0.018 A 
ATOM     21  Br  UNL A   1      34.017  29.101  27.187  1.00  0.00    -0.051 Br
ENDBRANCH  12  14
ENDBRANCH   7  12
ENDBRANCH   5   6
ENDBRANCH   3   5
ENDBRANCH   2   3
ENDBRANCH   1   2
BRANCH   1  22
ATOM     22  C   UNL A   1      37.209  23.294  24.337  1.00  0.00     0.275 C 
BRANCH  22  23
ATOM     23  O   UNL A   1      37.435  23.385  25.756  1.00  0.00    -0.458 OA
BRANCH  23  24
ATOM     24  C   UNL A   1      38.695  23.092  26.149  1.00  0.00     0.338 C 
ATOM     25  O   UNL A   1      39.313  22.061  25.934  1.00  0.00    -0.246 OA
BRANCH  24  26
ATOM     26  C   UNL A   1      39.322  24.253  26.795  1.00  0.00     0.060 A 
ATOM     27  C   UNL A   1      39.030  24.474  28.142  1.00  0.00     0.016 A 
ATOM     28  C   UNL A   1      40.062  25.186  26.073  1.00  0.00     0.016 A 
ATOM     29  C   UNL A   1      39.403  25.660  28.761  1.00  0.00     0.010 A 
ATOM     30  C   UNL A   1      40.483  26.362  26.708  1.00  0.00     0.010 A 
ATOM     31  C   UNL A   1      40.130  26.617  28.047  1.00  0.00    -0.014 A 
BRANCH  31  32
ATOM     32  C   UNL A   1      40.508  27.889  28.707  1.00  0.00     0.031 A 
ATOM     33  C   UNL A   1      41.893  28.076  29.255  1.00  0.00     0.074 A 
ATOM     34  C   UNL A   1      39.607  28.884  28.795  1.00  0.00     0.049 A 
ATOM     35  N   UNL A   1      42.385  29.086  29.926  1.00  0.00    -0.248 NA
ATOM     36  C   UNL A   1      42.849  26.981  29.025  1.00  0.00     0.031 C 
ATOM     37  C   UNL A   1      38.243  28.840  28.264  1.00  0.00     0.029 A 
ATOM     38  N   UNL A   1      39.706  30.127  29.365  1.00  0.00    -0.354 N 
ATOM     39  C   UNL A   1      43.698  28.743  30.217  1.00  0.00     0.074 A 
ATOM     40  C   UNL A   1      43.923  27.423  29.666  1.00  0.00     0.031 C 
ATOM     41  C   UNL A   1      37.634  30.006  28.529  1.00  0.00     0.029 A 
ATOM     42  C   UNL A   1      38.547  30.858  29.285  1.00  0.00     0.049 A 
ATOM     43  H   UNL A   1      40.528  30.462  29.790  1.00  0.00     0.167 HD
ATOM     44  C   UNL A   1      44.632  29.463  30.884  1.00  0.00     0.031 A 
ATOM     45  C   UNL A   1      38.244  32.070  29.786  1.00  0.00     0.031 A 
ATOM     46  C   UNL A   1      44.415  30.781  31.420  1.00  0.00     0.049 A 
ATOM     47  C   UNL A   1      39.283  32.826  30.561  1.00  0.00     0.074 A 
ATOM     48  C   UNL A   1      45.309  31.598  32.090  1.00  0.00     0.029 A 
ATOM     49  N   UNL A   1      43.217  31.475  31.343  1.00  0.00    -0.354 N 
ATOM     50  N   UNL A   1      40.521  32.489  30.832  1.00  0.00    -0.248 NA
ATOM     51  C   UNL A   1      38.880  34.132  31.103  1.00  0.00     0.031 C 
ATOM     52  C   UNL A   1      44.639  32.770  32.458  1.00  0.00     0.029 A 
ATOM     53  C   UNL A   1      43.341  32.700  31.978  1.00  0.00     0.049 A 
ATOM     54  H   UNL A   1      42.400  31.146  30.904  1.00  0.00     0.167 HD
ATOM     55  C   UNL A   1      41.049  33.543  31.562  1.00  0.00     0.074 A 
ATOM     56  C   UNL A   1      40.004  34.541  31.677  1.00  0.00     0.031 C 
ATOM     57  C   UNL A   1      42.289  33.674  32.093  1.00  0.00     0.031 A 
BRANCH  44  58
ATOM     58  C   UNL A   1      45.972  28.822  31.106  1.00  0.00    -0.014 A 
ATOM     59  C   UNL A   1      46.224  28.027  32.234  1.00  0.00     0.009 A 
ATOM     60  C   UNL A   1      46.984  28.984  30.146  1.00  0.00     0.009 A 
ATOM     61  C   UNL A   1      47.474  27.428  32.409  1.00  0.00     0.001 A 
ATOM     62  C   UNL A   1      48.224  28.367  30.314  1.00  0.00     0.001 A 
ATOM     63  C   UNL A   1      48.471  27.595  31.448  1.00  0.00     0.000 A 
ENDBRANCH  44  58
BRANCH  45  64
ATOM     64  C   UNL A   1      36.882  32.626  29.598  1.00  0.00    -0.014 A 
ATOM     65  C   UNL A   1      35.929  32.544  30.624  1.00  0.00     0.009 A 
ATOM     66  C   UNL A   1      36.529  33.242  28.388  1.00  0.00     0.009 A 
ATOM     67  C   UNL A   1      34.641  33.050  30.431  1.00  0.00     0.001 A 
ATOM     68  C   UNL A   1      35.249  33.771  28.208  1.00  0.00     0.001 A 
ATOM     69  C   UNL A   1      34.305  33.667  29.226  1.00  0.00     0.000 A 
ENDBRANCH  45  64
BRANCH  57  70
ATOM     70  C   UNL A   1      42.581  34.948  32.831  1.00  0.00    -0.014 A 
ATOM     71  C   UNL A   1      43.256  36.008  32.205  1.00  0.00     0.009 A 
ATOM     72  C   UNL A   1      42.157  35.098  34.159  1.00  0.00     0.009 A 
ATOM     73  C   UNL A   1      43.528  37.183  32.908  1.00  0.00     0.001 A 
ATOM     74  C   UNL A   1      42.410  36.283  34.852  1.00  0.00     0.001 A 
ATOM     75  C   UNL A   1      43.102  37.320  34.229  1.00  0.00     0.000 A 
ENDBRANCH  57  70
ENDBRANCH  31  32
ENDBRANCH  24  26
ENDBRANCH  23  24
ENDBRANCH  22  23
ENDBRANCH   1  22
TORSDOF 14
ENDMDL
