MODEL 1
REMARK VINA RESULT:     -11.2      0.000      0.000
REMARK SMILES CC[C@@H](NC(=O)Cc1c(C)c2ccc(OC)c(C)c2oc1=O)C(=O)OCCOC(=O)c1ccc(-c2c3nc(c(-c4ccccc4)c4ccc([nH]4)c(-c4ccccc4)c4nc(c(-c5ccccc5)c5ccc2[nH]5)C=C4)C=C3)cc1
REMARK SMILES IDX 26 1 25 2 23 3 24 4 3 5 2 6 1 7 4 8 5 9 6 11 7 12 8 13 9 14
REMARK SMILES IDX 21 15 10 16 11 17 20 18 22 19 12 20 19 21 13 22 17 23 14 24
REMARK SMILES IDX 18 25 15 26 16 27 27 28 28 29 29 30 30 31 31 32 32 33 78 34
REMARK SMILES IDX 33 35 77 36 34 37 35 38 36 39 71 40 37 41 76 42 70 43 72 44
REMARK SMILES IDX 38 45 75 46 69 47 68 48 39 50 61 51 46 52 60 53 47 54 50 55
REMARK SMILES IDX 59 56 73 57 48 58 49 59 58 61 74 62 51 63 40 64 41 65 45 66
REMARK SMILES IDX 42 67 44 68 43 69 62 70 63 71 67 72 64 73 66 74 65 75 52 76
REMARK SMILES IDX 53 77 57 78 54 79 56 80 55 81
REMARK H PARENT 4 10 72 49 50 60
REMARK Flexibility Score: inf
ROOT
ATOM      1  C   UNL A   1      35.358  22.170  26.208  1.00  0.00     0.274 C 
ENDROOT
BRANCH   1   2
ATOM      2  O   UNL A   1      34.161  21.472  26.617  1.00  0.00    -0.461 OA
BRANCH   2   3
ATOM      3  C   UNL A   1      33.102  22.228  27.010  1.00  0.00     0.328 C 
ATOM      4  O   UNL A   1      32.869  22.556  28.167  1.00  0.00    -0.250 OA
BRANCH   3   5
ATOM      5  C   UNL A   1      32.153  22.567  25.842  1.00  0.00     0.192 C 
BRANCH   5   6
ATOM      6  C   UNL A   1      31.738  21.393  24.939  1.00  0.00     0.033 C 
ATOM      7  C   UNL A   1      32.408  21.369  23.569  1.00  0.00     0.007 C 
ENDBRANCH   5   6
BRANCH   5   8
ATOM      8  N   UNL A   1      31.079  23.503  26.196  1.00  0.00    -0.342 N 
ATOM      9  C   UNL A   1      30.813  24.796  25.867  1.00  0.00     0.225 C 
ATOM     10  H   UNL A   1      30.408  23.111  26.800  1.00  0.00     0.164 HD
ATOM     11  O   UNL A   1      29.913  25.352  26.504  1.00  0.00    -0.275 OA
BRANCH   9  12
ATOM     12  C   UNL A   1      31.509  25.527  24.723  1.00  0.00     0.143 C 
BRANCH  12  13
ATOM     13  C   UNL A   1      32.246  26.805  25.034  1.00  0.00     0.051 A 
ATOM     14  C   UNL A   1      31.820  28.072  24.862  1.00  0.00    -0.029 A 
ATOM     15  C   UNL A   1      33.615  26.559  25.577  1.00  0.00     0.340 A 
ATOM     16  C   UNL A   1      30.676  28.476  23.974  1.00  0.00     0.046 C 
ATOM     17  C   UNL A   1      32.444  29.111  25.702  1.00  0.00     0.021 A 
ATOM     18  O   UNL A   1      34.323  27.639  26.070  1.00  0.00    -0.422 OA
ATOM     19  O   UNL A   1      34.113  25.437  25.564  1.00  0.00    -0.246 OA
ATOM     20  C   UNL A   1      31.768  30.276  26.076  1.00  0.00     0.016 A 
ATOM     21  C   UNL A   1      33.678  28.867  26.296  1.00  0.00     0.145 A 
ATOM     22  C   UNL A   1      32.313  31.153  27.019  1.00  0.00     0.047 A 
ATOM     23  C   UNL A   1      34.293  29.773  27.181  1.00  0.00     0.034 A 
ATOM     24  C   UNL A   1      33.580  30.921  27.562  1.00  0.00     0.125 A 
ATOM     25  C   UNL A   1      35.652  29.463  27.749  1.00  0.00     0.052 C 
BRANCH  24  26
ATOM     26  O   UNL A   1      34.184  31.739  28.480  1.00  0.00    -0.496 OA
ATOM     27  C   UNL A   1      34.647  33.004  28.022  1.00  0.00     0.278 C 
ENDBRANCH  24  26
ENDBRANCH  12  13
ENDBRANCH   9  12
ENDBRANCH   5   8
ENDBRANCH   3   5
ENDBRANCH   2   3
ENDBRANCH   1   2
BRANCH   1  28
ATOM     28  C   UNL A   1      36.305  21.211  25.485  1.00  0.00     0.275 C 
BRANCH  28  29
ATOM     29  O   UNL A   1      37.531  21.902  25.204  1.00  0.00    -0.458 OA
BRANCH  29  30
ATOM     30  C   UNL A   1      38.606  21.432  25.880  1.00  0.00     0.338 C 
ATOM     31  O   UNL A   1      39.082  20.319  25.859  1.00  0.00    -0.246 OA
BRANCH  30  32
ATOM     32  C   UNL A   1      39.287  22.601  26.448  1.00  0.00     0.060 A 
ATOM     33  C   UNL A   1      38.790  23.863  26.114  1.00  0.00     0.016 A 
ATOM     34  C   UNL A   1      40.383  22.461  27.293  1.00  0.00     0.016 A 
ATOM     35  C   UNL A   1      39.387  25.007  26.608  1.00  0.00     0.010 A 
ATOM     36  C   UNL A   1      41.003  23.609  27.776  1.00  0.00     0.010 A 
ATOM     37  C   UNL A   1      40.514  24.878  27.415  1.00  0.00    -0.014 A 
BRANCH  37  38
ATOM     38  C   UNL A   1      41.287  26.082  27.741  1.00  0.00     0.031 A 
ATOM     39  C   UNL A   1      40.638  27.117  28.603  1.00  0.00     0.074 A 
ATOM     40  C   UNL A   1      42.551  26.208  27.308  1.00  0.00     0.049 A 
ATOM     41  N   UNL A   1      41.055  28.314  28.905  1.00  0.00    -0.248 NA
ATOM     42  C   UNL A   1      39.345  26.752  29.213  1.00  0.00     0.031 C 
ATOM     43  C   UNL A   1      43.297  25.188  26.568  1.00  0.00     0.029 A 
ATOM     44  N   UNL A   1      43.427  27.250  27.430  1.00  0.00    -0.354 N 
ATOM     45  C   UNL A   1      40.067  28.855  29.715  1.00  0.00     0.074 A 
ATOM     46  C   UNL A   1      39.028  27.863  29.860  1.00  0.00     0.031 C 
ATOM     47  C   UNL A   1      44.523  25.665  26.292  1.00  0.00     0.029 A 
ATOM     48  C   UNL A   1      44.619  27.036  26.785  1.00  0.00     0.049 A 
ATOM     49  H   UNL A   1      43.224  28.073  27.931  1.00  0.00     0.167 HD
ATOM     50  C   UNL A   1      40.041  30.081  30.278  1.00  0.00     0.031 A 
ATOM     51  C   UNL A   1      45.652  27.875  26.588  1.00  0.00     0.031 A 
ATOM     52  C   UNL A   1      41.089  31.046  30.112  1.00  0.00     0.049 A 
ATOM     53  C   UNL A   1      45.552  29.272  27.130  1.00  0.00     0.074 A 
ATOM     54  C   UNL A   1      41.160  32.333  30.609  1.00  0.00     0.029 A 
ATOM     55  N   UNL A   1      42.254  30.820  29.394  1.00  0.00    -0.354 N 
ATOM     56  N   UNL A   1      44.587  29.809  27.841  1.00  0.00    -0.248 NA
ATOM     57  C   UNL A   1      46.666  30.182  26.840  1.00  0.00     0.031 C 
ATOM     58  C   UNL A   1      42.351  32.902  30.155  1.00  0.00     0.029 A 
ATOM     59  C   UNL A   1      43.045  31.951  29.420  1.00  0.00     0.049 A 
ATOM     60  H   UNL A   1      42.482  29.978  28.936  1.00  0.00     0.167 HD
ATOM     61  C   UNL A   1      44.981  31.114  28.094  1.00  0.00     0.074 A 
ATOM     62  C   UNL A   1      46.278  31.286  27.467  1.00  0.00     0.031 C 
ATOM     63  C   UNL A   1      44.331  32.082  28.784  1.00  0.00     0.031 A 
BRANCH  50  64
ATOM     64  C   UNL A   1      38.836  30.457  31.085  1.00  0.00    -0.014 A 
ATOM     65  C   UNL A   1      37.676  30.950  30.470  1.00  0.00     0.009 A 
ATOM     66  C   UNL A   1      38.840  30.254  32.474  1.00  0.00     0.009 A 
ATOM     67  C   UNL A   1      36.543  31.238  31.234  1.00  0.00     0.001 A 
ATOM     68  C   UNL A   1      37.701  30.524  33.232  1.00  0.00     0.001 A 
ATOM     69  C   UNL A   1      36.554  31.016  32.611  1.00  0.00     0.000 A 
ENDBRANCH  50  64
BRANCH  51  70
ATOM     70  C   UNL A   1      46.833  27.408  25.820  1.00  0.00    -0.014 A 
ATOM     71  C   UNL A   1      47.808  26.611  26.434  1.00  0.00     0.009 A 
ATOM     72  C   UNL A   1      46.952  27.691  24.450  1.00  0.00     0.009 A 
ATOM     73  C   UNL A   1      48.876  26.102  25.690  1.00  0.00     0.001 A 
ATOM     74  C   UNL A   1      48.008  27.163  23.704  1.00  0.00     0.001 A 
ATOM     75  C   UNL A   1      48.969  26.370  24.325  1.00  0.00     0.000 A 
ENDBRANCH  51  70
BRANCH  63  76
ATOM     76  C   UNL A   1      45.007  33.413  28.920  1.00  0.00    -0.014 A 
ATOM     77  C   UNL A   1      44.745  34.445  28.008  1.00  0.00     0.009 A 
ATOM     78  C   UNL A   1      45.796  33.674  30.051  1.00  0.00     0.009 A 
ATOM     79  C   UNL A   1      45.265  35.721  28.227  1.00  0.00     0.001 A 
ATOM     80  C   UNL A   1      46.295  34.957  30.278  1.00  0.00     0.001 A 
ATOM     81  C   UNL A   1      46.029  35.977  29.366  1.00  0.00     0.000 A 
ENDBRANCH  63  76
ENDBRANCH  37  38
ENDBRANCH  30  32
ENDBRANCH  29  30
ENDBRANCH  28  29
ENDBRANCH   1  28
TORSDOF 16
ENDMDL
MODEL 2
REMARK VINA RESULT:     -10.9      3.808      7.116
REMARK SMILES CC[C@@H](NC(=O)Cc1c(C)c2ccc(OC)c(C)c2oc1=O)C(=O)OCCOC(=O)c1ccc(-c2c3nc(c(-c4ccccc4)c4ccc([nH]4)c(-c4ccccc4)c4nc(c(-c5ccccc5)c5ccc2[nH]5)C=C4)C=C3)cc1
REMARK SMILES IDX 26 1 25 2 23 3 24 4 3 5 2 6 1 7 4 8 5 9 6 11 7 12 8 13 9 14
REMARK SMILES IDX 21 15 10 16 11 17 20 18 22 19 12 20 19 21 13 22 17 23 14 24
REMARK SMILES IDX 18 25 15 26 16 27 27 28 28 29 29 30 30 31 31 32 32 33 78 34
REMARK SMILES IDX 33 35 77 36 34 37 35 38 36 39 71 40 37 41 76 42 70 43 72 44
REMARK SMILES IDX 38 45 75 46 69 47 68 48 39 50 61 51 46 52 60 53 47 54 50 55
REMARK SMILES IDX 59 56 73 57 48 58 49 59 58 61 74 62 51 63 40 64 41 65 45 66
REMARK SMILES IDX 42 67 44 68 43 69 62 70 63 71 67 72 64 73 66 74 65 75 52 76
REMARK SMILES IDX 53 77 57 78 54 79 56 80 55 81
REMARK H PARENT 4 10 72 49 50 60
REMARK Flexibility Score: inf
ROOT
ATOM      1  C   UNL A   1      38.051  22.287  25.738  1.00  0.00     0.274 C 
ENDROOT
BRANCH   1   2
ATOM      2  O   UNL A   1      37.411  21.749  24.559  1.00  0.00    -0.461 OA
BRANCH   2   3
ATOM      3  C   UNL A   1      36.209  21.136  24.726  1.00  0.00     0.328 C 
ATOM      4  O   UNL A   1      36.063  19.954  25.012  1.00  0.00    -0.250 OA
BRANCH   3   5
ATOM      5  C   UNL A   1      35.020  22.073  24.431  1.00  0.00     0.192 C 
BRANCH   5   6
ATOM      6  C   UNL A   1      35.155  22.973  23.191  1.00  0.00     0.033 C 
ATOM      7  C   UNL A   1      33.838  23.322  22.505  1.00  0.00     0.007 C 
ENDBRANCH   5   6
BRANCH   5   8
ATOM      8  N   UNL A   1      33.705  21.450  24.619  1.00  0.00    -0.342 N 
ATOM      9  C   UNL A   1      32.719  21.596  25.544  1.00  0.00     0.225 C 
ATOM     10  H   UNL A   1      33.492  20.782  23.928  1.00  0.00     0.164 HD
ATOM     11  O   UNL A   1      31.808  20.763  25.516  1.00  0.00    -0.275 OA
BRANCH   9  12
ATOM     12  C   UNL A   1      32.662  22.764  26.526  1.00  0.00     0.143 C 
BRANCH  12  13
ATOM     13  C   UNL A   1      32.146  24.091  26.030  1.00  0.00     0.051 A 
ATOM     14  C   UNL A   1      32.857  25.134  25.559  1.00  0.00    -0.029 A 
ATOM     15  C   UNL A   1      30.660  24.197  26.121  1.00  0.00     0.340 A 
ATOM     16  C   UNL A   1      34.330  25.336  25.783  1.00  0.00     0.046 C 
ATOM     17  C   UNL A   1      32.160  26.071  24.658  1.00  0.00     0.021 A 
ATOM     18  O   UNL A   1      30.049  25.290  25.533  1.00  0.00    -0.422 OA
ATOM     19  O   UNL A   1      29.996  23.358  26.722  1.00  0.00    -0.246 OA
ATOM     20  C   UNL A   1      32.831  26.796  23.669  1.00  0.00     0.016 A 
ATOM     21  C   UNL A   1      30.770  26.120  24.658  1.00  0.00     0.145 A 
ATOM     22  C   UNL A   1      32.124  27.532  22.713  1.00  0.00     0.047 A 
ATOM     23  C   UNL A   1      30.034  26.921  23.766  1.00  0.00     0.034 A 
ATOM     24  C   UNL A   1      30.731  27.617  22.764  1.00  0.00     0.125 A 
ATOM     25  C   UNL A   1      28.532  26.960  23.855  1.00  0.00     0.052 C 
BRANCH  24  26
ATOM     26  O   UNL A   1      29.971  28.327  21.872  1.00  0.00    -0.496 OA
ATOM     27  C   UNL A   1      29.998  29.746  21.975  1.00  0.00     0.278 C 
ENDBRANCH  24  26
ENDBRANCH  12  13
ENDBRANCH   9  12
ENDBRANCH   5   8
ENDBRANCH   3   5
ENDBRANCH   2   3
ENDBRANCH   1   2
BRANCH   1  28
ATOM     28  C   UNL A   1      39.374  21.565  25.993  1.00  0.00     0.275 C 
BRANCH  28  29
ATOM     29  O   UNL A   1      40.075  22.248  27.043  1.00  0.00    -0.458 OA
BRANCH  29  30
ATOM     30  C   UNL A   1      41.058  23.073  26.615  1.00  0.00     0.338 C 
ATOM     31  O   UNL A   1      41.818  22.922  25.685  1.00  0.00    -0.246 OA
BRANCH  30  32
ATOM     32  C   UNL A   1      40.868  24.349  27.315  1.00  0.00     0.060 A 
ATOM     33  C   UNL A   1      41.817  25.350  27.101  1.00  0.00     0.016 A 
ATOM     34  C   UNL A   1      39.780  24.558  28.157  1.00  0.00     0.016 A 
ATOM     35  C   UNL A   1      41.704  26.574  27.733  1.00  0.00     0.010 A 
ATOM     36  C   UNL A   1      39.672  25.780  28.814  1.00  0.00     0.010 A 
ATOM     37  C   UNL A   1      40.645  26.776  28.615  1.00  0.00    -0.014 A 
BRANCH  37  38
ATOM     38  C   UNL A   1      40.656  27.973  29.463  1.00  0.00     0.031 A 
ATOM     39  C   UNL A   1      41.761  28.111  30.462  1.00  0.00     0.074 A 
ATOM     40  C   UNL A   1      39.724  28.923  29.297  1.00  0.00     0.049 A 
ATOM     41  N   UNL A   1      41.904  28.994  31.410  1.00  0.00    -0.248 NA
ATOM     42  C   UNL A   1      42.854  27.125  30.378  1.00  0.00     0.031 C 
ATOM     43  C   UNL A   1      38.689  28.922  28.261  1.00  0.00     0.029 A 
ATOM     44  N   UNL A   1      39.499  30.074  30.001  1.00  0.00    -0.354 N 
ATOM     45  C   UNL A   1      43.086  28.655  32.053  1.00  0.00     0.074 A 
ATOM     46  C   UNL A   1      43.623  27.488  31.393  1.00  0.00     0.031 C 
ATOM     47  C   UNL A   1      37.929  30.020  28.407  1.00  0.00     0.029 A 
ATOM     48  C   UNL A   1      38.393  30.764  29.575  1.00  0.00     0.049 A 
ATOM     49  H   UNL A   1      40.075  30.378  30.739  1.00  0.00     0.167 HD
ATOM     50  C   UNL A   1      43.659  29.272  33.107  1.00  0.00     0.031 A 
ATOM     51  C   UNL A   1      37.804  31.852  30.103  1.00  0.00     0.031 A 
ATOM     52  C   UNL A   1      43.097  30.429  33.742  1.00  0.00     0.049 A 
ATOM     53  C   UNL A   1      38.398  32.457  31.343  1.00  0.00     0.074 A 
ATOM     54  C   UNL A   1      43.571  31.123  34.839  1.00  0.00     0.029 A 
ATOM     55  N   UNL A   1      41.935  31.062  33.328  1.00  0.00    -0.354 N 
ATOM     56  N   UNL A   1      39.480  32.096  31.994  1.00  0.00    -0.248 NA
ATOM     57  C   UNL A   1      37.693  33.601  31.931  1.00  0.00     0.031 C 
ATOM     58  C   UNL A   1      42.671  32.154  35.114  1.00  0.00     0.029 A 
ATOM     59  C   UNL A   1      41.665  32.132  34.157  1.00  0.00     0.049 A 
ATOM     60  H   UNL A   1      41.386  30.790  32.557  1.00  0.00     0.167 HD
ATOM     61  C   UNL A   1      39.595  32.976  33.059  1.00  0.00     0.074 A 
ATOM     62  C   UNL A   1      38.476  33.893  32.964  1.00  0.00     0.031 C 
ATOM     63  C   UNL A   1      40.541  33.023  34.028  1.00  0.00     0.031 A 
BRANCH  50  64
ATOM     64  C   UNL A   1      44.925  28.689  33.658  1.00  0.00    -0.014 A 
ATOM     65  C   UNL A   1      44.896  27.678  34.629  1.00  0.00     0.009 A 
ATOM     66  C   UNL A   1      46.162  29.115  33.151  1.00  0.00     0.009 A 
ATOM     67  C   UNL A   1      46.086  27.107  35.085  1.00  0.00     0.001 A 
ATOM     68  C   UNL A   1      47.348  28.529  33.593  1.00  0.00     0.001 A 
ATOM     69  C   UNL A   1      47.309  27.527  34.561  1.00  0.00     0.000 A 
ENDBRANCH  50  64
BRANCH  51  70
ATOM     70  C   UNL A   1      36.580  32.398  29.466  1.00  0.00    -0.014 A 
ATOM     71  C   UNL A   1      35.313  32.072  29.969  1.00  0.00     0.009 A 
ATOM     72  C   UNL A   1      36.674  33.307  28.400  1.00  0.00     0.009 A 
ATOM     73  C   UNL A   1      34.165  32.652  29.422  1.00  0.00     0.001 A 
ATOM     74  C   UNL A   1      35.526  33.902  27.870  1.00  0.00     0.001 A 
ATOM     75  C   UNL A   1      34.274  33.573  28.380  1.00  0.00     0.000 A 
ENDBRANCH  51  70
BRANCH  63  76
ATOM     76  C   UNL A   1      40.429  34.106  35.058  1.00  0.00    -0.014 A 
ATOM     77  C   UNL A   1      40.961  35.380  34.818  1.00  0.00     0.009 A 
ATOM     78  C   UNL A   1      39.662  33.884  36.212  1.00  0.00     0.009 A 
ATOM     79  C   UNL A   1      40.725  36.418  35.720  1.00  0.00     0.001 A 
ATOM     80  C   UNL A   1      39.409  34.930  37.099  1.00  0.00     0.001 A 
ATOM     81  C   UNL A   1      39.940  36.194  36.852  1.00  0.00     0.000 A 
ENDBRANCH  63  76
ENDBRANCH  37  38
ENDBRANCH  30  32
ENDBRANCH  29  30
ENDBRANCH  28  29
ENDBRANCH   1  28
TORSDOF 16
ENDMDL
MODEL 3
REMARK VINA RESULT:     -10.8      2.338      6.515
REMARK SMILES CC[C@@H](NC(=O)Cc1c(C)c2ccc(OC)c(C)c2oc1=O)C(=O)OCCOC(=O)c1ccc(-c2c3nc(c(-c4ccccc4)c4ccc([nH]4)c(-c4ccccc4)c4nc(c(-c5ccccc5)c5ccc2[nH]5)C=C4)C=C3)cc1
REMARK SMILES IDX 26 1 25 2 23 3 24 4 3 5 2 6 1 7 4 8 5 9 6 11 7 12 8 13 9 14
REMARK SMILES IDX 21 15 10 16 11 17 20 18 22 19 12 20 19 21 13 22 17 23 14 24
REMARK SMILES IDX 18 25 15 26 16 27 27 28 28 29 29 30 30 31 31 32 32 33 78 34
REMARK SMILES IDX 33 35 77 36 34 37 35 38 36 39 71 40 37 41 76 42 70 43 72 44
REMARK SMILES IDX 38 45 75 46 69 47 68 48 39 50 61 51 46 52 60 53 47 54 50 55
REMARK SMILES IDX 59 56 73 57 48 58 49 59 58 61 74 62 51 63 40 64 41 65 45 66
REMARK SMILES IDX 42 67 44 68 43 69 62 70 63 71 67 72 64 73 66 74 65 75 52 76
REMARK SMILES IDX 53 77 57 78 54 79 56 80 55 81
REMARK H PARENT 4 10 72 49 50 60
REMARK Flexibility Score: inf
ROOT
ATOM      1  C   UNL A   1      37.372  21.479  25.425  1.00  0.00     0.274 C 
ENDROOT
BRANCH   1   2
ATOM      2  O   UNL A   1      36.324  21.437  24.430  1.00  0.00    -0.461 OA
BRANCH   2   3
ATOM      3  C   UNL A   1      36.126  22.558  23.686  1.00  0.00     0.328 C 
ATOM      4  O   UNL A   1      36.945  23.035  22.910  1.00  0.00    -0.250 OA
BRANCH   3   5
ATOM      5  C   UNL A   1      34.772  23.234  23.986  1.00  0.00     0.192 C 
BRANCH   5   6
ATOM      6  C   UNL A   1      34.264  24.234  22.933  1.00  0.00     0.033 C 
ATOM      7  C   UNL A   1      32.821  24.018  22.488  1.00  0.00     0.007 C 
ENDBRANCH   5   6
BRANCH   5   8
ATOM      8  N   UNL A   1      33.759  22.326  24.536  1.00  0.00    -0.342 N 
ATOM      9  C   UNL A   1      33.037  22.312  25.689  1.00  0.00     0.225 C 
ATOM     10  H   UNL A   1      33.560  21.565  23.946  1.00  0.00     0.164 HD
ATOM     11  O   UNL A   1      32.400  21.282  25.928  1.00  0.00    -0.275 OA
BRANCH   9  12
ATOM     12  C   UNL A   1      32.926  23.517  26.620  1.00  0.00     0.143 C 
BRANCH  12  13
ATOM     13  C   UNL A   1      32.223  24.751  26.113  1.00  0.00     0.051 A 
ATOM     14  C   UNL A   1      32.773  25.918  25.722  1.00  0.00    -0.029 A 
ATOM     15  C   UNL A   1      30.739  24.594  26.088  1.00  0.00     0.340 A 
ATOM     16  C   UNL A   1      34.167  26.364  26.067  1.00  0.00     0.046 C 
ATOM     17  C   UNL A   1      31.991  26.750  24.789  1.00  0.00     0.021 A 
ATOM     18  O   UNL A   1      29.991  25.584  25.476  1.00  0.00    -0.422 OA
ATOM     19  O   UNL A   1      30.190  23.632  26.616  1.00  0.00    -0.246 OA
ATOM     20  C   UNL A   1      32.596  27.614  23.871  1.00  0.00     0.016 A 
ATOM     21  C   UNL A   1      30.618  26.557  24.679  1.00  0.00     0.145 A 
ATOM     22  C   UNL A   1      31.844  28.249  22.878  1.00  0.00     0.047 A 
ATOM     23  C   UNL A   1      29.821  27.248  23.748  1.00  0.00     0.034 A 
ATOM     24  C   UNL A   1      30.457  28.089  22.819  1.00  0.00     0.125 A 
ATOM     25  C   UNL A   1      28.333  27.023  23.718  1.00  0.00     0.052 C 
BRANCH  24  26
ATOM     26  O   UNL A   1      29.653  28.687  21.885  1.00  0.00    -0.496 OA
ATOM     27  C   UNL A   1      29.606  30.109  21.878  1.00  0.00     0.278 C 
ENDBRANCH  24  26
ENDBRANCH  12  13
ENDBRANCH   9  12
ENDBRANCH   5   8
ENDBRANCH   3   5
ENDBRANCH   2   3
ENDBRANCH   1   2
BRANCH   1  28
ATOM     28  C   UNL A   1      38.511  20.539  25.030  1.00  0.00     0.275 C 
BRANCH  28  29
ATOM     29  O   UNL A   1      39.120  20.028  26.224  1.00  0.00    -0.458 OA
BRANCH  29  30
ATOM     30  C   UNL A   1      40.461  19.864  26.143  1.00  0.00     0.338 C 
ATOM     31  O   UNL A   1      41.080  18.952  25.642  1.00  0.00    -0.246 OA
BRANCH  30  32
ATOM     32  C   UNL A   1      41.064  21.145  26.530  1.00  0.00     0.060 A 
ATOM     33  C   UNL A   1      40.944  21.537  27.865  1.00  0.00     0.016 A 
ATOM     34  C   UNL A   1      41.733  21.939  25.604  1.00  0.00     0.016 A 
ATOM     35  C   UNL A   1      41.482  22.735  28.297  1.00  0.00     0.010 A 
ATOM     36  C   UNL A   1      42.257  23.157  26.027  1.00  0.00     0.010 A 
ATOM     37  C   UNL A   1      42.112  23.559  27.367  1.00  0.00    -0.014 A 
BRANCH  37  38
ATOM     38  C   UNL A   1      42.467  24.925  27.767  1.00  0.00     0.031 A 
ATOM     39  C   UNL A   1      43.918  25.259  27.902  1.00  0.00     0.074 A 
ATOM     40  C   UNL A   1      41.505  25.843  27.952  1.00  0.00     0.049 A 
ATOM     41  N   UNL A   1      44.471  26.340  28.376  1.00  0.00    -0.248 NA
ATOM     42  C   UNL A   1      44.876  24.239  27.436  1.00  0.00     0.031 C 
ATOM     43  C   UNL A   1      40.076  25.630  27.717  1.00  0.00     0.029 A 
ATOM     44  N   UNL A   1      41.591  27.138  28.380  1.00  0.00    -0.354 N 
ATOM     45  C   UNL A   1      45.839  26.121  28.292  1.00  0.00     0.074 A 
ATOM     46  C   UNL A   1      46.037  24.808  27.724  1.00  0.00     0.031 C 
ATOM     47  C   UNL A   1      39.415  26.760  28.018  1.00  0.00     0.029 A 
ATOM     48  C   UNL A   1      40.369  27.747  28.516  1.00  0.00     0.049 A 
ATOM     49  H   UNL A   1      42.444  27.590  28.572  1.00  0.00     0.167 HD
ATOM     50  C   UNL A   1      46.833  26.953  28.666  1.00  0.00     0.031 A 
ATOM     51  C   UNL A   1      40.063  28.954  29.026  1.00  0.00     0.031 A 
ATOM     52  C   UNL A   1      46.602  28.251  29.229  1.00  0.00     0.049 A 
ATOM     53  C   UNL A   1      41.179  29.819  29.538  1.00  0.00     0.074 A 
ATOM     54  C   UNL A   1      47.530  29.172  29.676  1.00  0.00     0.029 A 
ATOM     55  N   UNL A   1      45.347  28.811  29.418  1.00  0.00    -0.354 N 
ATOM     56  N   UNL A   1      42.471  29.584  29.521  1.00  0.00    -0.248 NA
ATOM     57  C   UNL A   1      40.806  31.100  30.148  1.00  0.00     0.031 C 
ATOM     58  C   UNL A   1      46.832  30.274  30.175  1.00  0.00     0.029 A 
ATOM     59  C   UNL A   1      45.473  30.060  29.990  1.00  0.00     0.049 A 
ATOM     60  H   UNL A   1      44.494  28.380  29.178  1.00  0.00     0.167 HD
ATOM     61  C   UNL A   1      43.066  30.693  30.104  1.00  0.00     0.074 A 
ATOM     62  C   UNL A   1      41.995  31.603  30.459  1.00  0.00     0.031 C 
ATOM     63  C   UNL A   1      44.381  30.937  30.326  1.00  0.00     0.031 A 
BRANCH  50  64
ATOM     64  C   UNL A   1      48.244  26.472  28.515  1.00  0.00    -0.014 A 
ATOM     65  C   UNL A   1      48.873  25.738  29.530  1.00  0.00     0.009 A 
ATOM     66  C   UNL A   1      48.931  26.705  27.313  1.00  0.00     0.009 A 
ATOM     67  C   UNL A   1      50.167  25.248  29.345  1.00  0.00     0.001 A 
ATOM     68  C   UNL A   1      50.216  26.198  27.124  1.00  0.00     0.001 A 
ATOM     69  C   UNL A   1      50.834  25.471  28.140  1.00  0.00     0.000 A 
ENDBRANCH  50  64
BRANCH  51  70
ATOM     70  C   UNL A   1      38.642  29.376  29.093  1.00  0.00    -0.014 A 
ATOM     71  C   UNL A   1      37.874  29.107  30.234  1.00  0.00     0.009 A 
ATOM     72  C   UNL A   1      38.067  30.118  28.048  1.00  0.00     0.009 A 
ATOM     73  C   UNL A   1      36.562  29.577  30.331  1.00  0.00     0.001 A 
ATOM     74  C   UNL A   1      36.763  30.606  28.157  1.00  0.00     0.001 A 
ATOM     75  C   UNL A   1      36.012  30.334  29.297  1.00  0.00     0.000 A 
ENDBRANCH  51  70
BRANCH  63  76
ATOM     76  C   UNL A   1      44.749  32.242  30.965  1.00  0.00    -0.014 A 
ATOM     77  C   UNL A   1      44.937  32.332  32.351  1.00  0.00     0.009 A 
ATOM     78  C   UNL A   1      45.047  33.348  30.154  1.00  0.00     0.009 A 
ATOM     79  C   UNL A   1      45.419  33.513  32.916  1.00  0.00     0.001 A 
ATOM     80  C   UNL A   1      45.551  34.518  30.721  1.00  0.00     0.001 A 
ATOM     81  C   UNL A   1      45.736  34.599  32.100  1.00  0.00     0.000 A 
ENDBRANCH  63  76
ENDBRANCH  37  38
ENDBRANCH  30  32
ENDBRANCH  29  30
ENDBRANCH  28  29
ENDBRANCH   1  28
TORSDOF 16
ENDMDL
