MODEL 1
REMARK VINA RESULT:     -11.3      0.000      0.000
REMARK SMILES COc1ccc(-c2ncn(CC(=O)OCCOC(=O)c3ccc(-c4c5nc(c(-c6ccccc6)c6ccc([nH]6)c(-c6ccccc6)c6nc(c(-c7ccccc7)c7ccc4[nH]7)C=C6)C=C5)cc3)c2-c2ccc(OC)cc2)cc1
REMARK SMILES IDX 15 1 14 2 12 3 13 4 11 5 10 6 7 7 8 8 68 9 9 10 6 11 3 12
REMARK SMILES IDX 4 13 78 14 5 15 77 16 2 17 1 18 69 19 70 20 76 21 71 22
REMARK SMILES IDX 75 23 72 24 73 25 74 26 16 27 17 28 18 29 19 30 20 31 21 32
REMARK SMILES IDX 67 33 22 34 66 35 23 36 24 37 25 38 60 39 26 40 65 41 59 42
REMARK SMILES IDX 61 43 27 44 64 45 58 46 57 47 28 49 50 50 35 51 49 52 36 53
REMARK SMILES IDX 39 54 48 55 62 56 37 57 38 58 47 60 63 61 40 62 29 63 30 64
REMARK SMILES IDX 34 65 31 66 33 67 32 68 51 69 52 70 56 71 53 72 55 73 54 74
REMARK SMILES IDX 41 75 42 76 46 77 43 78 45 79 44 80
REMARK H PARENT 61 48 39 59
REMARK Flexibility Score: inf
ROOT
ATOM      1  C   UNL A   1      33.660  28.051  25.265  1.00  0.00     0.274 C 
ENDROOT
BRANCH   1   2
ATOM      2  O   UNL A   1      32.850  27.802  24.115  1.00  0.00    -0.461 OA
BRANCH   2   3
ATOM      3  C   UNL A   1      33.508  27.774  22.930  1.00  0.00     0.326 C 
ATOM      4  O   UNL A   1      34.289  28.641  22.555  1.00  0.00    -0.250 OA
BRANCH   3   5
ATOM      5  C   UNL A   1      33.278  26.481  22.202  1.00  0.00     0.246 C 
BRANCH   5   6
ATOM      6  N   UNL A   1      32.587  25.433  22.939  1.00  0.00    -0.319 N 
ATOM      7  C   UNL A   1      32.058  23.409  23.592  1.00  0.00     0.096 A 
ATOM      8  N   UNL A   1      30.895  23.999  23.175  1.00  0.00    -0.236 NA
ATOM      9  C   UNL A   1      33.125  24.300  23.515  1.00  0.00     0.076 A 
ATOM     10  C   UNL A   1      31.233  25.224  22.841  1.00  0.00     0.201 A 
BRANCH   7  11
ATOM     11  C   UNL A   1      32.187  22.006  23.970  1.00  0.00     0.003 A 
ATOM     12  C   UNL A   1      32.892  19.348  24.593  1.00  0.00     0.118 A 
ATOM     13  C   UNL A   1      32.857  20.321  25.590  1.00  0.00     0.047 A 
ATOM     14  C   UNL A   1      32.519  19.692  23.293  1.00  0.00     0.047 A 
ATOM     15  C   UNL A   1      32.495  21.636  25.287  1.00  0.00     0.014 A 
ATOM     16  C   UNL A   1      32.169  21.015  22.983  1.00  0.00     0.014 A 
BRANCH  12  17
ATOM     17  O   UNL A   1      33.291  18.111  25.019  1.00  0.00    -0.497 OA
ATOM     18  C   UNL A   1      34.159  17.389  24.153  1.00  0.00     0.278 C 
ENDBRANCH  12  17
ENDBRANCH   7  11
BRANCH   9  19
ATOM     19  C   UNL A   1      34.503  24.083  23.928  1.00  0.00     0.001 A 
ATOM     20  C   UNL A   1      34.909  24.450  25.215  1.00  0.00     0.014 A 
ATOM     21  C   UNL A   1      35.325  23.255  23.172  1.00  0.00     0.014 A 
ATOM     22  C   UNL A   1      36.143  24.054  25.720  1.00  0.00     0.047 A 
ATOM     23  C   UNL A   1      36.529  22.804  23.709  1.00  0.00     0.047 A 
ATOM     24  C   UNL A   1      36.965  23.245  24.959  1.00  0.00     0.118 A 
BRANCH  24  25
ATOM     25  O   UNL A   1      38.086  22.742  25.552  1.00  0.00    -0.497 OA
ATOM     26  C   UNL A   1      38.676  23.624  26.506  1.00  0.00     0.278 C 
ENDBRANCH  24  25
ENDBRANCH   9  19
ENDBRANCH   5   6
ENDBRANCH   3   5
ENDBRANCH   2   3
ENDBRANCH   1   2
BRANCH   1  27
ATOM     27  C   UNL A   1      33.299  29.410  25.849  1.00  0.00     0.275 C 
BRANCH  27  28
ATOM     28  O   UNL A   1      33.801  29.762  27.157  1.00  0.00    -0.458 OA
BRANCH  28  29
ATOM     29  C   UNL A   1      34.256  30.971  27.572  1.00  0.00     0.338 C 
ATOM     30  O   UNL A   1      33.819  32.070  27.345  1.00  0.00    -0.246 OA
BRANCH  29  31
ATOM     31  C   UNL A   1      35.527  30.659  28.282  1.00  0.00     0.060 A 
ATOM     32  C   UNL A   1      36.429  31.663  28.652  1.00  0.00     0.016 A 
ATOM     33  C   UNL A   1      35.904  29.323  28.369  1.00  0.00     0.016 A 
ATOM     34  C   UNL A   1      37.775  31.328  28.903  1.00  0.00     0.010 A 
ATOM     35  C   UNL A   1      37.235  29.008  28.569  1.00  0.00     0.010 A 
ATOM     36  C   UNL A   1      38.206  30.006  28.739  1.00  0.00    -0.014 A 
BRANCH  36  37
ATOM     37  C   UNL A   1      39.599  29.554  28.944  1.00  0.00     0.031 A 
ATOM     38  C   UNL A   1      39.926  29.354  30.368  1.00  0.00     0.074 A 
ATOM     39  C   UNL A   1      40.467  29.027  28.042  1.00  0.00     0.049 A 
ATOM     40  N   UNL A   1      40.788  30.030  31.052  1.00  0.00    -0.248 NA
ATOM     41  C   UNL A   1      39.146  28.381  31.148  1.00  0.00     0.031 C 
ATOM     42  C   UNL A   1      40.377  28.953  26.596  1.00  0.00     0.029 A 
ATOM     43  N   UNL A   1      41.591  28.268  28.266  1.00  0.00    -0.354 N 
ATOM     44  C   UNL A   1      40.791  29.431  32.298  1.00  0.00     0.074 A 
ATOM     45  C   UNL A   1      39.599  28.626  32.375  1.00  0.00     0.031 C 
ATOM     46  C   UNL A   1      41.136  27.957  26.100  1.00  0.00     0.029 A 
ATOM     47  C   UNL A   1      41.953  27.469  27.181  1.00  0.00     0.049 A 
ATOM     48  H   UNL A   1      42.094  28.287  29.113  1.00  0.00     0.167 HD
ATOM     49  C   UNL A   1      41.915  29.352  33.056  1.00  0.00     0.031 A 
ATOM     50  C   UNL A   1      42.907  26.516  27.091  1.00  0.00     0.031 A 
ATOM     51  C   UNL A   1      42.981  30.189  32.570  1.00  0.00     0.049 A 
ATOM     52  C   UNL A   1      43.907  26.824  28.122  1.00  0.00     0.074 A 
ATOM     53  C   UNL A   1      43.105  31.527  32.248  1.00  0.00     0.029 A 
ATOM     54  N   UNL A   1      44.053  29.563  31.980  1.00  0.00    -0.354 N 
ATOM     55  N   UNL A   1      44.700  27.853  28.051  1.00  0.00    -0.248 NA
ATOM     56  C   UNL A   1      43.781  26.216  29.434  1.00  0.00     0.031 C 
ATOM     57  C   UNL A   1      43.980  31.567  31.123  1.00  0.00     0.029 A 
ATOM     58  C   UNL A   1      44.376  30.259  30.842  1.00  0.00     0.049 A 
ATOM     59  H   UNL A   1      44.509  28.758  32.315  1.00  0.00     0.167 HD
ATOM     60  C   UNL A   1      44.770  28.310  29.354  1.00  0.00     0.074 A 
ATOM     61  C   UNL A   1      44.346  27.176  30.170  1.00  0.00     0.031 C 
ATOM     62  C   UNL A   1      44.856  29.647  29.621  1.00  0.00     0.031 A 
BRANCH  49  63
ATOM     63  C   UNL A   1      42.135  28.214  34.009  1.00  0.00    -0.014 A 
ATOM     64  C   UNL A   1      41.745  28.348  35.345  1.00  0.00     0.009 A 
ATOM     65  C   UNL A   1      42.884  27.065  33.672  1.00  0.00     0.009 A 
ATOM     66  C   UNL A   1      42.058  27.361  36.287  1.00  0.00     0.001 A 
ATOM     67  C   UNL A   1      43.145  26.052  34.591  1.00  0.00     0.001 A 
ATOM     68  C   UNL A   1      42.739  26.207  35.906  1.00  0.00     0.000 A 
ENDBRANCH  49  63
BRANCH  50  69
ATOM     69  C   UNL A   1      43.011  25.347  26.197  1.00  0.00    -0.014 A 
ATOM     70  C   UNL A   1      44.092  25.211  25.313  1.00  0.00     0.009 A 
ATOM     71  C   UNL A   1      42.184  24.227  26.402  1.00  0.00     0.009 A 
ATOM     72  C   UNL A   1      44.374  23.982  24.705  1.00  0.00     0.001 A 
ATOM     73  C   UNL A   1      42.466  22.998  25.792  1.00  0.00     0.001 A 
ATOM     74  C   UNL A   1      43.573  22.871  24.961  1.00  0.00     0.000 A 
ENDBRANCH  50  69
BRANCH  62  75
ATOM     75  C   UNL A   1      45.179  30.580  28.470  1.00  0.00    -0.014 A 
ATOM     76  C   UNL A   1      44.225  30.989  27.519  1.00  0.00     0.009 A 
ATOM     77  C   UNL A   1      46.447  31.178  28.425  1.00  0.00     0.009 A 
ATOM     78  C   UNL A   1      44.538  31.938  26.539  1.00  0.00     0.001 A 
ATOM     79  C   UNL A   1      46.755  32.143  27.460  1.00  0.00     0.001 A 
ATOM     80  C   UNL A   1      45.803  32.519  26.513  1.00  0.00     0.000 A 
ENDBRANCH  62  75
ENDBRANCH  36  37
ENDBRANCH  29  31
ENDBRANCH  28  29
ENDBRANCH  27  28
ENDBRANCH   1  27
TORSDOF 16
ENDMDL
MODEL 2
REMARK VINA RESULT:     -11.0      2.545      6.825
REMARK SMILES COc1ccc(-c2ncn(CC(=O)OCCOC(=O)c3ccc(-c4c5nc(c(-c6ccccc6)c6ccc([nH]6)c(-c6ccccc6)c6nc(c(-c7ccccc7)c7ccc4[nH]7)C=C6)C=C5)cc3)c2-c2ccc(OC)cc2)cc1
REMARK SMILES IDX 15 1 14 2 12 3 13 4 11 5 10 6 7 7 8 8 68 9 9 10 6 11 3 12
REMARK SMILES IDX 4 13 78 14 5 15 77 16 2 17 1 18 69 19 70 20 76 21 71 22
REMARK SMILES IDX 75 23 72 24 73 25 74 26 16 27 17 28 18 29 19 30 20 31 21 32
REMARK SMILES IDX 67 33 22 34 66 35 23 36 24 37 25 38 60 39 26 40 65 41 59 42
REMARK SMILES IDX 61 43 27 44 64 45 58 46 57 47 28 49 50 50 35 51 49 52 36 53
REMARK SMILES IDX 39 54 48 55 62 56 37 57 38 58 47 60 63 61 40 62 29 63 30 64
REMARK SMILES IDX 34 65 31 66 33 67 32 68 51 69 52 70 56 71 53 72 55 73 54 74
REMARK SMILES IDX 41 75 42 76 46 77 43 78 45 79 44 80
REMARK H PARENT 61 48 39 59
REMARK Flexibility Score: inf
ROOT
ATOM      1  C   UNL A   1      34.665  23.194  22.998  1.00  0.00     0.274 C 
ENDROOT
BRANCH   1   2
ATOM      2  O   UNL A   1      33.345  23.661  23.282  1.00  0.00    -0.461 OA
BRANCH   2   3
ATOM      3  C   UNL A   1      32.344  22.791  23.003  1.00  0.00     0.326 C 
ATOM      4  O   UNL A   1      32.508  21.701  22.466  1.00  0.00    -0.250 OA
BRANCH   3   5
ATOM      5  C   UNL A   1      31.033  23.259  23.566  1.00  0.00     0.246 C 
BRANCH   5   6
ATOM      6  N   UNL A   1      31.097  24.078  24.768  1.00  0.00    -0.319 N 
ATOM      7  C   UNL A   1      31.772  25.662  26.123  1.00  0.00     0.096 A 
ATOM      8  N   UNL A   1      31.881  24.486  26.816  1.00  0.00    -0.236 NA
ATOM      9  C   UNL A   1      31.227  25.448  24.861  1.00  0.00     0.076 A 
ATOM     10  C   UNL A   1      31.420  23.564  26.000  1.00  0.00     0.201 A 
BRANCH   7  11
ATOM     11  C   UNL A   1      32.256  26.953  26.600  1.00  0.00     0.003 A 
ATOM     12  C   UNL A   1      33.115  29.595  27.080  1.00  0.00     0.118 A 
ATOM     13  C   UNL A   1      31.798  29.222  27.344  1.00  0.00     0.047 A 
ATOM     14  C   UNL A   1      34.018  28.632  26.628  1.00  0.00     0.047 A 
ATOM     15  C   UNL A   1      31.374  27.910  27.121  1.00  0.00     0.014 A 
ATOM     16  C   UNL A   1      33.591  27.317  26.388  1.00  0.00     0.014 A 
BRANCH  12  17
ATOM     17  O   UNL A   1      33.390  30.914  27.315  1.00  0.00    -0.497 OA
ATOM     18  C   UNL A   1      34.747  31.241  27.591  1.00  0.00     0.278 C 
ENDBRANCH  12  17
ENDBRANCH   7  11
BRANCH   9  19
ATOM     19  C   UNL A   1      30.889  26.442  23.853  1.00  0.00     0.001 A 
ATOM     20  C   UNL A   1      29.601  26.987  23.819  1.00  0.00     0.014 A 
ATOM     21  C   UNL A   1      31.902  27.060  23.129  1.00  0.00     0.014 A 
ATOM     22  C   UNL A   1      29.309  28.092  23.027  1.00  0.00     0.047 A 
ATOM     23  C   UNL A   1      31.619  28.208  22.392  1.00  0.00     0.047 A 
ATOM     24  C   UNL A   1      30.315  28.695  22.296  1.00  0.00     0.118 A 
BRANCH  24  25
ATOM     25  O   UNL A   1      30.027  29.870  21.668  1.00  0.00    -0.497 OA
ATOM     26  C   UNL A   1      29.135  30.710  22.400  1.00  0.00     0.278 C 
ENDBRANCH  24  25
ENDBRANCH   9  19
ENDBRANCH   5   6
ENDBRANCH   3   5
ENDBRANCH   2   3
ENDBRANCH   1   2
BRANCH   1  27
ATOM     27  C   UNL A   1      35.399  22.934  24.307  1.00  0.00     0.275 C 
BRANCH  27  28
ATOM     28  O   UNL A   1      36.836  22.795  24.285  1.00  0.00    -0.458 OA
BRANCH  28  29
ATOM     29  C   UNL A   1      37.582  21.815  24.856  1.00  0.00     0.338 C 
ATOM     30  O   UNL A   1      37.603  20.634  24.617  1.00  0.00    -0.246 OA
BRANCH  29  31
ATOM     31  C   UNL A   1      38.300  22.501  25.965  1.00  0.00     0.060 A 
ATOM     32  C   UNL A   1      37.870  23.734  26.469  1.00  0.00     0.016 A 
ATOM     33  C   UNL A   1      39.540  21.995  26.340  1.00  0.00     0.016 A 
ATOM     34  C   UNL A   1      38.778  24.551  27.174  1.00  0.00     0.010 A 
ATOM     35  C   UNL A   1      40.439  22.821  26.989  1.00  0.00     0.010 A 
ATOM     36  C   UNL A   1      40.108  24.142  27.327  1.00  0.00    -0.014 A 
BRANCH  36  37
ATOM     37  C   UNL A   1      41.147  24.934  28.018  1.00  0.00     0.031 A 
ATOM     38  C   UNL A   1      40.716  26.319  28.287  1.00  0.00     0.074 A 
ATOM     39  C   UNL A   1      42.251  24.502  28.681  1.00  0.00     0.049 A 
ATOM     40  N   UNL A   1      41.235  27.388  27.781  1.00  0.00    -0.248 NA
ATOM     41  C   UNL A   1      39.523  26.546  29.115  1.00  0.00     0.031 C 
ATOM     42  C   UNL A   1      42.855  23.185  28.723  1.00  0.00     0.029 A 
ATOM     43  N   UNL A   1      43.002  25.157  29.628  1.00  0.00    -0.354 N 
ATOM     44  C   UNL A   1      40.551  28.427  28.383  1.00  0.00     0.074 A 
ATOM     45  C   UNL A   1      39.363  27.859  28.966  1.00  0.00     0.031 C 
ATOM     46  C   UNL A   1      43.600  23.013  29.832  1.00  0.00     0.029 A 
ATOM     47  C   UNL A   1      43.715  24.300  30.468  1.00  0.00     0.049 A 
ATOM     48  H   UNL A   1      43.034  26.139  29.706  1.00  0.00     0.167 HD
ATOM     49  C   UNL A   1      41.148  29.613  28.666  1.00  0.00     0.031 A 
ATOM     50  C   UNL A   1      44.441  24.582  31.573  1.00  0.00     0.031 A 
ATOM     51  C   UNL A   1      42.428  29.766  28.025  1.00  0.00     0.049 A 
ATOM     52  C   UNL A   1      44.857  25.985  31.455  1.00  0.00     0.074 A 
ATOM     53  C   UNL A   1      42.890  29.667  26.726  1.00  0.00     0.029 A 
ATOM     54  N   UNL A   1      43.544  29.695  28.824  1.00  0.00    -0.354 N 
ATOM     55  N   UNL A   1      45.731  26.392  30.581  1.00  0.00    -0.248 NA
ATOM     56  C   UNL A   1      44.028  27.021  32.045  1.00  0.00     0.031 C 
ATOM     57  C   UNL A   1      44.192  29.095  26.830  1.00  0.00     0.029 A 
ATOM     58  C   UNL A   1      44.472  28.913  28.184  1.00  0.00     0.049 A 
ATOM     59  H   UNL A   1      43.657  30.129  29.700  1.00  0.00     0.167 HD
ATOM     60  C   UNL A   1      45.235  27.611  30.156  1.00  0.00     0.074 A 
ATOM     61  C   UNL A   1      44.308  28.022  31.207  1.00  0.00     0.031 C 
ATOM     62  C   UNL A   1      45.382  28.010  28.859  1.00  0.00     0.031 A 
BRANCH  49  63
ATOM     63  C   UNL A   1      40.711  30.448  29.834  1.00  0.00    -0.014 A 
ATOM     64  C   UNL A   1      41.187  30.146  31.114  1.00  0.00     0.009 A 
ATOM     65  C   UNL A   1      39.696  31.426  29.741  1.00  0.00     0.009 A 
ATOM     66  C   UNL A   1      40.695  30.817  32.240  1.00  0.00     0.001 A 
ATOM     67  C   UNL A   1      39.248  32.139  30.851  1.00  0.00     0.001 A 
ATOM     68  C   UNL A   1      39.743  31.825  32.105  1.00  0.00     0.000 A 
ENDBRANCH  49  63
BRANCH  50  69
ATOM     69  C   UNL A   1      44.784  23.737  32.732  1.00  0.00    -0.014 A 
ATOM     70  C   UNL A   1      46.005  23.900  33.405  1.00  0.00     0.009 A 
ATOM     71  C   UNL A   1      43.794  22.948  33.348  1.00  0.00     0.009 A 
ATOM     72  C   UNL A   1      46.205  23.347  34.675  1.00  0.00     0.001 A 
ATOM     73  C   UNL A   1      43.997  22.394  34.617  1.00  0.00     0.001 A 
ATOM     74  C   UNL A   1      45.195  22.612  35.290  1.00  0.00     0.000 A 
ENDBRANCH  50  69
BRANCH  62  75
ATOM     75  C   UNL A   1      46.353  27.239  27.985  1.00  0.00    -0.014 A 
ATOM     76  C   UNL A   1      47.694  27.625  27.798  1.00  0.00     0.009 A 
ATOM     77  C   UNL A   1      45.944  26.010  27.448  1.00  0.00     0.009 A 
ATOM     78  C   UNL A   1      48.584  26.825  27.072  1.00  0.00     0.001 A 
ATOM     79  C   UNL A   1      46.838  25.198  26.741  1.00  0.00     0.001 A 
ATOM     80  C   UNL A   1      48.156  25.608  26.548  1.00  0.00     0.000 A 
ENDBRANCH  62  75
ENDBRANCH  36  37
ENDBRANCH  29  31
ENDBRANCH  28  29
ENDBRANCH  27  28
ENDBRANCH   1  27
TORSDOF 16
ENDMDL
MODEL 3
REMARK VINA RESULT:     -10.3      2.784      4.939
REMARK SMILES COc1ccc(-c2ncn(CC(=O)OCCOC(=O)c3ccc(-c4c5nc(c(-c6ccccc6)c6ccc([nH]6)c(-c6ccccc6)c6nc(c(-c7ccccc7)c7ccc4[nH]7)C=C6)C=C5)cc3)c2-c2ccc(OC)cc2)cc1
REMARK SMILES IDX 15 1 14 2 12 3 13 4 11 5 10 6 7 7 8 8 68 9 9 10 6 11 3 12
REMARK SMILES IDX 4 13 78 14 5 15 77 16 2 17 1 18 69 19 70 20 76 21 71 22
REMARK SMILES IDX 75 23 72 24 73 25 74 26 16 27 17 28 18 29 19 30 20 31 21 32
REMARK SMILES IDX 67 33 22 34 66 35 23 36 24 37 25 38 60 39 26 40 65 41 59 42
REMARK SMILES IDX 61 43 27 44 64 45 58 46 57 47 28 49 50 50 35 51 49 52 36 53
REMARK SMILES IDX 39 54 48 55 62 56 37 57 38 58 47 60 63 61 40 62 29 63 30 64
REMARK SMILES IDX 34 65 31 66 33 67 32 68 51 69 52 70 56 71 53 72 55 73 54 74
REMARK SMILES IDX 41 75 42 76 46 77 43 78 45 79 44 80
REMARK H PARENT 61 48 39 59
REMARK Flexibility Score: inf
ROOT
ATOM      1  C   UNL A   1      33.211  29.617  25.307  1.00  0.00     0.274 C 
ENDROOT
BRANCH   1   2
ATOM      2  O   UNL A   1      33.584  28.350  24.762  1.00  0.00    -0.461 OA
BRANCH   2   3
ATOM      3  C   UNL A   1      33.186  28.122  23.486  1.00  0.00     0.326 C 
ATOM      4  O   UNL A   1      32.665  28.964  22.765  1.00  0.00    -0.250 OA
BRANCH   3   5
ATOM      5  C   UNL A   1      33.598  26.756  23.017  1.00  0.00     0.246 C 
BRANCH   5   6
ATOM      6  N   UNL A   1      32.774  25.639  23.459  1.00  0.00    -0.319 N 
ATOM      7  C   UNL A   1      32.045  23.579  23.613  1.00  0.00     0.096 A 
ATOM      8  N   UNL A   1      30.966  24.348  23.266  1.00  0.00    -0.236 NA
ATOM      9  C   UNL A   1      33.178  24.366  23.801  1.00  0.00     0.076 A 
ATOM     10  C   UNL A   1      31.420  25.581  23.234  1.00  0.00     0.201 A 
BRANCH   7  11
ATOM     11  C   UNL A   1      32.039  22.121  23.677  1.00  0.00     0.003 A 
ATOM     12  C   UNL A   1      32.491  19.339  23.737  1.00  0.00     0.118 A 
ATOM     13  C   UNL A   1      32.448  20.073  24.922  1.00  0.00     0.047 A 
ATOM     14  C   UNL A   1      32.251  19.988  22.525  1.00  0.00     0.047 A 
ATOM     15  C   UNL A   1      32.210  21.449  24.895  1.00  0.00     0.014 A 
ATOM     16  C   UNL A   1      32.026  21.373  22.495  1.00  0.00     0.014 A 
BRANCH  12  17
ATOM     17  O   UNL A   1      32.761  18.009  23.902  1.00  0.00    -0.497 OA
ATOM     18  C   UNL A   1      33.991  17.683  24.539  1.00  0.00     0.278 C 
ENDBRANCH  12  17
ENDBRANCH   7  11
BRANCH   9  19
ATOM     19  C   UNL A   1      34.498  23.940  24.239  1.00  0.00     0.001 A 
ATOM     20  C   UNL A   1      34.817  23.955  25.601  1.00  0.00     0.014 A 
ATOM     21  C   UNL A   1      35.326  23.250  23.361  1.00  0.00     0.014 A 
ATOM     22  C   UNL A   1      35.975  23.348  26.075  1.00  0.00     0.047 A 
ATOM     23  C   UNL A   1      36.447  22.585  23.851  1.00  0.00     0.047 A 
ATOM     24  C   UNL A   1      36.803  22.676  25.197  1.00  0.00     0.118 A 
BRANCH  24  25
ATOM     25  O   UNL A   1      37.834  21.954  25.723  1.00  0.00    -0.497 OA
ATOM     26  C   UNL A   1      38.913  22.757  26.201  1.00  0.00     0.278 C 
ENDBRANCH  24  25
ENDBRANCH   9  19
ENDBRANCH   5   6
ENDBRANCH   3   5
ENDBRANCH   2   3
ENDBRANCH   1   2
BRANCH   1  27
ATOM     27  C   UNL A   1      33.201  29.528  26.827  1.00  0.00     0.275 C 
BRANCH  27  28
ATOM     28  O   UNL A   1      34.406  29.855  27.552  1.00  0.00    -0.458 OA
BRANCH  28  29
ATOM     29  C   UNL A   1      34.939  31.086  27.760  1.00  0.00     0.338 C 
ATOM     30  O   UNL A   1      34.564  32.158  27.360  1.00  0.00    -0.246 OA
BRANCH  29  31
ATOM     31  C   UNL A   1      36.201  30.817  28.503  1.00  0.00     0.060 A 
ATOM     32  C   UNL A   1      36.421  29.604  29.166  1.00  0.00     0.016 A 
ATOM     33  C   UNL A   1      37.065  31.887  28.713  1.00  0.00     0.016 A 
ATOM     34  C   UNL A   1      37.380  29.540  30.197  1.00  0.00     0.010 A 
ATOM     35  C   UNL A   1      37.970  31.831  29.757  1.00  0.00     0.010 A 
ATOM     36  C   UNL A   1      38.072  30.697  30.577  1.00  0.00    -0.014 A 
BRANCH  36  37
ATOM     37  C   UNL A   1      39.072  30.747  31.664  1.00  0.00     0.031 A 
ATOM     38  C   UNL A   1      38.639  31.591  32.794  1.00  0.00     0.074 A 
ATOM     39  C   UNL A   1      40.128  29.923  31.892  1.00  0.00     0.049 A 
ATOM     40  N   UNL A   1      39.198  32.688  33.181  1.00  0.00    -0.248 NA
ATOM     41  C   UNL A   1      37.397  31.248  33.504  1.00  0.00     0.031 C 
ATOM     42  C   UNL A   1      40.716  28.906  31.042  1.00  0.00     0.029 A 
ATOM     43  N   UNL A   1      40.823  29.712  33.059  1.00  0.00    -0.354 N 
ATOM     44  C   UNL A   1      38.487  33.065  34.305  1.00  0.00     0.074 A 
ATOM     45  C   UNL A   1      37.259  32.313  34.290  1.00  0.00     0.031 C 
ATOM     46  C   UNL A   1      41.387  27.984  31.758  1.00  0.00     0.029 A 
ATOM     47  C   UNL A   1      41.474  28.478  33.108  1.00  0.00     0.049 A 
ATOM     48  H   UNL A   1      40.859  30.371  33.791  1.00  0.00     0.167 HD
ATOM     49  C   UNL A   1      39.076  33.703  35.348  1.00  0.00     0.031 A 
ATOM     50  C   UNL A   1      42.131  27.889  34.132  1.00  0.00     0.031 A 
ATOM     51  C   UNL A   1      40.395  34.189  35.039  1.00  0.00     0.049 A 
ATOM     52  C   UNL A   1      42.567  28.969  35.027  1.00  0.00     0.074 A 
ATOM     53  C   UNL A   1      40.938  34.983  34.047  1.00  0.00     0.029 A 
ATOM     54  N   UNL A   1      41.458  33.533  35.614  1.00  0.00    -0.354 N 
ATOM     55  N   UNL A   1      43.499  29.819  34.707  1.00  0.00    -0.248 NA
ATOM     56  C   UNL A   1      41.712  29.359  36.134  1.00  0.00     0.031 C 
ATOM     57  C   UNL A   1      42.225  34.430  33.781  1.00  0.00     0.029 A 
ATOM     58  C   UNL A   1      42.418  33.356  34.649  1.00  0.00     0.049 A 
ATOM     59  H   UNL A   1      41.520  33.242  36.552  1.00  0.00     0.167 HD
ATOM     60  C   UNL A   1      43.042  31.021  35.217  1.00  0.00     0.074 A 
ATOM     61  C   UNL A   1      42.054  30.647  36.225  1.00  0.00     0.031 C 
ATOM     62  C   UNL A   1      43.274  32.192  34.555  1.00  0.00     0.031 A 
BRANCH  49  63
ATOM     63  C   UNL A   1      38.574  33.531  36.752  1.00  0.00    -0.014 A 
ATOM     64  C   UNL A   1      38.837  34.520  37.705  1.00  0.00     0.009 A 
ATOM     65  C   UNL A   1      37.994  32.329  37.218  1.00  0.00     0.009 A 
ATOM     66  C   UNL A   1      38.501  34.328  39.050  1.00  0.00     0.001 A 
ATOM     67  C   UNL A   1      37.603  32.158  38.544  1.00  0.00     0.001 A 
ATOM     68  C   UNL A   1      37.867  33.159  39.464  1.00  0.00     0.000 A 
ENDBRANCH  49  63
BRANCH  50  69
ATOM     69  C   UNL A   1      42.392  26.464  34.407  1.00  0.00    -0.014 A 
ATOM     70  C   UNL A   1      43.616  25.876  34.055  1.00  0.00     0.009 A 
ATOM     71  C   UNL A   1      41.537  25.742  35.261  1.00  0.00     0.009 A 
ATOM     72  C   UNL A   1      44.000  24.640  34.588  1.00  0.00     0.001 A 
ATOM     73  C   UNL A   1      41.921  24.505  35.792  1.00  0.00     0.001 A 
ATOM     74  C   UNL A   1      43.162  23.964  35.472  1.00  0.00     0.000 A 
ENDBRANCH  50  69
BRANCH  62  75
ATOM     75  C   UNL A   1      44.291  32.182  33.430  1.00  0.00    -0.014 A 
ATOM     76  C   UNL A   1      45.664  32.420  33.631  1.00  0.00     0.009 A 
ATOM     77  C   UNL A   1      43.876  31.781  32.152  1.00  0.00     0.009 A 
ATOM     78  C   UNL A   1      46.583  32.293  32.583  1.00  0.00     0.001 A 
ATOM     79  C   UNL A   1      44.796  31.631  31.109  1.00  0.00     0.001 A 
ATOM     80  C   UNL A   1      46.149  31.892  31.322  1.00  0.00     0.000 A 
ENDBRANCH  62  75
ENDBRANCH  36  37
ENDBRANCH  29  31
ENDBRANCH  28  29
ENDBRANCH  27  28
ENDBRANCH   1  27
TORSDOF 16
ENDMDL
