MODEL 1
REMARK VINA RESULT:     -12.1      0.000      0.000
REMARK SMILES Cc1ccc(NC(=O)C[C@H]2SC[C@H](C(=O)OCCOC(=O)c3ccc(-c4c5nc(c(-c6ccccc6)c6ccc([nH]6)c(-c6ccccc6)c6nc(c(-c7ccccc7)c7ccc4[nH]7)C=C6)C=C5)cc3)NC2=O)cc1
REMARK SMILES IDX 17 1 16 2 14 3 15 4 13 5 10 6 11 7 71 8 12 9 70 10 72 11
REMARK SMILES IDX 9 13 7 14 6 15 8 17 5 18 1 19 2 20 3 21 74 22 4 23 73 24
REMARK SMILES IDX 18 25 19 26 20 27 21 28 22 29 23 30 69 31 24 32 68 33 25 34
REMARK SMILES IDX 26 35 27 36 62 37 28 38 67 39 61 40 63 41 29 42 66 43 60 44
REMARK SMILES IDX 59 45 30 47 52 48 37 49 51 50 38 51 41 52 50 53 64 54 39 55
REMARK SMILES IDX 40 56 49 58 65 59 42 60 31 61 32 62 36 63 33 64 35 65 34 66
REMARK SMILES IDX 53 67 54 68 58 69 55 70 57 71 56 72 43 73 44 74 48 75 45 76
REMARK SMILES IDX 47 77 46 78
REMARK H PARENT 70 12 6 16 63 46 41 57
REMARK Flexibility Score: inf
ROOT
ATOM      1  C   UNL A   1      38.113  19.602  24.664  1.00  0.00     0.274 C 
ENDROOT
BRANCH   1   2
ATOM      2  O   UNL A   1      36.843  20.043  25.145  1.00  0.00    -0.461 OA
BRANCH   2   3
ATOM      3  C   UNL A   1      36.476  21.282  24.704  1.00  0.00     0.329 C 
ATOM      4  O   UNL A   1      37.102  21.952  23.911  1.00  0.00    -0.250 OA
BRANCH   3   5
ATOM      5  C   UNL A   1      35.150  21.680  25.351  1.00  0.00     0.202 C 
ATOM      6  C   UNL A   1      32.357  22.726  24.917  1.00  0.00     0.145 C 
ATOM      7  S   UNL A   1      33.444  23.727  26.016  1.00  0.00    -0.145 SA
ATOM      8  C   UNL A   1      32.721  21.240  25.014  1.00  0.00     0.234 C 
ATOM      9  C   UNL A   1      35.030  23.193  25.307  1.00  0.00     0.107 C 
ATOM     10  N   UNL A   1      34.037  20.933  24.760  1.00  0.00    -0.341 N 
ATOM     11  O   UNL A   1      31.932  20.318  25.179  1.00  0.00    -0.274 OA
ATOM     12  H   UNL A   1      34.240  20.181  24.157  1.00  0.00     0.164 HD
BRANCH   6  13
ATOM     13  C   UNL A   1      30.899  23.134  25.109  1.00  0.00     0.124 C 
BRANCH  13  14
ATOM     14  C   UNL A   1      30.502  23.883  26.364  1.00  0.00     0.226 C 
ATOM     15  N   UNL A   1      30.204  25.207  26.403  1.00  0.00    -0.326 N 
ATOM     16  H   UNL A   1      29.871  25.499  27.281  1.00  0.00     0.169 HD
ATOM     17  O   UNL A   1      30.450  23.266  27.435  1.00  0.00    -0.275 OA
BRANCH  15  18
ATOM     18  C   UNL A   1      30.267  26.247  25.469  1.00  0.00     0.041 A 
ATOM     19  C   UNL A   1      30.252  29.284  22.407  1.00  0.00     0.044 C 
ATOM     20  C   UNL A   1      30.242  28.232  23.472  1.00  0.00    -0.051 A 
ATOM     21  C   UNL A   1      31.234  28.223  24.460  1.00  0.00     0.005 A 
ATOM     22  C   UNL A   1      29.251  27.248  23.499  1.00  0.00     0.005 A 
ATOM     23  C   UNL A   1      31.233  27.248  25.464  1.00  0.00     0.026 A 
ATOM     24  C   UNL A   1      29.258  26.274  24.499  1.00  0.00     0.026 A 
ENDBRANCH  15  18
ENDBRANCH  13  14
ENDBRANCH   6  13
ENDBRANCH   3   5
ENDBRANCH   2   3
ENDBRANCH   1   2
BRANCH   1  25
ATOM     25  C   UNL A   1      39.144  19.624  25.799  1.00  0.00     0.275 C 
BRANCH  25  26
ATOM     26  O   UNL A   1      40.512  19.162  25.576  1.00  0.00    -0.458 OA
BRANCH  26  27
ATOM     27  C   UNL A   1      41.641  19.714  26.085  1.00  0.00     0.338 C 
ATOM     28  O   UNL A   1      42.710  19.124  26.126  1.00  0.00    -0.246 OA
BRANCH  27  29
ATOM     29  C   UNL A   1      41.487  21.072  26.649  1.00  0.00     0.060 A 
ATOM     30  C   UNL A   1      41.235  21.233  28.023  1.00  0.00     0.016 A 
ATOM     31  C   UNL A   1      41.702  22.178  25.837  1.00  0.00     0.016 A 
ATOM     32  C   UNL A   1      41.371  22.492  28.615  1.00  0.00     0.010 A 
ATOM     33  C   UNL A   1      41.906  23.403  26.431  1.00  0.00     0.010 A 
ATOM     34  C   UNL A   1      41.775  23.563  27.821  1.00  0.00    -0.014 A 
BRANCH  34  35
ATOM     35  C   UNL A   1      41.932  24.939  28.282  1.00  0.00     0.031 A 
ATOM     36  C   UNL A   1      40.853  25.950  28.307  1.00  0.00     0.074 A 
ATOM     37  C   UNL A   1      43.130  25.196  28.848  1.00  0.00     0.049 A 
ATOM     38  N   UNL A   1      41.062  27.211  28.499  1.00  0.00    -0.248 NA
ATOM     39  C   UNL A   1      39.445  25.645  28.086  1.00  0.00     0.031 C 
ATOM     40  C   UNL A   1      43.527  26.288  29.718  1.00  0.00     0.029 A 
ATOM     41  N   UNL A   1      44.329  24.555  28.528  1.00  0.00    -0.354 N 
ATOM     42  C   UNL A   1      39.844  27.819  28.713  1.00  0.00     0.074 A 
ATOM     43  C   UNL A   1      38.865  26.823  28.348  1.00  0.00     0.031 C 
ATOM     44  C   UNL A   1      44.863  26.425  29.629  1.00  0.00     0.029 A 
ATOM     45  C   UNL A   1      45.299  25.558  28.539  1.00  0.00     0.049 A 
ATOM     46  H   UNL A   1      44.462  23.598  28.336  1.00  0.00     0.167 HD
ATOM     47  C   UNL A   1      39.809  29.050  29.299  1.00  0.00     0.031 A 
ATOM     48  C   UNL A   1      45.915  25.978  27.393  1.00  0.00     0.031 A 
ATOM     49  C   UNL A   1      41.154  29.579  29.507  1.00  0.00     0.049 A 
ATOM     50  C   UNL A   1      45.778  27.467  27.168  1.00  0.00     0.074 A 
ATOM     51  C   UNL A   1      41.983  29.667  30.613  1.00  0.00     0.029 A 
ATOM     52  N   UNL A   1      41.938  29.862  28.403  1.00  0.00    -0.354 N 
ATOM     53  N   UNL A   1      44.836  28.202  27.692  1.00  0.00    -0.248 NA
ATOM     54  C   UNL A   1      46.637  28.221  26.262  1.00  0.00     0.031 C 
ATOM     55  C   UNL A   1      43.286  30.004  30.155  1.00  0.00     0.029 A 
ATOM     56  C   UNL A   1      43.234  30.139  28.780  1.00  0.00     0.049 A 
ATOM     57  H   UNL A   1      41.613  29.866  27.473  1.00  0.00     0.167 HD
ATOM     58  C   UNL A   1      44.994  29.498  27.285  1.00  0.00     0.074 A 
ATOM     59  C   UNL A   1      46.094  29.448  26.339  1.00  0.00     0.031 C 
ATOM     60  C   UNL A   1      44.205  30.503  27.763  1.00  0.00     0.031 A 
BRANCH  47  61
ATOM     61  C   UNL A   1      38.589  29.725  29.887  1.00  0.00    -0.014 A 
ATOM     62  C   UNL A   1      38.245  31.026  29.461  1.00  0.00     0.009 A 
ATOM     63  C   UNL A   1      37.753  29.169  30.866  1.00  0.00     0.009 A 
ATOM     64  C   UNL A   1      37.177  31.744  30.020  1.00  0.00     0.001 A 
ATOM     65  C   UNL A   1      36.686  29.882  31.436  1.00  0.00     0.001 A 
ATOM     66  C   UNL A   1      36.405  31.175  31.021  1.00  0.00     0.000 A 
ENDBRANCH  47  61
BRANCH  48  67
ATOM     67  C   UNL A   1      45.914  24.989  26.269  1.00  0.00    -0.014 A 
ATOM     68  C   UNL A   1      46.633  23.783  26.402  1.00  0.00     0.009 A 
ATOM     69  C   UNL A   1      44.968  25.087  25.236  1.00  0.00     0.009 A 
ATOM     70  C   UNL A   1      46.351  22.685  25.583  1.00  0.00     0.001 A 
ATOM     71  C   UNL A   1      44.704  23.991  24.404  1.00  0.00     0.001 A 
ATOM     72  C   UNL A   1      45.377  22.785  24.594  1.00  0.00     0.000 A 
ENDBRANCH  48  67
BRANCH  60  73
ATOM     73  C   UNL A   1      44.263  31.939  27.325  1.00  0.00    -0.014 A 
ATOM     74  C   UNL A   1      44.386  33.020  28.204  1.00  0.00     0.009 A 
ATOM     75  C   UNL A   1      44.091  32.244  25.956  1.00  0.00     0.009 A 
ATOM     76  C   UNL A   1      44.418  34.337  27.727  1.00  0.00     0.001 A 
ATOM     77  C   UNL A   1      44.094  33.554  25.480  1.00  0.00     0.001 A 
ATOM     78  C   UNL A   1      44.276  34.604  26.367  1.00  0.00     0.000 A 
ENDBRANCH  60  73
ENDBRANCH  34  35
ENDBRANCH  27  29
ENDBRANCH  26  27
ENDBRANCH  25  26
ENDBRANCH   1  25
TORSDOF 14
ENDMDL
MODEL 2
REMARK VINA RESULT:     -11.9      3.410      8.604
REMARK SMILES Cc1ccc(NC(=O)C[C@H]2SC[C@H](C(=O)OCCOC(=O)c3ccc(-c4c5nc(c(-c6ccccc6)c6ccc([nH]6)c(-c6ccccc6)c6nc(c(-c7ccccc7)c7ccc4[nH]7)C=C6)C=C5)cc3)NC2=O)cc1
REMARK SMILES IDX 17 1 16 2 14 3 15 4 13 5 10 6 11 7 71 8 12 9 70 10 72 11
REMARK SMILES IDX 9 13 7 14 6 15 8 17 5 18 1 19 2 20 3 21 74 22 4 23 73 24
REMARK SMILES IDX 18 25 19 26 20 27 21 28 22 29 23 30 69 31 24 32 68 33 25 34
REMARK SMILES IDX 26 35 27 36 62 37 28 38 67 39 61 40 63 41 29 42 66 43 60 44
REMARK SMILES IDX 59 45 30 47 52 48 37 49 51 50 38 51 41 52 50 53 64 54 39 55
REMARK SMILES IDX 40 56 49 58 65 59 42 60 31 61 32 62 36 63 33 64 35 65 34 66
REMARK SMILES IDX 53 67 54 68 58 69 55 70 57 71 56 72 43 73 44 74 48 75 45 76
REMARK SMILES IDX 47 77 46 78
REMARK H PARENT 70 12 6 16 63 46 41 57
REMARK Flexibility Score: inf
ROOT
ATOM      1  C   UNL A   1      32.801  29.817  25.114  1.00  0.00     0.274 C 
ENDROOT
BRANCH   1   2
ATOM      2  O   UNL A   1      31.494  29.286  24.894  1.00  0.00    -0.461 OA
BRANCH   2   3
ATOM      3  C   UNL A   1      31.311  28.742  23.655  1.00  0.00     0.329 C 
ATOM      4  O   UNL A   1      31.587  29.288  22.608  1.00  0.00    -0.250 OA
BRANCH   3   5
ATOM      5  C   UNL A   1      30.722  27.339  23.798  1.00  0.00     0.202 C 
ATOM      6  C   UNL A   1      31.057  24.582  24.967  1.00  0.00     0.145 C 
ATOM      7  S   UNL A   1      30.931  24.683  23.132  1.00  0.00    -0.145 SA
ATOM      8  C   UNL A   1      30.250  25.708  25.621  1.00  0.00     0.234 C 
ATOM      9  C   UNL A   1      31.552  26.382  22.960  1.00  0.00     0.107 C 
ATOM     10  N   UNL A   1      30.566  26.981  25.210  1.00  0.00    -0.341 N 
ATOM     11  O   UNL A   1      29.450  25.577  26.540  1.00  0.00    -0.274 OA
ATOM     12  H   UNL A   1      30.692  27.681  25.891  1.00  0.00     0.164 HD
BRANCH   6  13
ATOM     13  C   UNL A   1      30.816  23.147  25.430  1.00  0.00     0.124 C 
BRANCH  13  14
ATOM     14  C   UNL A   1      31.155  22.766  26.855  1.00  0.00     0.226 C 
ATOM     15  N   UNL A   1      32.379  22.345  27.265  1.00  0.00    -0.326 N 
ATOM     16  H   UNL A   1      32.441  22.239  28.241  1.00  0.00     0.169 HD
ATOM     17  O   UNL A   1      30.267  22.825  27.715  1.00  0.00    -0.275 OA
BRANCH  15  18
ATOM     18  C   UNL A   1      33.572  22.030  26.604  1.00  0.00     0.041 A 
ATOM     19  C   UNL A   1      37.339  21.369  24.612  1.00  0.00     0.044 C 
ATOM     20  C   UNL A   1      36.039  21.603  25.317  1.00  0.00    -0.051 A 
ATOM     21  C   UNL A   1      34.997  20.676  25.194  1.00  0.00     0.005 A 
ATOM     22  C   UNL A   1      35.843  22.741  26.102  1.00  0.00     0.005 A 
ATOM     23  C   UNL A   1      33.779  20.879  25.851  1.00  0.00     0.026 A 
ATOM     24  C   UNL A   1      34.624  22.942  26.751  1.00  0.00     0.026 A 
ENDBRANCH  15  18
ENDBRANCH  13  14
ENDBRANCH   6  13
ENDBRANCH   3   5
ENDBRANCH   2   3
ENDBRANCH   1   2
BRANCH   1  25
ATOM     25  C   UNL A   1      33.077  29.936  26.617  1.00  0.00     0.275 C 
BRANCH  25  26
ATOM     26  O   UNL A   1      34.412  29.685  27.156  1.00  0.00    -0.458 OA
BRANCH  26  27
ATOM     27  C   UNL A   1      35.202  30.579  27.800  1.00  0.00     0.338 C 
ATOM     28  O   UNL A   1      34.874  31.740  27.988  1.00  0.00    -0.246 OA
BRANCH  27  29
ATOM     29  C   UNL A   1      36.527  30.073  28.216  1.00  0.00     0.060 A 
ATOM     30  C   UNL A   1      36.681  29.478  29.481  1.00  0.00     0.016 A 
ATOM     31  C   UNL A   1      37.581  30.092  27.312  1.00  0.00     0.016 A 
ATOM     32  C   UNL A   1      37.837  28.748  29.773  1.00  0.00     0.010 A 
ATOM     33  C   UNL A   1      38.687  29.314  27.572  1.00  0.00     0.010 A 
ATOM     34  C   UNL A   1      38.810  28.614  28.784  1.00  0.00    -0.014 A 
BRANCH  34  35
ATOM     35  C   UNL A   1      40.080  27.912  28.944  1.00  0.00     0.031 A 
ATOM     36  C   UNL A   1      40.313  26.496  28.587  1.00  0.00     0.074 A 
ATOM     37  C   UNL A   1      41.107  28.708  29.308  1.00  0.00     0.049 A 
ATOM     38  N   UNL A   1      41.364  25.835  28.944  1.00  0.00    -0.248 NA
ATOM     39  C   UNL A   1      39.374  25.682  27.826  1.00  0.00     0.031 C 
ATOM     40  C   UNL A   1      42.537  28.474  29.220  1.00  0.00     0.029 A 
ATOM     41  N   UNL A   1      40.993  29.876  30.067  1.00  0.00    -0.354 N 
ATOM     42  C   UNL A   1      41.383  24.649  28.243  1.00  0.00     0.074 A 
ATOM     43  C   UNL A   1      40.076  24.557  27.638  1.00  0.00     0.031 C 
ATOM     44  C   UNL A   1      43.144  29.269  30.120  1.00  0.00     0.029 A 
ATOM     45  C   UNL A   1      42.087  29.860  30.934  1.00  0.00     0.049 A 
ATOM     46  H   UNL A   1      40.291  30.565  30.004  1.00  0.00     0.167 HD
ATOM     47  C   UNL A   1      42.549  23.948  28.153  1.00  0.00     0.031 A 
ATOM     48  C   UNL A   1      41.936  29.686  32.282  1.00  0.00     0.031 A 
ATOM     49  C   UNL A   1      43.604  24.563  28.953  1.00  0.00     0.049 A 
ATOM     50  C   UNL A   1      42.740  28.520  32.813  1.00  0.00     0.074 A 
ATOM     51  C   UNL A   1      44.687  25.368  28.645  1.00  0.00     0.029 A 
ATOM     52  N   UNL A   1      43.458  24.607  30.328  1.00  0.00    -0.354 N 
ATOM     53  N   UNL A   1      43.149  27.520  32.083  1.00  0.00    -0.248 NA
ATOM     54  C   UNL A   1      43.062  28.350  34.226  1.00  0.00     0.031 C 
ATOM     55  C   UNL A   1      45.191  25.906  29.861  1.00  0.00     0.029 A 
ATOM     56  C   UNL A   1      44.426  25.406  30.898  1.00  0.00     0.049 A 
ATOM     57  H   UNL A   1      42.758  24.132  30.832  1.00  0.00     0.167 HD
ATOM     58  C   UNL A   1      43.838  26.638  32.868  1.00  0.00     0.074 A 
ATOM     59  C   UNL A   1      43.701  27.168  34.213  1.00  0.00     0.031 C 
ATOM     60  C   UNL A   1      44.466  25.547  32.343  1.00  0.00     0.031 A 
BRANCH  47  61
ATOM     61  C   UNL A   1      42.838  22.815  27.191  1.00  0.00    -0.014 A 
ATOM     62  C   UNL A   1      42.182  21.578  27.362  1.00  0.00     0.009 A 
ATOM     63  C   UNL A   1      43.746  22.876  26.124  1.00  0.00     0.009 A 
ATOM     64  C   UNL A   1      42.460  20.460  26.561  1.00  0.00     0.001 A 
ATOM     65  C   UNL A   1      44.037  21.760  25.320  1.00  0.00     0.001 A 
ATOM     66  C   UNL A   1      43.401  20.549  25.546  1.00  0.00     0.000 A 
ENDBRANCH  47  61
BRANCH  48  67
ATOM     67  C   UNL A   1      40.590  30.052  32.826  1.00  0.00    -0.014 A 
ATOM     68  C   UNL A   1      40.176  31.400  32.810  1.00  0.00     0.009 A 
ATOM     69  C   UNL A   1      39.619  29.063  33.048  1.00  0.00     0.009 A 
ATOM     70  C   UNL A   1      38.824  31.738  32.926  1.00  0.00     0.001 A 
ATOM     71  C   UNL A   1      38.268  29.407  33.186  1.00  0.00     0.001 A 
ATOM     72  C   UNL A   1      37.869  30.740  33.100  1.00  0.00     0.000 A 
ENDBRANCH  48  67
BRANCH  60  73
ATOM     73  C   UNL A   1      45.189  24.494  33.134  1.00  0.00    -0.014 A 
ATOM     74  C   UNL A   1      44.629  23.263  33.492  1.00  0.00     0.009 A 
ATOM     75  C   UNL A   1      46.479  24.780  33.636  1.00  0.00     0.009 A 
ATOM     76  C   UNL A   1      45.357  22.332  34.246  1.00  0.00     0.001 A 
ATOM     77  C   UNL A   1      47.195  23.869  34.410  1.00  0.00     0.001 A 
ATOM     78  C   UNL A   1      46.639  22.633  34.701  1.00  0.00     0.000 A 
ENDBRANCH  60  73
ENDBRANCH  34  35
ENDBRANCH  27  29
ENDBRANCH  26  27
ENDBRANCH  25  26
ENDBRANCH   1  25
TORSDOF 14
ENDMDL
MODEL 3
REMARK VINA RESULT:     -11.8      3.895      9.819
REMARK SMILES Cc1ccc(NC(=O)C[C@H]2SC[C@H](C(=O)OCCOC(=O)c3ccc(-c4c5nc(c(-c6ccccc6)c6ccc([nH]6)c(-c6ccccc6)c6nc(c(-c7ccccc7)c7ccc4[nH]7)C=C6)C=C5)cc3)NC2=O)cc1
REMARK SMILES IDX 17 1 16 2 14 3 15 4 13 5 10 6 11 7 71 8 12 9 70 10 72 11
REMARK SMILES IDX 9 13 7 14 6 15 8 17 5 18 1 19 2 20 3 21 74 22 4 23 73 24
REMARK SMILES IDX 18 25 19 26 20 27 21 28 22 29 23 30 69 31 24 32 68 33 25 34
REMARK SMILES IDX 26 35 27 36 62 37 28 38 67 39 61 40 63 41 29 42 66 43 60 44
REMARK SMILES IDX 59 45 30 47 52 48 37 49 51 50 38 51 41 52 50 53 64 54 39 55
REMARK SMILES IDX 40 56 49 58 65 59 42 60 31 61 32 62 36 63 33 64 35 65 34 66
REMARK SMILES IDX 53 67 54 68 58 69 55 70 57 71 56 72 43 73 44 74 48 75 45 76
REMARK SMILES IDX 47 77 46 78
REMARK H PARENT 70 12 6 16 63 46 41 57
REMARK Flexibility Score: inf
ROOT
ATOM      1  C   UNL A   1      31.538  31.488  26.106  1.00  0.00     0.274 C 
ENDROOT
BRANCH   1   2
ATOM      2  O   UNL A   1      31.695  30.149  26.576  1.00  0.00    -0.461 OA
BRANCH   2   3
ATOM      3  C   UNL A   1      32.892  29.578  26.253  1.00  0.00     0.329 C 
ATOM      4  O   UNL A   1      33.979  30.078  26.456  1.00  0.00    -0.250 OA
BRANCH   3   5
ATOM      5  C   UNL A   1      32.649  28.211  25.616  1.00  0.00     0.202 C 
ATOM      6  C   UNL A   1      31.384  25.492  25.911  1.00  0.00     0.145 C 
ATOM      7  S   UNL A   1      33.209  25.522  25.665  1.00  0.00    -0.145 SA
ATOM      8  C   UNL A   1      30.728  26.680  25.200  1.00  0.00     0.234 C 
ATOM      9  C   UNL A   1      33.497  27.183  26.345  1.00  0.00     0.107 C 
ATOM     10  N   UNL A   1      31.215  27.919  25.541  1.00  0.00    -0.341 N 
ATOM     11  O   UNL A   1      29.753  26.623  24.460  1.00  0.00    -0.274 OA
ATOM     12  H   UNL A   1      30.575  28.640  25.744  1.00  0.00     0.164 HD
BRANCH   6  13
ATOM     13  C   UNL A   1      30.843  24.090  25.642  1.00  0.00     0.124 C 
BRANCH  13  14
ATOM     14  C   UNL A   1      30.756  23.100  26.784  1.00  0.00     0.226 C 
ATOM     15  N   UNL A   1      31.725  22.203  27.095  1.00  0.00    -0.326 N 
ATOM     16  H   UNL A   1      31.541  21.712  27.927  1.00  0.00     0.169 HD
ATOM     17  O   UNL A   1      29.737  23.088  27.486  1.00  0.00    -0.275 OA
BRANCH  15  18
ATOM     18  C   UNL A   1      32.930  21.822  26.493  1.00  0.00     0.041 A 
ATOM     19  C   UNL A   1      36.791  20.872  24.823  1.00  0.00     0.044 C 
ATOM     20  C   UNL A   1      35.456  21.198  25.417  1.00  0.00    -0.051 A 
ATOM     21  C   UNL A   1      34.283  20.772  24.783  1.00  0.00     0.005 A 
ATOM     22  C   UNL A   1      35.358  21.928  26.603  1.00  0.00     0.005 A 
ATOM     23  C   UNL A   1      33.029  21.065  25.330  1.00  0.00     0.026 A 
ATOM     24  C   UNL A   1      34.104  22.222  27.142  1.00  0.00     0.026 A 
ENDBRANCH  15  18
ENDBRANCH  13  14
ENDBRANCH   6  13
ENDBRANCH   3   5
ENDBRANCH   2   3
ENDBRANCH   1   2
BRANCH   1  25
ATOM     25  C   UNL A   1      31.404  32.451  27.291  1.00  0.00     0.275 C 
BRANCH  25  26
ATOM     26  O   UNL A   1      32.216  33.664  27.366  1.00  0.00    -0.458 OA
BRANCH  26  27
ATOM     27  C   UNL A   1      33.000  34.046  28.404  1.00  0.00     0.338 C 
ATOM     28  O   UNL A   1      32.674  34.916  29.198  1.00  0.00    -0.246 OA
BRANCH  27  29
ATOM     29  C   UNL A   1      34.315  33.378  28.488  1.00  0.00     0.060 A 
ATOM     30  C   UNL A   1      35.466  34.042  28.026  1.00  0.00     0.016 A 
ATOM     31  C   UNL A   1      34.419  32.147  29.123  1.00  0.00     0.016 A 
ATOM     32  C   UNL A   1      36.734  33.553  28.355  1.00  0.00     0.010 A 
ATOM     33  C   UNL A   1      35.664  31.705  29.508  1.00  0.00     0.010 A 
ATOM     34  C   UNL A   1      36.824  32.417  29.157  1.00  0.00    -0.014 A 
BRANCH  34  35
ATOM     35  C   UNL A   1      38.069  31.770  29.560  1.00  0.00     0.031 A 
ATOM     36  C   UNL A   1      38.559  30.479  29.032  1.00  0.00     0.074 A 
ATOM     37  C   UNL A   1      38.847  32.525  30.363  1.00  0.00     0.049 A 
ATOM     38  N   UNL A   1      39.535  29.817  29.560  1.00  0.00    -0.248 NA
ATOM     39  C   UNL A   1      37.980  29.796  27.882  1.00  0.00     0.031 C 
ATOM     40  C   UNL A   1      40.259  32.397  30.672  1.00  0.00     0.029 A 
ATOM     41  N   UNL A   1      38.384  33.495  31.257  1.00  0.00    -0.354 N 
ATOM     42  C   UNL A   1      39.893  28.812  28.688  1.00  0.00     0.074 A 
ATOM     43  C   UNL A   1      38.834  28.779  27.708  1.00  0.00     0.031 C 
ATOM     44  C   UNL A   1      40.486  33.013  31.846  1.00  0.00     0.029 A 
ATOM     45  C   UNL A   1      39.178  33.354  32.396  1.00  0.00     0.049 A 
ATOM     46  H   UNL A   1      37.654  34.140  31.114  1.00  0.00     0.167 HD
ATOM     47  C   UNL A   1      41.110  28.214  28.827  1.00  0.00     0.031 A 
ATOM     48  C   UNL A   1      38.670  32.886  33.576  1.00  0.00     0.031 A 
ATOM     49  C   UNL A   1      41.812  28.701  30.011  1.00  0.00     0.049 A 
ATOM     50  C   UNL A   1      39.419  31.681  34.098  1.00  0.00     0.074 A 
ATOM     51  C   UNL A   1      42.835  29.613  30.204  1.00  0.00     0.029 A 
ATOM     52  N   UNL A   1      41.275  28.440  31.259  1.00  0.00    -0.354 N 
ATOM     53  N   UNL A   1      40.135  30.886  33.352  1.00  0.00    -0.248 NA
ATOM     54  C   UNL A   1      39.342  31.229  35.483  1.00  0.00     0.031 C 
ATOM     55  C   UNL A   1      42.903  29.904  31.594  1.00  0.00     0.029 A 
ATOM     56  C   UNL A   1      41.938  29.151  32.236  1.00  0.00     0.049 A 
ATOM     57  H   UNL A   1      40.521  27.829  31.427  1.00  0.00     0.167 HD
ATOM     58  C   UNL A   1      40.670  29.896  34.129  1.00  0.00     0.074 A 
ATOM     59  C   UNL A   1      40.092  30.115  35.442  1.00  0.00     0.031 C 
ATOM     60  C   UNL A   1      41.546  28.980  33.624  1.00  0.00     0.031 A 
BRANCH  47  61
ATOM     61  C   UNL A   1      41.794  27.332  27.804  1.00  0.00    -0.014 A 
ATOM     62  C   UNL A   1      41.772  27.705  26.443  1.00  0.00     0.009 A 
ATOM     63  C   UNL A   1      42.448  26.125  28.089  1.00  0.00     0.009 A 
ATOM     64  C   UNL A   1      42.312  26.898  25.431  1.00  0.00     0.001 A 
ATOM     65  C   UNL A   1      42.987  25.306  27.082  1.00  0.00     0.001 A 
ATOM     66  C   UNL A   1      42.909  25.688  25.751  1.00  0.00     0.000 A 
ENDBRANCH  47  61
BRANCH  48  67
ATOM     67  C   UNL A   1      37.191  33.051  33.744  1.00  0.00    -0.014 A 
ATOM     68  C   UNL A   1      36.688  34.191  34.405  1.00  0.00     0.009 A 
ATOM     69  C   UNL A   1      36.298  32.276  32.988  1.00  0.00     0.009 A 
ATOM     70  C   UNL A   1      35.356  34.587  34.243  1.00  0.00     0.001 A 
ATOM     71  C   UNL A   1      34.960  32.664  32.845  1.00  0.00     0.001 A 
ATOM     72  C   UNL A   1      34.497  33.831  33.451  1.00  0.00     0.000 A 
ENDBRANCH  48  67
BRANCH  60  73
ATOM     73  C   UNL A   1      42.131  27.824  34.384  1.00  0.00    -0.014 A 
ATOM     74  C   UNL A   1      43.485  27.712  34.717  1.00  0.00     0.009 A 
ATOM     75  C   UNL A   1      41.299  26.729  34.711  1.00  0.00     0.009 A 
ATOM     76  C   UNL A   1      43.966  26.595  35.415  1.00  0.00     0.001 A 
ATOM     77  C   UNL A   1      41.778  25.604  35.379  1.00  0.00     0.001 A 
ATOM     78  C   UNL A   1      43.114  25.545  35.749  1.00  0.00     0.000 A 
ENDBRANCH  60  73
ENDBRANCH  34  35
ENDBRANCH  27  29
ENDBRANCH  26  27
ENDBRANCH  25  26
ENDBRANCH   1  25
TORSDOF 14
ENDMDL
