MODEL 1
REMARK VINA RESULT:      -9.0      0.000      0.000
REMARK SMILES COc1ccc2cc([C@@H](O)[C@H](F)C(=O)OCCOC(=O)c3ccc(-c4c5nc(c(-c6ccccc6)c6ccc([nH]6)c(-c6ccccc6)c6nc(c(-c7ccccc7)c7ccc4[nH]7)C=C6)C=C5)cc3)ccc2c1
REMARK SMILES IDX 16 1 15 2 13 3 14 4 11 5 12 6 9 7 8 8 3 9 4 10 72 11 5 12
REMARK SMILES IDX 71 13 6 14 70 15 7 16 69 17 2 18 1 19 10 20 17 22 18 23
REMARK SMILES IDX 19 24 20 25 21 26 22 27 68 28 23 29 67 30 24 31 25 32 26 33
REMARK SMILES IDX 61 34 27 35 66 36 60 37 62 38 28 39 65 40 59 41 58 42 29 44
REMARK SMILES IDX 51 45 36 46 50 47 37 48 40 49 49 50 63 51 38 52 39 53 48 55
REMARK SMILES IDX 64 56 41 57 30 58 31 59 35 60 32 61 34 62 33 63 52 64 53 65
REMARK SMILES IDX 57 66 54 67 56 68 55 69 42 70 43 71 47 72 44 73 46 74 45 75
REMARK H PARENT 10 21 62 43 40 54
REMARK Flexibility Score: inf
ROOT
ATOM      1  C   UNL A   1      33.034  36.624  30.951  1.00  0.00     0.274 C 
ENDROOT
BRANCH   1   2
ATOM      2  O   UNL A   1      33.389  35.552  31.844  1.00  0.00    -0.460 OA
BRANCH   2   3
ATOM      3  C   UNL A   1      34.324  35.815  32.800  1.00  0.00     0.343 C 
ATOM      4  O   UNL A   1      34.241  36.732  33.609  1.00  0.00    -0.249 OA
BRANCH   3   5
ATOM      5  C   UNL A   1      35.450  34.794  32.768  1.00  0.00     0.308 C 
ATOM      6  F   UNL A   1      36.669  35.396  32.966  1.00  0.00    -0.232 F 
BRANCH   5   7
ATOM      7  C   UNL A   1      35.254  33.741  33.867  1.00  0.00     0.190 C 
BRANCH   7   8
ATOM      8  C   UNL A   1      36.386  32.744  34.051  1.00  0.00    -0.015 A 
ATOM      9  C   UNL A   1      39.877  29.101  33.403  1.00  0.00     0.119 A 
ATOM     10  C   UNL A   1      38.802  28.743  32.594  1.00  0.00     0.047 A 
ATOM     11  C   UNL A   1      39.781  30.217  34.233  1.00  0.00     0.055 A 
ATOM     12  C   UNL A   1      37.651  29.539  32.574  1.00  0.00     0.012 A 
ATOM     13  C   UNL A   1      38.639  31.034  34.210  1.00  0.00    -0.015 A 
ATOM     14  C   UNL A   1      37.561  30.701  33.361  1.00  0.00    -0.018 A 
ATOM     15  C   UNL A   1      38.556  32.191  34.997  1.00  0.00     0.009 A 
ATOM     16  C   UNL A   1      36.440  31.552  33.303  1.00  0.00     0.015 A 
ATOM     17  C   UNL A   1      37.446  33.037  34.915  1.00  0.00     0.007 A 
BRANCH   9  18
ATOM     18  O   UNL A   1      41.043  28.386  33.476  1.00  0.00    -0.497 OA
ATOM     19  C   UNL A   1      41.660  28.443  34.761  1.00  0.00     0.278 C 
ENDBRANCH   9  18
ENDBRANCH   7   8
BRANCH   7  20
ATOM     20  O   UNL A   1      35.062  34.389  35.139  1.00  0.00    -0.385 OA
ATOM     21  H   UNL A   1      34.114  34.514  35.299  1.00  0.00     0.211 HD
ENDBRANCH   7  20
ENDBRANCH   5   7
ENDBRANCH   3   5
ENDBRANCH   2   3
ENDBRANCH   1   2
BRANCH   1  22
ATOM     22  C   UNL A   1      32.429  36.084  29.650  1.00  0.00     0.275 C 
BRANCH  22  23
ATOM     23  O   UNL A   1      33.444  35.638  28.730  1.00  0.00    -0.458 OA
BRANCH  23  24
ATOM     24  C   UNL A   1      33.390  34.325  28.406  1.00  0.00     0.338 C 
ATOM     25  O   UNL A   1      32.483  33.737  27.843  1.00  0.00    -0.246 OA
BRANCH  24  26
ATOM     26  C   UNL A   1      34.676  33.681  28.709  1.00  0.00     0.060 A 
ATOM     27  C   UNL A   1      34.717  32.772  29.770  1.00  0.00     0.016 A 
ATOM     28  C   UNL A   1      35.839  34.020  28.014  1.00  0.00     0.016 A 
ATOM     29  C   UNL A   1      35.929  32.211  30.159  1.00  0.00     0.010 A 
ATOM     30  C   UNL A   1      37.054  33.448  28.399  1.00  0.00     0.010 A 
ATOM     31  C   UNL A   1      37.107  32.554  29.483  1.00  0.00    -0.014 A 
BRANCH  31  32
ATOM     32  C   UNL A   1      38.399  31.989  29.934  1.00  0.00     0.031 A 
ATOM     33  C   UNL A   1      38.861  30.659  29.416  1.00  0.00     0.074 A 
ATOM     34  C   UNL A   1      39.158  32.679  30.803  1.00  0.00     0.049 A 
ATOM     35  N   UNL A   1      39.940  29.983  29.724  1.00  0.00    -0.248 NA
ATOM     36  C   UNL A   1      37.996  30.000  28.427  1.00  0.00     0.031 C 
ATOM     37  C   UNL A   1      38.825  33.992  31.356  1.00  0.00     0.029 A 
ATOM     38  N   UNL A   1      40.363  32.365  31.376  1.00  0.00    -0.354 N 
ATOM     39  C   UNL A   1      39.874  28.812  28.981  1.00  0.00     0.074 A 
ATOM     40  C   UNL A   1      38.639  28.859  28.226  1.00  0.00     0.031 C 
ATOM     41  C   UNL A   1      39.804  34.372  32.192  1.00  0.00     0.029 A 
ATOM     42  C   UNL A   1      40.808  33.315  32.260  1.00  0.00     0.049 A 
ATOM     43  H   UNL A   1      40.860  31.540  31.172  1.00  0.00     0.167 HD
ATOM     44  C   UNL A   1      40.763  27.790  28.934  1.00  0.00     0.031 A 
ATOM     45  C   UNL A   1      41.892  33.322  33.057  1.00  0.00     0.031 A 
ATOM     46  C   UNL A   1      41.986  27.743  29.691  1.00  0.00     0.049 A 
ATOM     47  C   UNL A   1      42.840  32.159  33.023  1.00  0.00     0.074 A 
ATOM     48  C   UNL A   1      42.966  26.766  29.687  1.00  0.00     0.029 A 
ATOM     49  N   UNL A   1      42.391  28.712  30.596  1.00  0.00    -0.354 N 
ATOM     50  N   UNL A   1      42.782  31.069  32.298  1.00  0.00    -0.248 NA
ATOM     51  C   UNL A   1      44.007  32.231  33.912  1.00  0.00     0.031 C 
ATOM     52  C   UNL A   1      43.939  27.121  30.629  1.00  0.00     0.029 A 
ATOM     53  C   UNL A   1      43.591  28.343  31.180  1.00  0.00     0.049 A 
ATOM     54  H   UNL A   1      41.897  29.541  30.795  1.00  0.00     0.167 HD
ATOM     55  C   UNL A   1      43.906  30.329  32.634  1.00  0.00     0.074 A 
ATOM     56  C   UNL A   1      44.639  31.104  33.615  1.00  0.00     0.031 C 
ATOM     57  C   UNL A   1      44.297  29.117  32.170  1.00  0.00     0.031 A 
BRANCH  44  58
ATOM     58  C   UNL A   1      40.411  26.620  28.059  1.00  0.00    -0.014 A 
ATOM     59  C   UNL A   1      39.576  25.587  28.515  1.00  0.00     0.009 A 
ATOM     60  C   UNL A   1      40.924  26.552  26.754  1.00  0.00     0.009 A 
ATOM     61  C   UNL A   1      39.299  24.490  27.698  1.00  0.00     0.001 A 
ATOM     62  C   UNL A   1      40.623  25.466  25.930  1.00  0.00     0.001 A 
ATOM     63  C   UNL A   1      39.821  24.431  26.406  1.00  0.00     0.000 A 
ENDBRANCH  44  58
BRANCH  45  64
ATOM     64  C   UNL A   1      42.110  34.467  33.974  1.00  0.00    -0.014 A 
ATOM     65  C   UNL A   1      42.803  35.608  33.546  1.00  0.00     0.009 A 
ATOM     66  C   UNL A   1      41.582  34.439  35.276  1.00  0.00     0.009 A 
ATOM     67  C   UNL A   1      42.971  36.695  34.407  1.00  0.00     0.001 A 
ATOM     68  C   UNL A   1      41.731  35.536  36.126  1.00  0.00     0.001 A 
ATOM     69  C   UNL A   1      42.429  36.662  35.692  1.00  0.00     0.000 A 
ENDBRANCH  45  64
BRANCH  57  70
ATOM     70  C   UNL A   1      45.581  28.560  32.715  1.00  0.00    -0.014 A 
ATOM     71  C   UNL A   1      46.813  28.850  32.108  1.00  0.00     0.009 A 
ATOM     72  C   UNL A   1      45.561  27.762  33.870  1.00  0.00     0.009 A 
ATOM     73  C   UNL A   1      47.997  28.327  32.630  1.00  0.00     0.001 A 
ATOM     74  C   UNL A   1      46.750  27.262  34.404  1.00  0.00     0.001 A 
ATOM     75  C   UNL A   1      47.965  27.537  33.780  1.00  0.00     0.000 A 
ENDBRANCH  57  70
ENDBRANCH  31  32
ENDBRANCH  24  26
ENDBRANCH  23  24
ENDBRANCH  22  23
ENDBRANCH   1  22
TORSDOF 15
ENDMDL
MODEL 2
REMARK VINA RESULT:      -8.8      5.223     11.287
REMARK SMILES COc1ccc2cc([C@@H](O)[C@H](F)C(=O)OCCOC(=O)c3ccc(-c4c5nc(c(-c6ccccc6)c6ccc([nH]6)c(-c6ccccc6)c6nc(c(-c7ccccc7)c7ccc4[nH]7)C=C6)C=C5)cc3)ccc2c1
REMARK SMILES IDX 16 1 15 2 13 3 14 4 11 5 12 6 9 7 8 8 3 9 4 10 72 11 5 12
REMARK SMILES IDX 71 13 6 14 70 15 7 16 69 17 2 18 1 19 10 20 17 22 18 23
REMARK SMILES IDX 19 24 20 25 21 26 22 27 68 28 23 29 67 30 24 31 25 32 26 33
REMARK SMILES IDX 61 34 27 35 66 36 60 37 62 38 28 39 65 40 59 41 58 42 29 44
REMARK SMILES IDX 51 45 36 46 50 47 37 48 40 49 49 50 63 51 38 52 39 53 48 55
REMARK SMILES IDX 64 56 41 57 30 58 31 59 35 60 32 61 34 62 33 63 52 64 53 65
REMARK SMILES IDX 57 66 54 67 56 68 55 69 42 70 43 71 47 72 44 73 46 74 45 75
REMARK H PARENT 10 21 62 43 40 54
REMARK Flexibility Score: inf
ROOT
ATOM      1  C   UNL A   1      44.265  18.562  25.336  1.00  0.00     0.274 C 
ENDROOT
BRANCH   1   2
ATOM      2  O   UNL A   1      44.999  19.762  25.644  1.00  0.00    -0.460 OA
BRANCH   2   3
ATOM      3  C   UNL A   1      44.928  20.788  24.748  1.00  0.00     0.343 C 
ATOM      4  O   UNL A   1      44.666  20.646  23.560  1.00  0.00    -0.249 OA
BRANCH   3   5
ATOM      5  C   UNL A   1      45.163  22.130  25.425  1.00  0.00     0.308 C 
ATOM      6  F   UNL A   1      46.265  22.084  26.244  1.00  0.00    -0.232 F 
BRANCH   5   7
ATOM      7  C   UNL A   1      45.391  23.228  24.377  1.00  0.00     0.190 C 
BRANCH   7   8
ATOM      8  C   UNL A   1      45.570  24.639  24.913  1.00  0.00    -0.015 A 
ATOM      9  C   UNL A   1      44.903  29.194  27.077  1.00  0.00     0.119 A 
ATOM     10  C   UNL A   1      43.659  28.831  26.567  1.00  0.00     0.047 A 
ATOM     11  C   UNL A   1      46.013  28.383  26.844  1.00  0.00     0.055 A 
ATOM     12  C   UNL A   1      43.517  27.624  25.874  1.00  0.00     0.012 A 
ATOM     13  C   UNL A   1      45.881  27.161  26.165  1.00  0.00    -0.015 A 
ATOM     14  C   UNL A   1      44.614  26.766  25.682  1.00  0.00    -0.018 A 
ATOM     15  C   UNL A   1      46.980  26.310  25.977  1.00  0.00     0.009 A 
ATOM     16  C   UNL A   1      44.477  25.515  25.048  1.00  0.00     0.015 A 
ATOM     17  C   UNL A   1      46.826  25.064  25.364  1.00  0.00     0.007 A 
BRANCH   9  18
ATOM     18  O   UNL A   1      45.129  30.350  27.774  1.00  0.00    -0.497 OA
ATOM     19  C   UNL A   1      46.049  31.229  27.128  1.00  0.00     0.278 C 
ENDBRANCH   9  18
ENDBRANCH   7   8
BRANCH   7  20
ATOM     20  O   UNL A   1      46.566  22.927  23.599  1.00  0.00    -0.385 OA
ATOM     21  H   UNL A   1      47.358  23.165  24.105  1.00  0.00     0.211 HD
ENDBRANCH   7  20
ENDBRANCH   5   7
ENDBRANCH   3   5
ENDBRANCH   2   3
ENDBRANCH   1   2
BRANCH   1  22
ATOM     22  C   UNL A   1      42.912  18.541  26.056  1.00  0.00     0.275 C 
BRANCH  22  23
ATOM     23  O   UNL A   1      41.902  19.260  25.322  1.00  0.00    -0.458 OA
BRANCH  23  24
ATOM     24  C   UNL A   1      40.939  19.834  26.080  1.00  0.00     0.338 C 
ATOM     25  O   UNL A   1      39.871  19.348  26.414  1.00  0.00    -0.246 OA
BRANCH  24  26
ATOM     26  C   UNL A   1      41.409  21.128  26.593  1.00  0.00     0.060 A 
ATOM     27  C   UNL A   1      41.511  21.283  27.979  1.00  0.00     0.016 A 
ATOM     28  C   UNL A   1      41.672  22.197  25.734  1.00  0.00     0.016 A 
ATOM     29  C   UNL A   1      41.856  22.518  28.517  1.00  0.00     0.010 A 
ATOM     30  C   UNL A   1      42.030  23.434  26.276  1.00  0.00     0.010 A 
ATOM     31  C   UNL A   1      42.107  23.605  27.670  1.00  0.00    -0.014 A 
BRANCH  31  32
ATOM     32  C   UNL A   1      42.427  24.927  28.252  1.00  0.00     0.031 A 
ATOM     33  C   UNL A   1      43.817  25.222  28.734  1.00  0.00     0.074 A 
ATOM     34  C   UNL A   1      41.467  25.864  28.339  1.00  0.00     0.049 A 
ATOM     35  N   UNL A   1      44.279  26.303  29.310  1.00  0.00    -0.248 NA
ATOM     36  C   UNL A   1      44.817  24.160  28.550  1.00  0.00     0.031 C 
ATOM     37  C   UNL A   1      40.087  25.702  27.882  1.00  0.00     0.029 A 
ATOM     38  N   UNL A   1      41.509  27.137  28.848  1.00  0.00    -0.354 N 
ATOM     39  C   UNL A   1      45.618  26.045  29.573  1.00  0.00     0.074 A 
ATOM     40  C   UNL A   1      45.887  24.699  29.115  1.00  0.00     0.031 C 
ATOM     41  C   UNL A   1      39.411  26.834  28.132  1.00  0.00     0.029 A 
ATOM     42  C   UNL A   1      40.299  27.781  28.800  1.00  0.00     0.049 A 
ATOM     43  H   UNL A   1      42.327  27.546  29.211  1.00  0.00     0.167 HD
ATOM     44  C   UNL A   1      46.539  26.859  30.144  1.00  0.00     0.031 A 
ATOM     45  C   UNL A   1      39.938  28.990  29.267  1.00  0.00     0.031 A 
ATOM     46  C   UNL A   1      46.266  28.195  30.604  1.00  0.00     0.049 A 
ATOM     47  C   UNL A   1      40.963  29.858  29.937  1.00  0.00     0.074 A 
ATOM     48  C   UNL A   1      47.139  29.110  31.168  1.00  0.00     0.029 A 
ATOM     49  N   UNL A   1      45.021  28.806  30.562  1.00  0.00    -0.354 N 
ATOM     50  N   UNL A   1      42.232  29.615  30.158  1.00  0.00    -0.248 NA
ATOM     51  C   UNL A   1      40.506  31.169  30.418  1.00  0.00     0.031 C 
ATOM     52  C   UNL A   1      46.411  30.254  31.513  1.00  0.00     0.029 A 
ATOM     53  C   UNL A   1      45.095  30.072  31.118  1.00  0.00     0.049 A 
ATOM     54  H   UNL A   1      44.205  28.398  30.193  1.00  0.00     0.167 HD
ATOM     55  C   UNL A   1      42.730  30.743  30.793  1.00  0.00     0.074 A 
ATOM     56  C   UNL A   1      41.628  31.680  30.905  1.00  0.00     0.031 C 
ATOM     57  C   UNL A   1      43.986  30.983  31.241  1.00  0.00     0.031 A 
BRANCH  44  58
ATOM     58  C   UNL A   1      47.918  26.298  30.339  1.00  0.00    -0.014 A 
ATOM     59  C   UNL A   1      48.867  26.305  29.303  1.00  0.00     0.009 A 
ATOM     60  C   UNL A   1      48.276  25.754  31.582  1.00  0.00     0.009 A 
ATOM     61  C   UNL A   1      50.129  25.740  29.496  1.00  0.00     0.001 A 
ATOM     62  C   UNL A   1      49.548  25.213  31.780  1.00  0.00     0.001 A 
ATOM     63  C   UNL A   1      50.468  25.195  30.734  1.00  0.00     0.000 A 
ENDBRANCH  44  58
BRANCH  45  64
ATOM     64  C   UNL A   1      38.527  29.427  29.133  1.00  0.00    -0.014 A 
ATOM     65  C   UNL A   1      38.037  29.907  27.910  1.00  0.00     0.009 A 
ATOM     66  C   UNL A   1      37.649  29.322  30.224  1.00  0.00     0.009 A 
ATOM     67  C   UNL A   1      36.697  30.283  27.786  1.00  0.00     0.001 A 
ATOM     68  C   UNL A   1      36.305  29.675  30.091  1.00  0.00     0.001 A 
ATOM     69  C   UNL A   1      35.831  30.159  28.873  1.00  0.00     0.000 A 
ENDBRANCH  45  64
BRANCH  57  70
ATOM     70  C   UNL A   1      44.236  32.315  31.887  1.00  0.00    -0.014 A 
ATOM     71  C   UNL A   1      44.220  32.459  33.283  1.00  0.00     0.009 A 
ATOM     72  C   UNL A   1      44.525  33.435  31.090  1.00  0.00     0.009 A 
ATOM     73  C   UNL A   1      44.460  33.705  33.867  1.00  0.00     0.001 A 
ATOM     74  C   UNL A   1      44.789  34.673  31.678  1.00  0.00     0.001 A 
ATOM     75  C   UNL A   1      44.747  34.808  33.064  1.00  0.00     0.000 A 
ENDBRANCH  57  70
ENDBRANCH  31  32
ENDBRANCH  24  26
ENDBRANCH  23  24
ENDBRANCH  22  23
ENDBRANCH   1  22
TORSDOF 15
ENDMDL
MODEL 3
REMARK VINA RESULT:      -8.7      5.872     11.639
REMARK SMILES COc1ccc2cc([C@@H](O)[C@H](F)C(=O)OCCOC(=O)c3ccc(-c4c5nc(c(-c6ccccc6)c6ccc([nH]6)c(-c6ccccc6)c6nc(c(-c7ccccc7)c7ccc4[nH]7)C=C6)C=C5)cc3)ccc2c1
REMARK SMILES IDX 16 1 15 2 13 3 14 4 11 5 12 6 9 7 8 8 3 9 4 10 72 11 5 12
REMARK SMILES IDX 71 13 6 14 70 15 7 16 69 17 2 18 1 19 10 20 17 22 18 23
REMARK SMILES IDX 19 24 20 25 21 26 22 27 68 28 23 29 67 30 24 31 25 32 26 33
REMARK SMILES IDX 61 34 27 35 66 36 60 37 62 38 28 39 65 40 59 41 58 42 29 44
REMARK SMILES IDX 51 45 36 46 50 47 37 48 40 49 49 50 63 51 38 52 39 53 48 55
REMARK SMILES IDX 64 56 41 57 30 58 31 59 35 60 32 61 34 62 33 63 52 64 53 65
REMARK SMILES IDX 57 66 54 67 56 68 55 69 42 70 43 71 47 72 44 73 46 74 45 75
REMARK H PARENT 10 21 62 43 40 54
REMARK Flexibility Score: inf
ROOT
ATOM      1  C   UNL A   1      44.536  18.733  24.758  1.00  0.00     0.274 C 
ENDROOT
BRANCH   1   2
ATOM      2  O   UNL A   1      45.657  19.309  25.455  1.00  0.00    -0.460 OA
BRANCH   2   3
ATOM      3  C   UNL A   1      46.075  20.544  25.058  1.00  0.00     0.343 C 
ATOM      4  O   UNL A   1      47.021  20.740  24.303  1.00  0.00    -0.249 OA
BRANCH   3   5
ATOM      5  C   UNL A   1      45.185  21.638  25.626  1.00  0.00     0.308 C 
ATOM      6  F   UNL A   1      45.805  22.288  26.667  1.00  0.00    -0.232 F 
BRANCH   5   7
ATOM      7  C   UNL A   1      44.852  22.676  24.546  1.00  0.00     0.190 C 
BRANCH   7   8
ATOM      8  C   UNL A   1      45.513  24.036  24.696  1.00  0.00    -0.015 A 
ATOM      9  C   UNL A   1      46.732  28.783  26.059  1.00  0.00     0.119 A 
ATOM     10  C   UNL A   1      45.345  28.705  26.156  1.00  0.00     0.047 A 
ATOM     11  C   UNL A   1      47.456  27.699  25.565  1.00  0.00     0.055 A 
ATOM     12  C   UNL A   1      44.689  27.518  25.812  1.00  0.00     0.012 A 
ATOM     13  C   UNL A   1      46.812  26.496  25.232  1.00  0.00    -0.015 A 
ATOM     14  C   UNL A   1      45.410  26.396  25.368  1.00  0.00    -0.018 A 
ATOM     15  C   UNL A   1      47.537  25.380  24.790  1.00  0.00     0.009 A 
ATOM     16  C   UNL A   1      44.776  25.171  25.083  1.00  0.00     0.015 A 
ATOM     17  C   UNL A   1      46.897  24.165  24.530  1.00  0.00     0.007 A 
BRANCH   9  18
ATOM     18  O   UNL A   1      47.454  29.900  26.384  1.00  0.00    -0.497 OA
ATOM     19  C   UNL A   1      46.641  31.004  26.775  1.00  0.00     0.278 C 
ENDBRANCH   9  18
ENDBRANCH   7   8
BRANCH   7  20
ATOM     20  O   UNL A   1      45.227  22.173  23.250  1.00  0.00    -0.385 OA
ATOM     21  H   UNL A   1      45.376  21.216  23.305  1.00  0.00     0.211 HD
ENDBRANCH   7  20
ENDBRANCH   5   7
ENDBRANCH   3   5
ENDBRANCH   2   3
ENDBRANCH   1   2
BRANCH   1  22
ATOM     22  C   UNL A   1      43.290  18.693  25.650  1.00  0.00     0.275 C 
BRANCH  22  23
ATOM     23  O   UNL A   1      42.262  19.586  25.180  1.00  0.00    -0.458 OA
BRANCH  23  24
ATOM     24  C   UNL A   1      41.290  19.869  26.077  1.00  0.00     0.338 C 
ATOM     25  O   UNL A   1      40.382  19.141  26.440  1.00  0.00    -0.246 OA
BRANCH  24  26
ATOM     26  C   UNL A   1      41.544  21.178  26.696  1.00  0.00     0.060 A 
ATOM     27  C   UNL A   1      41.567  22.300  25.862  1.00  0.00     0.016 A 
ATOM     28  C   UNL A   1      41.833  21.293  28.057  1.00  0.00     0.016 A 
ATOM     29  C   UNL A   1      41.900  23.546  26.383  1.00  0.00     0.010 A 
ATOM     30  C   UNL A   1      42.157  22.547  28.580  1.00  0.00     0.010 A 
ATOM     31  C   UNL A   1      42.209  23.676  27.743  1.00  0.00    -0.014 A 
BRANCH  31  32
ATOM     32  C   UNL A   1      42.608  24.996  28.279  1.00  0.00     0.031 A 
ATOM     33  C   UNL A   1      41.577  26.061  28.506  1.00  0.00     0.074 A 
ATOM     34  C   UNL A   1      43.900  25.231  28.569  1.00  0.00     0.049 A 
ATOM     35  N   UNL A   1      41.738  27.290  28.928  1.00  0.00    -0.248 NA
ATOM     36  C   UNL A   1      40.182  25.700  28.215  1.00  0.00     0.031 C 
ATOM     37  C   UNL A   1      44.989  24.266  28.414  1.00  0.00     0.029 A 
ATOM     38  N   UNL A   1      44.513  26.360  29.049  1.00  0.00    -0.354 N 
ATOM     39  C   UNL A   1      40.469  27.854  28.936  1.00  0.00     0.074 A 
ATOM     40  C   UNL A   1      39.553  26.841  28.456  1.00  0.00     0.031 C 
ATOM     41  C   UNL A   1      46.139  24.845  28.791  1.00  0.00     0.029 A 
ATOM     42  C   UNL A   1      45.873  26.227  29.175  1.00  0.00     0.049 A 
ATOM     43  H   UNL A   1      44.025  27.183  29.280  1.00  0.00     0.167 HD
ATOM     44  C   UNL A   1      40.102  29.104  29.311  1.00  0.00     0.031 A 
ATOM     45  C   UNL A   1      46.805  27.128  29.535  1.00  0.00     0.031 A 
ATOM     46  C   UNL A   1      41.016  30.111  29.783  1.00  0.00     0.049 A 
ATOM     47  C   UNL A   1      46.382  28.520  29.903  1.00  0.00     0.074 A 
ATOM     48  C   UNL A   1      40.738  31.395  30.215  1.00  0.00     0.029 A 
ATOM     49  N   UNL A   1      42.391  29.948  29.873  1.00  0.00    -0.354 N 
ATOM     50  N   UNL A   1      45.177  29.035  29.932  1.00  0.00    -0.248 NA
ATOM     51  C   UNL A   1      47.447  29.454  30.294  1.00  0.00     0.031 C 
ATOM     52  C   UNL A   1      41.949  32.027  30.519  1.00  0.00     0.029 A 
ATOM     53  C   UNL A   1      42.977  31.118  30.325  1.00  0.00     0.049 A 
ATOM     54  H   UNL A   1      42.877  29.122  29.648  1.00  0.00     0.167 HD
ATOM     55  C   UNL A   1      45.335  30.348  30.353  1.00  0.00     0.074 A 
ATOM     56  C   UNL A   1      46.753  30.544  30.585  1.00  0.00     0.031 C 
ATOM     57  C   UNL A   1      44.391  31.304  30.532  1.00  0.00     0.031 A 
BRANCH  44  58
ATOM     58  C   UNL A   1      38.648  29.456  29.181  1.00  0.00    -0.014 A 
ATOM     59  C   UNL A   1      37.777  29.396  30.281  1.00  0.00     0.009 A 
ATOM     60  C   UNL A   1      38.141  29.856  27.935  1.00  0.00     0.009 A 
ATOM     61  C   UNL A   1      36.420  29.688  30.125  1.00  0.00     0.001 A 
ATOM     62  C   UNL A   1      36.789  30.173  27.787  1.00  0.00     0.001 A 
ATOM     63  C   UNL A   1      35.928  30.077  28.879  1.00  0.00     0.000 A 
ENDBRANCH  44  58
BRANCH  45  64
ATOM     64  C   UNL A   1      48.235  26.732  29.533  1.00  0.00    -0.014 A 
ATOM     65  C   UNL A   1      48.813  26.127  30.658  1.00  0.00     0.009 A 
ATOM     66  C   UNL A   1      49.017  26.920  28.382  1.00  0.00     0.009 A 
ATOM     67  C   UNL A   1      50.151  25.726  30.632  1.00  0.00     0.001 A 
ATOM     68  C   UNL A   1      50.346  26.496  28.351  1.00  0.00     0.001 A 
ATOM     69  C   UNL A   1      50.914  25.904  29.477  1.00  0.00     0.000 A 
ENDBRANCH  45  64
BRANCH  57  70
ATOM     70  C   UNL A   1      44.863  32.647  31.010  1.00  0.00    -0.014 A 
ATOM     71  C   UNL A   1      44.977  32.930  32.380  1.00  0.00     0.009 A 
ATOM     72  C   UNL A   1      45.230  33.631  30.078  1.00  0.00     0.009 A 
ATOM     73  C   UNL A   1      45.422  34.183  32.807  1.00  0.00     0.001 A 
ATOM     74  C   UNL A   1      45.698  34.873  30.508  1.00  0.00     0.001 A 
ATOM     75  C   UNL A   1      45.785  35.151  31.871  1.00  0.00     0.000 A 
ENDBRANCH  57  70
ENDBRANCH  31  32
ENDBRANCH  24  26
ENDBRANCH  23  24
ENDBRANCH  22  23
ENDBRANCH   1  22
TORSDOF 15
ENDMDL
