MODEL 1
REMARK VINA RESULT:     -11.5      0.000      0.000
REMARK SMILES Cc1ccccc1[C@@H](Cc1c(Cl)cccc1Cl)C(=O)OCCOC(=O)c1ccc(-c2c3nc(c(-c4ccccc4)c4ccc([nH]4)c(-c4ccccc4)c4nc(c(-c5ccccc5)c5ccc2[nH]5)C=C4)C=C3)cc1
REMARK SMILES IDX 21 1 20 2 18 3 19 4 8 5 7 6 1 7 2 8 3 9 4 10 6 11 5 12 9 13
REMARK SMILES IDX 10 14 11 15 16 16 12 17 13 18 15 19 17 20 14 21 22 22 23 23
REMARK SMILES IDX 24 24 25 25 26 26 27 27 73 28 28 29 72 30 29 31 30 32 31 33
REMARK SMILES IDX 66 34 32 35 71 36 65 37 67 38 33 39 70 40 64 41 63 42 34 44
REMARK SMILES IDX 56 45 41 46 55 47 42 48 45 49 54 50 68 51 43 52 44 53 53 55
REMARK SMILES IDX 69 56 46 57 35 58 36 59 40 60 37 61 39 62 38 63 57 64 58 65
REMARK SMILES IDX 62 66 59 67 61 68 60 69 47 70 48 71 52 72 49 73 51 74 50 75
REMARK H PARENT 67 43 45 54
REMARK Flexibility Score: inf
ROOT
ATOM      1  C   UNL A   1      37.268  22.902  25.996  1.00  0.00     0.274 C 
ENDROOT
BRANCH   1   2
ATOM      2  O   UNL A   1      36.968  23.753  24.885  1.00  0.00    -0.462 OA
BRANCH   2   3
ATOM      3  C   UNL A   1      36.202  23.186  23.896  1.00  0.00     0.313 C 
ATOM      4  O   UNL A   1      36.667  22.606  22.926  1.00  0.00    -0.252 OA
BRANCH   3   5
ATOM      5  C   UNL A   1      34.741  23.664  24.030  1.00  0.00     0.134 C 
BRANCH   5   6
ATOM      6  C   UNL A   1      33.981  22.348  24.297  1.00  0.00    -0.031 A 
ATOM      7  C   UNL A   1      32.000  22.956  22.795  1.00  0.00     0.044 C 
ATOM      8  C   UNL A   1      32.849  21.980  23.555  1.00  0.00    -0.047 A 
ATOM      9  C   UNL A   1      32.520  20.618  23.468  1.00  0.00     0.004 A 
ATOM     10  C   UNL A   1      33.264  19.646  24.141  1.00  0.00     0.000 A 
ATOM     11  C   UNL A   1      34.628  21.370  25.094  1.00  0.00     0.005 A 
ATOM     12  C   UNL A   1      34.298  20.026  24.984  1.00  0.00     0.000 A 
ENDBRANCH   5   6
BRANCH   5  13
ATOM     13  C   UNL A   1      34.439  24.732  25.124  1.00  0.00     0.058 C 
BRANCH  13  14
ATOM     14  C   UNL A   1      33.046  25.361  25.296  1.00  0.00    -0.010 A 
ATOM     15  C   UNL A   1      32.771  26.656  24.789  1.00  0.00     0.045 A 
ATOM     16  C   UNL A   1      32.008  24.792  26.063  1.00  0.00     0.045 A 
ATOM     17  Cl  UNL A   1      34.009  27.679  24.135  1.00  0.00    -0.084 Cl
ATOM     18  C   UNL A   1      31.490  27.234  24.861  1.00  0.00     0.021 A 
ATOM     19  C   UNL A   1      30.722  25.368  26.127  1.00  0.00     0.021 A 
ATOM     20  Cl  UNL A   1      32.221  23.397  27.054  1.00  0.00    -0.084 Cl
ATOM     21  C   UNL A   1      30.448  26.568  25.488  1.00  0.00     0.003 A 
ENDBRANCH  13  14
ENDBRANCH   5  13
ENDBRANCH   3   5
ENDBRANCH   2   3
ENDBRANCH   1   2
BRANCH   1  22
ATOM     22  C   UNL A   1      38.765  22.550  26.100  1.00  0.00     0.275 C 
BRANCH  22  23
ATOM     23  O   UNL A   1      39.567  23.248  27.094  1.00  0.00    -0.458 OA
BRANCH  23  24
ATOM     24  C   UNL A   1      40.431  24.286  26.894  1.00  0.00     0.338 C 
ATOM     25  O   UNL A   1      41.424  24.198  26.200  1.00  0.00    -0.246 OA
BRANCH  24  26
ATOM     26  C   UNL A   1      40.036  25.580  27.473  1.00  0.00     0.060 A 
ATOM     27  C   UNL A   1      39.365  25.592  28.701  1.00  0.00     0.016 A 
ATOM     28  C   UNL A   1      40.495  26.756  26.899  1.00  0.00     0.016 A 
ATOM     29  C   UNL A   1      39.308  26.780  29.432  1.00  0.00     0.010 A 
ATOM     30  C   UNL A   1      40.552  27.893  27.679  1.00  0.00     0.010 A 
ATOM     31  C   UNL A   1      39.969  27.915  28.957  1.00  0.00    -0.014 A 
BRANCH  31  32
ATOM     32  C   UNL A   1      39.772  29.251  29.523  1.00  0.00     0.031 A 
ATOM     33  C   UNL A   1      38.736  30.231  29.131  1.00  0.00     0.074 A 
ATOM     34  C   UNL A   1      40.677  29.541  30.481  1.00  0.00     0.049 A 
ATOM     35  N   UNL A   1      38.829  31.505  29.322  1.00  0.00    -0.248 NA
ATOM     36  C   UNL A   1      37.496  29.875  28.467  1.00  0.00     0.031 C 
ATOM     37  C   UNL A   1      40.750  30.672  31.383  1.00  0.00     0.029 A 
ATOM     38  N   UNL A   1      41.909  28.894  30.641  1.00  0.00    -0.354 N 
ATOM     39  C   UNL A   1      37.596  32.073  29.063  1.00  0.00     0.074 A 
ATOM     40  C   UNL A   1      36.819  31.028  28.459  1.00  0.00     0.031 C 
ATOM     41  C   UNL A   1      42.041  30.838  31.726  1.00  0.00     0.029 A 
ATOM     42  C   UNL A   1      42.826  29.896  30.932  1.00  0.00     0.049 A 
ATOM     43  H   UNL A   1      42.089  27.930  30.563  1.00  0.00     0.167 HD
ATOM     44  C   UNL A   1      37.326  33.333  29.504  1.00  0.00     0.031 A 
ATOM     45  C   UNL A   1      43.823  30.202  30.055  1.00  0.00     0.031 A 
ATOM     46  C   UNL A   1      38.523  33.936  30.072  1.00  0.00     0.049 A 
ATOM     47  C   UNL A   1      43.739  31.647  29.629  1.00  0.00     0.074 A 
ATOM     48  C   UNL A   1      39.005  34.021  31.367  1.00  0.00     0.029 A 
ATOM     49  N   UNL A   1      39.594  34.204  29.229  1.00  0.00    -0.354 N 
ATOM     50  N   UNL A   1      42.643  32.354  29.602  1.00  0.00    -0.248 NA
ATOM     51  C   UNL A   1      44.908  32.390  29.186  1.00  0.00     0.031 C 
ATOM     52  C   UNL A   1      40.408  34.241  31.290  1.00  0.00     0.029 A 
ATOM     53  C   UNL A   1      40.760  34.343  29.954  1.00  0.00     0.049 A 
ATOM     54  H   UNL A   1      39.530  34.284  28.250  1.00  0.00     0.167 HD
ATOM     55  C   UNL A   1      42.950  33.650  29.263  1.00  0.00     0.074 A 
ATOM     56  C   UNL A   1      44.376  33.606  28.979  1.00  0.00     0.031 C 
ATOM     57  C   UNL A   1      42.017  34.651  29.276  1.00  0.00     0.031 A 
BRANCH  44  58
ATOM     58  C   UNL A   1      35.933  33.903  29.671  1.00  0.00    -0.014 A 
ATOM     59  C   UNL A   1      35.258  34.409  28.542  1.00  0.00     0.009 A 
ATOM     60  C   UNL A   1      35.257  34.033  30.897  1.00  0.00     0.009 A 
ATOM     61  C   UNL A   1      34.030  35.083  28.640  1.00  0.00     0.001 A 
ATOM     62  C   UNL A   1      34.040  34.730  31.006  1.00  0.00     0.001 A 
ATOM     63  C   UNL A   1      33.432  35.267  29.878  1.00  0.00     0.000 A 
ENDBRANCH  44  58
BRANCH  45  64
ATOM     64  C   UNL A   1      44.299  29.091  29.164  1.00  0.00    -0.014 A 
ATOM     65  C   UNL A   1      44.752  27.886  29.751  1.00  0.00     0.009 A 
ATOM     66  C   UNL A   1      44.074  29.096  27.780  1.00  0.00     0.009 A 
ATOM     67  C   UNL A   1      44.871  26.710  29.003  1.00  0.00     0.001 A 
ATOM     68  C   UNL A   1      44.223  27.920  27.025  1.00  0.00     0.001 A 
ATOM     69  C   UNL A   1      44.593  26.724  27.641  1.00  0.00     0.000 A 
ENDBRANCH  45  64
BRANCH  57  70
ATOM     70  C   UNL A   1      42.191  36.066  28.756  1.00  0.00    -0.014 A 
ATOM     71  C   UNL A   1      42.861  37.097  29.421  1.00  0.00     0.009 A 
ATOM     72  C   UNL A   1      41.711  36.379  27.461  1.00  0.00     0.009 A 
ATOM     73  C   UNL A   1      42.998  38.374  28.857  1.00  0.00     0.001 A 
ATOM     74  C   UNL A   1      41.887  37.632  26.870  1.00  0.00     0.001 A 
ATOM     75  C   UNL A   1      42.521  38.638  27.580  1.00  0.00     0.000 A 
ENDBRANCH  57  70
ENDBRANCH  31  32
ENDBRANCH  24  26
ENDBRANCH  23  24
ENDBRANCH  22  23
ENDBRANCH   1  22
TORSDOF 14
ENDMDL
MODEL 2
REMARK VINA RESULT:     -11.4      3.546      8.927
REMARK SMILES Cc1ccccc1[C@@H](Cc1c(Cl)cccc1Cl)C(=O)OCCOC(=O)c1ccc(-c2c3nc(c(-c4ccccc4)c4ccc([nH]4)c(-c4ccccc4)c4nc(c(-c5ccccc5)c5ccc2[nH]5)C=C4)C=C3)cc1
REMARK SMILES IDX 21 1 20 2 18 3 19 4 8 5 7 6 1 7 2 8 3 9 4 10 6 11 5 12 9 13
REMARK SMILES IDX 10 14 11 15 16 16 12 17 13 18 15 19 17 20 14 21 22 22 23 23
REMARK SMILES IDX 24 24 25 25 26 26 27 27 73 28 28 29 72 30 29 31 30 32 31 33
REMARK SMILES IDX 66 34 32 35 71 36 65 37 67 38 33 39 70 40 64 41 63 42 34 44
REMARK SMILES IDX 56 45 41 46 55 47 42 48 45 49 54 50 68 51 43 52 44 53 53 55
REMARK SMILES IDX 69 56 46 57 35 58 36 59 40 60 37 61 39 62 38 63 57 64 58 65
REMARK SMILES IDX 62 66 59 67 61 68 60 69 47 70 48 71 52 72 49 73 51 74 50 75
REMARK H PARENT 67 43 45 54
REMARK Flexibility Score: inf
ROOT
ATOM      1  C   UNL A   1      32.477  29.367  26.594  1.00  0.00     0.274 C 
ENDROOT
BRANCH   1   2
ATOM      2  O   UNL A   1      33.015  28.041  26.576  1.00  0.00    -0.462 OA
BRANCH   2   3
ATOM      3  C   UNL A   1      33.551  27.636  25.379  1.00  0.00     0.313 C 
ATOM      4  O   UNL A   1      34.055  28.401  24.569  1.00  0.00    -0.252 OA
BRANCH   3   5
ATOM      5  C   UNL A   1      33.139  26.178  25.088  1.00  0.00     0.134 C 
BRANCH   5   6
ATOM      6  C   UNL A   1      31.847  26.354  24.263  1.00  0.00    -0.031 A 
ATOM      7  C   UNL A   1      30.363  25.140  25.959  1.00  0.00     0.044 C 
ATOM      8  C   UNL A   1      30.581  26.055  24.791  1.00  0.00    -0.047 A 
ATOM      9  C   UNL A   1      29.459  26.690  24.236  1.00  0.00     0.004 A 
ATOM     10  C   UNL A   1      29.579  27.562  23.152  1.00  0.00     0.000 A 
ATOM     11  C   UNL A   1      31.932  27.115  23.070  1.00  0.00     0.005 A 
ATOM     12  C   UNL A   1      30.813  27.747  22.545  1.00  0.00     0.000 A 
ENDBRANCH   5   6
BRANCH   5  13
ATOM     13  C   UNL A   1      34.175  25.279  24.348  1.00  0.00     0.058 C 
BRANCH  13  14
ATOM     14  C   UNL A   1      34.224  23.754  24.542  1.00  0.00    -0.010 A 
ATOM     15  C   UNL A   1      35.286  23.152  25.263  1.00  0.00     0.045 A 
ATOM     16  C   UNL A   1      33.338  22.847  23.924  1.00  0.00     0.045 A 
ATOM     17  Cl  UNL A   1      36.674  24.048  25.792  1.00  0.00    -0.084 Cl
ATOM     18  C   UNL A   1      35.328  21.770  25.523  1.00  0.00     0.021 A 
ATOM     19  C   UNL A   1      33.376  21.463  24.193  1.00  0.00     0.021 A 
ATOM     20  Cl  UNL A   1      32.185  23.316  22.731  1.00  0.00    -0.084 Cl
ATOM     21  C   UNL A   1      34.343  20.928  25.030  1.00  0.00     0.003 A 
ENDBRANCH  13  14
ENDBRANCH   5  13
ENDBRANCH   3   5
ENDBRANCH   2   3
ENDBRANCH   1   2
BRANCH   1  22
ATOM     22  C   UNL A   1      33.401  30.384  27.293  1.00  0.00     0.275 C 
BRANCH  22  23
ATOM     23  O   UNL A   1      34.679  29.912  27.805  1.00  0.00    -0.458 OA
BRANCH  23  24
ATOM     24  C   UNL A   1      35.623  30.623  28.488  1.00  0.00     0.338 C 
ATOM     25  O   UNL A   1      35.387  31.680  29.037  1.00  0.00    -0.246 OA
BRANCH  24  26
ATOM     26  C   UNL A   1      36.939  29.981  28.634  1.00  0.00     0.060 A 
ATOM     27  C   UNL A   1      37.182  29.190  29.762  1.00  0.00     0.016 A 
ATOM     28  C   UNL A   1      37.837  30.012  27.576  1.00  0.00     0.016 A 
ATOM     29  C   UNL A   1      38.254  28.297  29.746  1.00  0.00     0.010 A 
ATOM     30  C   UNL A   1      38.813  29.039  27.511  1.00  0.00     0.010 A 
ATOM     31  C   UNL A   1      39.026  28.164  28.590  1.00  0.00    -0.014 A 
BRANCH  31  32
ATOM     32  C   UNL A   1      40.298  27.439  28.556  1.00  0.00     0.031 A 
ATOM     33  C   UNL A   1      40.480  25.986  28.354  1.00  0.00     0.074 A 
ATOM     34  C   UNL A   1      41.357  28.253  28.750  1.00  0.00     0.049 A 
ATOM     35  N   UNL A   1      41.521  25.322  28.735  1.00  0.00    -0.248 NA
ATOM     36  C   UNL A   1      39.497  25.128  27.719  1.00  0.00     0.031 C 
ATOM     37  C   UNL A   1      42.775  27.976  28.647  1.00  0.00     0.029 A 
ATOM     38  N   UNL A   1      41.296  29.520  29.344  1.00  0.00    -0.354 N 
ATOM     39  C   UNL A   1      41.460  24.061  28.172  1.00  0.00     0.074 A 
ATOM     40  C   UNL A   1      40.142  23.962  27.611  1.00  0.00     0.031 C 
ATOM     41  C   UNL A   1      43.419  28.848  29.447  1.00  0.00     0.029 A 
ATOM     42  C   UNL A   1      42.403  29.599  30.178  1.00  0.00     0.049 A 
ATOM     43  H   UNL A   1      40.610  30.211  29.200  1.00  0.00     0.167 HD
ATOM     44  C   UNL A   1      42.577  23.283  28.134  1.00  0.00     0.031 A 
ATOM     45  C   UNL A   1      42.250  29.660  31.531  1.00  0.00     0.031 A 
ATOM     46  C   UNL A   1      43.657  23.915  28.877  1.00  0.00     0.049 A 
ATOM     47  C   UNL A   1      42.952  28.507  32.203  1.00  0.00     0.074 A 
ATOM     48  C   UNL A   1      44.704  24.734  28.493  1.00  0.00     0.029 A 
ATOM     49  N   UNL A   1      43.519  24.062  30.251  1.00  0.00    -0.354 N 
ATOM     50  N   UNL A   1      43.177  27.346  31.651  1.00  0.00    -0.248 NA
ATOM     51  C   UNL A   1      43.438  28.590  33.571  1.00  0.00     0.031 C 
ATOM     52  C   UNL A   1      45.128  25.459  29.642  1.00  0.00     0.029 A 
ATOM     53  C   UNL A   1      44.374  25.037  30.725  1.00  0.00     0.049 A 
ATOM     54  H   UNL A   1      42.896  23.544  30.810  1.00  0.00     0.167 HD
ATOM     55  C   UNL A   1      43.923  26.574  32.509  1.00  0.00     0.074 A 
ATOM     56  C   UNL A   1      44.026  27.390  33.709  1.00  0.00     0.031 C 
ATOM     57  C   UNL A   1      44.418  25.350  32.151  1.00  0.00     0.031 A 
BRANCH  44  58
ATOM     58  C   UNL A   1      42.770  22.105  27.203  1.00  0.00    -0.014 A 
ATOM     59  C   UNL A   1      42.023  20.929  27.420  1.00  0.00     0.009 A 
ATOM     60  C   UNL A   1      43.698  22.053  26.148  1.00  0.00     0.009 A 
ATOM     61  C   UNL A   1      42.251  19.750  26.693  1.00  0.00     0.001 A 
ATOM     62  C   UNL A   1      43.949  20.868  25.433  1.00  0.00     0.001 A 
ATOM     63  C   UNL A   1      43.234  19.711  25.715  1.00  0.00     0.000 A 
ENDBRANCH  44  58
BRANCH  45  64
ATOM     64  C   UNL A   1      40.979  30.279  32.037  1.00  0.00    -0.014 A 
ATOM     65  C   UNL A   1      40.558  31.519  31.502  1.00  0.00     0.009 A 
ATOM     66  C   UNL A   1      40.063  29.566  32.822  1.00  0.00     0.009 A 
ATOM     67  C   UNL A   1      39.244  31.973  31.657  1.00  0.00     0.001 A 
ATOM     68  C   UNL A   1      38.752  30.038  33.002  1.00  0.00     0.001 A 
ATOM     69  C   UNL A   1      38.336  31.224  32.397  1.00  0.00     0.000 A 
ENDBRANCH  45  64
BRANCH  57  70
ATOM     70  C   UNL A   1      45.094  24.339  33.058  1.00  0.00    -0.014 A 
ATOM     71  C   UNL A   1      44.567  23.095  33.419  1.00  0.00     0.009 A 
ATOM     72  C   UNL A   1      46.399  24.615  33.534  1.00  0.00     0.009 A 
ATOM     73  C   UNL A   1      45.271  22.206  34.244  1.00  0.00     0.001 A 
ATOM     74  C   UNL A   1      47.127  23.715  34.313  1.00  0.00     0.001 A 
ATOM     75  C   UNL A   1      46.553  22.511  34.683  1.00  0.00     0.000 A 
ENDBRANCH  57  70
ENDBRANCH  31  32
ENDBRANCH  24  26
ENDBRANCH  23  24
ENDBRANCH  22  23
ENDBRANCH   1  22
TORSDOF 14
ENDMDL
MODEL 3
REMARK VINA RESULT:     -11.3      3.689      8.813
REMARK SMILES Cc1ccccc1[C@@H](Cc1c(Cl)cccc1Cl)C(=O)OCCOC(=O)c1ccc(-c2c3nc(c(-c4ccccc4)c4ccc([nH]4)c(-c4ccccc4)c4nc(c(-c5ccccc5)c5ccc2[nH]5)C=C4)C=C3)cc1
REMARK SMILES IDX 21 1 20 2 18 3 19 4 8 5 7 6 1 7 2 8 3 9 4 10 6 11 5 12 9 13
REMARK SMILES IDX 10 14 11 15 16 16 12 17 13 18 15 19 17 20 14 21 22 22 23 23
REMARK SMILES IDX 24 24 25 25 26 26 27 27 73 28 28 29 72 30 29 31 30 32 31 33
REMARK SMILES IDX 66 34 32 35 71 36 65 37 67 38 33 39 70 40 64 41 63 42 34 44
REMARK SMILES IDX 56 45 41 46 55 47 42 48 45 49 54 50 68 51 43 52 44 53 53 55
REMARK SMILES IDX 69 56 46 57 35 58 36 59 40 60 37 61 39 62 38 63 57 64 58 65
REMARK SMILES IDX 62 66 59 67 61 68 60 69 47 70 48 71 52 72 49 73 51 74 50 75
REMARK H PARENT 67 43 45 54
REMARK Flexibility Score: inf
ROOT
ATOM      1  C   UNL A   1      33.235  28.573  27.208  1.00  0.00     0.274 C 
ENDROOT
BRANCH   1   2
ATOM      2  O   UNL A   1      33.363  27.356  26.467  1.00  0.00    -0.462 OA
BRANCH   2   3
ATOM      3  C   UNL A   1      32.185  26.805  26.026  1.00  0.00     0.313 C 
ATOM      4  O   UNL A   1      31.143  26.835  26.664  1.00  0.00    -0.252 OA
BRANCH   3   5
ATOM      5  C   UNL A   1      32.457  25.900  24.806  1.00  0.00     0.134 C 
BRANCH   5   6
ATOM      6  C   UNL A   1      32.574  24.501  25.448  1.00  0.00    -0.031 A 
ATOM      7  C   UNL A   1      35.131  24.455  25.353  1.00  0.00     0.044 C 
ATOM      8  C   UNL A   1      33.806  23.978  25.869  1.00  0.00    -0.047 A 
ATOM      9  C   UNL A   1      33.807  22.992  26.868  1.00  0.00     0.004 A 
ATOM     10  C   UNL A   1      32.616  22.499  27.404  1.00  0.00     0.000 A 
ATOM     11  C   UNL A   1      31.378  23.881  25.888  1.00  0.00     0.005 A 
ATOM     12  C   UNL A   1      31.399  22.918  26.888  1.00  0.00     0.000 A 
ENDBRANCH   5   6
BRANCH   5  13
ATOM     13  C   UNL A   1      31.403  25.918  23.658  1.00  0.00     0.058 C 
BRANCH  13  14
ATOM     14  C   UNL A   1      30.659  27.200  23.247  1.00  0.00    -0.010 A 
ATOM     15  C   UNL A   1      31.375  28.335  22.792  1.00  0.00     0.045 A 
ATOM     16  C   UNL A   1      29.273  27.402  23.417  1.00  0.00     0.045 A 
ATOM     17  Cl  UNL A   1      33.106  28.428  22.855  1.00  0.00    -0.084 Cl
ATOM     18  C   UNL A   1      30.727  29.500  22.338  1.00  0.00     0.021 A 
ATOM     19  C   UNL A   1      28.625  28.566  22.954  1.00  0.00     0.021 A 
ATOM     20  Cl  UNL A   1      28.255  26.301  24.267  1.00  0.00    -0.084 Cl
ATOM     21  C   UNL A   1      29.345  29.597  22.372  1.00  0.00     0.003 A 
ENDBRANCH  13  14
ENDBRANCH   5  13
ENDBRANCH   3   5
ENDBRANCH   2   3
ENDBRANCH   1   2
BRANCH   1  22
ATOM     22  C   UNL A   1      34.430  29.528  27.012  1.00  0.00     0.275 C 
BRANCH  22  23
ATOM     23  O   UNL A   1      34.959  30.214  28.181  1.00  0.00    -0.458 OA
BRANCH  23  24
ATOM     24  C   UNL A   1      36.225  30.686  28.373  1.00  0.00     0.338 C 
ATOM     25  O   UNL A   1      36.464  31.831  28.698  1.00  0.00    -0.246 OA
BRANCH  24  26
ATOM     26  C   UNL A   1      37.308  29.693  28.281  1.00  0.00     0.060 A 
ATOM     27  C   UNL A   1      38.134  29.699  27.153  1.00  0.00     0.016 A 
ATOM     28  C   UNL A   1      37.609  28.906  29.383  1.00  0.00     0.016 A 
ATOM     29  C   UNL A   1      39.361  29.034  27.206  1.00  0.00     0.010 A 
ATOM     30  C   UNL A   1      38.873  28.361  29.480  1.00  0.00     0.010 A 
ATOM     31  C   UNL A   1      39.767  28.428  28.397  1.00  0.00    -0.014 A 
BRANCH  31  32
ATOM     32  C   UNL A   1      40.910  27.517  28.482  1.00  0.00     0.031 A 
ATOM     33  C   UNL A   1      40.877  26.046  28.340  1.00  0.00     0.074 A 
ATOM     34  C   UNL A   1      42.066  28.167  28.731  1.00  0.00     0.049 A 
ATOM     35  N   UNL A   1      41.772  25.247  28.819  1.00  0.00    -0.248 NA
ATOM     36  C   UNL A   1      39.820  25.322  27.659  1.00  0.00     0.031 C 
ATOM     37  C   UNL A   1      43.428  27.672  28.745  1.00  0.00     0.029 A 
ATOM     38  N   UNL A   1      42.162  29.452  29.279  1.00  0.00    -0.354 N 
ATOM     39  C   UNL A   1      41.556  23.988  28.293  1.00  0.00     0.074 A 
ATOM     40  C   UNL A   1      40.281  24.067  27.636  1.00  0.00     0.031 C 
ATOM     41  C   UNL A   1      44.142  28.468  29.564  1.00  0.00     0.029 A 
ATOM     42  C   UNL A   1      43.206  29.396  30.192  1.00  0.00     0.049 A 
ATOM     43  H   UNL A   1      41.603  30.233  29.063  1.00  0.00     0.167 HD
ATOM     44  C   UNL A   1      42.538  23.047  28.363  1.00  0.00     0.031 A 
ATOM     45  C   UNL A   1      42.970  29.537  31.528  1.00  0.00     0.031 A 
ATOM     46  C   UNL A   1      43.649  23.537  29.167  1.00  0.00     0.049 A 
ATOM     47  C   UNL A   1      43.435  28.319  32.286  1.00  0.00     0.074 A 
ATOM     48  C   UNL A   1      44.835  24.170  28.837  1.00  0.00     0.029 A 
ATOM     49  N   UNL A   1      43.438  23.761  30.521  1.00  0.00    -0.354 N 
ATOM     50  N   UNL A   1      43.515  27.115  31.789  1.00  0.00    -0.248 NA
ATOM     51  C   UNL A   1      43.831  28.385  33.684  1.00  0.00     0.031 C 
ATOM     52  C   UNL A   1      45.284  24.869  29.992  1.00  0.00     0.029 A 
ATOM     53  C   UNL A   1      44.400  24.613  31.028  1.00  0.00     0.049 A 
ATOM     54  H   UNL A   1      42.704  23.369  31.047  1.00  0.00     0.167 HD
ATOM     55  C   UNL A   1      44.069  26.276  32.724  1.00  0.00     0.074 A 
ATOM     56  C   UNL A   1      44.213  27.116  33.903  1.00  0.00     0.031 C 
ATOM     57  C   UNL A   1      44.391  24.976  32.443  1.00  0.00     0.031 A 
BRANCH  44  58
ATOM     58  C   UNL A   1      42.609  21.815  27.486  1.00  0.00    -0.014 A 
ATOM     59  C   UNL A   1      43.478  21.812  26.376  1.00  0.00     0.009 A 
ATOM     60  C   UNL A   1      41.819  20.663  27.647  1.00  0.00     0.009 A 
ATOM     61  C   UNL A   1      43.492  20.768  25.437  1.00  0.00     0.001 A 
ATOM     62  C   UNL A   1      41.809  19.627  26.696  1.00  0.00     0.001 A 
ATOM     63  C   UNL A   1      42.637  19.686  25.583  1.00  0.00     0.000 A 
ENDBRANCH  44  58
BRANCH  45  64
ATOM     64  C   UNL A   1      41.779  30.364  31.916  1.00  0.00    -0.014 A 
ATOM     65  C   UNL A   1      40.595  29.710  32.331  1.00  0.00     0.009 A 
ATOM     66  C   UNL A   1      41.868  31.746  32.132  1.00  0.00     0.009 A 
ATOM     67  C   UNL A   1      39.591  30.391  33.029  1.00  0.00     0.001 A 
ATOM     68  C   UNL A   1      40.845  32.434  32.807  1.00  0.00     0.001 A 
ATOM     69  C   UNL A   1      39.723  31.753  33.279  1.00  0.00     0.000 A 
ENDBRANCH  45  64
BRANCH  57  70
ATOM     70  C   UNL A   1      44.836  23.912  33.429  1.00  0.00    -0.014 A 
ATOM     71  C   UNL A   1      44.078  22.806  33.825  1.00  0.00     0.009 A 
ATOM     72  C   UNL A   1      46.151  23.976  33.953  1.00  0.00     0.009 A 
ATOM     73  C   UNL A   1      44.576  21.853  34.725  1.00  0.00     0.001 A 
ATOM     74  C   UNL A   1      46.672  23.004  34.809  1.00  0.00     0.001 A 
ATOM     75  C   UNL A   1      45.874  21.946  35.210  1.00  0.00     0.000 A 
ENDBRANCH  57  70
ENDBRANCH  31  32
ENDBRANCH  24  26
ENDBRANCH  23  24
ENDBRANCH  22  23
ENDBRANCH   1  22
TORSDOF 14
ENDMDL
