MODEL 1
REMARK VINA RESULT:     -12.2      0.000      0.000
REMARK SMILES Cc1ccc(C(=O)N2C[C@@H](C(=O)OCCOC(=O)c3ccc(-c4c5nc(c(-c6ccccc6)c6ccc([nH]6)c(-c6ccccc6)c6nc(c(-c7ccccc7)c7ccc4[nH]7)C=C6)C=C5)cc3)C[C@H](C(=O)N3CCOCC3)C2)cc1F
REMARK SMILES IDX 14 1 13 2 11 3 12 4 10 5 8 6 9 7 77 8 68 9 67 10 6 11 7 12
REMARK SMILES IDX 5 13 1 14 2 15 3 16 79 17 4 18 78 19 80 20 69 21 70 22 71 23
REMARK SMILES IDX 72 24 76 25 73 26 75 27 74 28 15 29 16 30 17 31 18 32 19 33
REMARK SMILES IDX 20 34 66 35 21 36 65 37 22 38 23 39 24 40 59 41 25 42 64 43
REMARK SMILES IDX 58 44 60 45 26 46 63 47 57 48 56 49 27 51 49 52 34 53 48 54
REMARK SMILES IDX 35 55 38 56 47 57 61 58 36 59 37 60 46 62 62 63 39 64 28 65
REMARK SMILES IDX 29 66 33 67 30 68 32 69 31 70 50 71 51 72 55 73 52 74 54 75
REMARK SMILES IDX 53 76 40 77 41 78 45 79 42 80 44 81 43 82
REMARK H PARENT 60 50 38 61
REMARK Flexibility Score: inf
ROOT
ATOM      1  C   UNL A   1      38.576  21.256  25.675  1.00  0.00     0.274 C 
ENDROOT
BRANCH   1   2
ATOM      2  O   UNL A   1      37.573  21.460  24.659  1.00  0.00    -0.462 OA
BRANCH   2   3
ATOM      3  C   UNL A   1      36.722  22.492  24.888  1.00  0.00     0.310 C 
ATOM      4  O   UNL A   1      37.045  23.578  25.352  1.00  0.00    -0.252 OA
BRANCH   3   5
ATOM      5  C   UNL A   1      35.287  22.164  24.548  1.00  0.00     0.119 C 
ATOM      6  N   UNL A   1      33.102  23.150  24.198  1.00  0.00    -0.337 N 
ATOM      7  C   UNL A   1      34.456  23.422  24.658  1.00  0.00     0.135 C 
ATOM      8  C   UNL A   1      32.360  22.137  24.947  1.00  0.00     0.133 C 
ATOM      9  C   UNL A   1      33.152  20.815  25.109  1.00  0.00     0.099 C 
ATOM     10  C   UNL A   1      34.660  21.015  25.353  1.00  0.00     0.032 C 
BRANCH   6  11
ATOM     11  C   UNL A   1      32.707  23.657  22.966  1.00  0.00     0.254 C 
ATOM     12  O   UNL A   1      33.062  23.155  21.903  1.00  0.00    -0.269 OA
BRANCH  11  13
ATOM     13  C   UNL A   1      31.943  24.929  22.922  1.00  0.00     0.042 A 
ATOM     14  C   UNL A   1      30.032  28.738  23.522  1.00  0.00     0.047 C 
ATOM     15  C   UNL A   1      30.662  27.402  23.265  1.00  0.00    -0.015 A 
ATOM     16  C   UNL A   1      29.996  26.215  23.590  1.00  0.00     0.007 A 
ATOM     17  C   UNL A   1      31.957  27.328  22.742  1.00  0.00     0.126 A 
ATOM     18  C   UNL A   1      30.635  24.984  23.424  1.00  0.00     0.014 A 
ATOM     19  C   UNL A   1      32.606  26.109  22.577  1.00  0.00     0.053 A 
ATOM     20  F   UNL A   1      32.612  28.456  22.432  1.00  0.00    -0.207 F 
ENDBRANCH  11  13
ENDBRANCH   6  11
BRANCH   9  21
ATOM     21  C   UNL A   1      32.609  19.798  24.085  1.00  0.00     0.227 C 
ATOM     22  O   UNL A   1      32.146  20.252  23.029  1.00  0.00    -0.275 OA
ATOM     23  N   UNL A   1      32.845  18.450  24.202  1.00  0.00    -0.338 N 
ATOM     24  C   UNL A   1      32.567  17.620  25.368  1.00  0.00     0.148 C 
ATOM     25  C   UNL A   1      32.981  17.644  22.984  1.00  0.00     0.148 C 
ATOM     26  C   UNL A   1      33.654  16.556  25.531  1.00  0.00     0.181 C 
ATOM     27  C   UNL A   1      34.019  16.532  23.197  1.00  0.00     0.181 C 
ATOM     28  O   UNL A   1      33.713  15.735  24.353  1.00  0.00    -0.378 OA
ENDBRANCH   9  21
ENDBRANCH   3   5
ENDBRANCH   2   3
ENDBRANCH   1   2
BRANCH   1  29
ATOM     29  C   UNL A   1      39.272  19.906  25.513  1.00  0.00     0.275 C 
BRANCH  29  30
ATOM     30  O   UNL A   1      40.304  19.739  26.503  1.00  0.00    -0.458 OA
BRANCH  30  31
ATOM     31  C   UNL A   1      41.569  19.916  26.070  1.00  0.00     0.338 C 
ATOM     32  O   UNL A   1      42.216  19.185  25.328  1.00  0.00    -0.246 OA
BRANCH  31  33
ATOM     33  C   UNL A   1      42.102  21.184  26.582  1.00  0.00     0.060 A 
ATOM     34  C   UNL A   1      42.192  21.370  27.959  1.00  0.00     0.016 A 
ATOM     35  C   UNL A   1      42.384  22.237  25.711  1.00  0.00     0.016 A 
ATOM     36  C   UNL A   1      42.498  22.630  28.467  1.00  0.00     0.010 A 
ATOM     37  C   UNL A   1      42.767  23.483  26.229  1.00  0.00     0.010 A 
ATOM     38  C   UNL A   1      42.802  23.702  27.616  1.00  0.00    -0.014 A 
BRANCH  38  39
ATOM     39  C   UNL A   1      43.114  25.042  28.193  1.00  0.00     0.031 A 
ATOM     40  C   UNL A   1      42.010  26.022  28.497  1.00  0.00     0.074 A 
ATOM     41  C   UNL A   1      44.383  25.373  28.507  1.00  0.00     0.049 A 
ATOM     42  N   UNL A   1      42.098  27.276  28.869  1.00  0.00    -0.248 NA
ATOM     43  C   UNL A   1      40.629  25.533  28.365  1.00  0.00     0.031 C 
ATOM     44  C   UNL A   1      45.553  24.508  28.346  1.00  0.00     0.029 A 
ATOM     45  N   UNL A   1      44.897  26.524  29.053  1.00  0.00    -0.354 N 
ATOM     46  C   UNL A   1      40.791  27.738  28.963  1.00  0.00     0.074 A 
ATOM     47  C   UNL A   1      39.927  26.629  28.617  1.00  0.00     0.031 C 
ATOM     48  C   UNL A   1      46.634  25.133  28.838  1.00  0.00     0.029 A 
ATOM     49  C   UNL A   1      46.253  26.476  29.261  1.00  0.00     0.049 A 
ATOM     50  H   UNL A   1      44.344  27.309  29.274  1.00  0.00     0.167 HD
ATOM     51  C   UNL A   1      40.350  28.975  29.297  1.00  0.00     0.031 A 
ATOM     52  C   UNL A   1      47.111  27.416  29.703  1.00  0.00     0.031 A 
ATOM     53  C   UNL A   1      41.197  30.072  29.682  1.00  0.00     0.049 A 
ATOM     54  C   UNL A   1      46.606  28.793  30.014  1.00  0.00     0.074 A 
ATOM     55  C   UNL A   1      40.834  31.365  30.020  1.00  0.00     0.029 A 
ATOM     56  N   UNL A   1      42.575  30.001  29.802  1.00  0.00    -0.354 N 
ATOM     57  N   UNL A   1      45.376  29.244  29.997  1.00  0.00    -0.248 NA
ATOM     58  C   UNL A   1      47.615  29.802  30.371  1.00  0.00     0.031 C 
ATOM     59  C   UNL A   1      41.997  32.086  30.314  1.00  0.00     0.029 A 
ATOM     60  C   UNL A   1      43.079  31.230  30.194  1.00  0.00     0.049 A 
ATOM     61  H   UNL A   1      43.115  29.195  29.634  1.00  0.00     0.167 HD
ATOM     62  C   UNL A   1      45.463  30.588  30.332  1.00  0.00     0.074 A 
ATOM     63  C   UNL A   1      46.862  30.874  30.577  1.00  0.00     0.031 C 
ATOM     64  C   UNL A   1      44.471  31.507  30.416  1.00  0.00     0.031 A 
BRANCH  51  65
ATOM     65  C   UNL A   1      38.873  29.226  29.208  1.00  0.00    -0.014 A 
ATOM     66  C   UNL A   1      38.039  29.099  30.329  1.00  0.00     0.009 A 
ATOM     67  C   UNL A   1      38.318  29.640  27.987  1.00  0.00     0.009 A 
ATOM     68  C   UNL A   1      36.670  29.360  30.220  1.00  0.00     0.001 A 
ATOM     69  C   UNL A   1      36.955  29.920  27.887  1.00  0.00     0.001 A 
ATOM     70  C   UNL A   1      36.131  29.773  29.001  1.00  0.00     0.000 A 
ENDBRANCH  51  65
BRANCH  52  71
ATOM     71  C   UNL A   1      48.559  27.103  29.811  1.00  0.00    -0.014 A 
ATOM     72  C   UNL A   1      49.419  27.319  28.726  1.00  0.00     0.009 A 
ATOM     73  C   UNL A   1      49.086  26.589  31.007  1.00  0.00     0.009 A 
ATOM     74  C   UNL A   1      50.778  27.015  28.832  1.00  0.00     0.001 A 
ATOM     75  C   UNL A   1      50.449  26.311  31.119  1.00  0.00     0.001 A 
ATOM     76  C   UNL A   1      51.293  26.519  30.030  1.00  0.00     0.000 A 
ENDBRANCH  52  71
BRANCH  64  77
ATOM     77  C   UNL A   1      44.869  32.904  30.787  1.00  0.00    -0.014 A 
ATOM     78  C   UNL A   1      44.951  33.294  32.133  1.00  0.00     0.009 A 
ATOM     79  C   UNL A   1      45.185  33.834  29.786  1.00  0.00     0.009 A 
ATOM     80  C   UNL A   1      45.316  34.599  32.468  1.00  0.00     0.001 A 
ATOM     81  C   UNL A   1      45.569  35.133  30.125  1.00  0.00     0.001 A 
ATOM     82  C   UNL A   1      45.627  35.516  31.464  1.00  0.00     0.000 A 
ENDBRANCH  64  77
ENDBRANCH  38  39
ENDBRANCH  31  33
ENDBRANCH  30  31
ENDBRANCH  29  30
ENDBRANCH   1  29
TORSDOF 14
ENDMDL
MODEL 2
REMARK VINA RESULT:     -12.2      0.584      5.726
REMARK SMILES Cc1ccc(C(=O)N2C[C@@H](C(=O)OCCOC(=O)c3ccc(-c4c5nc(c(-c6ccccc6)c6ccc([nH]6)c(-c6ccccc6)c6nc(c(-c7ccccc7)c7ccc4[nH]7)C=C6)C=C5)cc3)C[C@H](C(=O)N3CCOCC3)C2)cc1F
REMARK SMILES IDX 14 1 13 2 11 3 12 4 10 5 8 6 9 7 77 8 68 9 67 10 6 11 7 12
REMARK SMILES IDX 5 13 1 14 2 15 3 16 79 17 4 18 78 19 80 20 69 21 70 22 71 23
REMARK SMILES IDX 72 24 76 25 73 26 75 27 74 28 15 29 16 30 17 31 18 32 19 33
REMARK SMILES IDX 20 34 66 35 21 36 65 37 22 38 23 39 24 40 59 41 25 42 64 43
REMARK SMILES IDX 58 44 60 45 26 46 63 47 57 48 56 49 27 51 49 52 34 53 48 54
REMARK SMILES IDX 35 55 38 56 47 57 61 58 36 59 37 60 46 62 62 63 39 64 28 65
REMARK SMILES IDX 29 66 33 67 30 68 32 69 31 70 50 71 51 72 55 73 52 74 54 75
REMARK SMILES IDX 53 76 40 77 41 78 45 79 42 80 44 81 43 82
REMARK H PARENT 60 50 38 61
REMARK Flexibility Score: inf
ROOT
ATOM      1  C   UNL A   1      38.859  21.166  25.731  1.00  0.00     0.274 C 
ENDROOT
BRANCH   1   2
ATOM      2  O   UNL A   1      37.425  21.120  25.583  1.00  0.00    -0.462 OA
BRANCH   2   3
ATOM      3  C   UNL A   1      36.862  22.241  25.065  1.00  0.00     0.310 C 
ATOM      4  O   UNL A   1      37.410  23.335  25.000  1.00  0.00    -0.252 OA
BRANCH   3   5
ATOM      5  C   UNL A   1      35.442  22.031  24.596  1.00  0.00     0.119 C 
ATOM      6  N   UNL A   1      33.409  23.195  23.979  1.00  0.00    -0.337 N 
ATOM      7  C   UNL A   1      34.732  23.365  24.562  1.00  0.00     0.135 C 
ATOM      8  C   UNL A   1      32.502  22.299  24.693  1.00  0.00     0.133 C 
ATOM      9  C   UNL A   1      33.140  20.919  24.996  1.00  0.00     0.099 C 
ATOM     10  C   UNL A   1      34.630  20.991  25.383  1.00  0.00     0.032 C 
BRANCH   6  11
ATOM     11  C   UNL A   1      33.188  23.668  22.692  1.00  0.00     0.254 C 
ATOM     12  O   UNL A   1      33.547  23.050  21.693  1.00  0.00    -0.269 OA
BRANCH  11  13
ATOM     13  C   UNL A   1      32.623  25.028  22.511  1.00  0.00     0.042 A 
ATOM     14  C   UNL A   1      31.180  29.076  22.753  1.00  0.00     0.047 C 
ATOM     15  C   UNL A   1      31.654  27.661  22.616  1.00  0.00    -0.015 A 
ATOM     16  C   UNL A   1      30.789  26.584  22.839  1.00  0.00     0.007 A 
ATOM     17  C   UNL A   1      32.994  27.397  22.312  1.00  0.00     0.126 A 
ATOM     18  C   UNL A   1      31.271  25.274  22.792  1.00  0.00     0.014 A 
ATOM     19  C   UNL A   1      33.487  26.098  22.267  1.00  0.00     0.053 A 
ATOM     20  F   UNL A   1      33.839  28.417  22.102  1.00  0.00    -0.207 F 
ENDBRANCH  11  13
ENDBRANCH   6  11
BRANCH   9  21
ATOM     21  C   UNL A   1      32.602  19.903  23.969  1.00  0.00     0.227 C 
ATOM     22  O   UNL A   1      32.163  20.356  22.903  1.00  0.00    -0.275 OA
ATOM     23  N   UNL A   1      32.820  18.553  24.099  1.00  0.00    -0.338 N 
ATOM     24  C   UNL A   1      32.513  17.734  25.264  1.00  0.00     0.148 C 
ATOM     25  C   UNL A   1      32.967  17.738  22.888  1.00  0.00     0.148 C 
ATOM     26  C   UNL A   1      33.585  16.658  25.452  1.00  0.00     0.181 C 
ATOM     27  C   UNL A   1      33.988  16.615  23.125  1.00  0.00     0.181 C 
ATOM     28  O   UNL A   1      33.653  15.829  24.280  1.00  0.00    -0.378 OA
ENDBRANCH   9  21
ENDBRANCH   3   5
ENDBRANCH   2   3
ENDBRANCH   1   2
BRANCH   1  29
ATOM     29  C   UNL A   1      39.486  19.786  25.547  1.00  0.00     0.275 C 
BRANCH  29  30
ATOM     30  O   UNL A   1      40.578  19.593  26.466  1.00  0.00    -0.458 OA
BRANCH  30  31
ATOM     31  C   UNL A   1      41.808  19.858  25.982  1.00  0.00     0.338 C 
ATOM     32  O   UNL A   1      42.483  19.164  25.229  1.00  0.00    -0.246 OA
BRANCH  31  33
ATOM     33  C   UNL A   1      42.259  21.175  26.450  1.00  0.00     0.060 A 
ATOM     34  C   UNL A   1      42.286  21.430  27.819  1.00  0.00     0.016 A 
ATOM     35  C   UNL A   1      42.523  22.198  25.539  1.00  0.00     0.016 A 
ATOM     36  C   UNL A   1      42.510  22.727  28.275  1.00  0.00     0.010 A 
ATOM     37  C   UNL A   1      42.825  23.485  26.009  1.00  0.00     0.010 A 
ATOM     38  C   UNL A   1      42.794  23.771  27.384  1.00  0.00    -0.014 A 
BRANCH  38  39
ATOM     39  C   UNL A   1      43.018  25.150  27.905  1.00  0.00     0.031 A 
ATOM     40  C   UNL A   1      44.415  25.662  28.147  1.00  0.00     0.074 A 
ATOM     41  C   UNL A   1      41.975  25.981  28.113  1.00  0.00     0.049 A 
ATOM     42  N   UNL A   1      44.798  26.776  28.722  1.00  0.00    -0.248 NA
ATOM     43  C   UNL A   1      45.524  24.815  27.683  1.00  0.00     0.031 C 
ATOM     44  C   UNL A   1      40.569  25.663  27.855  1.00  0.00     0.029 A 
ATOM     45  N   UNL A   1      41.943  27.278  28.566  1.00  0.00    -0.354 N 
ATOM     46  C   UNL A   1      46.187  26.737  28.737  1.00  0.00     0.074 A 
ATOM     47  C   UNL A   1      46.580  25.495  28.106  1.00  0.00     0.031 C 
ATOM     48  C   UNL A   1      39.821  26.751  28.096  1.00  0.00     0.029 A 
ATOM     49  C   UNL A   1      40.678  27.811  28.614  1.00  0.00     0.049 A 
ATOM     50  H   UNL A   1      42.749  27.776  28.832  1.00  0.00     0.167 HD
ATOM     51  C   UNL A   1      47.056  27.647  29.239  1.00  0.00     0.031 A 
ATOM     52  C   UNL A   1      40.242  29.004  29.061  1.00  0.00     0.031 A 
ATOM     53  C   UNL A   1      46.678  28.904  29.831  1.00  0.00     0.049 A 
ATOM     54  C   UNL A   1      41.217  29.973  29.663  1.00  0.00     0.074 A 
ATOM     55  C   UNL A   1      47.494  29.879  30.381  1.00  0.00     0.029 A 
ATOM     56  N   UNL A   1      45.378  29.369  29.931  1.00  0.00    -0.354 N 
ATOM     57  N   UNL A   1      42.519  29.875  29.765  1.00  0.00    -0.248 NA
ATOM     58  C   UNL A   1      40.654  31.201  30.243  1.00  0.00     0.031 C 
ATOM     59  C   UNL A   1      46.683  30.921  30.843  1.00  0.00     0.029 A 
ATOM     60  C   UNL A   1      45.367  30.610  30.546  1.00  0.00     0.049 A 
ATOM     61  H   UNL A   1      44.580  28.889  29.611  1.00  0.00     0.167 HD
ATOM     62  C   UNL A   1      42.931  31.023  30.427  1.00  0.00     0.074 A 
ATOM     63  C   UNL A   1      41.746  31.818  30.676  1.00  0.00     0.031 C 
ATOM     64  C   UNL A   1      44.182  31.381  30.805  1.00  0.00     0.031 A 
BRANCH  51  65
ATOM     65  C   UNL A   1      48.514  27.292  29.219  1.00  0.00    -0.014 A 
ATOM     66  C   UNL A   1      49.352  27.694  28.168  1.00  0.00     0.009 A 
ATOM     67  C   UNL A   1      49.063  26.579  30.296  1.00  0.00     0.009 A 
ATOM     68  C   UNL A   1      50.711  27.365  28.188  1.00  0.00     0.001 A 
ATOM     69  C   UNL A   1      50.423  26.270  30.322  1.00  0.00     0.001 A 
ATOM     70  C   UNL A   1      51.245  26.657  29.265  1.00  0.00     0.000 A 
ENDBRANCH  51  65
BRANCH  52  71
ATOM     71  C   UNL A   1      38.791  29.324  29.022  1.00  0.00    -0.014 A 
ATOM     72  C   UNL A   1      38.211  29.861  27.866  1.00  0.00     0.009 A 
ATOM     73  C   UNL A   1      37.983  29.089  30.146  1.00  0.00     0.009 A 
ATOM     74  C   UNL A   1      36.848  30.168  27.839  1.00  0.00     0.001 A 
ATOM     75  C   UNL A   1      36.617  29.370  30.107  1.00  0.00     0.001 A 
ATOM     76  C   UNL A   1      36.051  29.915  28.956  1.00  0.00     0.000 A 
ENDBRANCH  52  71
BRANCH  64  77
ATOM     77  C   UNL A   1      44.326  32.686  31.530  1.00  0.00    -0.014 A 
ATOM     78  C   UNL A   1      44.197  32.749  32.926  1.00  0.00     0.009 A 
ATOM     79  C   UNL A   1      44.612  33.859  30.816  1.00  0.00     0.009 A 
ATOM     80  C   UNL A   1      44.327  33.969  33.592  1.00  0.00     0.001 A 
ATOM     81  C   UNL A   1      44.760  35.074  31.486  1.00  0.00     0.001 A 
ATOM     82  C   UNL A   1      44.610  35.130  32.871  1.00  0.00     0.000 A 
ENDBRANCH  64  77
ENDBRANCH  38  39
ENDBRANCH  31  33
ENDBRANCH  30  31
ENDBRANCH  29  30
ENDBRANCH   1  29
TORSDOF 14
ENDMDL
MODEL 3
REMARK VINA RESULT:     -12.0      2.244      7.129
REMARK SMILES Cc1ccc(C(=O)N2C[C@@H](C(=O)OCCOC(=O)c3ccc(-c4c5nc(c(-c6ccccc6)c6ccc([nH]6)c(-c6ccccc6)c6nc(c(-c7ccccc7)c7ccc4[nH]7)C=C6)C=C5)cc3)C[C@H](C(=O)N3CCOCC3)C2)cc1F
REMARK SMILES IDX 14 1 13 2 11 3 12 4 10 5 8 6 9 7 77 8 68 9 67 10 6 11 7 12
REMARK SMILES IDX 5 13 1 14 2 15 3 16 79 17 4 18 78 19 80 20 69 21 70 22 71 23
REMARK SMILES IDX 72 24 76 25 73 26 75 27 74 28 15 29 16 30 17 31 18 32 19 33
REMARK SMILES IDX 20 34 66 35 21 36 65 37 22 38 23 39 24 40 59 41 25 42 64 43
REMARK SMILES IDX 58 44 60 45 26 46 63 47 57 48 56 49 27 51 49 52 34 53 48 54
REMARK SMILES IDX 35 55 38 56 47 57 61 58 36 59 37 60 46 62 62 63 39 64 28 65
REMARK SMILES IDX 29 66 33 67 30 68 32 69 31 70 50 71 51 72 55 73 52 74 54 75
REMARK SMILES IDX 53 76 40 77 41 78 45 79 42 80 44 81 43 82
REMARK H PARENT 60 50 38 61
REMARK Flexibility Score: inf
ROOT
ATOM      1  C   UNL A   1      31.889  27.973  26.352  1.00  0.00     0.274 C 
ENDROOT
BRANCH   1   2
ATOM      2  O   UNL A   1      31.724  26.692  26.992  1.00  0.00    -0.462 OA
BRANCH   2   3
ATOM      3  C   UNL A   1      30.868  25.841  26.371  1.00  0.00     0.310 C 
ATOM      4  O   UNL A   1      29.647  25.921  26.413  1.00  0.00    -0.252 OA
BRANCH   3   5
ATOM      5  C   UNL A   1      31.571  24.728  25.630  1.00  0.00     0.119 C 
ATOM      6  N   UNL A   1      32.573  24.141  23.505  1.00  0.00    -0.337 N 
ATOM      7  C   UNL A   1      31.774  25.145  24.192  1.00  0.00     0.135 C 
ATOM      8  C   UNL A   1      31.997  22.799  23.435  1.00  0.00     0.133 C 
ATOM      9  C   UNL A   1      31.539  22.271  24.818  1.00  0.00     0.099 C 
ATOM     10  C   UNL A   1      30.901  23.348  25.717  1.00  0.00     0.032 C 
BRANCH   6  11
ATOM     11  C   UNL A   1      33.895  24.440  23.201  1.00  0.00     0.254 C 
ATOM     12  O   UNL A   1      34.206  25.166  22.260  1.00  0.00    -0.269 OA
BRANCH  11  13
ATOM     13  C   UNL A   1      34.978  23.754  23.947  1.00  0.00     0.042 A 
ATOM     14  C   UNL A   1      38.595  22.309  25.779  1.00  0.00     0.047 C 
ATOM     15  C   UNL A   1      37.308  22.761  25.158  1.00  0.00    -0.015 A 
ATOM     16  C   UNL A   1      36.858  22.218  23.950  1.00  0.00     0.007 A 
ATOM     17  C   UNL A   1      36.561  23.780  25.760  1.00  0.00     0.126 A 
ATOM     18  C   UNL A   1      35.702  22.715  23.344  1.00  0.00     0.014 A 
ATOM     19  C   UNL A   1      35.411  24.286  25.164  1.00  0.00     0.053 A 
ATOM     20  F   UNL A   1      36.981  24.316  26.915  1.00  0.00    -0.207 F 
ENDBRANCH  11  13
ENDBRANCH   6  11
BRANCH   9  21
ATOM     21  C   UNL A   1      32.608  21.289  25.337  1.00  0.00     0.227 C 
ATOM     22  O   UNL A   1      33.203  21.600  26.379  1.00  0.00    -0.275 OA
ATOM     23  N   UNL A   1      32.732  20.017  24.834  1.00  0.00    -0.338 N 
ATOM     24  C   UNL A   1      32.891  19.651  23.433  1.00  0.00     0.148 C 
ATOM     25  C   UNL A   1      33.173  18.940  25.728  1.00  0.00     0.148 C 
ATOM     26  C   UNL A   1      32.142  18.349  23.137  1.00  0.00     0.181 C 
ATOM     27  C   UNL A   1      32.468  17.625  25.362  1.00  0.00     0.181 C 
ATOM     28  O   UNL A   1      32.646  17.297  23.974  1.00  0.00    -0.378 OA
ENDBRANCH   9  21
ENDBRANCH   3   5
ENDBRANCH   2   3
ENDBRANCH   1   2
BRANCH   1  29
ATOM     29  C   UNL A   1      32.373  29.035  27.337  1.00  0.00     0.275 C 
BRANCH  29  30
ATOM     30  O   UNL A   1      33.804  28.984  27.484  1.00  0.00    -0.458 OA
BRANCH  30  31
ATOM     31  C   UNL A   1      34.409  30.156  27.763  1.00  0.00     0.338 C 
ATOM     32  O   UNL A   1      33.918  31.279  27.730  1.00  0.00    -0.246 OA
BRANCH  31  33
ATOM     33  C   UNL A   1      35.796  29.919  28.182  1.00  0.00     0.060 A 
ATOM     34  C   UNL A   1      36.820  30.105  27.257  1.00  0.00     0.016 A 
ATOM     35  C   UNL A   1      36.075  29.382  29.440  1.00  0.00     0.016 A 
ATOM     36  C   UNL A   1      38.114  29.691  27.565  1.00  0.00     0.010 A 
ATOM     37  C   UNL A   1      37.394  29.039  29.772  1.00  0.00     0.010 A 
ATOM     38  C   UNL A   1      38.426  29.164  28.826  1.00  0.00    -0.014 A 
BRANCH  38  39
ATOM     39  C   UNL A   1      39.819  28.719  29.120  1.00  0.00     0.031 A 
ATOM     40  C   UNL A   1      40.747  29.589  29.929  1.00  0.00     0.074 A 
ATOM     41  C   UNL A   1      40.250  27.507  28.716  1.00  0.00     0.049 A 
ATOM     42  N   UNL A   1      42.027  29.432  30.167  1.00  0.00    -0.248 NA
ATOM     43  C   UNL A   1      40.165  30.788  30.551  1.00  0.00     0.031 C 
ATOM     44  C   UNL A   1      39.450  26.517  27.991  1.00  0.00     0.029 A 
ATOM     45  N   UNL A   1      41.466  26.889  28.883  1.00  0.00    -0.354 N 
ATOM     46  C   UNL A   1      42.411  30.537  30.917  1.00  0.00     0.074 A 
ATOM     47  C   UNL A   1      41.230  31.352  31.103  1.00  0.00     0.031 C 
ATOM     48  C   UNL A   1      40.174  25.399  27.830  1.00  0.00     0.029 A 
ATOM     49  C   UNL A   1      41.517  25.624  28.353  1.00  0.00     0.049 A 
ATOM     50  H   UNL A   1      42.228  27.315  29.339  1.00  0.00     0.167 HD
ATOM     51  C   UNL A   1      43.638  30.850  31.400  1.00  0.00     0.031 A 
ATOM     52  C   UNL A   1      42.537  24.749  28.258  1.00  0.00     0.031 A 
ATOM     53  C   UNL A   1      44.811  30.027  31.257  1.00  0.00     0.049 A 
ATOM     54  C   UNL A   1      43.898  25.141  28.750  1.00  0.00     0.074 A 
ATOM     55  C   UNL A   1      46.099  30.277  31.701  1.00  0.00     0.029 A 
ATOM     56  N   UNL A   1      44.834  28.787  30.642  1.00  0.00    -0.354 N 
ATOM     57  N   UNL A   1      44.269  26.236  29.366  1.00  0.00    -0.248 NA
ATOM     58  C   UNL A   1      44.990  24.187  28.501  1.00  0.00     0.031 C 
ATOM     59  C   UNL A   1      46.910  29.200  31.325  1.00  0.00     0.029 A 
ATOM     60  C   UNL A   1      46.116  28.265  30.681  1.00  0.00     0.049 A 
ATOM     61  H   UNL A   1      44.054  28.342  30.238  1.00  0.00     0.167 HD
ATOM     62  C   UNL A   1      45.636  26.108  29.570  1.00  0.00     0.074 A 
ATOM     63  C   UNL A   1      46.025  24.817  29.041  1.00  0.00     0.031 C 
ATOM     64  C   UNL A   1      46.494  26.990  30.136  1.00  0.00     0.031 A 
BRANCH  51  65
ATOM     65  C   UNL A   1      43.790  32.174  32.089  1.00  0.00    -0.014 A 
ATOM     66  C   UNL A   1      43.743  32.284  33.487  1.00  0.00     0.009 A 
ATOM     67  C   UNL A   1      44.029  33.326  31.321  1.00  0.00     0.009 A 
ATOM     68  C   UNL A   1      43.909  33.529  34.100  1.00  0.00     0.001 A 
ATOM     69  C   UNL A   1      44.213  34.563  31.938  1.00  0.00     0.001 A 
ATOM     70  C   UNL A   1      44.147  34.665  33.326  1.00  0.00     0.000 A 
ENDBRANCH  51  65
BRANCH  52  71
ATOM     71  C   UNL A   1      42.324  23.433  27.602  1.00  0.00    -0.014 A 
ATOM     72  C   UNL A   1      42.577  23.268  26.234  1.00  0.00     0.009 A 
ATOM     73  C   UNL A   1      41.867  22.334  28.348  1.00  0.00     0.009 A 
ATOM     74  C   UNL A   1      42.366  22.030  25.622  1.00  0.00     0.001 A 
ATOM     75  C   UNL A   1      41.683  21.092  27.740  1.00  0.00     0.001 A 
ATOM     76  C   UNL A   1      41.927  20.942  26.377  1.00  0.00     0.000 A 
ENDBRANCH  52  71
BRANCH  64  77
ATOM     77  C   UNL A   1      47.936  26.584  30.208  1.00  0.00    -0.014 A 
ATOM     78  C   UNL A   1      48.827  26.919  29.177  1.00  0.00     0.009 A 
ATOM     79  C   UNL A   1      48.414  25.880  31.323  1.00  0.00     0.009 A 
ATOM     80  C   UNL A   1      50.167  26.532  29.249  1.00  0.00     0.001 A 
ATOM     81  C   UNL A   1      49.758  25.511  31.401  1.00  0.00     0.001 A 
ATOM     82  C   UNL A   1      50.631  25.831  30.362  1.00  0.00     0.000 A 
ENDBRANCH  64  77
ENDBRANCH  38  39
ENDBRANCH  31  33
ENDBRANCH  30  31
ENDBRANCH  29  30
ENDBRANCH   1  29
TORSDOF 14
ENDMDL
