MODEL 1
REMARK VINA RESULT:     -11.6      0.000      0.000
REMARK SMILES COc1ccccc1[C@@H]1CN(C(=O)c2cc(C(C)C)nc(N)n2)C[C@H]1C(=O)OCCOC(=O)c1ccc(-c2c3nc(c(-c4ccccc4)c4ccc([nH]4)c(-c4ccccc4)c4nc(c(-c5ccccc5)c5ccc2[nH]5)C=C4)C=C3)cc1
REMARK SMILES IDX 29 1 28 2 26 3 27 4 25 5 9 6 10 7 11 8 24 9 8 10 3 11 4 12
REMARK SMILES IDX 5 13 7 14 6 15 2 16 1 17 12 18 13 19 14 20 15 21 23 22 16 23
REMARK SMILES IDX 21 24 20 25 17 26 18 27 19 28 22 29 30 32 31 33 32 34 33 35
REMARK SMILES IDX 34 36 35 37 81 38 36 39 80 40 37 41 38 42 39 43 74 44 40 45
REMARK SMILES IDX 79 46 73 47 75 48 41 49 78 50 72 51 71 52 42 54 64 55 49 56
REMARK SMILES IDX 63 57 50 58 53 59 62 60 76 61 51 62 52 63 61 65 77 66 54 67
REMARK SMILES IDX 43 68 44 69 48 70 45 71 47 72 46 73 65 74 66 75 70 76 67 77
REMARK SMILES IDX 69 78 68 79 55 80 56 81 60 82 57 83 59 84 58 85
REMARK H PARENT 22 30 22 31 75 53 53 64
REMARK Flexibility Score: inf
ROOT
ATOM      1  C   UNL A   1      37.749  21.468  24.665  1.00  0.00     0.274 C 
ENDROOT
BRANCH   1   2
ATOM      2  O   UNL A   1      37.209  22.797  24.823  1.00  0.00    -0.462 OA
BRANCH   2   3
ATOM      3  C   UNL A   1      36.241  23.132  23.932  1.00  0.00     0.311 C 
ATOM      4  O   UNL A   1      36.429  23.328  22.735  1.00  0.00    -0.252 OA
BRANCH   3   5
ATOM      5  C   UNL A   1      34.883  23.332  24.552  1.00  0.00     0.128 C 
ATOM      6  C   UNL A   1      33.767  23.945  23.687  1.00  0.00     0.058 C 
ATOM      7  C   UNL A   1      32.501  23.278  24.225  1.00  0.00     0.129 C 
ATOM      8  N   UNL A   1      32.945  21.964  24.661  1.00  0.00    -0.336 N 
ATOM      9  C   UNL A   1      34.363  21.956  24.956  1.00  0.00     0.136 C 
BRANCH   6  10
ATOM     10  C   UNL A   1      33.702  25.459  23.634  1.00  0.00    -0.000 A 
ATOM     11  C   UNL A   1      33.581  26.222  22.457  1.00  0.00     0.122 A 
ATOM     12  C   UNL A   1      33.570  27.622  22.498  1.00  0.00     0.047 A 
ATOM     13  C   UNL A   1      33.691  28.289  23.715  1.00  0.00     0.004 A 
ATOM     14  C   UNL A   1      33.823  26.161  24.849  1.00  0.00     0.008 A 
ATOM     15  C   UNL A   1      33.829  27.558  24.889  1.00  0.00     0.001 A 
BRANCH  11  16
ATOM     16  O   UNL A   1      33.682  25.645  21.220  1.00  0.00    -0.496 OA
ATOM     17  C   UNL A   1      32.471  25.654  20.475  1.00  0.00     0.278 C 
ENDBRANCH  11  16
ENDBRANCH   6  10
BRANCH   8  18
ATOM     18  C   UNL A   1      32.152  20.870  24.980  1.00  0.00     0.272 C 
ATOM     19  O   UNL A   1      31.390  20.856  25.943  1.00  0.00    -0.267 OA
BRANCH  18  20
ATOM     20  C   UNL A   1      32.301  19.658  24.134  1.00  0.00     0.134 A 
ATOM     21  C   UNL A   1      32.709  18.493  24.743  1.00  0.00     0.058 A 
ATOM     22  N   UNL A   1      32.107  19.807  22.812  1.00  0.00    -0.208 NA
ATOM     23  C   UNL A   1      33.019  17.461  23.894  1.00  0.00     0.049 A 
ATOM     24  C   UNL A   1      32.366  18.729  22.080  1.00  0.00     0.220 A 
ATOM     25  N   UNL A   1      32.837  17.569  22.561  1.00  0.00    -0.218 NA
BRANCH  23  26
ATOM     26  C   UNL A   1      33.678  16.195  24.404  1.00  0.00     0.032 C 
ATOM     27  C   UNL A   1      35.039  16.519  25.033  1.00  0.00     0.014 C 
ATOM     28  C   UNL A   1      32.793  15.432  25.390  1.00  0.00     0.014 C 
ENDBRANCH  23  26
BRANCH  24  29
ATOM     29  N   UNL A   1      32.143  18.810  20.737  1.00  0.00    -0.368 N 
ATOM     30  H   UNL A   1      32.309  19.656  20.261  1.00  0.00     0.159 HD
ATOM     31  H   UNL A   1      31.816  18.023  20.244  1.00  0.00     0.159 HD
ENDBRANCH  24  29
ENDBRANCH  18  20
ENDBRANCH   8  18
ENDBRANCH   3   5
ENDBRANCH   2   3
ENDBRANCH   1   2
BRANCH   1  32
ATOM     32  C   UNL A   1      38.924  21.241  25.612  1.00  0.00     0.275 C 
BRANCH  32  33
ATOM     33  O   UNL A   1      39.143  22.415  26.411  1.00  0.00    -0.458 OA
BRANCH  33  34
ATOM     34  C   UNL A   1      40.359  22.995  26.279  1.00  0.00     0.338 C 
ATOM     35  O   UNL A   1      41.341  22.536  25.725  1.00  0.00    -0.246 OA
BRANCH  34  36
ATOM     36  C   UNL A   1      40.358  24.295  26.973  1.00  0.00     0.060 A 
ATOM     37  C   UNL A   1      41.266  25.298  26.628  1.00  0.00     0.016 A 
ATOM     38  C   UNL A   1      39.484  24.478  28.044  1.00  0.00     0.016 A 
ATOM     39  C   UNL A   1      41.329  26.470  27.384  1.00  0.00     0.010 A 
ATOM     40  C   UNL A   1      39.511  25.675  28.762  1.00  0.00     0.010 A 
ATOM     41  C   UNL A   1      40.453  26.672  28.457  1.00  0.00    -0.014 A 
BRANCH  41  42
ATOM     42  C   UNL A   1      40.538  27.899  29.292  1.00  0.00     0.031 A 
ATOM     43  C   UNL A   1      41.656  28.054  30.287  1.00  0.00     0.074 A 
ATOM     44  C   UNL A   1      39.612  28.870  29.176  1.00  0.00     0.049 A 
ATOM     45  N   UNL A   1      41.806  28.952  31.229  1.00  0.00    -0.248 NA
ATOM     46  C   UNL A   1      42.743  27.065  30.218  1.00  0.00     0.031 C 
ATOM     47  C   UNL A   1      38.505  28.883  28.219  1.00  0.00     0.029 A 
ATOM     48  N   UNL A   1      39.454  30.037  29.883  1.00  0.00    -0.354 N 
ATOM     49  C   UNL A   1      42.974  28.606  31.897  1.00  0.00     0.074 A 
ATOM     50  C   UNL A   1      43.494  27.419  31.251  1.00  0.00     0.031 C 
ATOM     51  C   UNL A   1      37.793  30.009  28.386  1.00  0.00     0.029 A 
ATOM     52  C   UNL A   1      38.348  30.760  29.507  1.00  0.00     0.049 A 
ATOM     53  H   UNL A   1      40.074  30.328  30.590  1.00  0.00     0.167 HD
ATOM     54  C   UNL A   1      43.557  29.219  32.955  1.00  0.00     0.031 A 
ATOM     55  C   UNL A   1      37.814  31.879  30.031  1.00  0.00     0.031 A 
ATOM     56  C   UNL A   1      43.060  30.415  33.580  1.00  0.00     0.049 A 
ATOM     57  C   UNL A   1      38.450  32.511  31.236  1.00  0.00     0.074 A 
ATOM     58  C   UNL A   1      43.593  31.116  34.648  1.00  0.00     0.029 A 
ATOM     59  N   UNL A   1      41.918  31.094  33.187  1.00  0.00    -0.354 N 
ATOM     60  N   UNL A   1      39.529  32.150  31.884  1.00  0.00    -0.248 NA
ATOM     61  C   UNL A   1      37.780  33.696  31.790  1.00  0.00     0.031 C 
ATOM     62  C   UNL A   1      42.754  32.201  34.925  1.00  0.00     0.029 A 
ATOM     63  C   UNL A   1      41.721  32.197  34.002  1.00  0.00     0.049 A 
ATOM     64  H   UNL A   1      41.333  30.833  32.440  1.00  0.00     0.167 HD
ATOM     65  C   UNL A   1      39.677  33.071  32.913  1.00  0.00     0.074 A 
ATOM     66  C   UNL A   1      38.586  34.016  32.793  1.00  0.00     0.031 C 
ATOM     67  C   UNL A   1      40.631  33.126  33.873  1.00  0.00     0.031 A 
BRANCH  54  68
ATOM     68  C   UNL A   1      44.784  28.576  33.533  1.00  0.00    -0.014 A 
ATOM     69  C   UNL A   1      44.697  27.572  34.508  1.00  0.00     0.009 A 
ATOM     70  C   UNL A   1      46.050  28.959  33.061  1.00  0.00     0.009 A 
ATOM     71  C   UNL A   1      45.855  26.983  35.020  1.00  0.00     0.001 A 
ATOM     72  C   UNL A   1      47.205  28.353  33.557  1.00  0.00     0.001 A 
ATOM     73  C   UNL A   1      47.107  27.371  34.541  1.00  0.00     0.000 A 
ENDBRANCH  54  68
BRANCH  55  74
ATOM     74  C   UNL A   1      36.578  32.455  29.441  1.00  0.00    -0.014 A 
ATOM     75  C   UNL A   1      36.657  33.422  28.430  1.00  0.00     0.009 A 
ATOM     76  C   UNL A   1      35.315  32.039  29.890  1.00  0.00     0.009 A 
ATOM     77  C   UNL A   1      35.495  33.974  27.888  1.00  0.00     0.001 A 
ATOM     78  C   UNL A   1      34.153  32.574  29.329  1.00  0.00     0.001 A 
ATOM     79  C   UNL A   1      34.244  33.546  28.334  1.00  0.00     0.000 A 
ENDBRANCH  55  74
BRANCH  67  80
ATOM     80  C   UNL A   1      40.551  34.262  34.850  1.00  0.00    -0.014 A 
ATOM     81  C   UNL A   1      41.242  35.462  34.623  1.00  0.00     0.009 A 
ATOM     82  C   UNL A   1      39.753  34.139  35.998  1.00  0.00     0.009 A 
ATOM     83  C   UNL A   1      41.156  36.509  35.544  1.00  0.00     0.001 A 
ATOM     84  C   UNL A   1      39.652  35.194  36.905  1.00  0.00     0.001 A 
ATOM     85  C   UNL A   1      40.359  36.375  36.681  1.00  0.00     0.000 A 
ENDBRANCH  67  80
ENDBRANCH  41  42
ENDBRANCH  34  36
ENDBRANCH  33  34
ENDBRANCH  32  33
ENDBRANCH   1  32
TORSDOF 17
ENDMDL
MODEL 2
REMARK VINA RESULT:     -11.6      3.175      7.654
REMARK SMILES COc1ccccc1[C@@H]1CN(C(=O)c2cc(C(C)C)nc(N)n2)C[C@H]1C(=O)OCCOC(=O)c1ccc(-c2c3nc(c(-c4ccccc4)c4ccc([nH]4)c(-c4ccccc4)c4nc(c(-c5ccccc5)c5ccc2[nH]5)C=C4)C=C3)cc1
REMARK SMILES IDX 29 1 28 2 26 3 27 4 25 5 9 6 10 7 11 8 24 9 8 10 3 11 4 12
REMARK SMILES IDX 5 13 7 14 6 15 2 16 1 17 12 18 13 19 14 20 15 21 23 22 16 23
REMARK SMILES IDX 21 24 20 25 17 26 18 27 19 28 22 29 30 32 31 33 32 34 33 35
REMARK SMILES IDX 34 36 35 37 81 38 36 39 80 40 37 41 38 42 39 43 74 44 40 45
REMARK SMILES IDX 79 46 73 47 75 48 41 49 78 50 72 51 71 52 42 54 64 55 49 56
REMARK SMILES IDX 63 57 50 58 53 59 62 60 76 61 51 62 52 63 61 65 77 66 54 67
REMARK SMILES IDX 43 68 44 69 48 70 45 71 47 72 46 73 65 74 66 75 70 76 67 77
REMARK SMILES IDX 69 78 68 79 55 80 56 81 60 82 57 83 59 84 58 85
REMARK H PARENT 22 30 22 31 75 53 53 64
REMARK Flexibility Score: inf
ROOT
ATOM      1  C   UNL A   1      32.027  28.972  26.792  1.00  0.00     0.274 C 
ENDROOT
BRANCH   1   2
ATOM      2  O   UNL A   1      32.977  27.958  27.181  1.00  0.00    -0.462 OA
BRANCH   2   3
ATOM      3  C   UNL A   1      33.123  26.940  26.294  1.00  0.00     0.311 C 
ATOM      4  O   UNL A   1      34.184  26.621  25.764  1.00  0.00    -0.252 OA
BRANCH   3   5
ATOM      5  C   UNL A   1      31.833  26.255  25.930  1.00  0.00     0.128 C 
ATOM      6  C   UNL A   1      31.523  26.019  24.441  1.00  0.00     0.058 C 
ATOM      7  C   UNL A   1      30.726  24.714  24.451  1.00  0.00     0.129 C 
ATOM      8  N   UNL A   1      31.261  23.975  25.584  1.00  0.00    -0.336 N 
ATOM      9  C   UNL A   1      31.868  24.863  26.554  1.00  0.00     0.136 C 
BRANCH   6  10
ATOM     10  C   UNL A   1      30.849  27.158  23.699  1.00  0.00    -0.000 A 
ATOM     11  C   UNL A   1      31.520  28.246  23.110  1.00  0.00     0.122 A 
ATOM     12  C   UNL A   1      30.813  29.277  22.479  1.00  0.00     0.047 A 
ATOM     13  C   UNL A   1      29.421  29.248  22.433  1.00  0.00     0.004 A 
ATOM     14  C   UNL A   1      29.442  27.156  23.638  1.00  0.00     0.008 A 
ATOM     15  C   UNL A   1      28.735  28.193  23.024  1.00  0.00     0.001 A 
BRANCH  11  16
ATOM     16  O   UNL A   1      32.858  28.452  23.310  1.00  0.00    -0.496 OA
ATOM     17  C   UNL A   1      33.685  27.931  22.277  1.00  0.00     0.278 C 
ENDBRANCH  11  16
ENDBRANCH   6  10
BRANCH   8  18
ATOM     18  C   UNL A   1      31.075  22.631  25.876  1.00  0.00     0.272 C 
ATOM     19  O   UNL A   1      30.075  22.204  26.445  1.00  0.00    -0.267 OA
BRANCH  18  20
ATOM     20  C   UNL A   1      32.181  21.705  25.525  1.00  0.00     0.134 A 
ATOM     21  C   UNL A   1      33.470  22.183  25.594  1.00  0.00     0.058 A 
ATOM     22  N   UNL A   1      31.838  20.482  25.082  1.00  0.00    -0.208 NA
ATOM     23  C   UNL A   1      34.435  21.357  25.075  1.00  0.00     0.049 A 
ATOM     24  C   UNL A   1      32.851  19.729  24.667  1.00  0.00     0.220 A 
ATOM     25  N   UNL A   1      34.132  20.122  24.622  1.00  0.00    -0.218 NA
BRANCH  23  26
ATOM     26  C   UNL A   1      35.861  21.834  24.891  1.00  0.00     0.032 C 
ATOM     27  C   UNL A   1      36.824  20.641  24.872  1.00  0.00     0.014 C 
ATOM     28  C   UNL A   1      36.033  22.689  23.634  1.00  0.00     0.014 C 
ENDBRANCH  23  26
BRANCH  24  29
ATOM     29  N   UNL A   1      32.565  18.463  24.249  1.00  0.00    -0.368 N 
ATOM     30  H   UNL A   1      33.187  17.989  23.652  1.00  0.00     0.159 HD
ATOM     31  H   UNL A   1      31.735  18.023  24.546  1.00  0.00     0.159 HD
ENDBRANCH  24  29
ENDBRANCH  18  20
ENDBRANCH   8  18
ENDBRANCH   3   5
ENDBRANCH   2   3
ENDBRANCH   1   2
BRANCH   1  32
ATOM     32  C   UNL A   1      32.630  30.367  26.933  1.00  0.00     0.275 C 
BRANCH  32  33
ATOM     33  O   UNL A   1      34.062  30.274  27.026  1.00  0.00    -0.458 OA
BRANCH  33  34
ATOM     34  C   UNL A   1      34.615  30.837  28.125  1.00  0.00     0.338 C 
ATOM     35  O   UNL A   1      34.179  31.766  28.780  1.00  0.00    -0.246 OA
BRANCH  34  36
ATOM     36  C   UNL A   1      35.905  30.184  28.411  1.00  0.00     0.060 A 
ATOM     37  C   UNL A   1      36.185  29.661  29.675  1.00  0.00     0.016 A 
ATOM     38  C   UNL A   1      36.880  30.170  27.414  1.00  0.00     0.016 A 
ATOM     39  C   UNL A   1      37.459  29.165  29.956  1.00  0.00     0.010 A 
ATOM     40  C   UNL A   1      38.135  29.619  27.682  1.00  0.00     0.010 A 
ATOM     41  C   UNL A   1      38.446  29.136  28.965  1.00  0.00    -0.014 A 
BRANCH  41  42
ATOM     42  C   UNL A   1      39.816  28.643  29.264  1.00  0.00     0.031 A 
ATOM     43  C   UNL A   1      40.795  29.536  29.977  1.00  0.00     0.074 A 
ATOM     44  C   UNL A   1      40.195  27.407  28.889  1.00  0.00     0.049 A 
ATOM     45  N   UNL A   1      42.080  29.368  30.169  1.00  0.00    -0.248 NA
ATOM     46  C   UNL A   1      40.260  30.785  30.542  1.00  0.00     0.031 C 
ATOM     47  C   UNL A   1      39.340  26.413  28.241  1.00  0.00     0.029 A 
ATOM     48  N   UNL A   1      41.413  26.780  28.996  1.00  0.00    -0.354 N 
ATOM     49  C   UNL A   1      42.515  30.511  30.827  1.00  0.00     0.074 A 
ATOM     50  C   UNL A   1      41.359  31.363  31.005  1.00  0.00     0.031 C 
ATOM     51  C   UNL A   1      40.053  25.295  28.024  1.00  0.00     0.029 A 
ATOM     52  C   UNL A   1      41.430  25.520  28.449  1.00  0.00     0.049 A 
ATOM     53  H   UNL A   1      42.197  27.193  29.424  1.00  0.00     0.167 HD
ATOM     54  C   UNL A   1      43.767  30.824  31.242  1.00  0.00     0.031 A 
ATOM     55  C   UNL A   1      42.447  24.657  28.271  1.00  0.00     0.031 A 
ATOM     56  C   UNL A   1      44.913  29.967  31.094  1.00  0.00     0.049 A 
ATOM     57  C   UNL A   1      43.834  25.047  28.692  1.00  0.00     0.074 A 
ATOM     58  C   UNL A   1      46.218  30.195  31.498  1.00  0.00     0.029 A 
ATOM     59  N   UNL A   1      44.890  28.714  30.504  1.00  0.00    -0.354 N 
ATOM     60  N   UNL A   1      44.241  26.148  29.275  1.00  0.00    -0.248 NA
ATOM     61  C   UNL A   1      44.906  24.080  28.413  1.00  0.00     0.031 C 
ATOM     62  C   UNL A   1      46.993  29.093  31.120  1.00  0.00     0.029 A 
ATOM     63  C   UNL A   1      46.161  28.163  30.518  1.00  0.00     0.049 A 
ATOM     64  H   UNL A   1      44.090  28.279  30.130  1.00  0.00     0.167 HD
ATOM     65  C   UNL A   1      45.611  26.000  29.446  1.00  0.00     0.074 A 
ATOM     66  C   UNL A   1      45.963  24.697  28.920  1.00  0.00     0.031 C 
ATOM     67  C   UNL A   1      46.498  26.869  29.988  1.00  0.00     0.031 A 
BRANCH  54  68
ATOM     68  C   UNL A   1      43.970  32.176  31.862  1.00  0.00    -0.014 A 
ATOM     69  C   UNL A   1      43.865  32.371  33.247  1.00  0.00     0.009 A 
ATOM     70  C   UNL A   1      44.312  33.265  31.045  1.00  0.00     0.009 A 
ATOM     71  C   UNL A   1      44.071  33.637  33.798  1.00  0.00     0.001 A 
ATOM     72  C   UNL A   1      44.539  34.525  31.601  1.00  0.00     0.001 A 
ATOM     73  C   UNL A   1      44.412  34.711  32.976  1.00  0.00     0.000 A 
ENDBRANCH  54  68
BRANCH  55  74
ATOM     74  C   UNL A   1      42.198  23.344  27.620  1.00  0.00    -0.014 A 
ATOM     75  C   UNL A   1      41.657  22.279  28.353  1.00  0.00     0.009 A 
ATOM     76  C   UNL A   1      42.502  23.154  26.263  1.00  0.00     0.009 A 
ATOM     77  C   UNL A   1      41.439  21.042  27.744  1.00  0.00     0.001 A 
ATOM     78  C   UNL A   1      42.260  21.923  25.650  1.00  0.00     0.001 A 
ATOM     79  C   UNL A   1      41.735  20.866  26.392  1.00  0.00     0.000 A 
ENDBRANCH  55  74
BRANCH  67  80
ATOM     80  C   UNL A   1      47.929  26.424  30.066  1.00  0.00    -0.014 A 
ATOM     81  C   UNL A   1      48.415  25.743  31.191  1.00  0.00     0.009 A 
ATOM     82  C   UNL A   1      48.793  26.667  28.986  1.00  0.00     0.009 A 
ATOM     83  C   UNL A   1      49.751  25.337  31.246  1.00  0.00     0.001 A 
ATOM     84  C   UNL A   1      50.121  26.241  29.035  1.00  0.00     0.001 A 
ATOM     85  C   UNL A   1      50.600  25.583  30.167  1.00  0.00     0.000 A 
ENDBRANCH  67  80
ENDBRANCH  41  42
ENDBRANCH  34  36
ENDBRANCH  33  34
ENDBRANCH  32  33
ENDBRANCH   1  32
TORSDOF 17
ENDMDL
MODEL 3
REMARK VINA RESULT:     -11.6      3.331      7.888
REMARK SMILES COc1ccccc1[C@@H]1CN(C(=O)c2cc(C(C)C)nc(N)n2)C[C@H]1C(=O)OCCOC(=O)c1ccc(-c2c3nc(c(-c4ccccc4)c4ccc([nH]4)c(-c4ccccc4)c4nc(c(-c5ccccc5)c5ccc2[nH]5)C=C4)C=C3)cc1
REMARK SMILES IDX 29 1 28 2 26 3 27 4 25 5 9 6 10 7 11 8 24 9 8 10 3 11 4 12
REMARK SMILES IDX 5 13 7 14 6 15 2 16 1 17 12 18 13 19 14 20 15 21 23 22 16 23
REMARK SMILES IDX 21 24 20 25 17 26 18 27 19 28 22 29 30 32 31 33 32 34 33 35
REMARK SMILES IDX 34 36 35 37 81 38 36 39 80 40 37 41 38 42 39 43 74 44 40 45
REMARK SMILES IDX 79 46 73 47 75 48 41 49 78 50 72 51 71 52 42 54 64 55 49 56
REMARK SMILES IDX 63 57 50 58 53 59 62 60 76 61 51 62 52 63 61 65 77 66 54 67
REMARK SMILES IDX 43 68 44 69 48 70 45 71 47 72 46 73 65 74 66 75 70 76 67 77
REMARK SMILES IDX 69 78 68 79 55 80 56 81 60 82 57 83 59 84 58 85
REMARK H PARENT 22 30 22 31 75 53 53 64
REMARK Flexibility Score: inf
ROOT
ATOM      1  C   UNL A   1      32.247  28.901  25.702  1.00  0.00     0.274 C 
ENDROOT
BRANCH   1   2
ATOM      2  O   UNL A   1      33.132  29.315  24.641  1.00  0.00    -0.462 OA
BRANCH   2   3
ATOM      3  C   UNL A   1      32.995  28.627  23.479  1.00  0.00     0.311 C 
ATOM      4  O   UNL A   1      33.302  29.056  22.371  1.00  0.00    -0.252 OA
BRANCH   3   5
ATOM      5  C   UNL A   1      32.341  27.279  23.640  1.00  0.00     0.128 C 
ATOM      6  C   UNL A   1      31.255  26.867  22.630  1.00  0.00     0.058 C 
ATOM      7  C   UNL A   1      31.422  25.350  22.535  1.00  0.00     0.129 C 
ATOM      8  N   UNL A   1      32.842  25.131  22.759  1.00  0.00    -0.336 N 
ATOM      9  C   UNL A   1      33.436  26.226  23.498  1.00  0.00     0.136 C 
BRANCH   6  10
ATOM     10  C   UNL A   1      29.840  27.323  22.932  1.00  0.00    -0.000 A 
ATOM     11  C   UNL A   1      29.268  28.530  22.486  1.00  0.00     0.122 A 
ATOM     12  C   UNL A   1      27.964  28.891  22.847  1.00  0.00     0.047 A 
ATOM     13  C   UNL A   1      27.208  28.060  23.670  1.00  0.00     0.004 A 
ATOM     14  C   UNL A   1      29.052  26.503  23.763  1.00  0.00     0.008 A 
ATOM     15  C   UNL A   1      27.757  26.871  24.137  1.00  0.00     0.001 A 
BRANCH  11  16
ATOM     16  O   UNL A   1      30.022  29.490  21.867  1.00  0.00    -0.496 OA
ATOM     17  C   UNL A   1      29.331  30.712  21.640  1.00  0.00     0.278 C 
ENDBRANCH  11  16
ENDBRANCH   6  10
BRANCH   8  18
ATOM     18  C   UNL A   1      33.562  23.969  22.518  1.00  0.00     0.272 C 
ATOM     19  O   UNL A   1      33.685  23.481  21.398  1.00  0.00    -0.267 OA
BRANCH  18  20
ATOM     20  C   UNL A   1      34.146  23.279  23.696  1.00  0.00     0.134 A 
ATOM     21  C   UNL A   1      35.517  23.164  23.762  1.00  0.00     0.058 A 
ATOM     22  N   UNL A   1      33.287  22.739  24.577  1.00  0.00    -0.208 NA
ATOM     23  C   UNL A   1      35.993  22.353  24.761  1.00  0.00     0.049 A 
ATOM     24  C   UNL A   1      33.849  22.030  25.551  1.00  0.00     0.220 A 
ATOM     25  N   UNL A   1      35.163  21.793  25.667  1.00  0.00    -0.218 NA
BRANCH  23  26
ATOM     26  C   UNL A   1      37.457  21.965  24.827  1.00  0.00     0.032 C 
ATOM     27  C   UNL A   1      38.167  22.749  25.937  1.00  0.00     0.014 C 
ATOM     28  C   UNL A   1      37.653  20.460  25.015  1.00  0.00     0.014 C 
ENDBRANCH  23  26
BRANCH  24  29
ATOM     29  N   UNL A   1      33.026  21.497  26.498  1.00  0.00    -0.368 N 
ATOM     30  H   UNL A   1      32.520  20.675  26.304  1.00  0.00     0.159 HD
ATOM     31  H   UNL A   1      32.938  21.934  27.376  1.00  0.00     0.159 HD
ENDBRANCH  24  29
ENDBRANCH  18  20
ENDBRANCH   8  18
ENDBRANCH   3   5
ENDBRANCH   2   3
ENDBRANCH   1   2
BRANCH   1  32
ATOM     32  C   UNL A   1      32.692  29.481  27.042  1.00  0.00     0.275 C 
BRANCH  32  33
ATOM     33  O   UNL A   1      34.104  29.752  27.013  1.00  0.00    -0.458 OA
BRANCH  33  34
ATOM     34  C   UNL A   1      34.563  30.571  27.987  1.00  0.00     0.338 C 
ATOM     35  O   UNL A   1      33.982  31.508  28.501  1.00  0.00    -0.246 OA
BRANCH  34  36
ATOM     36  C   UNL A   1      35.949  30.197  28.326  1.00  0.00     0.060 A 
ATOM     37  C   UNL A   1      36.971  30.282  27.379  1.00  0.00     0.016 A 
ATOM     38  C   UNL A   1      36.207  29.677  29.594  1.00  0.00     0.016 A 
ATOM     39  C   UNL A   1      38.245  29.802  27.686  1.00  0.00     0.010 A 
ATOM     40  C   UNL A   1      37.498  29.251  29.916  1.00  0.00     0.010 A 
ATOM     41  C   UNL A   1      38.523  29.284  28.956  1.00  0.00    -0.014 A 
BRANCH  41  42
ATOM     42  C   UNL A   1      39.867  28.737  29.280  1.00  0.00     0.031 A 
ATOM     43  C   UNL A   1      40.861  29.581  30.030  1.00  0.00     0.074 A 
ATOM     44  C   UNL A   1      40.209  27.492  28.895  1.00  0.00     0.049 A 
ATOM     45  N   UNL A   1      42.133  29.363  30.249  1.00  0.00    -0.248 NA
ATOM     46  C   UNL A   1      40.359  30.841  30.601  1.00  0.00     0.031 C 
ATOM     47  C   UNL A   1      39.333  26.540  28.212  1.00  0.00     0.029 A 
ATOM     48  N   UNL A   1      41.399  26.818  29.022  1.00  0.00    -0.354 N 
ATOM     49  C   UNL A   1      42.595  30.478  30.936  1.00  0.00     0.074 A 
ATOM     50  C   UNL A   1      41.467  31.371  31.100  1.00  0.00     0.031 C 
ATOM     51  C   UNL A   1      40.008  25.400  27.994  1.00  0.00     0.029 A 
ATOM     52  C   UNL A   1      41.382  25.567  28.456  1.00  0.00     0.049 A 
ATOM     53  H   UNL A   1      42.188  27.195  29.474  1.00  0.00     0.167 HD
ATOM     54  C   UNL A   1      43.847  30.737  31.385  1.00  0.00     0.031 A 
ATOM     55  C   UNL A   1      42.371  24.668  28.288  1.00  0.00     0.031 A 
ATOM     56  C   UNL A   1      44.963  29.841  31.251  1.00  0.00     0.049 A 
ATOM     57  C   UNL A   1      43.761  25.001  28.748  1.00  0.00     0.074 A 
ATOM     58  C   UNL A   1      46.265  30.013  31.689  1.00  0.00     0.029 A 
ATOM     59  N   UNL A   1      44.908  28.598  30.642  1.00  0.00    -0.354 N 
ATOM     60  N   UNL A   1      44.194  26.076  29.357  1.00  0.00    -0.248 NA
ATOM     61  C   UNL A   1      44.802  23.998  28.480  1.00  0.00     0.031 C 
ATOM     62  C   UNL A   1      47.008  28.888  31.313  1.00  0.00     0.029 A 
ATOM     63  C   UNL A   1      46.156  28.000  30.677  1.00  0.00     0.049 A 
ATOM     64  H   UNL A   1      44.102  28.199  30.242  1.00  0.00     0.167 HD
ATOM     65  C   UNL A   1      45.553  25.874  29.559  1.00  0.00     0.074 A 
ATOM     66  C   UNL A   1      45.869  24.567  29.021  1.00  0.00     0.031 C 
ATOM     67  C   UNL A   1      46.458  26.701  30.136  1.00  0.00     0.031 A 
BRANCH  54  68
ATOM     68  C   UNL A   1      44.085  32.072  32.031  1.00  0.00    -0.014 A 
ATOM     69  C   UNL A   1      44.456  33.195  31.279  1.00  0.00     0.009 A 
ATOM     70  C   UNL A   1      43.893  32.211  33.415  1.00  0.00     0.009 A 
ATOM     71  C   UNL A   1      44.659  34.427  31.905  1.00  0.00     0.001 A 
ATOM     72  C   UNL A   1      44.075  33.449  34.035  1.00  0.00     0.001 A 
ATOM     73  C   UNL A   1      44.464  34.554  33.280  1.00  0.00     0.000 A 
ENDBRANCH  54  68
BRANCH  55  74
ATOM     74  C   UNL A   1      42.089  23.376  27.611  1.00  0.00    -0.014 A 
ATOM     75  C   UNL A   1      41.547  22.301  28.330  1.00  0.00     0.009 A 
ATOM     76  C   UNL A   1      42.363  23.214  26.244  1.00  0.00     0.009 A 
ATOM     77  C   UNL A   1      41.298  21.083  27.695  1.00  0.00     0.001 A 
ATOM     78  C   UNL A   1      42.089  22.003  25.606  1.00  0.00     0.001 A 
ATOM     79  C   UNL A   1      41.564  20.935  26.334  1.00  0.00     0.000 A 
ENDBRANCH  55  74
BRANCH  67  80
ATOM     80  C   UNL A   1      47.869  26.202  30.240  1.00  0.00    -0.014 A 
ATOM     81  C   UNL A   1      48.367  25.685  31.446  1.00  0.00     0.009 A 
ATOM     82  C   UNL A   1      48.701  26.224  29.111  1.00  0.00     0.009 A 
ATOM     83  C   UNL A   1      49.683  25.225  31.525  1.00  0.00     0.001 A 
ATOM     84  C   UNL A   1      50.009  25.745  29.187  1.00  0.00     0.001 A 
ATOM     85  C   UNL A   1      50.501  25.252  30.395  1.00  0.00     0.000 A 
ENDBRANCH  67  80
ENDBRANCH  41  42
ENDBRANCH  34  36
ENDBRANCH  33  34
ENDBRANCH  32  33
ENDBRANCH   1  32
TORSDOF 17
ENDMDL
