MODEL 1
REMARK VINA RESULT:     -11.4      0.000      0.000
REMARK SMILES C=Cc1cc(Cl)cc2c1O[C@H](C(F)(F)F)C(C(=O)OCCOC(=O)c1ccc(-c3c4nc(c(-c5ccccc5)c5ccc([nH]5)c(-c5ccccc5)c5nc(c(-c6ccccc6)c6ccc3[nH]6)C=C5)C=C4)cc1)=C2
REMARK SMILES IDX 21 1 20 2 19 3 17 4 18 5 16 6 3 7 4 8 9 9 5 10 8 11 10 12
REMARK SMILES IDX 6 13 7 14 73 15 11 16 2 17 1 18 12 19 13 20 14 21 15 22
REMARK SMILES IDX 22 23 23 24 24 25 25 26 26 27 72 28 27 29 71 30 28 31 29 32
REMARK SMILES IDX 30 33 65 34 31 35 70 36 64 37 66 38 32 39 69 40 63 41 62 42
REMARK SMILES IDX 33 44 55 45 40 46 54 47 41 48 44 49 53 50 67 51 42 52 43 53
REMARK SMILES IDX 52 55 68 56 45 57 34 58 35 59 39 60 36 61 38 62 37 63 56 64
REMARK SMILES IDX 57 65 61 66 58 67 60 68 59 69 46 70 47 71 51 72 48 73 50 74
REMARK SMILES IDX 49 75
REMARK H PARENT 66 43 44 54
REMARK Flexibility Score: inf
ROOT
ATOM      1  C   UNL A   1      31.685  30.394  25.603  1.00  0.00     0.275 C 
ENDROOT
BRANCH   1   2
ATOM      2  C   UNL A   1      31.565  28.990  25.004  1.00  0.00     0.275 C 
BRANCH   2   3
ATOM      3  O   UNL A   1      32.454  28.053  25.656  1.00  0.00    -0.459 OA
BRANCH   3   4
ATOM      4  C   UNL A   1      31.856  27.087  26.392  1.00  0.00     0.338 C 
ATOM      5  O   UNL A   1      31.024  27.250  27.271  1.00  0.00    -0.246 OA
BRANCH   4   6
ATOM      6  C   UNL A   1      32.309  25.750  25.958  1.00  0.00     0.087 C 
ATOM      7  C   UNL A   1      33.682  22.068  24.466  1.00  0.00     0.018 A 
ATOM      8  C   UNL A   1      35.069  21.830  24.449  1.00  0.00     0.032 A 
ATOM      9  C   UNL A   1      33.201  23.286  24.984  1.00  0.00     0.135 A 
ATOM     10  C   UNL A   1      35.953  22.767  24.974  1.00  0.00     0.042 A 
ATOM     11  C   UNL A   1      34.105  24.228  25.482  1.00  0.00     0.019 A 
ATOM     12  O   UNL A   1      31.844  23.489  25.005  1.00  0.00    -0.475 OA
ATOM     13  Cl  UNL A   1      37.645  22.454  24.964  1.00  0.00    -0.084 Cl
ATOM     14  C   UNL A   1      35.479  23.963  25.495  1.00  0.00     0.032 A 
ATOM     15  C   UNL A   1      33.622  25.502  25.971  1.00  0.00     0.027 C 
ATOM     16  C   UNL A   1      31.307  24.784  25.394  1.00  0.00     0.316 C 
BRANCH   7  17
ATOM     17  C   UNL A   1      32.758  21.086  23.880  1.00  0.00     0.004 C 
ATOM     18  C   UNL A   1      32.531  19.871  24.397  1.00  0.00     0.009 C 
ENDBRANCH   7  17
BRANCH  16  19
ATOM     19  C   UNL A   1      30.584  25.397  24.183  1.00  0.00     0.430 C 
ATOM     20  F   UNL A   1      29.610  26.255  24.567  1.00  0.00    -0.167 F 
ATOM     21  F   UNL A   1      31.436  26.102  23.400  1.00  0.00    -0.167 F 
ATOM     22  F   UNL A   1      30.010  24.451  23.404  1.00  0.00    -0.167 F 
ENDBRANCH  16  19
ENDBRANCH   4   6
ENDBRANCH   3   4
ENDBRANCH   2   3
ENDBRANCH   1   2
BRANCH   1  23
ATOM     23  O   UNL A   1      32.423  30.349  26.838  1.00  0.00    -0.458 OA
BRANCH  23  24
ATOM     24  C   UNL A   1      33.026  31.505  27.194  1.00  0.00     0.338 C 
ATOM     25  O   UNL A   1      32.528  32.614  27.269  1.00  0.00    -0.246 OA
BRANCH  24  26
ATOM     26  C   UNL A   1      34.402  31.226  27.626  1.00  0.00     0.060 A 
ATOM     27  C   UNL A   1      35.282  32.238  27.979  1.00  0.00     0.016 A 
ATOM     28  C   UNL A   1      34.743  29.900  27.858  1.00  0.00     0.016 A 
ATOM     29  C   UNL A   1      36.509  31.896  28.566  1.00  0.00     0.010 A 
ATOM     30  C   UNL A   1      35.883  29.572  28.582  1.00  0.00     0.010 A 
ATOM     31  C   UNL A   1      36.805  30.562  28.926  1.00  0.00    -0.014 A 
BRANCH  31  32
ATOM     32  C   UNL A   1      38.046  30.217  29.682  1.00  0.00     0.031 A 
ATOM     33  C   UNL A   1      38.242  30.627  31.125  1.00  0.00     0.074 A 
ATOM     34  C   UNL A   1      39.036  29.550  29.050  1.00  0.00     0.049 A 
ATOM     35  N   UNL A   1      39.224  30.319  31.938  1.00  0.00    -0.248 NA
ATOM     36  C   UNL A   1      37.244  31.527  31.726  1.00  0.00     0.031 C 
ATOM     37  C   UNL A   1      39.046  29.202  27.627  1.00  0.00     0.029 A 
ATOM     38  N   UNL A   1      40.209  29.014  29.526  1.00  0.00    -0.354 N 
ATOM     39  C   UNL A   1      38.970  31.002  33.122  1.00  0.00     0.074 A 
ATOM     40  C   UNL A   1      37.788  31.802  32.902  1.00  0.00     0.031 C 
ATOM     41  C   UNL A   1      40.107  28.423  27.371  1.00  0.00     0.029 A 
ATOM     42  C   UNL A   1      40.880  28.253  28.596  1.00  0.00     0.049 A 
ATOM     43  H   UNL A   1      40.537  29.160  30.442  1.00  0.00     0.167 HD
ATOM     44  C   UNL A   1      39.628  30.937  34.304  1.00  0.00     0.031 A 
ATOM     45  C   UNL A   1      41.973  27.475  28.716  1.00  0.00     0.031 A 
ATOM     46  C   UNL A   1      40.770  30.098  34.543  1.00  0.00     0.049 A 
ATOM     47  C   UNL A   1      42.645  27.352  30.054  1.00  0.00     0.074 A 
ATOM     48  C   UNL A   1      41.439  29.879  35.734  1.00  0.00     0.029 A 
ATOM     49  N   UNL A   1      41.405  29.335  33.578  1.00  0.00    -0.354 N 
ATOM     50  N   UNL A   1      42.317  27.912  31.193  1.00  0.00    -0.248 NA
ATOM     51  C   UNL A   1      43.826  26.481  30.129  1.00  0.00     0.031 C 
ATOM     52  C   UNL A   1      42.513  29.025  35.478  1.00  0.00     0.029 A 
ATOM     53  C   UNL A   1      42.474  28.660  34.142  1.00  0.00     0.049 A 
ATOM     54  H   UNL A   1      41.137  29.279  32.632  1.00  0.00     0.167 HD
ATOM     55  C   UNL A   1      43.243  27.453  32.121  1.00  0.00     0.074 A 
ATOM     56  C   UNL A   1      44.129  26.547  31.419  1.00  0.00     0.031 C 
ATOM     57  C   UNL A   1      43.352  27.765  33.435  1.00  0.00     0.031 A 
BRANCH  44  58
ATOM     58  C   UNL A   1      39.107  31.756  35.457  1.00  0.00    -0.014 A 
ATOM     59  C   UNL A   1      39.611  33.046  35.689  1.00  0.00     0.009 A 
ATOM     60  C   UNL A   1      38.194  31.213  36.377  1.00  0.00     0.009 A 
ATOM     61  C   UNL A   1      39.219  33.770  36.818  1.00  0.00     0.001 A 
ATOM     62  C   UNL A   1      37.777  31.952  37.486  1.00  0.00     0.001 A 
ATOM     63  C   UNL A   1      38.298  33.225  37.711  1.00  0.00     0.000 A 
ENDBRANCH  44  58
BRANCH  45  64
ATOM     64  C   UNL A   1      42.438  26.684  27.544  1.00  0.00    -0.014 A 
ATOM     65  C   UNL A   1      43.322  27.236  26.604  1.00  0.00     0.009 A 
ATOM     66  C   UNL A   1      41.942  25.389  27.325  1.00  0.00     0.009 A 
ATOM     67  C   UNL A   1      43.678  26.520  25.458  1.00  0.00     0.001 A 
ATOM     68  C   UNL A   1      42.324  24.663  26.194  1.00  0.00     0.001 A 
ATOM     69  C   UNL A   1      43.183  25.234  25.256  1.00  0.00     0.000 A 
ENDBRANCH  45  64
BRANCH  57  70
ATOM     70  C   UNL A   1      44.465  27.131  34.219  1.00  0.00    -0.014 A 
ATOM     71  C   UNL A   1      44.236  25.933  34.915  1.00  0.00     0.009 A 
ATOM     72  C   UNL A   1      45.702  27.776  34.365  1.00  0.00     0.009 A 
ATOM     73  C   UNL A   1      45.216  25.403  35.755  1.00  0.00     0.001 A 
ATOM     74  C   UNL A   1      46.692  27.228  35.181  1.00  0.00     0.001 A 
ATOM     75  C   UNL A   1      46.446  26.049  35.883  1.00  0.00     0.000 A 
ENDBRANCH  57  70
ENDBRANCH  31  32
ENDBRANCH  24  26
ENDBRANCH  23  24
ENDBRANCH   1  23
TORSDOF 13
ENDMDL
MODEL 2
REMARK VINA RESULT:     -11.3      3.841      8.683
REMARK SMILES C=Cc1cc(Cl)cc2c1O[C@H](C(F)(F)F)C(C(=O)OCCOC(=O)c1ccc(-c3c4nc(c(-c5ccccc5)c5ccc([nH]5)c(-c5ccccc5)c5nc(c(-c6ccccc6)c6ccc3[nH]6)C=C5)C=C4)cc1)=C2
REMARK SMILES IDX 21 1 20 2 19 3 17 4 18 5 16 6 3 7 4 8 9 9 5 10 8 11 10 12
REMARK SMILES IDX 6 13 7 14 73 15 11 16 2 17 1 18 12 19 13 20 14 21 15 22
REMARK SMILES IDX 22 23 23 24 24 25 25 26 26 27 72 28 27 29 71 30 28 31 29 32
REMARK SMILES IDX 30 33 65 34 31 35 70 36 64 37 66 38 32 39 69 40 63 41 62 42
REMARK SMILES IDX 33 44 55 45 40 46 54 47 41 48 44 49 53 50 67 51 42 52 43 53
REMARK SMILES IDX 52 55 68 56 45 57 34 58 35 59 39 60 36 61 38 62 37 63 56 64
REMARK SMILES IDX 57 65 61 66 58 67 60 68 59 69 46 70 47 71 51 72 48 73 50 74
REMARK SMILES IDX 49 75
REMARK H PARENT 66 43 44 54
REMARK Flexibility Score: inf
ROOT
ATOM      1  C   UNL A   1      36.354  20.691  25.260  1.00  0.00     0.275 C 
ENDROOT
BRANCH   1   2
ATOM      2  C   UNL A   1      35.059  21.487  25.078  1.00  0.00     0.275 C 
BRANCH   2   3
ATOM      3  O   UNL A   1      35.314  22.907  24.978  1.00  0.00    -0.459 OA
BRANCH   3   4
ATOM      4  C   UNL A   1      35.093  23.463  23.764  1.00  0.00     0.338 C 
ATOM      5  O   UNL A   1      35.602  23.127  22.705  1.00  0.00    -0.246 OA
BRANCH   4   6
ATOM      6  C   UNL A   1      34.085  24.538  23.862  1.00  0.00     0.087 C 
ATOM      7  C   UNL A   1      31.113  27.465  24.385  1.00  0.00     0.018 A 
ATOM      8  C   UNL A   1      31.307  28.443  25.377  1.00  0.00     0.032 A 
ATOM      9  C   UNL A   1      32.108  26.490  24.178  1.00  0.00     0.135 A 
ATOM     10  C   UNL A   1      32.484  28.474  26.118  1.00  0.00     0.042 A 
ATOM     11  C   UNL A   1      33.272  26.519  24.950  1.00  0.00     0.019 A 
ATOM     12  O   UNL A   1      31.905  25.555  23.194  1.00  0.00    -0.475 OA
ATOM     13  Cl  UNL A   1      32.716  29.688  27.316  1.00  0.00    -0.084 Cl
ATOM     14  C   UNL A   1      33.470  27.520  25.908  1.00  0.00     0.032 A 
ATOM     15  C   UNL A   1      34.278  25.492  24.779  1.00  0.00     0.027 C 
ATOM     16  C   UNL A   1      32.833  24.445  23.039  1.00  0.00     0.316 C 
BRANCH   7  17
ATOM     17  C   UNL A   1      29.853  27.421  23.628  1.00  0.00     0.004 C 
ATOM     18  C   UNL A   1      28.852  26.571  23.891  1.00  0.00     0.009 C 
ENDBRANCH   7  17
BRANCH  16  19
ATOM     19  C   UNL A   1      32.082  23.137  23.340  1.00  0.00     0.430 C 
ATOM     20  F   UNL A   1      32.142  22.820  24.654  1.00  0.00    -0.167 F 
ATOM     21  F   UNL A   1      30.768  23.233  23.023  1.00  0.00    -0.167 F 
ATOM     22  F   UNL A   1      32.589  22.092  22.646  1.00  0.00    -0.167 F 
ENDBRANCH  16  19
ENDBRANCH   4   6
ENDBRANCH   3   4
ENDBRANCH   2   3
ENDBRANCH   1   2
BRANCH   1  23
ATOM     23  O   UNL A   1      37.496  21.546  25.074  1.00  0.00    -0.458 OA
BRANCH  23  24
ATOM     24  C   UNL A   1      38.615  21.167  25.731  1.00  0.00     0.338 C 
ATOM     25  O   UNL A   1      39.171  20.084  25.696  1.00  0.00    -0.246 OA
BRANCH  24  26
ATOM     26  C   UNL A   1      39.185  22.325  26.434  1.00  0.00     0.060 A 
ATOM     27  C   UNL A   1      40.343  22.228  27.192  1.00  0.00     0.016 A 
ATOM     28  C   UNL A   1      38.638  23.572  26.160  1.00  0.00     0.016 A 
ATOM     29  C   UNL A   1      40.939  23.403  27.673  1.00  0.00     0.010 A 
ATOM     30  C   UNL A   1      39.315  24.737  26.500  1.00  0.00     0.010 A 
ATOM     31  C   UNL A   1      40.465  24.677  27.289  1.00  0.00    -0.014 A 
BRANCH  31  32
ATOM     32  C   UNL A   1      41.184  25.926  27.681  1.00  0.00     0.031 A 
ATOM     33  C   UNL A   1      42.538  26.280  27.107  1.00  0.00     0.074 A 
ATOM     34  C   UNL A   1      40.627  26.745  28.599  1.00  0.00     0.049 A 
ATOM     35  N   UNL A   1      43.241  27.374  27.280  1.00  0.00    -0.248 NA
ATOM     36  C   UNL A   1      43.216  25.276  26.269  1.00  0.00     0.031 C 
ATOM     37  C   UNL A   1      39.391  26.471  29.336  1.00  0.00     0.029 A 
ATOM     38  N   UNL A   1      41.006  27.989  29.047  1.00  0.00    -0.354 N 
ATOM     39  C   UNL A   1      44.437  27.174  26.599  1.00  0.00     0.074 A 
ATOM     40  C   UNL A   1      44.403  25.830  26.073  1.00  0.00     0.031 C 
ATOM     41  C   UNL A   1      39.057  27.553  30.054  1.00  0.00     0.029 A 
ATOM     42  C   UNL A   1      40.076  28.580  29.870  1.00  0.00     0.049 A 
ATOM     43  H   UNL A   1      41.859  28.414  28.802  1.00  0.00     0.167 HD
ATOM     44  C   UNL A   1      45.454  28.043  26.384  1.00  0.00     0.031 A 
ATOM     45  C   UNL A   1      40.024  29.821  30.394  1.00  0.00     0.031 A 
ATOM     46  C   UNL A   1      45.464  29.400  26.857  1.00  0.00     0.049 A 
ATOM     47  C   UNL A   1      41.122  30.797  30.081  1.00  0.00     0.074 A 
ATOM     48  C   UNL A   1      46.396  30.390  26.600  1.00  0.00     0.029 A 
ATOM     49  N   UNL A   1      44.497  29.960  27.674  1.00  0.00    -0.354 N 
ATOM     50  N   UNL A   1      42.186  30.627  29.334  1.00  0.00    -0.248 NA
ATOM     51  C   UNL A   1      41.007  32.139  30.671  1.00  0.00     0.031 C 
ATOM     52  C   UNL A   1      46.021  31.534  27.307  1.00  0.00     0.029 A 
ATOM     53  C   UNL A   1      44.821  31.277  27.950  1.00  0.00     0.049 A 
ATOM     54  H   UNL A   1      43.698  29.492  28.008  1.00  0.00     0.167 HD
ATOM     55  C   UNL A   1      42.860  31.841  29.354  1.00  0.00     0.074 A 
ATOM     56  C   UNL A   1      42.072  32.748  30.163  1.00  0.00     0.031 C 
ATOM     57  C   UNL A   1      44.033  32.169  28.760  1.00  0.00     0.031 A 
BRANCH  44  58
ATOM     58  C   UNL A   1      46.627  27.579  25.561  1.00  0.00    -0.014 A 
ATOM     59  C   UNL A   1      47.719  26.951  26.181  1.00  0.00     0.009 A 
ATOM     60  C   UNL A   1      46.700  27.855  24.185  1.00  0.00     0.009 A 
ATOM     61  C   UNL A   1      48.860  26.618  25.446  1.00  0.00     0.001 A 
ATOM     62  C   UNL A   1      47.827  27.490  23.445  1.00  0.00     0.001 A 
ATOM     63  C   UNL A   1      48.910  26.882  24.079  1.00  0.00     0.000 A 
ENDBRANCH  44  58
BRANCH  45  64
ATOM     64  C   UNL A   1      38.837  30.224  31.195  1.00  0.00    -0.014 A 
ATOM     65  C   UNL A   1      37.709  30.792  30.581  1.00  0.00     0.009 A 
ATOM     66  C   UNL A   1      38.856  30.105  32.594  1.00  0.00     0.009 A 
ATOM     67  C   UNL A   1      36.638  31.254  31.351  1.00  0.00     0.001 A 
ATOM     68  C   UNL A   1      37.770  30.538  33.360  1.00  0.00     0.001 A 
ATOM     69  C   UNL A   1      36.668  31.123  32.738  1.00  0.00     0.000 A 
ENDBRANCH  45  64
BRANCH  57  70
ATOM     70  C   UNL A   1      44.555  33.564  28.953  1.00  0.00    -0.014 A 
ATOM     71  C   UNL A   1      44.226  34.568  28.027  1.00  0.00     0.009 A 
ATOM     72  C   UNL A   1      45.462  33.859  29.982  1.00  0.00     0.009 A 
ATOM     73  C   UNL A   1      44.809  35.832  28.116  1.00  0.00     0.001 A 
ATOM     74  C   UNL A   1      46.019  35.134  30.087  1.00  0.00     0.001 A 
ATOM     75  C   UNL A   1      45.701  36.116  29.149  1.00  0.00     0.000 A 
ENDBRANCH  57  70
ENDBRANCH  31  32
ENDBRANCH  24  26
ENDBRANCH  23  24
ENDBRANCH   1  23
TORSDOF 13
ENDMDL
MODEL 3
REMARK VINA RESULT:     -11.3      4.924      9.680
REMARK SMILES C=Cc1cc(Cl)cc2c1O[C@H](C(F)(F)F)C(C(=O)OCCOC(=O)c1ccc(-c3c4nc(c(-c5ccccc5)c5ccc([nH]5)c(-c5ccccc5)c5nc(c(-c6ccccc6)c6ccc3[nH]6)C=C5)C=C4)cc1)=C2
REMARK SMILES IDX 21 1 20 2 19 3 17 4 18 5 16 6 3 7 4 8 9 9 5 10 8 11 10 12
REMARK SMILES IDX 6 13 7 14 73 15 11 16 2 17 1 18 12 19 13 20 14 21 15 22
REMARK SMILES IDX 22 23 23 24 24 25 25 26 26 27 72 28 27 29 71 30 28 31 29 32
REMARK SMILES IDX 30 33 65 34 31 35 70 36 64 37 66 38 32 39 69 40 63 41 62 42
REMARK SMILES IDX 33 44 55 45 40 46 54 47 41 48 44 49 53 50 67 51 42 52 43 53
REMARK SMILES IDX 52 55 68 56 45 57 34 58 35 59 39 60 36 61 38 62 37 63 56 64
REMARK SMILES IDX 57 65 61 66 58 67 60 68 59 69 46 70 47 71 51 72 48 73 50 74
REMARK SMILES IDX 49 75
REMARK H PARENT 66 43 44 54
REMARK Flexibility Score: inf
ROOT
ATOM      1  C   UNL A   1      33.919  33.596  28.212  1.00  0.00     0.275 C 
ENDROOT
BRANCH   1   2
ATOM      2  C   UNL A   1      34.604  34.737  28.968  1.00  0.00     0.275 C 
BRANCH   2   3
ATOM      3  O   UNL A   1      34.284  34.712  30.379  1.00  0.00    -0.459 OA
BRANCH   3   4
ATOM      4  C   UNL A   1      34.794  33.675  31.081  1.00  0.00     0.338 C 
ATOM      5  O   UNL A   1      34.328  32.548  31.161  1.00  0.00    -0.246 OA
BRANCH   4   6
ATOM      6  C   UNL A   1      36.063  34.063  31.731  1.00  0.00     0.087 C 
ATOM      7  C   UNL A   1      39.720  34.878  33.636  1.00  0.00     0.018 A 
ATOM      8  C   UNL A   1      40.911  34.618  32.933  1.00  0.00     0.032 A 
ATOM      9  C   UNL A   1      38.485  34.634  33.006  1.00  0.00     0.135 A 
ATOM     10  C   UNL A   1      40.871  34.165  31.618  1.00  0.00     0.042 A 
ATOM     11  C   UNL A   1      38.462  34.152  31.695  1.00  0.00     0.019 A 
ATOM     12  O   UNL A   1      37.337  34.910  33.705  1.00  0.00    -0.475 OA
ATOM     13  Cl  UNL A   1      42.336  33.869  30.765  1.00  0.00    -0.084 Cl
ATOM     14  C   UNL A   1      39.654  33.934  30.994  1.00  0.00     0.032 A 
ATOM     15  C   UNL A   1      37.198  33.852  31.058  1.00  0.00     0.027 C 
ATOM     16  C   UNL A   1      36.041  34.540  33.154  1.00  0.00     0.316 C 
BRANCH   7  17
ATOM     17  C   UNL A   1      39.773  35.327  35.035  1.00  0.00     0.004 C 
ATOM     18  C   UNL A   1      40.728  36.125  35.529  1.00  0.00     0.009 C 
ENDBRANCH   7  17
BRANCH  16  19
ATOM     19  C   UNL A   1      35.405  33.483  34.072  1.00  0.00     0.430 C 
ATOM     20  F   UNL A   1      35.674  33.729  35.375  1.00  0.00    -0.167 F 
ATOM     21  F   UNL A   1      34.055  33.466  33.952  1.00  0.00    -0.167 F 
ATOM     22  F   UNL A   1      35.849  32.236  33.792  1.00  0.00    -0.167 F 
ENDBRANCH  16  19
ENDBRANCH   4   6
ENDBRANCH   3   4
ENDBRANCH   2   3
ENDBRANCH   1   2
BRANCH   1  23
ATOM     23  O   UNL A   1      34.894  32.809  27.506  1.00  0.00    -0.458 OA
BRANCH  23  24
ATOM     24  C   UNL A   1      34.780  31.471  27.663  1.00  0.00     0.338 C 
ATOM     25  O   UNL A   1      33.981  30.722  27.130  1.00  0.00    -0.246 OA
BRANCH  24  26
ATOM     26  C   UNL A   1      35.880  30.982  28.506  1.00  0.00     0.060 A 
ATOM     27  C   UNL A   1      35.767  29.828  29.268  1.00  0.00     0.016 A 
ATOM     28  C   UNL A   1      37.115  31.603  28.369  1.00  0.00     0.016 A 
ATOM     29  C   UNL A   1      36.911  29.312  29.892  1.00  0.00     0.010 A 
ATOM     30  C   UNL A   1      38.272  31.004  28.853  1.00  0.00     0.010 A 
ATOM     31  C   UNL A   1      38.190  29.861  29.650  1.00  0.00    -0.014 A 
BRANCH  31  32
ATOM     32  C   UNL A   1      39.427  29.225  30.197  1.00  0.00     0.031 A 
ATOM     33  C   UNL A   1      40.112  28.077  29.490  1.00  0.00     0.074 A 
ATOM     34  C   UNL A   1      39.927  29.664  31.372  1.00  0.00     0.049 A 
ATOM     35  N   UNL A   1      41.243  27.486  29.794  1.00  0.00    -0.248 NA
ATOM     36  C   UNL A   1      39.436  27.482  28.325  1.00  0.00     0.031 C 
ATOM     37  C   UNL A   1      39.303  30.673  32.232  1.00  0.00     0.029 A 
ATOM     38  N   UNL A   1      41.090  29.346  32.033  1.00  0.00    -0.354 N 
ATOM     39  C   UNL A   1      41.393  26.449  28.879  1.00  0.00     0.074 A 
ATOM     40  C   UNL A   1      40.206  26.438  28.058  1.00  0.00     0.031 C 
ATOM     41  C   UNL A   1      40.135  30.969  33.241  1.00  0.00     0.029 A 
ATOM     42  C   UNL A   1      41.331  30.140  33.130  1.00  0.00     0.049 A 
ATOM     43  H   UNL A   1      41.691  28.621  31.748  1.00  0.00     0.167 HD
ATOM     44  C   UNL A   1      42.441  25.611  28.702  1.00  0.00     0.031 A 
ATOM     45  C   UNL A   1      42.404  30.223  33.941  1.00  0.00     0.031 A 
ATOM     46  C   UNL A   1      43.648  25.658  29.481  1.00  0.00     0.049 A 
ATOM     47  C   UNL A   1      43.591  29.340  33.681  1.00  0.00     0.074 A 
ATOM     48  C   UNL A   1      44.809  24.925  29.308  1.00  0.00     0.029 A 
ATOM     49  N   UNL A   1      43.853  26.486  30.571  1.00  0.00    -0.354 N 
ATOM     50  N   UNL A   1      43.762  28.449  32.735  1.00  0.00    -0.248 NA
ATOM     51  C   UNL A   1      44.737  29.481  34.590  1.00  0.00     0.031 C 
ATOM     52  C   UNL A   1      45.697  25.271  30.328  1.00  0.00     0.029 A 
ATOM     53  C   UNL A   1      45.115  26.267  31.096  1.00  0.00     0.049 A 
ATOM     54  H   UNL A   1      43.200  27.134  30.921  1.00  0.00     0.167 HD
ATOM     55  C   UNL A   1      45.036  27.933  32.927  1.00  0.00     0.074 A 
ATOM     56  C   UNL A   1      45.607  28.629  34.062  1.00  0.00     0.031 C 
ATOM     57  C   UNL A   1      45.671  26.961  32.227  1.00  0.00     0.031 A 
BRANCH  44  58
ATOM     58  C   UNL A   1      42.363  24.595  27.592  1.00  0.00    -0.014 A 
ATOM     59  C   UNL A   1      41.838  23.317  27.841  1.00  0.00     0.009 A 
ATOM     60  C   UNL A   1      42.906  24.866  26.324  1.00  0.00     0.009 A 
ATOM     61  C   UNL A   1      41.864  22.332  26.850  1.00  0.00     0.001 A 
ATOM     62  C   UNL A   1      42.898  23.891  25.324  1.00  0.00     0.001 A 
ATOM     63  C   UNL A   1      42.388  22.622  25.592  1.00  0.00     0.000 A 
ENDBRANCH  44  58
BRANCH  45  64
ATOM     64  C   UNL A   1      42.427  31.250  35.018  1.00  0.00    -0.014 A 
ATOM     65  C   UNL A   1      43.025  32.503  34.810  1.00  0.00     0.009 A 
ATOM     66  C   UNL A   1      41.906  30.952  36.287  1.00  0.00     0.009 A 
ATOM     67  C   UNL A   1      43.124  33.424  35.856  1.00  0.00     0.001 A 
ATOM     68  C   UNL A   1      41.978  31.887  37.323  1.00  0.00     0.001 A 
ATOM     69  C   UNL A   1      42.597  33.118  37.109  1.00  0.00     0.000 A 
ENDBRANCH  45  64
BRANCH  57  70
ATOM     70  C   UNL A   1      47.059  26.577  32.657  1.00  0.00    -0.014 A 
ATOM     71  C   UNL A   1      48.170  27.209  32.076  1.00  0.00     0.009 A 
ATOM     72  C   UNL A   1      47.270  25.513  33.546  1.00  0.00     0.009 A 
ATOM     73  C   UNL A   1      49.464  26.772  32.363  1.00  0.00     0.001 A 
ATOM     74  C   UNL A   1      48.566  25.098  33.856  1.00  0.00     0.001 A 
ATOM     75  C   UNL A   1      49.661  25.720  33.257  1.00  0.00     0.000 A 
ENDBRANCH  57  70
ENDBRANCH  31  32
ENDBRANCH  24  26
ENDBRANCH  23  24
ENDBRANCH   1  23
TORSDOF 13
ENDMDL
