MODEL 1
REMARK VINA RESULT:     -10.3      0.000      0.000
REMARK SMILES O=C(CNC(=O)OCc1ccccc1)NCC(=O)OCCOC(=O)c1ccc(-c2c3nc(c(-c4ccccc4)c4ccc([nH]4)c(-c4ccccc4)c4nc(c(-c5ccccc5)c5ccc2[nH]5)C=C4)C=C3)cc1
REMARK SMILES IDX 17 1 18 2 16 3 15 4 1 5 2 6 3 8 4 9 5 10 6 12 7 13 8 14 9 15
REMARK SMILES IDX 10 16 14 17 11 18 13 19 12 20 19 21 20 22 21 23 22 24 23 25
REMARK SMILES IDX 24 26 25 27 26 28 72 29 27 30 71 31 28 32 29 33 30 34 65 35
REMARK SMILES IDX 31 36 70 37 64 38 66 39 32 40 69 41 63 42 62 43 33 45 55 46
REMARK SMILES IDX 40 47 54 48 41 49 44 50 53 51 67 52 42 53 43 54 52 56 68 57
REMARK SMILES IDX 45 58 34 59 35 60 39 61 36 62 38 63 37 64 56 65 57 66 61 67
REMARK SMILES IDX 58 68 60 69 59 70 46 71 47 72 51 73 48 74 50 75 49 76
REMARK H PARENT 15 7 4 11 66 44 44 55
REMARK Flexibility Score: inf
ROOT
ATOM      1  C   UNL A   1      40.895  21.085  26.930  1.00  0.00     0.325 C 
ATOM      2  O   UNL A   1      40.810  20.185  27.758  1.00  0.00    -0.250 OA
ENDROOT
BRANCH   1   3
ATOM      3  C   UNL A   1      40.082  22.372  27.024  1.00  0.00     0.238 C 
BRANCH   3   4
ATOM      4  N   UNL A   1      38.723  22.280  26.516  1.00  0.00    -0.344 N 
ATOM      5  O   UNL A   1      38.242  24.511  26.724  1.00  0.00    -0.273 OA
ATOM      6  C   UNL A   1      37.921  23.385  26.355  1.00  0.00     0.240 C 
ATOM      7  H   UNL A   1      38.364  21.395  26.279  1.00  0.00     0.164 HD
BRANCH   6   8
ATOM      8  C   UNL A   1      36.561  23.089  25.728  1.00  0.00     0.219 C 
BRANCH   8   9
ATOM      9  N   UNL A   1      35.595  22.865  26.788  1.00  0.00    -0.312 N 
ATOM     10  C   UNL A   1      34.647  21.890  26.834  1.00  0.00     0.407 C 
ATOM     11  H   UNL A   1      35.628  23.483  27.553  1.00  0.00     0.167 HD
ATOM     12  O   UNL A   1      33.851  21.820  27.754  1.00  0.00    -0.225 OA
BRANCH  10  13
ATOM     13  O   UNL A   1      34.720  21.043  25.778  1.00  0.00    -0.445 OA
BRANCH  13  14
ATOM     14  C   UNL A   1      33.457  20.653  25.224  1.00  0.00     0.270 C 
BRANCH  14  15
ATOM     15  C   UNL A   1      33.526  19.369  24.427  1.00  0.00    -0.011 A 
ATOM     16  C   UNL A   1      32.556  19.121  23.445  1.00  0.00     0.007 A 
ATOM     17  C   UNL A   1      34.547  18.424  24.618  1.00  0.00     0.007 A 
ATOM     18  C   UNL A   1      32.585  17.942  22.697  1.00  0.00     0.000 A 
ATOM     19  C   UNL A   1      34.570  17.243  23.875  1.00  0.00     0.000 A 
ATOM     20  C   UNL A   1      33.588  17.001  22.918  1.00  0.00     0.000 A 
ENDBRANCH  14  15
ENDBRANCH  13  14
ENDBRANCH  10  13
ENDBRANCH   8   9
ENDBRANCH   6   8
ENDBRANCH   3   4
ENDBRANCH   1   3
BRANCH   1  21
ATOM     21  O   UNL A   1      41.683  21.051  25.821  1.00  0.00    -0.461 OA
BRANCH  21  22
ATOM     22  C   UNL A   1      43.100  20.925  26.034  1.00  0.00     0.274 C 
BRANCH  22  23
ATOM     23  C   UNL A   1      43.858  21.950  25.185  1.00  0.00     0.275 C 
BRANCH  23  24
ATOM     24  O   UNL A   1      43.145  23.200  25.085  1.00  0.00    -0.458 OA
BRANCH  24  25
ATOM     25  C   UNL A   1      43.890  24.314  25.276  1.00  0.00     0.338 C 
ATOM     26  O   UNL A   1      44.867  24.676  24.638  1.00  0.00    -0.246 OA
BRANCH  25  27
ATOM     27  C   UNL A   1      43.261  25.157  26.305  1.00  0.00     0.060 A 
ATOM     28  C   UNL A   1      43.655  26.495  26.371  1.00  0.00     0.016 A 
ATOM     29  C   UNL A   1      42.362  24.635  27.236  1.00  0.00     0.016 A 
ATOM     30  C   UNL A   1      43.171  27.317  27.384  1.00  0.00     0.010 A 
ATOM     31  C   UNL A   1      41.868  25.464  28.251  1.00  0.00     0.010 A 
ATOM     32  C   UNL A   1      42.283  26.805  28.340  1.00  0.00    -0.014 A 
BRANCH  32  33
ATOM     33  C   UNL A   1      41.833  27.674  29.455  1.00  0.00     0.031 A 
ATOM     34  C   UNL A   1      42.580  27.673  30.758  1.00  0.00     0.074 A 
ATOM     35  C   UNL A   1      40.778  28.490  29.282  1.00  0.00     0.049 A 
ATOM     36  N   UNL A   1      42.322  28.333  31.858  1.00  0.00    -0.248 NA
ATOM     37  C   UNL A   1      43.776  26.818  30.834  1.00  0.00     0.031 C 
ATOM     38  C   UNL A   1      39.999  28.617  28.049  1.00  0.00     0.029 A 
ATOM     39  N   UNL A   1      40.183  29.374  30.146  1.00  0.00    -0.354 N 
ATOM     40  C   UNL A   1      43.308  27.959  32.763  1.00  0.00     0.074 A 
ATOM     41  C   UNL A   1      44.157  26.999  32.090  1.00  0.00     0.031 C 
ATOM     42  C   UNL A   1      39.036  29.534  28.234  1.00  0.00     0.029 A 
ATOM     43  C   UNL A   1      39.099  30.023  29.607  1.00  0.00     0.049 A 
ATOM     44  H   UNL A   1      40.502  29.529  31.065  1.00  0.00     0.167 HD
ATOM     45  C   UNL A   1      43.491  28.381  34.038  1.00  0.00     0.031 A 
ATOM     46  C   UNL A   1      38.239  30.895  30.165  1.00  0.00     0.031 A 
ATOM     47  C   UNL A   1      42.647  29.338  34.705  1.00  0.00     0.049 A 
ATOM     48  C   UNL A   1      38.425  31.296  31.602  1.00  0.00     0.074 A 
ATOM     49  C   UNL A   1      42.760  29.839  35.991  1.00  0.00     0.029 A 
ATOM     50  N   UNL A   1      41.533  29.938  34.139  1.00  0.00    -0.354 N 
ATOM     51  N   UNL A   1      39.364  30.938  32.444  1.00  0.00    -0.248 NA
ATOM     52  C   UNL A   1      37.431  32.221  32.163  1.00  0.00     0.031 C 
ATOM     53  C   UNL A   1      41.683  30.702  36.220  1.00  0.00     0.029 A 
ATOM     54  C   UNL A   1      40.933  30.783  35.057  1.00  0.00     0.049 A 
ATOM     55  H   UNL A   1      41.216  29.786  33.220  1.00  0.00     0.167 HD
ATOM     56  C   UNL A   1      39.087  31.611  33.626  1.00  0.00     0.074 A 
ATOM     57  C   UNL A   1      37.904  32.412  33.387  1.00  0.00     0.031 C 
ATOM     58  C   UNL A   1      39.754  31.570  34.805  1.00  0.00     0.031 A 
BRANCH  45  59
ATOM     59  C   UNL A   1      44.629  27.776  34.810  1.00  0.00    -0.014 A 
ATOM     60  C   UNL A   1      44.450  26.637  35.610  1.00  0.00     0.009 A 
ATOM     61  C   UNL A   1      45.912  28.337  34.707  1.00  0.00     0.009 A 
ATOM     62  C   UNL A   1      45.526  26.092  36.317  1.00  0.00     0.001 A 
ATOM     63  C   UNL A   1      46.990  27.775  35.392  1.00  0.00     0.001 A 
ATOM     64  C   UNL A   1      46.795  26.659  36.204  1.00  0.00     0.000 A 
ENDBRANCH  45  59
BRANCH  46  65
ATOM     65  C   UNL A   1      37.103  31.429  29.368  1.00  0.00    -0.014 A 
ATOM     66  C   UNL A   1      35.992  30.626  29.075  1.00  0.00     0.009 A 
ATOM     67  C   UNL A   1      37.132  32.749  28.890  1.00  0.00     0.009 A 
ATOM     68  C   UNL A   1      34.942  31.126  28.300  1.00  0.00     0.001 A 
ATOM     69  C   UNL A   1      36.069  33.256  28.141  1.00  0.00     0.001 A 
ATOM     70  C   UNL A   1      34.979  32.442  27.840  1.00  0.00     0.000 A 
ENDBRANCH  46  65
BRANCH  58  71
ATOM     71  C   UNL A   1      39.238  32.442  35.915  1.00  0.00    -0.014 A 
ATOM     72  C   UNL A   1      38.299  31.963  36.842  1.00  0.00     0.009 A 
ATOM     73  C   UNL A   1      39.726  33.751  36.055  1.00  0.00     0.009 A 
ATOM     74  C   UNL A   1      37.834  32.790  37.866  1.00  0.00     0.001 A 
ATOM     75  C   UNL A   1      39.281  34.566  37.097  1.00  0.00     0.001 A 
ATOM     76  C   UNL A   1      38.329  34.088  37.996  1.00  0.00     0.000 A 
ENDBRANCH  58  71
ENDBRANCH  32  33
ENDBRANCH  25  27
ENDBRANCH  24  25
ENDBRANCH  23  24
ENDBRANCH  22  23
ENDBRANCH  21  22
ENDBRANCH   1  21
TORSDOF 17
ENDMDL
MODEL 2
REMARK VINA RESULT:     -10.2      1.967      6.561
REMARK SMILES O=C(CNC(=O)OCc1ccccc1)NCC(=O)OCCOC(=O)c1ccc(-c2c3nc(c(-c4ccccc4)c4ccc([nH]4)c(-c4ccccc4)c4nc(c(-c5ccccc5)c5ccc2[nH]5)C=C4)C=C3)cc1
REMARK SMILES IDX 17 1 18 2 16 3 15 4 1 5 2 6 3 8 4 9 5 10 6 12 7 13 8 14 9 15
REMARK SMILES IDX 10 16 14 17 11 18 13 19 12 20 19 21 20 22 21 23 22 24 23 25
REMARK SMILES IDX 24 26 25 27 26 28 72 29 27 30 71 31 28 32 29 33 30 34 65 35
REMARK SMILES IDX 31 36 70 37 64 38 66 39 32 40 69 41 63 42 62 43 33 45 55 46
REMARK SMILES IDX 40 47 54 48 41 49 44 50 53 51 67 52 42 53 43 54 52 56 68 57
REMARK SMILES IDX 45 58 34 59 35 60 39 61 36 62 38 63 37 64 56 65 57 66 61 67
REMARK SMILES IDX 58 68 60 69 59 70 46 71 47 72 51 73 48 74 50 75 49 76
REMARK H PARENT 15 7 4 11 66 44 44 55
REMARK Flexibility Score: inf
ROOT
ATOM      1  C   UNL A   1      43.065  19.287  25.581  1.00  0.00     0.325 C 
ATOM      2  O   UNL A   1      43.000  18.070  25.448  1.00  0.00    -0.250 OA
ENDROOT
BRANCH   1   3
ATOM      3  C   UNL A   1      42.407  20.026  26.740  1.00  0.00     0.238 C 
BRANCH   3   4
ATOM      4  N   UNL A   1      41.291  20.882  26.372  1.00  0.00    -0.344 N 
ATOM      5  O   UNL A   1      41.133  21.949  28.394  1.00  0.00    -0.273 OA
ATOM      6  C   UNL A   1      40.773  21.827  27.226  1.00  0.00     0.240 C 
ATOM      7  H   UNL A   1      40.892  20.781  25.478  1.00  0.00     0.164 HD
BRANCH   6   8
ATOM      8  C   UNL A   1      39.662  22.680  26.621  1.00  0.00     0.219 C 
BRANCH   8   9
ATOM      9  N   UNL A   1      38.993  21.915  25.585  1.00  0.00    -0.312 N 
ATOM     10  C   UNL A   1      37.668  21.944  25.277  1.00  0.00     0.407 C 
ATOM     11  H   UNL A   1      39.556  21.311  25.050  1.00  0.00     0.167 HD
ATOM     12  O   UNL A   1      37.200  21.221  24.415  1.00  0.00    -0.225 OA
BRANCH  10  13
ATOM     13  O   UNL A   1      36.983  22.853  26.013  1.00  0.00    -0.445 OA
BRANCH  13  14
ATOM     14  C   UNL A   1      36.385  23.917  25.260  1.00  0.00     0.270 C 
BRANCH  14  15
ATOM     15  C   UNL A   1      34.948  24.187  25.647  1.00  0.00    -0.011 A 
ATOM     16  C   UNL A   1      34.235  23.207  26.355  1.00  0.00     0.007 A 
ATOM     17  C   UNL A   1      34.307  25.398  25.346  1.00  0.00     0.007 A 
ATOM     18  C   UNL A   1      32.905  23.420  26.722  1.00  0.00     0.000 A 
ATOM     19  C   UNL A   1      32.974  25.606  25.705  1.00  0.00     0.000 A 
ATOM     20  C   UNL A   1      32.273  24.616  26.390  1.00  0.00     0.000 A 
ENDBRANCH  14  15
ENDBRANCH  13  14
ENDBRANCH  10  13
ENDBRANCH   8   9
ENDBRANCH   6   8
ENDBRANCH   3   4
ENDBRANCH   1   3
BRANCH   1  21
ATOM     21  O   UNL A   1      43.690  20.132  24.717  1.00  0.00    -0.461 OA
BRANCH  21  22
ATOM     22  C   UNL A   1      44.356  21.272  25.289  1.00  0.00     0.274 C 
BRANCH  22  23
ATOM     23  C   UNL A   1      44.389  22.427  24.283  1.00  0.00     0.275 C 
BRANCH  23  24
ATOM     24  O   UNL A   1      43.631  23.564  24.743  1.00  0.00    -0.458 OA
BRANCH  24  25
ATOM     25  C   UNL A   1      44.364  24.637  25.125  1.00  0.00     0.338 C 
ATOM     26  O   UNL A   1      45.392  25.058  24.617  1.00  0.00    -0.246 OA
BRANCH  25  27
ATOM     27  C   UNL A   1      43.655  25.362  26.192  1.00  0.00     0.060 A 
ATOM     28  C   UNL A   1      43.956  26.716  26.361  1.00  0.00     0.016 A 
ATOM     29  C   UNL A   1      42.772  24.718  27.060  1.00  0.00     0.016 A 
ATOM     30  C   UNL A   1      43.393  27.430  27.414  1.00  0.00     0.010 A 
ATOM     31  C   UNL A   1      42.201  25.439  28.115  1.00  0.00     0.010 A 
ATOM     32  C   UNL A   1      42.521  26.795  28.308  1.00  0.00    -0.014 A 
BRANCH  32  33
ATOM     33  C   UNL A   1      41.987  27.551  29.467  1.00  0.00     0.031 A 
ATOM     34  C   UNL A   1      40.684  28.288  29.349  1.00  0.00     0.074 A 
ATOM     35  C   UNL A   1      42.654  27.541  30.635  1.00  0.00     0.049 A 
ATOM     36  N   UNL A   1      40.074  29.033  30.235  1.00  0.00    -0.248 NA
ATOM     37  C   UNL A   1      39.974  28.174  28.065  1.00  0.00     0.031 C 
ATOM     38  C   UNL A   1      43.905  26.824  30.889  1.00  0.00     0.029 A 
ATOM     39  N   UNL A   1      42.367  28.150  31.831  1.00  0.00    -0.354 N 
ATOM     40  C   UNL A   1      38.919  29.492  29.612  1.00  0.00     0.074 A 
ATOM     41  C   UNL A   1      38.926  28.959  28.266  1.00  0.00     0.031 C 
ATOM     42  C   UNL A   1      44.272  27.026  32.166  1.00  0.00     0.029 A 
ATOM     43  C   UNL A   1      43.311  27.921  32.803  1.00  0.00     0.049 A 
ATOM     44  H   UNL A   1      41.563  28.698  31.979  1.00  0.00     0.167 HD
ATOM     45  C   UNL A   1      37.942  30.282  30.117  1.00  0.00     0.031 A 
ATOM     46  C   UNL A   1      43.404  28.400  34.058  1.00  0.00     0.031 A 
ATOM     47  C   UNL A   1      37.935  30.808  31.458  1.00  0.00     0.049 A 
ATOM     48  C   UNL A   1      42.340  29.329  34.572  1.00  0.00     0.074 A 
ATOM     49  C   UNL A   1      36.981  31.606  32.066  1.00  0.00     0.029 A 
ATOM     50  N   UNL A   1      38.931  30.590  32.397  1.00  0.00    -0.354 N 
ATOM     51  N   UNL A   1      41.252  29.750  33.974  1.00  0.00    -0.248 NA
ATOM     52  C   UNL A   1      42.518  29.846  35.936  1.00  0.00     0.031 C 
ATOM     53  C   UNL A   1      37.427  31.914  33.356  1.00  0.00     0.029 A 
ATOM     54  C   UNL A   1      38.630  31.260  33.570  1.00  0.00     0.049 A 
ATOM     55  H   UNL A   1      39.734  30.040  32.250  1.00  0.00     0.167 HD
ATOM     56  C   UNL A   1      40.606  30.564  34.895  1.00  0.00     0.074 A 
ATOM     57  C   UNL A   1      41.413  30.561  36.097  1.00  0.00     0.031 C 
ATOM     58  C   UNL A   1      39.446  31.251  34.757  1.00  0.00     0.031 A 
BRANCH  45  59
ATOM     59  C   UNL A   1      36.813  30.659  29.200  1.00  0.00    -0.014 A 
ATOM     60  C   UNL A   1      36.639  31.979  28.754  1.00  0.00     0.009 A 
ATOM     61  C   UNL A   1      35.929  29.668  28.746  1.00  0.00     0.009 A 
ATOM     62  C   UNL A   1      35.582  32.303  27.899  1.00  0.00     0.001 A 
ATOM     63  C   UNL A   1      34.890  29.989  27.870  1.00  0.00     0.001 A 
ATOM     64  C   UNL A   1      34.712  31.308  27.455  1.00  0.00     0.000 A 
ENDBRANCH  45  59
BRANCH  46  65
ATOM     65  C   UNL A   1      44.566  28.030  34.908  1.00  0.00    -0.014 A 
ATOM     66  C   UNL A   1      45.738  28.799  34.896  1.00  0.00     0.009 A 
ATOM     67  C   UNL A   1      44.506  26.895  35.734  1.00  0.00     0.009 A 
ATOM     68  C   UNL A   1      46.836  28.427  35.676  1.00  0.00     0.001 A 
ATOM     69  C   UNL A   1      45.594  26.543  36.535  1.00  0.00     0.001 A 
ATOM     70  C   UNL A   1      46.760  27.304  36.498  1.00  0.00     0.000 A 
ENDBRANCH  46  65
BRANCH  58  71
ATOM     71  C   UNL A   1      38.966  32.030  35.948  1.00  0.00    -0.014 A 
ATOM     72  C   UNL A   1      38.075  31.468  36.876  1.00  0.00     0.009 A 
ATOM     73  C   UNL A   1      39.440  33.334  36.164  1.00  0.00     0.009 A 
ATOM     74  C   UNL A   1      37.643  32.210  37.977  1.00  0.00     0.001 A 
ATOM     75  C   UNL A   1      39.028  34.063  37.280  1.00  0.00     0.001 A 
ATOM     76  C   UNL A   1      38.123  33.503  38.181  1.00  0.00     0.000 A 
ENDBRANCH  58  71
ENDBRANCH  32  33
ENDBRANCH  25  27
ENDBRANCH  24  25
ENDBRANCH  23  24
ENDBRANCH  22  23
ENDBRANCH  21  22
ENDBRANCH   1  21
TORSDOF 17
ENDMDL
MODEL 3
REMARK VINA RESULT:     -10.1      5.125      9.838
REMARK SMILES O=C(CNC(=O)OCc1ccccc1)NCC(=O)OCCOC(=O)c1ccc(-c2c3nc(c(-c4ccccc4)c4ccc([nH]4)c(-c4ccccc4)c4nc(c(-c5ccccc5)c5ccc2[nH]5)C=C4)C=C3)cc1
REMARK SMILES IDX 17 1 18 2 16 3 15 4 1 5 2 6 3 8 4 9 5 10 6 12 7 13 8 14 9 15
REMARK SMILES IDX 10 16 14 17 11 18 13 19 12 20 19 21 20 22 21 23 22 24 23 25
REMARK SMILES IDX 24 26 25 27 26 28 72 29 27 30 71 31 28 32 29 33 30 34 65 35
REMARK SMILES IDX 31 36 70 37 64 38 66 39 32 40 69 41 63 42 62 43 33 45 55 46
REMARK SMILES IDX 40 47 54 48 41 49 44 50 53 51 67 52 42 53 43 54 52 56 68 57
REMARK SMILES IDX 45 58 34 59 35 60 39 61 36 62 38 63 37 64 56 65 57 66 61 67
REMARK SMILES IDX 58 68 60 69 59 70 46 71 47 72 51 73 48 74 50 75 49 76
REMARK H PARENT 15 7 4 11 66 44 44 55
REMARK Flexibility Score: inf
ROOT
ATOM      1  C   UNL A   1      34.411  33.612  28.346  1.00  0.00     0.325 C 
ATOM      2  O   UNL A   1      35.195  33.992  27.484  1.00  0.00    -0.250 OA
ENDROOT
BRANCH   1   3
ATOM      3  C   UNL A   1      34.423  32.193  28.905  1.00  0.00     0.238 C 
BRANCH   3   4
ATOM      4  N   UNL A   1      33.813  31.189  28.050  1.00  0.00    -0.344 N 
ATOM      5  O   UNL A   1      35.774  30.169  27.446  1.00  0.00    -0.273 OA
ATOM      6  C   UNL A   1      34.547  30.210  27.423  1.00  0.00     0.240 C 
ATOM      7  H   UNL A   1      32.838  31.210  27.914  1.00  0.00     0.164 HD
BRANCH   6   8
ATOM      8  C   UNL A   1      33.712  29.201  26.639  1.00  0.00     0.219 C 
BRANCH   8   9
ATOM      9  N   UNL A   1      33.994  29.356  25.224  1.00  0.00    -0.312 N 
ATOM     10  C   UNL A   1      33.189  28.995  24.188  1.00  0.00     0.407 C 
ATOM     11  H   UNL A   1      34.858  29.765  24.989  1.00  0.00     0.167 HD
ATOM     12  O   UNL A   1      33.546  29.128  23.031  1.00  0.00    -0.225 OA
BRANCH  10  13
ATOM     13  O   UNL A   1      31.995  28.508  24.603  1.00  0.00    -0.445 OA
BRANCH  13  14
ATOM     14  C   UNL A   1      31.143  28.018  23.559  1.00  0.00     0.270 C 
BRANCH  14  15
ATOM     15  C   UNL A   1      29.853  28.796  23.426  1.00  0.00    -0.011 A 
ATOM     16  C   UNL A   1      29.872  30.186  23.614  1.00  0.00     0.007 A 
ATOM     17  C   UNL A   1      28.638  28.178  23.094  1.00  0.00     0.007 A 
ATOM     18  C   UNL A   1      28.698  30.935  23.507  1.00  0.00     0.000 A 
ATOM     19  C   UNL A   1      27.463  28.927  22.997  1.00  0.00     0.000 A 
ATOM     20  C   UNL A   1      27.493  30.303  23.206  1.00  0.00     0.000 A 
ENDBRANCH  14  15
ENDBRANCH  13  14
ENDBRANCH  10  13
ENDBRANCH   8   9
ENDBRANCH   6   8
ENDBRANCH   3   4
ENDBRANCH   1   3
BRANCH   1  21
ATOM     21  O   UNL A   1      33.423  34.373  28.890  1.00  0.00    -0.461 OA
BRANCH  21  22
ATOM     22  C   UNL A   1      33.713  35.768  29.093  1.00  0.00     0.274 C 
BRANCH  22  23
ATOM     23  C   UNL A   1      32.678  36.393  30.032  1.00  0.00     0.275 C 
BRANCH  23  24
ATOM     24  O   UNL A   1      33.194  36.566  31.367  1.00  0.00    -0.458 OA
BRANCH  24  25
ATOM     25  C   UNL A   1      32.833  35.614  32.260  1.00  0.00     0.338 C 
ATOM     26  O   UNL A   1      31.702  35.290  32.588  1.00  0.00    -0.246 OA
BRANCH  25  27
ATOM     27  C   UNL A   1      34.027  34.876  32.704  1.00  0.00     0.060 A 
ATOM     28  C   UNL A   1      35.272  35.464  32.472  1.00  0.00     0.016 A 
ATOM     29  C   UNL A   1      33.938  33.601  33.266  1.00  0.00     0.016 A 
ATOM     30  C   UNL A   1      36.439  34.772  32.779  1.00  0.00     0.010 A 
ATOM     31  C   UNL A   1      35.112  32.909  33.582  1.00  0.00     0.010 A 
ATOM     32  C   UNL A   1      36.370  33.483  33.324  1.00  0.00    -0.014 A 
BRANCH  32  33
ATOM     33  C   UNL A   1      37.623  32.731  33.577  1.00  0.00     0.031 A 
ATOM     34  C   UNL A   1      38.388  32.950  34.851  1.00  0.00     0.074 A 
ATOM     35  C   UNL A   1      38.050  31.823  32.681  1.00  0.00     0.049 A 
ATOM     36  N   UNL A   1      39.519  32.416  35.237  1.00  0.00    -0.248 NA
ATOM     37  C   UNL A   1      37.805  33.894  35.818  1.00  0.00     0.031 C 
ATOM     38  C   UNL A   1      37.370  31.486  31.429  1.00  0.00     0.029 A 
ATOM     39  N   UNL A   1      39.157  31.013  32.690  1.00  0.00    -0.354 N 
ATOM     40  C   UNL A   1      39.794  32.972  36.481  1.00  0.00     0.074 A 
ATOM     41  C   UNL A   1      38.722  33.900  36.775  1.00  0.00     0.031 C 
ATOM     42  C   UNL A   1      38.070  30.530  30.796  1.00  0.00     0.029 A 
ATOM     43  C   UNL A   1      39.268  30.223  31.572  1.00  0.00     0.049 A 
ATOM     44  H   UNL A   1      39.809  30.998  33.427  1.00  0.00     0.167 HD
ATOM     45  C   UNL A   1      40.842  32.729  37.304  1.00  0.00     0.031 A 
ATOM     46  C   UNL A   1      40.238  29.366  31.201  1.00  0.00     0.031 A 
ATOM     47  C   UNL A   1      41.905  31.802  37.012  1.00  0.00     0.049 A 
ATOM     48  C   UNL A   1      41.424  29.164  32.103  1.00  0.00     0.074 A 
ATOM     49  C   UNL A   1      43.003  31.476  37.790  1.00  0.00     0.029 A 
ATOM     50  N   UNL A   1      42.003  31.055  35.849  1.00  0.00    -0.354 N 
ATOM     51  N   UNL A   1      41.669  29.693  33.277  1.00  0.00    -0.248 NA
ATOM     52  C   UNL A   1      42.467  28.245  31.626  1.00  0.00     0.031 C 
ATOM     53  C   UNL A   1      43.793  30.571  37.073  1.00  0.00     0.029 A 
ATOM     54  C   UNL A   1      43.157  30.290  35.875  1.00  0.00     0.049 A 
ATOM     55  H   UNL A   1      41.350  31.067  35.113  1.00  0.00     0.167 HD
ATOM     56  C   UNL A   1      42.881  29.154  33.689  1.00  0.00     0.074 A 
ATOM     57  C   UNL A   1      43.311  28.244  32.648  1.00  0.00     0.031 C 
ATOM     58  C   UNL A   1      43.574  29.392  34.829  1.00  0.00     0.031 A 
BRANCH  45  59
ATOM     59  C   UNL A   1      40.910  33.508  38.587  1.00  0.00    -0.014 A 
ATOM     60  C   UNL A   1      41.560  34.750  38.658  1.00  0.00     0.009 A 
ATOM     61  C   UNL A   1      40.281  33.005  39.737  1.00  0.00     0.009 A 
ATOM     62  C   UNL A   1      41.607  35.456  39.863  1.00  0.00     0.001 A 
ATOM     63  C   UNL A   1      40.307  33.725  40.933  1.00  0.00     0.001 A 
ATOM     64  C   UNL A   1      40.977  34.945  40.997  1.00  0.00     0.000 A 
ENDBRANCH  45  59
BRANCH  46  65
ATOM     65  C   UNL A   1      40.142  28.654  29.900  1.00  0.00    -0.014 A 
ATOM     66  C   UNL A   1      39.556  27.383  29.819  1.00  0.00     0.009 A 
ATOM     67  C   UNL A   1      40.649  29.246  28.731  1.00  0.00     0.009 A 
ATOM     68  C   UNL A   1      39.498  26.708  28.596  1.00  0.00     0.001 A 
ATOM     69  C   UNL A   1      40.562  28.582  27.506  1.00  0.00     0.001 A 
ATOM     70  C   UNL A   1      39.995  27.311  27.442  1.00  0.00     0.000 A 
ENDBRANCH  46  65
BRANCH  58  71
ATOM     71  C   UNL A   1      44.855  28.631  35.022  1.00  0.00    -0.014 A 
ATOM     72  C   UNL A   1      46.059  29.072  34.452  1.00  0.00     0.009 A 
ATOM     73  C   UNL A   1      44.862  27.474  35.818  1.00  0.00     0.009 A 
ATOM     74  C   UNL A   1      47.238  28.350  34.647  1.00  0.00     0.001 A 
ATOM     75  C   UNL A   1      46.047  26.769  36.033  1.00  0.00     0.001 A 
ATOM     76  C   UNL A   1      47.232  27.203  35.440  1.00  0.00     0.000 A 
ENDBRANCH  58  71
ENDBRANCH  32  33
ENDBRANCH  25  27
ENDBRANCH  24  25
ENDBRANCH  23  24
ENDBRANCH  22  23
ENDBRANCH  21  22
ENDBRANCH   1  21
TORSDOF 17
ENDMDL
