MODEL 1
REMARK VINA RESULT:     -11.6      0.000      0.000
REMARK SMILES C[C@H]1[C@H](C)CC[C@@]2(C(=O)OCCOC(=O)c3ccc(-c4c5nc(c(-c6ccccc6)c6ccc([nH]6)c(-c6ccccc6)c6nc(c(-c7ccccc7)c7ccc4[nH]7)C=C6)C=C5)cc3)CC[C@@]3(C)C(=CC[C@@H]4[C@@]5(C)CC[C@H](O)C(C)(C)[C@@H]5CC[C@]43C)[C@H]12
REMARK SMILES IDX 12 1 11 2 10 3 8 4 9 5 7 6 1 7 2 8 3 9 86 10 4 11 5 12 68 13
REMARK SMILES IDX 6 14 64 15 66 16 69 17 65 18 67 19 84 20 70 21 71 22 83 23
REMARK SMILES IDX 85 24 72 25 82 26 73 27 74 28 81 29 75 30 78 31 76 32 79 33
REMARK SMILES IDX 80 34 77 35 13 37 14 38 15 39 16 40 17 41 63 42 18 43 62 44
REMARK SMILES IDX 19 45 20 46 21 47 56 48 22 49 61 50 55 51 57 52 23 53 60 54
REMARK SMILES IDX 54 55 53 56 24 58 46 59 31 60 45 61 32 62 35 63 44 64 58 65
REMARK SMILES IDX 33 66 34 67 43 69 59 70 36 71 25 72 26 73 30 74 27 75 29 76
REMARK SMILES IDX 28 77 47 78 48 79 52 80 49 81 51 82 50 83 37 84 38 85 42 86
REMARK SMILES IDX 39 87 41 88 40 89
REMARK H PARENT 77 36 57 57 35 68
REMARK Flexibility Score: inf
ROOT
ATOM      1  C   UNL A   1      34.780  29.076  26.747  1.00  0.00     0.275 C 
ENDROOT
BRANCH   1   2
ATOM      2  C   UNL A   1      34.468  28.946  25.247  1.00  0.00     0.274 C 
BRANCH   2   3
ATOM      3  O   UNL A   1      33.516  27.931  24.858  1.00  0.00    -0.462 OA
BRANCH   3   4
ATOM      4  C   UNL A   1      32.412  28.415  24.228  1.00  0.00     0.312 C 
ATOM      5  O   UNL A   1      32.453  28.765  23.065  1.00  0.00    -0.252 OA
BRANCH   4   6
ATOM      6  C   UNL A   1      31.191  28.692  25.136  1.00  0.00     0.075 C 
ATOM      7  C   UNL A   1      28.116  28.077  22.762  1.00  0.00     0.008 C 
ATOM      8  C   UNL A   1      29.430  28.702  23.258  1.00  0.00    -0.003 C 
ATOM      9  C   UNL A   1      29.216  30.232  23.505  1.00  0.00    -0.011 C 
ATOM     10  C   UNL A   1      29.966  27.943  24.531  1.00  0.00     0.036 C 
ATOM     11  C   UNL A   1      28.882  30.999  22.214  1.00  0.00     0.008 C 
ATOM     12  C   UNL A   1      30.420  30.934  24.140  1.00  0.00     0.005 C 
ATOM     13  C   UNL A   1      30.410  26.442  24.409  1.00  0.00    -0.063 C 
ATOM     14  C   UNL A   1      30.961  30.197  25.346  1.00  0.00     0.020 C 
ATOM     15  C   UNL A   1      31.430  28.101  26.557  1.00  0.00     0.020 C 
ATOM     16  C   UNL A   1      30.769  25.686  25.739  1.00  0.00    -0.006 C 
ATOM     17  C   UNL A   1      30.732  25.917  23.209  1.00  0.00    -0.027 C 
ATOM     18  C   UNL A   1      31.693  26.593  26.615  1.00  0.00     0.013 C 
ATOM     19  C   UNL A   1      29.460  25.494  26.549  1.00  0.00     0.017 C 
ATOM     20  C   UNL A   1      31.489  24.211  25.466  1.00  0.00    -0.020 C 
ATOM     21  C   UNL A   1      31.642  24.739  22.998  1.00  0.00     0.032 C 
ATOM     22  C   UNL A   1      32.473  24.379  24.252  1.00  0.00     0.006 C 
ATOM     23  C   UNL A   1      32.287  23.698  26.694  1.00  0.00     0.008 C 
ATOM     24  C   UNL A   1      30.408  23.137  25.169  1.00  0.00     0.012 C 
ATOM     25  C   UNL A   1      33.625  23.296  24.008  1.00  0.00    -0.025 C 
ATOM     26  C   UNL A   1      33.217  22.510  26.415  1.00  0.00     0.005 C 
ATOM     27  C   UNL A   1      33.092  22.085  23.217  1.00  0.00     0.012 C 
ATOM     28  C   UNL A   1      34.751  23.957  23.146  1.00  0.00     0.010 C 
ATOM     29  C   UNL A   1      34.285  22.916  25.383  1.00  0.00     0.003 C 
ATOM     30  C   UNL A   1      36.042  23.145  23.032  1.00  0.00     0.033 C 
ATOM     31  C   UNL A   1      35.564  21.990  25.313  1.00  0.00    -0.006 C 
ATOM     32  C   UNL A   1      36.602  22.680  24.376  1.00  0.00     0.120 C 
ATOM     33  C   UNL A   1      35.280  20.541  24.868  1.00  0.00     0.014 C 
ATOM     34  C   UNL A   1      36.218  21.866  26.720  1.00  0.00     0.014 C 
BRANCH  32  35
ATOM     35  O   UNL A   1      37.744  21.853  24.145  1.00  0.00    -0.393 OA
ATOM     36  H   UNL A   1      37.907  21.787  23.192  1.00  0.00     0.210 HD
ENDBRANCH  32  35
ENDBRANCH   4   6
ENDBRANCH   3   4
ENDBRANCH   2   3
ENDBRANCH   1   2
BRANCH   1  37
ATOM     37  O   UNL A   1      33.967  30.053  27.417  1.00  0.00    -0.458 OA
BRANCH  37  38
ATOM     38  C   UNL A   1      34.649  31.109  27.929  1.00  0.00     0.338 C 
ATOM     39  O   UNL A   1      34.241  32.262  28.005  1.00  0.00    -0.246 OA
BRANCH  38  40
ATOM     40  C   UNL A   1      35.890  30.644  28.602  1.00  0.00     0.060 A 
ATOM     41  C   UNL A   1      37.106  31.248  28.237  1.00  0.00     0.016 A 
ATOM     42  C   UNL A   1      35.867  29.708  29.634  1.00  0.00     0.016 A 
ATOM     43  C   UNL A   1      38.300  30.900  28.878  1.00  0.00     0.010 A 
ATOM     44  C   UNL A   1      37.058  29.364  30.275  1.00  0.00     0.010 A 
ATOM     45  C   UNL A   1      38.287  29.922  29.875  1.00  0.00    -0.014 A 
BRANCH  45  46
ATOM     46  C   UNL A   1      39.530  29.193  30.233  1.00  0.00     0.031 A 
ATOM     47  C   UNL A   1      40.297  29.741  31.410  1.00  0.00     0.074 A 
ATOM     48  C   UNL A   1      40.011  28.138  29.552  1.00  0.00     0.049 A 
ATOM     49  N   UNL A   1      41.431  29.345  31.925  1.00  0.00    -0.248 NA
ATOM     50  C   UNL A   1      39.706  30.911  32.084  1.00  0.00     0.031 C 
ATOM     51  C   UNL A   1      39.378  27.493  28.408  1.00  0.00     0.029 A 
ATOM     52  N   UNL A   1      41.180  27.435  29.720  1.00  0.00    -0.354 N 
ATOM     53  C   UNL A   1      41.675  30.216  32.978  1.00  0.00     0.074 A 
ATOM     54  C   UNL A   1      40.638  31.220  32.963  1.00  0.00     0.031 C 
ATOM     55  C   UNL A   1      40.192  26.531  27.932  1.00  0.00     0.029 A 
ATOM     56  C   UNL A   1      41.388  26.466  28.766  1.00  0.00     0.049 A 
ATOM     57  H   UNL A   1      41.810  27.609  30.455  1.00  0.00     0.167 HD
ATOM     58  C   UNL A   1      42.639  30.161  33.922  1.00  0.00     0.031 A 
ATOM     59  C   UNL A   1      42.420  25.614  28.607  1.00  0.00     0.031 A 
ATOM     60  C   UNL A   1      43.667  29.166  33.954  1.00  0.00     0.049 A 
ATOM     61  C   UNL A   1      43.519  25.594  29.640  1.00  0.00     0.074 A 
ATOM     62  C   UNL A   1      44.668  28.985  34.888  1.00  0.00     0.029 A 
ATOM     63  N   UNL A   1      43.820  28.180  32.993  1.00  0.00    -0.354 N 
ATOM     64  N   UNL A   1      43.676  26.350  30.699  1.00  0.00    -0.248 NA
ATOM     65  C   UNL A   1      44.555  24.560  29.483  1.00  0.00     0.031 C 
ATOM     66  C   UNL A   1      45.449  27.900  34.474  1.00  0.00     0.029 A 
ATOM     67  C   UNL A   1      44.906  27.387  33.306  1.00  0.00     0.049 A 
ATOM     68  H   UNL A   1      43.241  28.063  32.205  1.00  0.00     0.167 HD
ATOM     69  C   UNL A   1      44.784  25.843  31.369  1.00  0.00     0.074 A 
ATOM     70  C   UNL A   1      45.265  24.720  30.591  1.00  0.00     0.031 C 
ATOM     71  C   UNL A   1      45.345  26.257  32.531  1.00  0.00     0.031 A 
BRANCH  58  72
ATOM     72  C   UNL A   1      42.578  31.210  34.992  1.00  0.00    -0.014 A 
ATOM     73  C   UNL A   1      43.270  32.426  34.842  1.00  0.00     0.009 A 
ATOM     74  C   UNL A   1      41.896  30.956  36.189  1.00  0.00     0.009 A 
ATOM     75  C   UNL A   1      43.329  33.341  35.893  1.00  0.00     0.001 A 
ATOM     76  C   UNL A   1      41.931  31.889  37.227  1.00  0.00     0.001 A 
ATOM     77  C   UNL A   1      42.659  33.071  37.084  1.00  0.00     0.000 A 
ENDBRANCH  58  72
BRANCH  59  78
ATOM     78  C   UNL A   1      42.450  24.652  27.472  1.00  0.00    -0.014 A 
ATOM     79  C   UNL A   1      41.878  23.375  27.605  1.00  0.00     0.009 A 
ATOM     80  C   UNL A   1      43.112  24.974  26.278  1.00  0.00     0.009 A 
ATOM     81  C   UNL A   1      42.008  22.428  26.584  1.00  0.00     0.001 A 
ATOM     82  C   UNL A   1      43.220  24.032  25.250  1.00  0.00     0.001 A 
ATOM     83  C   UNL A   1      42.681  22.757  25.409  1.00  0.00     0.000 A 
ENDBRANCH  59  78
BRANCH  71  84
ATOM     84  C   UNL A   1      46.489  25.450  33.073  1.00  0.00    -0.014 A 
ATOM     85  C   UNL A   1      47.820  25.754  32.751  1.00  0.00     0.009 A 
ATOM     86  C   UNL A   1      46.225  24.401  33.969  1.00  0.00     0.009 A 
ATOM     87  C   UNL A   1      48.863  24.998  33.291  1.00  0.00     0.001 A 
ATOM     88  C   UNL A   1      47.270  23.668  34.530  1.00  0.00     0.001 A 
ATOM     89  C   UNL A   1      48.587  23.961  34.183  1.00  0.00     0.000 A 
ENDBRANCH  71  84
ENDBRANCH  45  46
ENDBRANCH  38  40
ENDBRANCH  37  38
ENDBRANCH   1  37
TORSDOF 12
ENDMDL
MODEL 2
REMARK VINA RESULT:     -11.5      1.523      5.662
REMARK SMILES C[C@H]1[C@H](C)CC[C@@]2(C(=O)OCCOC(=O)c3ccc(-c4c5nc(c(-c6ccccc6)c6ccc([nH]6)c(-c6ccccc6)c6nc(c(-c7ccccc7)c7ccc4[nH]7)C=C6)C=C5)cc3)CC[C@@]3(C)C(=CC[C@@H]4[C@@]5(C)CC[C@H](O)C(C)(C)[C@@H]5CC[C@]43C)[C@H]12
REMARK SMILES IDX 12 1 11 2 10 3 8 4 9 5 7 6 1 7 2 8 3 9 86 10 4 11 5 12 68 13
REMARK SMILES IDX 6 14 64 15 66 16 69 17 65 18 67 19 84 20 70 21 71 22 83 23
REMARK SMILES IDX 85 24 72 25 82 26 73 27 74 28 81 29 75 30 78 31 76 32 79 33
REMARK SMILES IDX 80 34 77 35 13 37 14 38 15 39 16 40 17 41 63 42 18 43 62 44
REMARK SMILES IDX 19 45 20 46 21 47 56 48 22 49 61 50 55 51 57 52 23 53 60 54
REMARK SMILES IDX 54 55 53 56 24 58 46 59 31 60 45 61 32 62 35 63 44 64 58 65
REMARK SMILES IDX 33 66 34 67 43 69 59 70 36 71 25 72 26 73 30 74 27 75 29 76
REMARK SMILES IDX 28 77 47 78 48 79 52 80 49 81 51 82 50 83 37 84 38 85 42 86
REMARK SMILES IDX 39 87 41 88 40 89
REMARK H PARENT 77 36 57 57 35 68
REMARK Flexibility Score: inf
ROOT
ATOM      1  C   UNL A   1      34.401  29.198  26.948  1.00  0.00     0.275 C 
ENDROOT
BRANCH   1   2
ATOM      2  C   UNL A   1      34.494  28.808  25.464  1.00  0.00     0.274 C 
BRANCH   2   3
ATOM      3  O   UNL A   1      33.505  27.881  24.965  1.00  0.00    -0.462 OA
BRANCH   3   4
ATOM      4  C   UNL A   1      32.455  28.471  24.334  1.00  0.00     0.312 C 
ATOM      5  O   UNL A   1      32.564  28.910  23.205  1.00  0.00    -0.252 OA
BRANCH   4   6
ATOM      6  C   UNL A   1      31.211  28.741  25.212  1.00  0.00     0.075 C 
ATOM      7  C   UNL A   1      28.200  28.212  22.738  1.00  0.00     0.008 C 
ATOM      8  C   UNL A   1      29.505  28.811  23.285  1.00  0.00    -0.003 C 
ATOM      9  C   UNL A   1      29.299  30.338  23.561  1.00  0.00    -0.011 C 
ATOM     10  C   UNL A   1      29.997  28.019  24.556  1.00  0.00     0.036 C 
ATOM     11  C   UNL A   1      29.010  31.137  22.279  1.00  0.00     0.008 C 
ATOM     12  C   UNL A   1      30.491  31.013  24.246  1.00  0.00     0.005 C 
ATOM     13  C   UNL A   1      30.430  26.516  24.412  1.00  0.00    -0.063 C 
ATOM     14  C   UNL A   1      30.990  30.243  25.450  1.00  0.00     0.020 C 
ATOM     15  C   UNL A   1      31.404  28.115  26.626  1.00  0.00     0.020 C 
ATOM     16  C   UNL A   1      30.744  25.726  25.733  1.00  0.00    -0.006 C 
ATOM     17  C   UNL A   1      30.781  26.015  23.210  1.00  0.00    -0.027 C 
ATOM     18  C   UNL A   1      31.651  26.604  26.656  1.00  0.00     0.013 C 
ATOM     19  C   UNL A   1      29.409  25.529  26.501  1.00  0.00     0.017 C 
ATOM     20  C   UNL A   1      31.456  24.250  25.447  1.00  0.00    -0.020 C 
ATOM     21  C   UNL A   1      31.685  24.832  22.998  1.00  0.00     0.032 C 
ATOM     22  C   UNL A   1      32.477  24.435  24.266  1.00  0.00     0.006 C 
ATOM     23  C   UNL A   1      32.213  23.702  26.686  1.00  0.00     0.008 C 
ATOM     24  C   UNL A   1      30.374  23.195  25.095  1.00  0.00     0.012 C 
ATOM     25  C   UNL A   1      33.624  23.346  24.030  1.00  0.00    -0.025 C 
ATOM     26  C   UNL A   1      33.140  22.510  26.405  1.00  0.00     0.005 C 
ATOM     27  C   UNL A   1      33.102  22.160  23.197  1.00  0.00     0.012 C 
ATOM     28  C   UNL A   1      34.781  24.016  23.216  1.00  0.00     0.010 C 
ATOM     29  C   UNL A   1      34.241  22.929  25.414  1.00  0.00     0.003 C 
ATOM     30  C   UNL A   1      36.067  23.193  23.120  1.00  0.00     0.033 C 
ATOM     31  C   UNL A   1      35.513  21.992  25.360  1.00  0.00    -0.006 C 
ATOM     32  C   UNL A   1      36.584  22.691  24.468  1.00  0.00     0.120 C 
ATOM     33  C   UNL A   1      35.228  20.556  24.873  1.00  0.00     0.014 C 
ATOM     34  C   UNL A   1      36.124  21.829  26.781  1.00  0.00     0.014 C 
BRANCH  32  35
ATOM     35  O   UNL A   1      37.723  21.859  24.251  1.00  0.00    -0.393 OA
ATOM     36  H   UNL A   1      38.442  22.387  23.871  1.00  0.00     0.210 HD
ENDBRANCH  32  35
ENDBRANCH   4   6
ENDBRANCH   3   4
ENDBRANCH   2   3
ENDBRANCH   1   2
BRANCH   1  37
ATOM     37  O   UNL A   1      34.262  30.612  27.160  1.00  0.00    -0.458 OA
BRANCH  37  38
ATOM     38  C   UNL A   1      34.890  31.090  28.264  1.00  0.00     0.338 C 
ATOM     39  O   UNL A   1      34.399  31.825  29.112  1.00  0.00    -0.246 OA
BRANCH  38  40
ATOM     40  C   UNL A   1      36.207  30.422  28.437  1.00  0.00     0.060 A 
ATOM     41  C   UNL A   1      36.435  29.707  29.626  1.00  0.00     0.016 A 
ATOM     42  C   UNL A   1      37.168  30.407  27.428  1.00  0.00     0.016 A 
ATOM     43  C   UNL A   1      37.629  29.003  29.821  1.00  0.00     0.010 A 
ATOM     44  C   UNL A   1      38.357  29.702  27.622  1.00  0.00     0.010 A 
ATOM     45  C   UNL A   1      38.616  29.032  28.834  1.00  0.00    -0.014 A 
BRANCH  45  46
ATOM     46  C   UNL A   1      40.029  28.727  29.170  1.00  0.00     0.031 A 
ATOM     47  C   UNL A   1      40.515  27.354  28.785  1.00  0.00     0.074 A 
ATOM     48  C   UNL A   1      40.850  29.570  29.822  1.00  0.00     0.049 A 
ATOM     49  N   UNL A   1      41.677  26.791  28.987  1.00  0.00    -0.248 NA
ATOM     50  C   UNL A   1      39.541  26.490  28.092  1.00  0.00     0.031 C 
ATOM     51  C   UNL A   1      40.528  30.928  30.245  1.00  0.00     0.029 A 
ATOM     52  N   UNL A   1      42.136  29.383  30.269  1.00  0.00    -0.354 N 
ATOM     53  C   UNL A   1      41.564  25.520  28.441  1.00  0.00     0.074 A 
ATOM     54  C   UNL A   1      40.201  25.353  28.001  1.00  0.00     0.031 C 
ATOM     55  C   UNL A   1      41.560  31.432  30.948  1.00  0.00     0.029 A 
ATOM     56  C   UNL A   1      42.635  30.444  30.989  1.00  0.00     0.049 A 
ATOM     57  H   UNL A   1      42.653  28.565  30.091  1.00  0.00     0.167 HD
ATOM     58  C   UNL A   1      42.521  24.584  28.259  1.00  0.00     0.031 A 
ATOM     59  C   UNL A   1      43.832  30.599  31.588  1.00  0.00     0.031 A 
ATOM     60  C   UNL A   1      43.879  24.740  28.682  1.00  0.00     0.049 A 
ATOM     61  C   UNL A   1      44.878  29.525  31.422  1.00  0.00     0.074 A 
ATOM     62  C   UNL A   1      44.945  23.879  28.509  1.00  0.00     0.029 A 
ATOM     63  N   UNL A   1      44.353  25.844  29.372  1.00  0.00    -0.354 N 
ATOM     64  N   UNL A   1      44.794  28.373  30.801  1.00  0.00    -0.248 NA
ATOM     65  C   UNL A   1      46.206  29.802  31.992  1.00  0.00     0.031 C 
ATOM     66  C   UNL A   1      46.064  24.453  29.124  1.00  0.00     0.029 A 
ATOM     67  C   UNL A   1      45.698  25.687  29.640  1.00  0.00     0.049 A 
ATOM     68  H   UNL A   1      43.811  26.625  29.632  1.00  0.00     0.167 HD
ATOM     69  C   UNL A   1      46.069  27.821  30.847  1.00  0.00     0.074 A 
ATOM     70  C   UNL A   1      46.906  28.761  31.565  1.00  0.00     0.031 C 
ATOM     71  C   UNL A   1      46.514  26.650  30.330  1.00  0.00     0.031 A 
BRANCH  58  72
ATOM     72  C   UNL A   1      42.097  23.333  27.548  1.00  0.00    -0.014 A 
ATOM     73  C   UNL A   1      41.542  22.257  28.264  1.00  0.00     0.009 A 
ATOM     74  C   UNL A   1      42.324  23.194  26.173  1.00  0.00     0.009 A 
ATOM     75  C   UNL A   1      41.279  21.045  27.627  1.00  0.00     0.001 A 
ATOM     76  C   UNL A   1      42.030  21.989  25.533  1.00  0.00     0.001 A 
ATOM     77  C   UNL A   1      41.523  20.913  26.261  1.00  0.00     0.000 A 
ENDBRANCH  58  72
BRANCH  59  78
ATOM     78  C   UNL A   1      44.154  31.839  32.345  1.00  0.00    -0.014 A 
ATOM     79  C   UNL A   1      43.857  31.935  33.715  1.00  0.00     0.009 A 
ATOM     80  C   UNL A   1      44.690  32.958  31.690  1.00  0.00     0.009 A 
ATOM     81  C   UNL A   1      44.049  33.138  34.402  1.00  0.00     0.001 A 
ATOM     82  C   UNL A   1      44.901  34.153  32.386  1.00  0.00     0.001 A 
ATOM     83  C   UNL A   1      44.567  34.246  33.736  1.00  0.00     0.000 A 
ENDBRANCH  59  78
BRANCH  71  84
ATOM     84  C   UNL A   1      47.980  26.354  30.450  1.00  0.00    -0.014 A 
ATOM     85  C   UNL A   1      48.500  25.647  31.544  1.00  0.00     0.009 A 
ATOM     86  C   UNL A   1      48.846  26.743  29.415  1.00  0.00     0.009 A 
ATOM     87  C   UNL A   1      49.866  25.366  31.615  1.00  0.00     0.001 A 
ATOM     88  C   UNL A   1      50.205  26.435  29.473  1.00  0.00     0.001 A 
ATOM     89  C   UNL A   1      50.715  25.755  30.577  1.00  0.00     0.000 A 
ENDBRANCH  71  84
ENDBRANCH  45  46
ENDBRANCH  38  40
ENDBRANCH  37  38
ENDBRANCH   1  37
TORSDOF 12
ENDMDL
MODEL 3
REMARK VINA RESULT:     -11.5      2.541      7.914
REMARK SMILES C[C@H]1[C@H](C)CC[C@@]2(C(=O)OCCOC(=O)c3ccc(-c4c5nc(c(-c6ccccc6)c6ccc([nH]6)c(-c6ccccc6)c6nc(c(-c7ccccc7)c7ccc4[nH]7)C=C6)C=C5)cc3)CC[C@@]3(C)C(=CC[C@@H]4[C@@]5(C)CC[C@H](O)C(C)(C)[C@@H]5CC[C@]43C)[C@H]12
REMARK SMILES IDX 12 1 11 2 10 3 8 4 9 5 7 6 1 7 2 8 3 9 86 10 4 11 5 12 68 13
REMARK SMILES IDX 6 14 64 15 66 16 69 17 65 18 67 19 84 20 70 21 71 22 83 23
REMARK SMILES IDX 85 24 72 25 82 26 73 27 74 28 81 29 75 30 78 31 76 32 79 33
REMARK SMILES IDX 80 34 77 35 13 37 14 38 15 39 16 40 17 41 63 42 18 43 62 44
REMARK SMILES IDX 19 45 20 46 21 47 56 48 22 49 61 50 55 51 57 52 23 53 60 54
REMARK SMILES IDX 54 55 53 56 24 58 46 59 31 60 45 61 32 62 35 63 44 64 58 65
REMARK SMILES IDX 33 66 34 67 43 69 59 70 36 71 25 72 26 73 30 74 27 75 29 76
REMARK SMILES IDX 28 77 47 78 48 79 52 80 49 81 51 82 50 83 37 84 38 85 42 86
REMARK SMILES IDX 39 87 41 88 40 89
REMARK H PARENT 77 36 57 57 35 68
REMARK Flexibility Score: inf
ROOT
ATOM      1  C   UNL A   1      37.429  23.709  26.138  1.00  0.00     0.275 C 
ENDROOT
BRANCH   1   2
ATOM      2  C   UNL A   1      36.193  23.107  26.826  1.00  0.00     0.274 C 
BRANCH   2   3
ATOM      3  O   UNL A   1      34.941  23.177  26.109  1.00  0.00    -0.462 OA
BRANCH   3   4
ATOM      4  C   UNL A   1      34.423  21.966  25.772  1.00  0.00     0.312 C 
ATOM      5  O   UNL A   1      33.754  21.326  26.559  1.00  0.00    -0.252 OA
BRANCH   4   6
ATOM      6  C   UNL A   1      34.921  21.374  24.433  1.00  0.00     0.075 C 
ATOM      7  C   UNL A   1      31.876  19.220  23.184  1.00  0.00     0.008 C 
ATOM      8  C   UNL A   1      32.996  19.692  24.126  1.00  0.00    -0.003 C 
ATOM      9  C   UNL A   1      34.018  18.527  24.341  1.00  0.00    -0.011 C 
ATOM     10  C   UNL A   1      33.671  21.007  23.578  1.00  0.00     0.036 C 
ATOM     11  C   UNL A   1      33.393  17.317  25.055  1.00  0.00     0.008 C 
ATOM     12  C   UNL A   1      35.258  18.927  25.147  1.00  0.00     0.005 C 
ATOM     13  C   UNL A   1      32.828  22.329  23.480  1.00  0.00    -0.063 C 
ATOM     14  C   UNL A   1      35.896  20.205  24.648  1.00  0.00     0.020 C 
ATOM     15  C   UNL A   1      35.721  22.447  23.634  1.00  0.00     0.020 C 
ATOM     16  C   UNL A   1      33.496  23.559  22.767  1.00  0.00    -0.006 C 
ATOM     17  C   UNL A   1      31.704  22.481  24.210  1.00  0.00    -0.027 C 
ATOM     18  C   UNL A   1      34.957  23.731  23.295  1.00  0.00     0.013 C 
ATOM     19  C   UNL A   1      33.619  23.229  21.256  1.00  0.00     0.017 C 
ATOM     20  C   UNL A   1      32.632  24.967  22.971  1.00  0.00    -0.020 C 
ATOM     21  C   UNL A   1      31.117  23.802  24.625  1.00  0.00     0.032 C 
ATOM     22  C   UNL A   1      32.095  24.986  24.448  1.00  0.00     0.006 C 
ATOM     23  C   UNL A   1      33.493  26.236  22.731  1.00  0.00     0.008 C 
ATOM     24  C   UNL A   1      31.467  25.030  21.948  1.00  0.00     0.012 C 
ATOM     25  C   UNL A   1      31.608  26.364  25.097  1.00  0.00    -0.025 C 
ATOM     26  C   UNL A   1      32.853  27.551  23.196  1.00  0.00     0.005 C 
ATOM     27  C   UNL A   1      30.146  26.672  24.719  1.00  0.00     0.012 C 
ATOM     28  C   UNL A   1      31.667  26.224  26.655  1.00  0.00     0.010 C 
ATOM     29  C   UNL A   1      32.618  27.507  24.717  1.00  0.00     0.003 C 
ATOM     30  C   UNL A   1      31.477  27.529  27.431  1.00  0.00     0.033 C 
ATOM     31  C   UNL A   1      32.391  28.904  25.421  1.00  0.00    -0.006 C 
ATOM     32  C   UNL A   1      32.384  28.667  26.962  1.00  0.00     0.120 C 
ATOM     33  C   UNL A   1      31.123  29.653  24.962  1.00  0.00     0.014 C 
ATOM     34  C   UNL A   1      33.573  29.866  25.103  1.00  0.00     0.014 C 
BRANCH  32  35
ATOM     35  O   UNL A   1      32.055  29.854  27.683  1.00  0.00    -0.393 OA
ATOM     36  H   UNL A   1      32.083  30.615  27.083  1.00  0.00     0.210 HD
ENDBRANCH  32  35
ENDBRANCH   4   6
ENDBRANCH   3   4
ENDBRANCH   2   3
ENDBRANCH   1   2
BRANCH   1  37
ATOM     37  O   UNL A   1      38.413  22.729  25.772  1.00  0.00    -0.458 OA
BRANCH  37  38
ATOM     38  C   UNL A   1      39.578  22.801  26.467  1.00  0.00     0.338 C 
ATOM     39  O   UNL A   1      40.464  21.956  26.477  1.00  0.00    -0.246 OA
BRANCH  38  40
ATOM     40  C   UNL A   1      39.747  24.158  27.051  1.00  0.00     0.060 A 
ATOM     41  C   UNL A   1      40.327  25.157  26.250  1.00  0.00     0.016 A 
ATOM     42  C   UNL A   1      39.265  24.482  28.318  1.00  0.00     0.016 A 
ATOM     43  C   UNL A   1      40.453  26.468  26.719  1.00  0.00     0.010 A 
ATOM     44  C   UNL A   1      39.389  25.793  28.784  1.00  0.00     0.010 A 
ATOM     45  C   UNL A   1      40.021  26.784  28.009  1.00  0.00    -0.014 A 
BRANCH  45  46
ATOM     46  C   UNL A   1      40.549  27.982  28.710  1.00  0.00     0.031 A 
ATOM     47  C   UNL A   1      39.593  29.138  28.846  1.00  0.00     0.074 A 
ATOM     48  C   UNL A   1      41.809  28.096  29.167  1.00  0.00     0.049 A 
ATOM     49  N   UNL A   1      39.781  30.322  29.367  1.00  0.00    -0.248 NA
ATOM     50  C   UNL A   1      38.239  28.931  28.298  1.00  0.00     0.031 C 
ATOM     51  C   UNL A   1      42.838  27.064  29.120  1.00  0.00     0.029 A 
ATOM     52  N   UNL A   1      42.445  29.167  29.748  1.00  0.00    -0.354 N 
ATOM     53  C   UNL A   1      38.572  30.985  29.209  1.00  0.00     0.074 A 
ATOM     54  C   UNL A   1      37.697  30.122  28.454  1.00  0.00     0.031 C 
ATOM     55  C   UNL A   1      43.996  27.568  29.586  1.00  0.00     0.029 A 
ATOM     56  C   UNL A   1      43.779  28.949  30.005  1.00  0.00     0.049 A 
ATOM     57  H   UNL A   1      41.988  30.013  29.960  1.00  0.00     0.167 HD
ATOM     58  C   UNL A   1      38.188  32.183  29.699  1.00  0.00     0.031 A 
ATOM     59  C   UNL A   1      44.704  29.771  30.539  1.00  0.00     0.031 A 
ATOM     60  C   UNL A   1      39.043  33.044  30.458  1.00  0.00     0.049 A 
ATOM     61  C   UNL A   1      44.277  31.129  31.038  1.00  0.00     0.074 A 
ATOM     62  C   UNL A   1      38.749  34.260  31.044  1.00  0.00     0.029 A 
ATOM     63  N   UNL A   1      40.374  32.771  30.729  1.00  0.00    -0.354 N 
ATOM     64  N   UNL A   1      43.097  31.699  30.985  1.00  0.00    -0.248 NA
ATOM     65  C   UNL A   1      45.301  31.934  31.723  1.00  0.00     0.031 C 
ATOM     66  C   UNL A   1      39.916  34.738  31.649  1.00  0.00     0.029 A 
ATOM     67  C   UNL A   1      40.921  33.799  31.472  1.00  0.00     0.049 A 
ATOM     68  H   UNL A   1      40.857  31.964  30.437  1.00  0.00     0.167 HD
ATOM     69  C   UNL A   1      43.219  32.893  31.687  1.00  0.00     0.074 A 
ATOM     70  C   UNL A   1      44.591  32.969  32.147  1.00  0.00     0.031 C 
ATOM     71  C   UNL A   1      42.280  33.836  31.942  1.00  0.00     0.031 A 
BRANCH  58  72
ATOM     72  C   UNL A   1      36.769  32.585  29.428  1.00  0.00    -0.014 A 
ATOM     73  C   UNL A   1      36.436  33.284  28.253  1.00  0.00     0.009 A 
ATOM     74  C   UNL A   1      35.773  32.341  30.382  1.00  0.00     0.009 A 
ATOM     75  C   UNL A   1      35.146  33.780  28.067  1.00  0.00     0.001 A 
ATOM     76  C   UNL A   1      34.476  32.812  30.178  1.00  0.00     0.001 A 
ATOM     77  C   UNL A   1      34.167  33.543  29.030  1.00  0.00     0.000 A 
ENDBRANCH  58  72
BRANCH  59  78
ATOM     78  C   UNL A   1      46.115  29.329  30.705  1.00  0.00    -0.014 A 
ATOM     79  C   UNL A   1      47.052  29.536  29.679  1.00  0.00     0.009 A 
ATOM     80  C   UNL A   1      46.516  28.633  31.856  1.00  0.00     0.009 A 
ATOM     81  C   UNL A   1      48.347  29.017  29.783  1.00  0.00     0.001 A 
ATOM     82  C   UNL A   1      47.819  28.135  31.966  1.00  0.00     0.001 A 
ATOM     83  C   UNL A   1      48.727  28.315  30.924  1.00  0.00     0.000 A 
ENDBRANCH  59  78
BRANCH  71  84
ATOM     84  C   UNL A   1      42.676  34.989  32.817  1.00  0.00    -0.014 A 
ATOM     85  C   UNL A   1      43.345  36.108  32.300  1.00  0.00     0.009 A 
ATOM     86  C   UNL A   1      42.320  34.973  34.176  1.00  0.00     0.009 A 
ATOM     87  C   UNL A   1      43.679  37.175  33.137  1.00  0.00     0.001 A 
ATOM     88  C   UNL A   1      42.628  36.053  35.002  1.00  0.00     0.001 A 
ATOM     89  C   UNL A   1      43.315  37.149  34.484  1.00  0.00     0.000 A 
ENDBRANCH  71  84
ENDBRANCH  45  46
ENDBRANCH  38  40
ENDBRANCH  37  38
ENDBRANCH   1  37
TORSDOF 12
ENDMDL
