MODEL 1
REMARK VINA RESULT:     -10.2      0.000      0.000
REMARK SMILES CC[C@H]1CCC[C@H](O[C@@H]2CC[C@]([NH2+]C(C)C)(C(=O)OCCOC(=O)c3ccc(-c4c5nc(c(-c6ccccc6)c6ccc([nH]6)c(-c6ccccc6)c6nc(c(-c7ccccc7)c7ccc4[nH]7)C=C6)C=C5)cc3)C2)C1
REMARK SMILES IDX 20 1 19 2 17 3 18 4 12 5 9 6 10 7 73 8 11 9 8 10 7 11 3 12
REMARK SMILES IDX 4 13 74 14 5 15 6 16 2 17 1 18 13 19 14 22 15 23 16 24 21 25
REMARK SMILES IDX 22 26 23 27 24 28 25 29 26 30 72 31 27 32 71 33 28 34 29 35
REMARK SMILES IDX 30 36 65 37 31 38 70 39 64 40 66 41 32 42 69 43 63 44 62 45
REMARK SMILES IDX 33 47 55 48 40 49 54 50 41 51 44 52 53 53 67 54 42 55 43 56
REMARK SMILES IDX 52 58 68 59 45 60 34 61 35 62 39 63 36 64 38 65 37 66 56 67
REMARK SMILES IDX 57 68 61 69 58 70 60 71 59 72 46 73 47 74 51 75 48 76 50 77
REMARK SMILES IDX 49 78
REMARK H PARENT 13 20 13 21 66 46 44 57
REMARK Flexibility Score: inf
ROOT
ATOM      1  C   UNL A   1      32.388  30.340  26.799  1.00  0.00     0.274 C 
ENDROOT
BRANCH   1   2
ATOM      2  O   UNL A   1      33.206  29.780  25.745  1.00  0.00    -0.457 OA
BRANCH   2   3
ATOM      3  C   UNL A   1      33.606  28.481  25.876  1.00  0.00     0.368 C 
ATOM      4  O   UNL A   1      34.216  28.041  26.847  1.00  0.00    -0.245 OA
BRANCH   3   5
ATOM      5  C   UNL A   1      33.150  27.594  24.680  1.00  0.00     0.197 C 
ATOM      6  C   UNL A   1      33.660  25.688  23.276  1.00  0.00     0.125 C 
ATOM      7  C   UNL A   1      33.777  26.926  22.384  1.00  0.00     0.039 C 
ATOM      8  C   UNL A   1      33.793  26.210  24.699  1.00  0.00     0.113 C 
ATOM      9  C   UNL A   1      33.711  28.124  23.341  1.00  0.00     0.084 C 
BRANCH   6  10
ATOM     10  O   UNL A   1      34.450  24.574  22.894  1.00  0.00    -0.375 OA
BRANCH  10  11
ATOM     11  C   UNL A   1      34.923  23.579  23.801  1.00  0.00     0.118 C 
ATOM     12  C   UNL A   1      36.825  21.929  24.374  1.00  0.00    -0.009 C 
ATOM     13  C   UNL A   1      35.731  20.909  24.740  1.00  0.00     0.004 C 
ATOM     14  C   UNL A   1      36.288  22.992  23.402  1.00  0.00     0.035 C 
ATOM     15  C   UNL A   1      34.438  21.557  25.224  1.00  0.00     0.003 C 
ATOM     16  C   UNL A   1      33.889  22.522  24.182  1.00  0.00     0.032 C 
BRANCH  12  17
ATOM     17  C   UNL A   1      37.487  22.532  25.624  1.00  0.00     0.000 C 
ATOM     18  C   UNL A   1      37.293  24.040  25.729  1.00  0.00     0.004 C 
ENDBRANCH  12  17
ENDBRANCH  10  11
ENDBRANCH   6  10
BRANCH   5  19
ATOM     19  N   UNL A   1      31.665  27.610  24.557  1.00  0.00    -0.330 N 
ATOM     20  H   UNL A   1      31.284  28.015  25.412  1.00  0.00     0.347 HD
ATOM     21  H   UNL A   1      31.388  26.642  24.399  1.00  0.00     0.347 HD
BRANCH  19  22
ATOM     22  C   UNL A   1      31.129  28.371  23.418  1.00  0.00     0.176 C 
ATOM     23  C   UNL A   1      30.216  27.469  22.580  1.00  0.00     0.075 C 
ATOM     24  C   UNL A   1      30.313  29.552  23.947  1.00  0.00     0.075 C 
ENDBRANCH  19  22
ENDBRANCH   5  19
ENDBRANCH   3   5
ENDBRANCH   2   3
ENDBRANCH   1   2
BRANCH   1  25
ATOM     25  C   UNL A   1      32.990  31.660  27.282  1.00  0.00     0.275 C 
BRANCH  25  26
ATOM     26  O   UNL A   1      34.408  31.473  27.396  1.00  0.00    -0.458 OA
BRANCH  26  27
ATOM     27  C   UNL A   1      34.923  31.436  28.647  1.00  0.00     0.338 C 
ATOM     28  O   UNL A   1      34.441  31.932  29.649  1.00  0.00    -0.246 OA
BRANCH  27  29
ATOM     29  C   UNL A   1      36.129  30.569  28.642  1.00  0.00     0.060 A 
ATOM     30  C   UNL A   1      36.627  30.059  29.840  1.00  0.00     0.016 A 
ATOM     31  C   UNL A   1      36.860  30.375  27.470  1.00  0.00     0.016 A 
ATOM     32  C   UNL A   1      37.896  29.490  29.894  1.00  0.00     0.010 A 
ATOM     33  C   UNL A   1      38.083  29.684  27.512  1.00  0.00     0.010 A 
ATOM     34  C   UNL A   1      38.646  29.271  28.734  1.00  0.00    -0.014 A 
BRANCH  34  35
ATOM     35  C   UNL A   1      40.020  28.684  28.817  1.00  0.00     0.031 A 
ATOM     36  C   UNL A   1      41.175  29.520  29.316  1.00  0.00     0.074 A 
ATOM     37  C   UNL A   1      40.267  27.394  28.502  1.00  0.00     0.049 A 
ATOM     38  N   UNL A   1      42.461  29.320  29.170  1.00  0.00    -0.248 NA
ATOM     39  C   UNL A   1      40.841  30.747  30.055  1.00  0.00     0.031 C 
ATOM     40  C   UNL A   1      39.274  26.401  28.086  1.00  0.00     0.029 A 
ATOM     41  N   UNL A   1      41.447  26.684  28.511  1.00  0.00    -0.354 N 
ATOM     42  C   UNL A   1      43.080  30.449  29.694  1.00  0.00     0.074 A 
ATOM     43  C   UNL A   1      42.033  31.311  30.197  1.00  0.00     0.031 C 
ATOM     44  C   UNL A   1      39.863  25.202  27.973  1.00  0.00     0.029 A 
ATOM     45  C   UNL A   1      41.299  25.365  28.155  1.00  0.00     0.049 A 
ATOM     46  H   UNL A   1      42.314  27.084  28.748  1.00  0.00     0.167 HD
ATOM     47  C   UNL A   1      44.402  30.746  29.729  1.00  0.00     0.031 A 
ATOM     48  C   UNL A   1      42.210  24.400  27.926  1.00  0.00     0.031 A 
ATOM     49  C   UNL A   1      45.448  29.848  29.318  1.00  0.00     0.049 A 
ATOM     50  C   UNL A   1      43.668  24.740  27.972  1.00  0.00     0.074 A 
ATOM     51  C   UNL A   1      46.816  30.066  29.285  1.00  0.00     0.029 A 
ATOM     52  N   UNL A   1      45.245  28.537  28.916  1.00  0.00    -0.354 N 
ATOM     53  N   UNL A   1      44.240  25.879  28.277  1.00  0.00    -0.248 NA
ATOM     54  C   UNL A   1      44.607  23.674  27.590  1.00  0.00     0.031 C 
ATOM     55  C   UNL A   1      47.438  28.891  28.848  1.00  0.00     0.029 A 
ATOM     56  C   UNL A   1      46.460  27.932  28.644  1.00  0.00     0.049 A 
ATOM     57  H   UNL A   1      44.366  28.101  28.837  1.00  0.00     0.167 HD
ATOM     58  C   UNL A   1      45.600  25.675  28.101  1.00  0.00     0.074 A 
ATOM     59  C   UNL A   1      45.773  24.293  27.703  1.00  0.00     0.031 C 
ATOM     60  C   UNL A   1      46.615  26.562  28.237  1.00  0.00     0.031 A 
BRANCH  47  61
ATOM     61  C   UNL A   1      44.791  32.129  30.168  1.00  0.00    -0.014 A 
ATOM     62  C   UNL A   1      45.127  32.421  31.497  1.00  0.00     0.009 A 
ATOM     63  C   UNL A   1      44.854  33.154  29.208  1.00  0.00     0.009 A 
ATOM     64  C   UNL A   1      45.493  33.721  31.861  1.00  0.00     0.001 A 
ATOM     65  C   UNL A   1      45.243  34.444  29.570  1.00  0.00     0.001 A 
ATOM     66  C   UNL A   1      45.555  34.728  30.898  1.00  0.00     0.000 A 
ENDBRANCH  47  61
BRANCH  48  67
ATOM     67  C   UNL A   1      41.756  23.044  27.521  1.00  0.00    -0.014 A 
ATOM     68  C   UNL A   1      41.425  22.771  26.187  1.00  0.00     0.009 A 
ATOM     69  C   UNL A   1      41.685  22.007  28.466  1.00  0.00     0.009 A 
ATOM     70  C   UNL A   1      41.033  21.485  25.807  1.00  0.00     0.001 A 
ATOM     71  C   UNL A   1      41.324  20.717  28.078  1.00  0.00     0.001 A 
ATOM     72  C   UNL A   1      40.994  20.458  26.749  1.00  0.00     0.000 A 
ENDBRANCH  48  67
BRANCH  60  73
ATOM     73  C   UNL A   1      47.998  26.056  27.955  1.00  0.00    -0.014 A 
ATOM     74  C   UNL A   1      48.803  25.554  28.988  1.00  0.00     0.009 A 
ATOM     75  C   UNL A   1      48.493  26.068  26.643  1.00  0.00     0.009 A 
ATOM     76  C   UNL A   1      50.094  25.098  28.716  1.00  0.00     0.001 A 
ATOM     77  C   UNL A   1      49.778  25.595  26.372  1.00  0.00     0.001 A 
ATOM     78  C   UNL A   1      50.580  25.118  27.409  1.00  0.00     0.000 A 
ENDBRANCH  60  73
ENDBRANCH  34  35
ENDBRANCH  27  29
ENDBRANCH  26  27
ENDBRANCH  25  26
ENDBRANCH   1  25
TORSDOF 16
ENDMDL
MODEL 2
REMARK VINA RESULT:     -10.1      3.688      6.874
REMARK SMILES CC[C@H]1CCC[C@H](O[C@@H]2CC[C@]([NH2+]C(C)C)(C(=O)OCCOC(=O)c3ccc(-c4c5nc(c(-c6ccccc6)c6ccc([nH]6)c(-c6ccccc6)c6nc(c(-c7ccccc7)c7ccc4[nH]7)C=C6)C=C5)cc3)C2)C1
REMARK SMILES IDX 20 1 19 2 17 3 18 4 12 5 9 6 10 7 73 8 11 9 8 10 7 11 3 12
REMARK SMILES IDX 4 13 74 14 5 15 6 16 2 17 1 18 13 19 14 22 15 23 16 24 21 25
REMARK SMILES IDX 22 26 23 27 24 28 25 29 26 30 72 31 27 32 71 33 28 34 29 35
REMARK SMILES IDX 30 36 65 37 31 38 70 39 64 40 66 41 32 42 69 43 63 44 62 45
REMARK SMILES IDX 33 47 55 48 40 49 54 50 41 51 44 52 53 53 67 54 42 55 43 56
REMARK SMILES IDX 52 58 68 59 45 60 34 61 35 62 39 63 36 64 38 65 37 66 56 67
REMARK SMILES IDX 57 68 61 69 58 70 60 71 59 72 46 73 47 74 51 75 48 76 50 77
REMARK SMILES IDX 49 78
REMARK H PARENT 13 20 13 21 66 46 44 57
REMARK Flexibility Score: inf
ROOT
ATOM      1  C   UNL A   1      31.608  28.660  24.375  1.00  0.00     0.274 C 
ENDROOT
BRANCH   1   2
ATOM      2  O   UNL A   1      30.578  27.675  24.620  1.00  0.00    -0.457 OA
BRANCH   2   3
ATOM      3  C   UNL A   1      30.859  26.667  25.497  1.00  0.00     0.368 C 
ATOM      4  O   UNL A   1      30.728  26.755  26.714  1.00  0.00    -0.245 OA
BRANCH   3   5
ATOM      5  C   UNL A   1      31.312  25.361  24.779  1.00  0.00     0.197 C 
ATOM      6  C   UNL A   1      33.175  24.085  23.905  1.00  0.00     0.125 C 
ATOM      7  C   UNL A   1      32.350  24.529  22.695  1.00  0.00     0.039 C 
ATOM      8  C   UNL A   1      32.784  25.038  25.024  1.00  0.00     0.113 C 
ATOM      9  C   UNL A   1      31.337  25.543  23.244  1.00  0.00     0.084 C 
BRANCH   6  10
ATOM     10  O   UNL A   1      34.555  23.865  23.664  1.00  0.00    -0.375 OA
BRANCH  10  11
ATOM     11  C   UNL A   1      35.351  22.919  24.376  1.00  0.00     0.118 C 
ATOM     12  C   UNL A   1      37.712  21.932  24.725  1.00  0.00    -0.009 C 
ATOM     13  C   UNL A   1      37.043  20.547  24.795  1.00  0.00     0.004 C 
ATOM     14  C   UNL A   1      36.832  22.933  23.959  1.00  0.00     0.035 C 
ATOM     15  C   UNL A   1      35.609  20.594  25.313  1.00  0.00     0.003 C 
ATOM     16  C   UNL A   1      34.752  21.516  24.458  1.00  0.00     0.032 C 
BRANCH  12  17
ATOM     17  C   UNL A   1      38.133  22.436  26.115  1.00  0.00     0.000 C 
ATOM     18  C   UNL A   1      39.635  22.332  26.354  1.00  0.00     0.004 C 
ENDBRANCH  12  17
ENDBRANCH  10  11
ENDBRANCH   6  10
BRANCH   5  19
ATOM     19  N   UNL A   1      30.356  24.254  25.062  1.00  0.00    -0.330 N 
ATOM     20  H   UNL A   1      30.300  23.667  24.230  1.00  0.00     0.347 HD
ATOM     21  H   UNL A   1      29.475  24.704  25.310  1.00  0.00     0.347 HD
BRANCH  19  22
ATOM     22  C   UNL A   1      30.700  23.392  26.202  1.00  0.00     0.176 C 
ATOM     23  C   UNL A   1      29.472  23.212  27.101  1.00  0.00     0.075 C 
ATOM     24  C   UNL A   1      31.139  22.023  25.678  1.00  0.00     0.075 C 
ENDBRANCH  19  22
ENDBRANCH   5  19
ENDBRANCH   3   5
ENDBRANCH   2   3
ENDBRANCH   1   2
BRANCH   1  25
ATOM     25  C   UNL A   1      31.401  29.871  25.286  1.00  0.00     0.275 C 
BRANCH  25  26
ATOM     26  O   UNL A   1      32.372  29.791  26.339  1.00  0.00    -0.458 OA
BRANCH  26  27
ATOM     27  C   UNL A   1      32.799  30.961  26.869  1.00  0.00     0.338 C 
ATOM     28  O   UNL A   1      32.144  31.977  27.017  1.00  0.00    -0.246 OA
BRANCH  27  29
ATOM     29  C   UNL A   1      34.185  30.780  27.373  1.00  0.00     0.060 A 
ATOM     30  C   UNL A   1      34.690  29.496  27.579  1.00  0.00     0.016 A 
ATOM     31  C   UNL A   1      34.941  31.877  27.784  1.00  0.00     0.016 A 
ATOM     32  C   UNL A   1      35.861  29.306  28.306  1.00  0.00     0.010 A 
ATOM     33  C   UNL A   1      36.187  31.679  28.404  1.00  0.00     0.010 A 
ATOM     34  C   UNL A   1      36.646  30.387  28.719  1.00  0.00    -0.014 A 
BRANCH  34  35
ATOM     35  C   UNL A   1      37.888  30.161  29.525  1.00  0.00     0.031 A 
ATOM     36  C   UNL A   1      39.072  29.452  28.913  1.00  0.00     0.074 A 
ATOM     37  C   UNL A   1      38.012  30.617  30.790  1.00  0.00     0.049 A 
ATOM     38  N   UNL A   1      40.091  28.884  29.508  1.00  0.00    -0.248 NA
ATOM     39  C   UNL A   1      39.105  29.350  27.445  1.00  0.00     0.031 C 
ATOM     40  C   UNL A   1      37.018  31.400  31.528  1.00  0.00     0.029 A 
ATOM     41  N   UNL A   1      39.058  30.507  31.679  1.00  0.00    -0.354 N 
ATOM     42  C   UNL A   1      40.819  28.262  28.500  1.00  0.00     0.074 A 
ATOM     43  C   UNL A   1      40.148  28.555  27.252  1.00  0.00     0.031 C 
ATOM     44  C   UNL A   1      37.533  31.776  32.707  1.00  0.00     0.029 A 
ATOM     45  C   UNL A   1      38.830  31.136  32.879  1.00  0.00     0.049 A 
ATOM     46  H   UNL A   1      39.889  30.022  31.474  1.00  0.00     0.167 HD
ATOM     47  C   UNL A   1      41.933  27.498  28.613  1.00  0.00     0.031 A 
ATOM     48  C   UNL A   1      39.539  31.147  34.024  1.00  0.00     0.031 A 
ATOM     49  C   UNL A   1      42.654  27.288  29.840  1.00  0.00     0.049 A 
ATOM     50  C   UNL A   1      40.770  30.301  34.134  1.00  0.00     0.074 A 
ATOM     51  C   UNL A   1      43.775  26.505  30.065  1.00  0.00     0.029 A 
ATOM     52  N   UNL A   1      42.354  27.907  31.043  1.00  0.00    -0.354 N 
ATOM     53  N   UNL A   1      41.340  29.552  33.223  1.00  0.00    -0.248 NA
ATOM     54  C   UNL A   1      41.427  30.260  35.450  1.00  0.00     0.031 C 
ATOM     55  C   UNL A   1      44.142  26.641  31.408  1.00  0.00     0.029 A 
ATOM     56  C   UNL A   1      43.272  27.534  32.009  1.00  0.00     0.049 A 
ATOM     57  H   UNL A   1      41.599  28.522  31.188  1.00  0.00     0.167 HD
ATOM     58  C   UNL A   1      42.406  28.933  33.858  1.00  0.00     0.074 A 
ATOM     59  C   UNL A   1      42.430  29.424  35.221  1.00  0.00     0.031 C 
ATOM     60  C   UNL A   1      43.275  28.020  33.362  1.00  0.00     0.031 A 
BRANCH  47  61
ATOM     61  C   UNL A   1      42.404  26.774  27.384  1.00  0.00    -0.014 A 
ATOM     62  C   UNL A   1      43.306  27.351  26.479  1.00  0.00     0.009 A 
ATOM     63  C   UNL A   1      41.954  25.462  27.153  1.00  0.00     0.009 A 
ATOM     64  C   UNL A   1      43.726  26.638  25.353  1.00  0.00     0.001 A 
ATOM     65  C   UNL A   1      42.395  24.744  26.041  1.00  0.00     0.001 A 
ATOM     66  C   UNL A   1      43.275  25.336  25.138  1.00  0.00     0.000 A 
ENDBRANCH  47  61
BRANCH  48  67
ATOM     67  C   UNL A   1      39.029  31.907  35.195  1.00  0.00    -0.014 A 
ATOM     68  C   UNL A   1      39.289  33.278  35.325  1.00  0.00     0.009 A 
ATOM     69  C   UNL A   1      38.250  31.266  36.173  1.00  0.00     0.009 A 
ATOM     70  C   UNL A   1      38.777  33.993  36.410  1.00  0.00     0.001 A 
ATOM     71  C   UNL A   1      37.714  31.988  37.238  1.00  0.00     0.001 A 
ATOM     72  C   UNL A   1      37.982  33.351  37.359  1.00  0.00     0.000 A 
ENDBRANCH  48  67
BRANCH  60  73
ATOM     73  C   UNL A   1      44.324  27.504  34.301  1.00  0.00    -0.014 A 
ATOM     74  C   UNL A   1      45.555  28.164  34.436  1.00  0.00     0.009 A 
ATOM     75  C   UNL A   1      44.072  26.357  35.067  1.00  0.00     0.009 A 
ATOM     76  C   UNL A   1      46.528  27.666  35.304  1.00  0.00     0.001 A 
ATOM     77  C   UNL A   1      45.041  25.872  35.947  1.00  0.00     0.001 A 
ATOM     78  C   UNL A   1      46.271  26.522  36.058  1.00  0.00     0.000 A 
ENDBRANCH  60  73
ENDBRANCH  34  35
ENDBRANCH  27  29
ENDBRANCH  26  27
ENDBRANCH  25  26
ENDBRANCH   1  25
TORSDOF 16
ENDMDL
MODEL 3
REMARK VINA RESULT:      -9.7      3.742      7.238
REMARK SMILES CC[C@H]1CCC[C@H](O[C@@H]2CC[C@]([NH2+]C(C)C)(C(=O)OCCOC(=O)c3ccc(-c4c5nc(c(-c6ccccc6)c6ccc([nH]6)c(-c6ccccc6)c6nc(c(-c7ccccc7)c7ccc4[nH]7)C=C6)C=C5)cc3)C2)C1
REMARK SMILES IDX 20 1 19 2 17 3 18 4 12 5 9 6 10 7 73 8 11 9 8 10 7 11 3 12
REMARK SMILES IDX 4 13 74 14 5 15 6 16 2 17 1 18 13 19 14 22 15 23 16 24 21 25
REMARK SMILES IDX 22 26 23 27 24 28 25 29 26 30 72 31 27 32 71 33 28 34 29 35
REMARK SMILES IDX 30 36 65 37 31 38 70 39 64 40 66 41 32 42 69 43 63 44 62 45
REMARK SMILES IDX 33 47 55 48 40 49 54 50 41 51 44 52 53 53 67 54 42 55 43 56
REMARK SMILES IDX 52 58 68 59 45 60 34 61 35 62 39 63 36 64 38 65 37 66 56 67
REMARK SMILES IDX 57 68 61 69 58 70 60 71 59 72 46 73 47 74 51 75 48 76 50 77
REMARK SMILES IDX 49 78
REMARK H PARENT 13 20 13 21 66 46 44 57
REMARK Flexibility Score: inf
ROOT
ATOM      1  C   UNL A   1      32.525  28.275  23.901  1.00  0.00     0.274 C 
ENDROOT
BRANCH   1   2
ATOM      2  O   UNL A   1      33.358  27.256  24.501  1.00  0.00    -0.457 OA
BRANCH   2   3
ATOM      3  C   UNL A   1      33.618  26.136  23.764  1.00  0.00     0.368 C 
ATOM      4  O   UNL A   1      33.803  26.136  22.551  1.00  0.00    -0.245 OA
BRANCH   3   5
ATOM      5  C   UNL A   1      33.714  24.854  24.643  1.00  0.00     0.197 C 
ATOM      6  C   UNL A   1      32.719  22.720  25.209  1.00  0.00     0.125 C 
ATOM      7  C   UNL A   1      32.549  23.616  26.438  1.00  0.00     0.039 C 
ATOM      8  C   UNL A   1      32.945  23.677  24.048  1.00  0.00     0.113 C 
ATOM      9  C   UNL A   1      32.944  25.024  25.972  1.00  0.00     0.084 C 
BRANCH   6  10
ATOM     10  O   UNL A   1      31.752  21.695  25.053  1.00  0.00    -0.375 OA
BRANCH  10  11
ATOM     11  C   UNL A   1      32.061  20.353  24.678  1.00  0.00     0.118 C 
ATOM     12  C   UNL A   1      33.569  18.300  25.101  1.00  0.00    -0.009 C 
ATOM     13  C   UNL A   1      33.637  18.126  23.572  1.00  0.00     0.004 C 
ATOM     14  C   UNL A   1      33.229  19.751  25.478  1.00  0.00     0.035 C 
ATOM     15  C   UNL A   1      32.402  18.654  22.848  1.00  0.00     0.003 C 
ATOM     16  C   UNL A   1      32.169  20.123  23.171  1.00  0.00     0.032 C 
BRANCH  12  17
ATOM     17  C   UNL A   1      32.633  17.270  25.754  1.00  0.00     0.000 C 
ATOM     18  C   UNL A   1      32.977  15.833  25.377  1.00  0.00     0.004 C 
ENDBRANCH  12  17
ENDBRANCH  10  11
ENDBRANCH   6  10
BRANCH   5  19
ATOM     19  N   UNL A   1      35.133  24.578  25.005  1.00  0.00    -0.330 N 
ATOM     20  H   UNL A   1      35.229  24.701  26.013  1.00  0.00     0.347 HD
ATOM     21  H   UNL A   1      35.692  25.227  24.453  1.00  0.00     0.347 HD
BRANCH  19  22
ATOM     22  C   UNL A   1      35.626  23.235  24.665  1.00  0.00     0.176 C 
ATOM     23  C   UNL A   1      36.452  23.301  23.375  1.00  0.00     0.075 C 
ATOM     24  C   UNL A   1      36.517  22.727  25.801  1.00  0.00     0.075 C 
ENDBRANCH  19  22
ENDBRANCH   5  19
ENDBRANCH   3   5
ENDBRANCH   2   3
ENDBRANCH   1   2
BRANCH   1  25
ATOM     25  C   UNL A   1      31.596  28.878  24.956  1.00  0.00     0.275 C 
BRANCH  25  26
ATOM     26  O   UNL A   1      32.347  29.001  26.173  1.00  0.00    -0.458 OA
BRANCH  26  27
ATOM     27  C   UNL A   1      32.713  30.250  26.544  1.00  0.00     0.338 C 
ATOM     28  O   UNL A   1      32.014  31.247  26.539  1.00  0.00    -0.246 OA
BRANCH  27  29
ATOM     29  C   UNL A   1      34.092  30.199  27.095  1.00  0.00     0.060 A 
ATOM     30  C   UNL A   1      34.774  28.985  27.160  1.00  0.00     0.016 A 
ATOM     31  C   UNL A   1      34.665  31.327  27.684  1.00  0.00     0.016 A 
ATOM     32  C   UNL A   1      35.934  28.865  27.919  1.00  0.00     0.010 A 
ATOM     33  C   UNL A   1      35.903  31.225  28.339  1.00  0.00     0.010 A 
ATOM     34  C   UNL A   1      36.537  29.980  28.509  1.00  0.00    -0.014 A 
BRANCH  34  35
ATOM     35  C   UNL A   1      37.770  29.825  29.345  1.00  0.00     0.031 A 
ATOM     36  C   UNL A   1      38.987  29.132  28.781  1.00  0.00     0.074 A 
ATOM     37  C   UNL A   1      37.856  30.333  30.594  1.00  0.00     0.049 A 
ATOM     38  N   UNL A   1      40.012  28.620  29.416  1.00  0.00    -0.248 NA
ATOM     39  C   UNL A   1      39.050  28.976  27.320  1.00  0.00     0.031 C 
ATOM     40  C   UNL A   1      36.824  31.110  31.283  1.00  0.00     0.029 A 
ATOM     41  N   UNL A   1      38.888  30.290  31.504  1.00  0.00    -0.354 N 
ATOM     42  C   UNL A   1      40.778  27.985  28.446  1.00  0.00     0.074 A 
ATOM     43  C   UNL A   1      40.122  28.208  27.176  1.00  0.00     0.031 C 
ATOM     44  C   UNL A   1      37.305  31.547  32.455  1.00  0.00     0.029 A 
ATOM     45  C   UNL A   1      38.617  30.956  32.675  1.00  0.00     0.049 A 
ATOM     46  H   UNL A   1      39.738  29.824  31.333  1.00  0.00     0.167 HD
ATOM     47  C   UNL A   1      41.913  27.261  28.607  1.00  0.00     0.031 A 
ATOM     48  C   UNL A   1      39.304  31.034  33.831  1.00  0.00     0.031 A 
ATOM     49  C   UNL A   1      42.617  27.121  29.854  1.00  0.00     0.049 A 
ATOM     50  C   UNL A   1      40.559  30.232  33.995  1.00  0.00     0.074 A 
ATOM     51  C   UNL A   1      43.758  26.383  30.128  1.00  0.00     0.029 A 
ATOM     52  N   UNL A   1      42.275  27.776  31.026  1.00  0.00    -0.354 N 
ATOM     53  N   UNL A   1      41.169  29.468  33.124  1.00  0.00    -0.248 NA
ATOM     54  C   UNL A   1      41.192  30.262  35.323  1.00  0.00     0.031 C 
ATOM     55  C   UNL A   1      44.096  26.582  31.472  1.00  0.00     0.029 A 
ATOM     56  C   UNL A   1      43.187  27.469  32.022  1.00  0.00     0.049 A 
ATOM     57  H   UNL A   1      41.499  28.371  31.135  1.00  0.00     0.167 HD
ATOM     58  C   UNL A   1      42.242  28.908  33.801  1.00  0.00     0.074 A 
ATOM     59  C   UNL A   1      42.225  29.451  35.144  1.00  0.00     0.031 C 
ATOM     60  C   UNL A   1      43.149  28.006  33.355  1.00  0.00     0.031 A 
BRANCH  47  61
ATOM     61  C   UNL A   1      42.430  26.506  27.415  1.00  0.00    -0.014 A 
ATOM     62  C   UNL A   1      41.968  25.224  27.089  1.00  0.00     0.009 A 
ATOM     63  C   UNL A   1      43.380  27.121  26.582  1.00  0.00     0.009 A 
ATOM     64  C   UNL A   1      42.469  24.561  25.965  1.00  0.00     0.001 A 
ATOM     65  C   UNL A   1      43.859  26.467  25.446  1.00  0.00     0.001 A 
ATOM     66  C   UNL A   1      43.409  25.184  25.143  1.00  0.00     0.000 A 
ENDBRANCH  47  61
BRANCH  48  67
ATOM     67  C   UNL A   1      38.748  31.820  34.963  1.00  0.00    -0.014 A 
ATOM     68  C   UNL A   1      38.129  31.178  36.043  1.00  0.00     0.009 A 
ATOM     69  C   UNL A   1      38.867  33.220  34.980  1.00  0.00     0.009 A 
ATOM     70  C   UNL A   1      37.640  31.921  37.120  1.00  0.00     0.001 A 
ATOM     71  C   UNL A   1      38.407  33.957  36.071  1.00  0.00     0.001 A 
ATOM     72  C   UNL A   1      37.789  33.308  37.138  1.00  0.00     0.000 A 
ENDBRANCH  48  67
BRANCH  60  73
ATOM     73  C   UNL A   1      44.195  27.560  34.332  1.00  0.00    -0.014 A 
ATOM     74  C   UNL A   1      43.995  26.424  35.131  1.00  0.00     0.009 A 
ATOM     75  C   UNL A   1      45.398  28.274  34.442  1.00  0.00     0.009 A 
ATOM     76  C   UNL A   1      44.971  26.027  36.046  1.00  0.00     0.001 A 
ATOM     77  C   UNL A   1      46.379  27.863  35.347  1.00  0.00     0.001 A 
ATOM     78  C   UNL A   1      46.161  26.745  36.153  1.00  0.00     0.000 A 
ENDBRANCH  60  73
ENDBRANCH  34  35
ENDBRANCH  27  29
ENDBRANCH  26  27
ENDBRANCH  25  26
ENDBRANCH   1  25
TORSDOF 16
ENDMDL
