MODEL 1
REMARK VINA RESULT:      -9.9      0.000      0.000
REMARK SMILES C[C@H](CC(=O)OCCOC(=O)c1ccc(-c2c3nc(c(-c4ccccc4)c4ccc([nH]4)c(-c4ccccc4)c4nc(c(-c5ccccc5)c5ccc2[nH]5)C=C4)C=C3)cc1)NC(=O)[C@H]1CC(=O)N(C2CC2)C1
REMARK SMILES IDX 7 1 6 2 4 3 5 4 3 5 2 6 1 7 60 8 61 9 62 11 63 12 64 13
REMARK SMILES IDX 71 14 65 15 67 16 66 17 68 18 69 19 70 20 8 21 9 22 10 23
REMARK SMILES IDX 11 24 12 25 13 26 59 27 14 28 58 29 15 30 16 31 17 32 52 33
REMARK SMILES IDX 18 34 57 35 51 36 53 37 19 38 56 39 50 40 49 41 20 43 42 44
REMARK SMILES IDX 27 45 41 46 28 47 31 48 40 49 54 50 29 51 30 52 39 54 55 55
REMARK SMILES IDX 32 56 21 57 22 58 26 59 23 60 25 61 24 62 43 63 44 64 48 65
REMARK SMILES IDX 45 66 47 67 46 68 33 69 34 70 38 71 35 72 37 73 36 74
REMARK H PARENT 60 10 53 42 31 53
REMARK Flexibility Score: inf
ROOT
ATOM      1  C   UNL A   1      41.973  19.340  26.087  1.00  0.00     0.274 C 
ENDROOT
BRANCH   1   2
ATOM      2  O   UNL A   1      42.159  20.494  26.934  1.00  0.00    -0.462 OA
BRANCH   2   3
ATOM      3  C   UNL A   1      41.637  21.649  26.460  1.00  0.00     0.307 C 
ATOM      4  O   UNL A   1      41.877  22.121  25.352  1.00  0.00    -0.252 OA
BRANCH   3   5
ATOM      5  C   UNL A   1      40.681  22.335  27.401  1.00  0.00     0.147 C 
BRANCH   5   6
ATOM      6  C   UNL A   1      39.368  22.920  26.890  1.00  0.00     0.090 C 
ATOM      7  C   UNL A   1      39.330  24.431  26.679  1.00  0.00     0.031 C 
BRANCH   6   8
ATOM      8  N   UNL A   1      38.873  22.237  25.706  1.00  0.00    -0.353 N 
ATOM      9  C   UNL A   1      37.608  22.101  25.221  1.00  0.00     0.225 C 
ATOM     10  H   UNL A   1      39.568  21.800  25.164  1.00  0.00     0.163 HD
ATOM     11  O   UNL A   1      37.481  21.485  24.160  1.00  0.00    -0.275 OA
BRANCH   9  12
ATOM     12  C   UNL A   1      36.400  22.580  26.012  1.00  0.00     0.107 C 
ATOM     13  C   UNL A   1      35.806  23.938  25.644  1.00  0.00     0.115 C 
ATOM     14  C   UNL A   1      35.226  21.638  25.757  1.00  0.00     0.133 C 
ATOM     15  C   UNL A   1      34.333  23.788  25.927  1.00  0.00     0.223 C 
ATOM     16  N   UNL A   1      34.058  22.431  26.038  1.00  0.00    -0.339 N 
ATOM     17  O   UNL A   1      33.563  24.731  26.015  1.00  0.00    -0.275 OA
BRANCH  16  18
ATOM     18  C   UNL A   1      32.783  21.806  26.209  1.00  0.00     0.085 C 
ATOM     19  C   UNL A   1      31.510  22.258  25.552  1.00  0.00     0.027 C 
ATOM     20  C   UNL A   1      32.175  20.989  25.101  1.00  0.00     0.027 C 
ENDBRANCH  16  18
ENDBRANCH   9  12
ENDBRANCH   6   8
ENDBRANCH   5   6
ENDBRANCH   3   5
ENDBRANCH   2   3
ENDBRANCH   1   2
BRANCH   1  21
ATOM     21  C   UNL A   1      43.320  18.703  25.744  1.00  0.00     0.275 C 
BRANCH  21  22
ATOM     22  O   UNL A   1      43.754  19.129  24.439  1.00  0.00    -0.458 OA
BRANCH  22  23
ATOM     23  C   UNL A   1      45.027  19.566  24.352  1.00  0.00     0.338 C 
ATOM     24  O   UNL A   1      46.021  18.915  24.060  1.00  0.00    -0.246 OA
BRANCH  23  25
ATOM     25  C   UNL A   1      45.093  20.996  24.686  1.00  0.00     0.060 A 
ATOM     26  C   UNL A   1      44.826  21.968  23.718  1.00  0.00     0.016 A 
ATOM     27  C   UNL A   1      45.512  21.369  25.963  1.00  0.00     0.016 A 
ATOM     28  C   UNL A   1      45.017  23.318  24.015  1.00  0.00     0.010 A 
ATOM     29  C   UNL A   1      45.628  22.723  26.281  1.00  0.00     0.010 A 
ATOM     30  C   UNL A   1      45.393  23.709  25.307  1.00  0.00    -0.014 A 
BRANCH  30  31
ATOM     31  C   UNL A   1      45.507  25.141  25.674  1.00  0.00     0.031 A 
ATOM     32  C   UNL A   1      46.840  25.832  25.642  1.00  0.00     0.074 A 
ATOM     33  C   UNL A   1      44.414  25.804  26.100  1.00  0.00     0.049 A 
ATOM     34  N   UNL A   1      47.178  26.999  26.128  1.00  0.00    -0.248 NA
ATOM     35  C   UNL A   1      47.940  25.111  24.982  1.00  0.00     0.031 C 
ATOM     36  C   UNL A   1      43.054  25.263  26.139  1.00  0.00     0.029 A 
ATOM     37  N   UNL A   1      44.281  27.074  26.603  1.00  0.00    -0.354 N 
ATOM     38  C   UNL A   1      48.536  27.139  25.866  1.00  0.00     0.074 A 
ATOM     39  C   UNL A   1      48.960  25.934  25.183  1.00  0.00     0.031 C 
ATOM     40  C   UNL A   1      42.224  26.195  26.629  1.00  0.00     0.029 A 
ATOM     41  C   UNL A   1      43.003  27.366  27.013  1.00  0.00     0.049 A 
ATOM     42  H   UNL A   1      45.028  27.712  26.663  1.00  0.00     0.167 HD
ATOM     43  C   UNL A   1      49.352  28.175  26.174  1.00  0.00     0.031 A 
ATOM     44  C   UNL A   1      42.517  28.434  27.673  1.00  0.00     0.031 A 
ATOM     45  C   UNL A   1      48.922  29.369  26.854  1.00  0.00     0.049 A 
ATOM     46  C   UNL A   1      43.457  29.528  28.083  1.00  0.00     0.074 A 
ATOM     47  C   UNL A   1      49.668  30.481  27.204  1.00  0.00     0.029 A 
ATOM     48  N   UNL A   1      47.626  29.604  27.287  1.00  0.00    -0.354 N 
ATOM     49  N   UNL A   1      44.744  29.635  27.858  1.00  0.00    -0.248 NA
ATOM     50  C   UNL A   1      42.881  30.638  28.855  1.00  0.00     0.031 C 
ATOM     51  C   UNL A   1      48.833  31.370  27.890  1.00  0.00     0.029 A 
ATOM     52  C   UNL A   1      47.556  30.832  27.924  1.00  0.00     0.049 A 
ATOM     53  H   UNL A   1      46.868  28.989  27.161  1.00  0.00     0.167 HD
ATOM     54  C   UNL A   1      45.131  30.830  28.449  1.00  0.00     0.074 A 
ATOM     55  C   UNL A   1      43.940  31.417  29.029  1.00  0.00     0.031 C 
ATOM     56  C   UNL A   1      46.363  31.391  28.504  1.00  0.00     0.031 A 
BRANCH  43  57
ATOM     57  C   UNL A   1      50.805  28.041  25.814  1.00  0.00    -0.014 A 
ATOM     58  C   UNL A   1      51.730  27.467  26.699  1.00  0.00     0.009 A 
ATOM     59  C   UNL A   1      51.250  28.472  24.553  1.00  0.00     0.009 A 
ATOM     60  C   UNL A   1      53.076  27.358  26.343  1.00  0.00     0.001 A 
ATOM     61  C   UNL A   1      52.592  28.341  24.190  1.00  0.00     0.001 A 
ATOM     62  C   UNL A   1      53.505  27.792  25.089  1.00  0.00     0.000 A 
ENDBRANCH  43  57
BRANCH  44  63
ATOM     63  C   UNL A   1      41.076  28.487  28.025  1.00  0.00    -0.014 A 
ATOM     64  C   UNL A   1      40.614  27.893  29.207  1.00  0.00     0.009 A 
ATOM     65  C   UNL A   1      40.163  29.159  27.197  1.00  0.00     0.009 A 
ATOM     66  C   UNL A   1      39.262  27.966  29.551  1.00  0.00     0.001 A 
ATOM     67  C   UNL A   1      38.817  29.253  27.557  1.00  0.00     0.001 A 
ATOM     68  C   UNL A   1      38.367  28.652  28.730  1.00  0.00     0.000 A 
ENDBRANCH  44  63
BRANCH  56  69
ATOM     69  C   UNL A   1      46.473  32.715  29.199  1.00  0.00    -0.014 A 
ATOM     70  C   UNL A   1      46.292  33.918  28.498  1.00  0.00     0.009 A 
ATOM     71  C   UNL A   1      46.732  32.759  30.577  1.00  0.00     0.009 A 
ATOM     72  C   UNL A   1      46.396  35.141  29.161  1.00  0.00     0.001 A 
ATOM     73  C   UNL A   1      46.813  33.984  31.242  1.00  0.00     0.001 A 
ATOM     74  C   UNL A   1      46.652  35.173  30.532  1.00  0.00     0.000 A 
ENDBRANCH  56  69
ENDBRANCH  30  31
ENDBRANCH  23  25
ENDBRANCH  22  23
ENDBRANCH  21  22
ENDBRANCH   1  21
TORSDOF 15
ENDMDL
MODEL 2
REMARK VINA RESULT:      -9.4      5.073     10.687
REMARK SMILES C[C@H](CC(=O)OCCOC(=O)c1ccc(-c2c3nc(c(-c4ccccc4)c4ccc([nH]4)c(-c4ccccc4)c4nc(c(-c5ccccc5)c5ccc2[nH]5)C=C4)C=C3)cc1)NC(=O)[C@H]1CC(=O)N(C2CC2)C1
REMARK SMILES IDX 7 1 6 2 4 3 5 4 3 5 2 6 1 7 60 8 61 9 62 11 63 12 64 13
REMARK SMILES IDX 71 14 65 15 67 16 66 17 68 18 69 19 70 20 8 21 9 22 10 23
REMARK SMILES IDX 11 24 12 25 13 26 59 27 14 28 58 29 15 30 16 31 17 32 52 33
REMARK SMILES IDX 18 34 57 35 51 36 53 37 19 38 56 39 50 40 49 41 20 43 42 44
REMARK SMILES IDX 27 45 41 46 28 47 31 48 40 49 54 50 29 51 30 52 39 54 55 55
REMARK SMILES IDX 32 56 21 57 22 58 26 59 23 60 25 61 24 62 43 63 44 64 48 65
REMARK SMILES IDX 45 66 47 67 46 68 33 69 34 70 38 71 35 72 37 73 36 74
REMARK H PARENT 60 10 53 42 31 53
REMARK Flexibility Score: inf
ROOT
ATOM      1  C   UNL A   1      35.493  33.886  28.825  1.00  0.00     0.274 C 
ENDROOT
BRANCH   1   2
ATOM      2  O   UNL A   1      34.650  34.949  28.332  1.00  0.00    -0.462 OA
BRANCH   2   3
ATOM      3  C   UNL A   1      33.424  35.026  28.901  1.00  0.00     0.307 C 
ATOM      4  O   UNL A   1      32.526  34.205  28.737  1.00  0.00    -0.252 OA
BRANCH   3   5
ATOM      5  C   UNL A   1      33.230  36.213  29.808  1.00  0.00     0.147 C 
BRANCH   5   6
ATOM      6  C   UNL A   1      33.630  36.144  31.279  1.00  0.00     0.090 C 
ATOM      7  C   UNL A   1      33.297  37.363  32.134  1.00  0.00     0.031 C 
BRANCH   6   8
ATOM      8  N   UNL A   1      33.161  34.932  31.930  1.00  0.00    -0.353 N 
ATOM      9  C   UNL A   1      33.768  34.121  32.841  1.00  0.00     0.225 C 
ATOM     10  H   UNL A   1      32.255  34.650  31.671  1.00  0.00     0.163 HD
ATOM     11  O   UNL A   1      33.114  33.161  33.255  1.00  0.00    -0.275 OA
BRANCH   9  12
ATOM     12  C   UNL A   1      35.223  34.320  33.235  1.00  0.00     0.107 C 
ATOM     13  C   UNL A   1      35.577  34.209  34.716  1.00  0.00     0.115 C 
ATOM     14  C   UNL A   1      36.069  33.207  32.621  1.00  0.00     0.133 C 
ATOM     15  C   UNL A   1      36.979  33.654  34.724  1.00  0.00     0.223 C 
ATOM     16  N   UNL A   1      37.234  33.130  33.463  1.00  0.00    -0.339 N 
ATOM     17  O   UNL A   1      37.707  33.673  35.702  1.00  0.00    -0.275 OA
BRANCH  16  18
ATOM     18  C   UNL A   1      38.395  32.417  33.028  1.00  0.00     0.085 C 
ATOM     19  C   UNL A   1      38.723  32.104  31.596  1.00  0.00     0.027 C 
ATOM     20  C   UNL A   1      39.522  33.137  32.338  1.00  0.00     0.027 C 
ENDBRANCH  16  18
ENDBRANCH   9  12
ENDBRANCH   6   8
ENDBRANCH   5   6
ENDBRANCH   3   5
ENDBRANCH   2   3
ENDBRANCH   1   2
BRANCH   1  21
ATOM     21  C   UNL A   1      35.291  32.614  28.000  1.00  0.00     0.275 C 
BRANCH  21  22
ATOM     22  O   UNL A   1      35.236  31.464  28.865  1.00  0.00    -0.458 OA
BRANCH  22  23
ATOM     23  C   UNL A   1      35.321  30.263  28.257  1.00  0.00     0.338 C 
ATOM     24  O   UNL A   1      34.422  29.640  27.706  1.00  0.00    -0.246 OA
BRANCH  23  25
ATOM     25  C   UNL A   1      36.693  29.745  28.355  1.00  0.00     0.060 A 
ATOM     26  C   UNL A   1      37.202  29.299  29.577  1.00  0.00     0.016 A 
ATOM     27  C   UNL A   1      37.509  29.788  27.225  1.00  0.00     0.016 A 
ATOM     28  C   UNL A   1      38.544  28.931  29.681  1.00  0.00     0.010 A 
ATOM     29  C   UNL A   1      38.830  29.347  27.313  1.00  0.00     0.010 A 
ATOM     30  C   UNL A   1      39.363  28.926  28.544  1.00  0.00    -0.014 A 
BRANCH  30  31
ATOM     31  C   UNL A   1      40.765  28.446  28.608  1.00  0.00     0.031 A 
ATOM     32  C   UNL A   1      41.884  29.403  28.901  1.00  0.00     0.074 A 
ATOM     33  C   UNL A   1      41.035  27.154  28.337  1.00  0.00     0.049 A 
ATOM     34  N   UNL A   1      43.176  29.225  28.787  1.00  0.00    -0.248 NA
ATOM     35  C   UNL A   1      41.499  30.740  29.380  1.00  0.00     0.031 C 
ATOM     36  C   UNL A   1      40.038  26.114  28.079  1.00  0.00     0.029 A 
ATOM     37  N   UNL A   1      42.236  26.502  28.213  1.00  0.00    -0.354 N 
ATOM     38  C   UNL A   1      43.758  30.434  29.144  1.00  0.00     0.074 A 
ATOM     39  C   UNL A   1      42.678  31.341  29.474  1.00  0.00     0.031 C 
ATOM     40  C   UNL A   1      40.665  24.954  27.836  1.00  0.00     0.029 A 
ATOM     41  C   UNL A   1      42.105  25.185  27.842  1.00  0.00     0.049 A 
ATOM     42  H   UNL A   1      43.105  26.934  28.375  1.00  0.00     0.167 HD
ATOM     43  C   UNL A   1      45.072  30.758  29.186  1.00  0.00     0.031 A 
ATOM     44  C   UNL A   1      43.034  24.277  27.493  1.00  0.00     0.031 A 
ATOM     45  C   UNL A   1      46.140  29.850  28.856  1.00  0.00     0.049 A 
ATOM     46  C   UNL A   1      44.477  24.685  27.459  1.00  0.00     0.074 A 
ATOM     47  C   UNL A   1      47.505  30.077  28.876  1.00  0.00     0.029 A 
ATOM     48  N   UNL A   1      45.958  28.539  28.446  1.00  0.00    -0.354 N 
ATOM     49  N   UNL A   1      45.014  25.840  27.768  1.00  0.00    -0.248 NA
ATOM     50  C   UNL A   1      45.439  23.669  27.011  1.00  0.00     0.031 C 
ATOM     51  C   UNL A   1      48.149  28.916  28.434  1.00  0.00     0.029 A 
ATOM     52  C   UNL A   1      47.185  27.951  28.184  1.00  0.00     0.049 A 
ATOM     53  H   UNL A   1      45.086  28.091  28.353  1.00  0.00     0.167 HD
ATOM     54  C   UNL A   1      46.378  25.689  27.564  1.00  0.00     0.074 A 
ATOM     55  C   UNL A   1      46.587  24.325  27.118  1.00  0.00     0.031 C 
ATOM     56  C   UNL A   1      47.369  26.597  27.731  1.00  0.00     0.031 A 
BRANCH  43  57
ATOM     57  C   UNL A   1      45.425  32.170  29.563  1.00  0.00    -0.014 A 
ATOM     58  C   UNL A   1      45.552  33.177  28.595  1.00  0.00     0.009 A 
ATOM     59  C   UNL A   1      45.606  32.502  30.916  1.00  0.00     0.009 A 
ATOM     60  C   UNL A   1      45.885  34.481  28.970  1.00  0.00     0.001 A 
ATOM     61  C   UNL A   1      45.916  33.811  31.291  1.00  0.00     0.001 A 
ATOM     62  C   UNL A   1      46.064  34.797  30.317  1.00  0.00     0.000 A 
ENDBRANCH  43  57
BRANCH  44  63
ATOM     63  C   UNL A   1      42.613  22.909  27.100  1.00  0.00    -0.014 A 
ATOM     64  C   UNL A   1      42.589  22.535  25.750  1.00  0.00     0.009 A 
ATOM     65  C   UNL A   1      42.266  21.961  28.077  1.00  0.00     0.009 A 
ATOM     66  C   UNL A   1      42.217  21.239  25.384  1.00  0.00     0.001 A 
ATOM     67  C   UNL A   1      41.921  20.659  27.709  1.00  0.00     0.001 A 
ATOM     68  C   UNL A   1      41.892  20.301  26.363  1.00  0.00     0.000 A 
ENDBRANCH  44  63
BRANCH  56  69
ATOM     69  C   UNL A   1      48.767  26.132  27.451  1.00  0.00    -0.014 A 
ATOM     70  C   UNL A   1      49.597  25.670  28.485  1.00  0.00     0.009 A 
ATOM     71  C   UNL A   1      49.249  26.132  26.133  1.00  0.00     0.009 A 
ATOM     72  C   UNL A   1      50.894  25.239  28.204  1.00  0.00     0.001 A 
ATOM     73  C   UNL A   1      50.540  25.680  25.855  1.00  0.00     0.001 A 
ATOM     74  C   UNL A   1      51.363  25.241  26.891  1.00  0.00     0.000 A 
ENDBRANCH  56  69
ENDBRANCH  30  31
ENDBRANCH  23  25
ENDBRANCH  22  23
ENDBRANCH  21  22
ENDBRANCH   1  21
TORSDOF 15
ENDMDL
MODEL 3
REMARK VINA RESULT:      -9.4      7.200     12.659
REMARK SMILES C[C@H](CC(=O)OCCOC(=O)c1ccc(-c2c3nc(c(-c4ccccc4)c4ccc([nH]4)c(-c4ccccc4)c4nc(c(-c5ccccc5)c5ccc2[nH]5)C=C4)C=C3)cc1)NC(=O)[C@H]1CC(=O)N(C2CC2)C1
REMARK SMILES IDX 7 1 6 2 4 3 5 4 3 5 2 6 1 7 60 8 61 9 62 11 63 12 64 13
REMARK SMILES IDX 71 14 65 15 67 16 66 17 68 18 69 19 70 20 8 21 9 22 10 23
REMARK SMILES IDX 11 24 12 25 13 26 59 27 14 28 58 29 15 30 16 31 17 32 52 33
REMARK SMILES IDX 18 34 57 35 51 36 53 37 19 38 56 39 50 40 49 41 20 43 42 44
REMARK SMILES IDX 27 45 41 46 28 47 31 48 40 49 54 50 29 51 30 52 39 54 55 55
REMARK SMILES IDX 32 56 21 57 22 58 26 59 23 60 25 61 24 62 43 63 44 64 48 65
REMARK SMILES IDX 45 66 47 67 46 68 33 69 34 70 38 71 35 72 37 73 36 74
REMARK H PARENT 60 10 53 42 31 53
REMARK Flexibility Score: inf
ROOT
ATOM      1  C   UNL A   1      32.847  34.897  28.760  1.00  0.00     0.274 C 
ENDROOT
BRANCH   1   2
ATOM      2  O   UNL A   1      33.346  33.559  28.550  1.00  0.00    -0.462 OA
BRANCH   2   3
ATOM      3  C   UNL A   1      34.582  33.481  28.002  1.00  0.00     0.307 C 
ATOM      4  O   UNL A   1      35.083  34.342  27.285  1.00  0.00    -0.252 OA
BRANCH   3   5
ATOM      5  C   UNL A   1      35.348  32.236  28.366  1.00  0.00     0.147 C 
BRANCH   5   6
ATOM      6  C   UNL A   1      35.053  30.909  27.674  1.00  0.00     0.090 C 
ATOM      7  C   UNL A   1      35.984  29.746  28.004  1.00  0.00     0.031 C 
BRANCH   6   8
ATOM      8  N   UNL A   1      33.666  30.497  27.819  1.00  0.00    -0.353 N 
ATOM      9  C   UNL A   1      32.922  29.614  27.098  1.00  0.00     0.225 C 
ATOM     10  H   UNL A   1      33.186  30.928  28.561  1.00  0.00     0.163 HD
ATOM     11  O   UNL A   1      31.760  29.432  27.469  1.00  0.00    -0.275 OA
BRANCH   9  12
ATOM     12  C   UNL A   1      33.458  28.976  25.826  1.00  0.00     0.107 C 
ATOM     13  C   UNL A   1      33.857  27.503  25.885  1.00  0.00     0.115 C 
ATOM     14  C   UNL A   1      32.361  28.967  24.765  1.00  0.00     0.133 C 
ATOM     15  C   UNL A   1      33.559  26.981  24.503  1.00  0.00     0.223 C 
ATOM     16  N   UNL A   1      32.727  27.898  23.873  1.00  0.00    -0.339 N 
ATOM     17  O   UNL A   1      33.987  25.922  24.075  1.00  0.00    -0.275 OA
BRANCH  16  18
ATOM     18  C   UNL A   1      32.110  27.784  22.588  1.00  0.00     0.085 C 
ATOM     19  C   UNL A   1      31.392  26.564  22.086  1.00  0.00     0.027 C 
ATOM     20  C   UNL A   1      30.611  27.792  22.455  1.00  0.00     0.027 C 
ENDBRANCH  16  18
ENDBRANCH   9  12
ENDBRANCH   6   8
ENDBRANCH   5   6
ENDBRANCH   3   5
ENDBRANCH   2   3
ENDBRANCH   1   2
BRANCH   1  21
ATOM     21  C   UNL A   1      33.389  35.472  30.069  1.00  0.00     0.275 C 
BRANCH  21  22
ATOM     22  O   UNL A   1      32.318  35.647  31.016  1.00  0.00    -0.458 OA
BRANCH  22  23
ATOM     23  C   UNL A   1      32.688  35.959  32.276  1.00  0.00     0.338 C 
ATOM     24  O   UNL A   1      32.176  36.785  33.020  1.00  0.00    -0.246 OA
BRANCH  23  25
ATOM     25  C   UNL A   1      33.856  35.159  32.670  1.00  0.00     0.060 A 
ATOM     26  C   UNL A   1      35.147  35.688  32.578  1.00  0.00     0.016 A 
ATOM     27  C   UNL A   1      33.664  33.833  33.056  1.00  0.00     0.016 A 
ATOM     28  C   UNL A   1      36.252  34.877  32.834  1.00  0.00     0.010 A 
ATOM     29  C   UNL A   1      34.767  33.045  33.385  1.00  0.00     0.010 A 
ATOM     30  C   UNL A   1      36.072  33.555  33.266  1.00  0.00    -0.014 A 
BRANCH  30  31
ATOM     31  C   UNL A   1      37.227  32.704  33.639  1.00  0.00     0.031 A 
ATOM     32  C   UNL A   1      37.949  32.926  34.937  1.00  0.00     0.074 A 
ATOM     33  C   UNL A   1      37.668  31.770  32.774  1.00  0.00     0.049 A 
ATOM     34  N   UNL A   1      39.095  32.441  35.340  1.00  0.00    -0.248 NA
ATOM     35  C   UNL A   1      37.295  33.817  35.909  1.00  0.00     0.031 C 
ATOM     36  C   UNL A   1      37.033  31.425  31.501  1.00  0.00     0.029 A 
ATOM     37  N   UNL A   1      38.769  30.952  32.829  1.00  0.00    -0.354 N 
ATOM     38  C   UNL A   1      39.321  32.993  36.594  1.00  0.00     0.074 A 
ATOM     39  C   UNL A   1      38.194  33.856  36.884  1.00  0.00     0.031 C 
ATOM     40  C   UNL A   1      37.748  30.463  30.898  1.00  0.00     0.029 A 
ATOM     41  C   UNL A   1      38.931  30.181  31.703  1.00  0.00     0.049 A 
ATOM     42  H   UNL A   1      39.381  30.921  33.599  1.00  0.00     0.167 HD
ATOM     43  C   UNL A   1      40.375  32.803  37.422  1.00  0.00     0.031 A 
ATOM     44  C   UNL A   1      39.943  29.377  31.332  1.00  0.00     0.031 A 
ATOM     45  C   UNL A   1      41.492  31.943  37.126  1.00  0.00     0.049 A 
ATOM     46  C   UNL A   1      41.142  29.251  32.224  1.00  0.00     0.074 A 
ATOM     47  C   UNL A   1      42.606  31.674  37.902  1.00  0.00     0.029 A 
ATOM     48  N   UNL A   1      41.634  31.214  35.956  1.00  0.00    -0.354 N 
ATOM     49  N   UNL A   1      41.359  29.803  33.393  1.00  0.00    -0.248 NA
ATOM     50  C   UNL A   1      42.242  28.408  31.737  1.00  0.00     0.031 C 
ATOM     51  C   UNL A   1      43.445  30.816  37.182  1.00  0.00     0.029 A 
ATOM     52  C   UNL A   1      42.829  30.514  35.977  1.00  0.00     0.049 A 
ATOM     53  H   UNL A   1      40.983  31.197  35.218  1.00  0.00     0.167 HD
ATOM     54  C   UNL A   1      42.615  29.365  33.789  1.00  0.00     0.074 A 
ATOM     55  C   UNL A   1      43.104  28.491  32.741  1.00  0.00     0.031 C 
ATOM     56  C   UNL A   1      43.301  29.660  34.919  1.00  0.00     0.031 A 
BRANCH  43  57
ATOM     57  C   UNL A   1      40.389  33.573  38.713  1.00  0.00    -0.014 A 
ATOM     58  C   UNL A   1      39.815  33.053  39.883  1.00  0.00     0.009 A 
ATOM     59  C   UNL A   1      41.014  34.830  38.764  1.00  0.00     0.009 A 
ATOM     60  C   UNL A   1      39.836  33.791  41.070  1.00  0.00     0.001 A 
ATOM     61  C   UNL A   1      41.054  35.555  39.957  1.00  0.00     0.001 A 
ATOM     62  C   UNL A   1      40.458  35.038  41.106  1.00  0.00     0.000 A 
ENDBRANCH  43  57
BRANCH  44  63
ATOM     63  C   UNL A   1      39.880  28.669  30.028  1.00  0.00    -0.014 A 
ATOM     64  C   UNL A   1      40.288  29.313  28.852  1.00  0.00     0.009 A 
ATOM     65  C   UNL A   1      39.440  27.337  29.959  1.00  0.00     0.009 A 
ATOM     66  C   UNL A   1      40.252  28.638  27.629  1.00  0.00     0.001 A 
ATOM     67  C   UNL A   1      39.430  26.657  28.740  1.00  0.00     0.001 A 
ATOM     68  C   UNL A   1      39.831  27.310  27.576  1.00  0.00     0.000 A 
ENDBRANCH  44  63
BRANCH  56  69
ATOM     69  C   UNL A   1      44.643  29.010  35.085  1.00  0.00    -0.014 A 
ATOM     70  C   UNL A   1      45.815  29.648  34.649  1.00  0.00     0.009 A 
ATOM     71  C   UNL A   1      44.738  27.758  35.710  1.00  0.00     0.009 A 
ATOM     72  C   UNL A   1      47.055  29.029  34.813  1.00  0.00     0.001 A 
ATOM     73  C   UNL A   1      45.981  27.152  35.892  1.00  0.00     0.001 A 
ATOM     74  C   UNL A   1      47.137  27.785  35.437  1.00  0.00     0.000 A 
ENDBRANCH  56  69
ENDBRANCH  30  31
ENDBRANCH  23  25
ENDBRANCH  22  23
ENDBRANCH  21  22
ENDBRANCH   1  21
TORSDOF 15
ENDMDL
