MODEL 1
REMARK VINA RESULT:     -12.2      0.000      0.000
REMARK SMILES CC[C@@H](NC(=O)N[C@@](C)(CC)C(=O)OCCOC(=O)c1ccc(-c2c3nc(c(-c4ccccc4)c4ccc([nH]4)c(-c4ccccc4)c4nc(c(-c5ccccc5)c5ccc2[nH]5)C=C4)C=C3)cc1)c1cccs1
REMARK SMILES IDX 15 1 14 2 12 3 13 4 8 5 9 6 7 7 4 8 5 9 6 11 3 13 2 14 1 15
REMARK SMILES IDX 68 16 69 17 72 18 70 19 71 20 10 21 11 22 16 23 17 24 18 25
REMARK SMILES IDX 19 26 20 27 21 28 67 29 22 30 66 31 23 32 24 33 25 34 60 35
REMARK SMILES IDX 26 36 65 37 59 38 61 39 27 40 64 41 58 42 57 43 28 45 50 46
REMARK SMILES IDX 35 47 49 48 36 49 39 50 48 51 62 52 37 53 38 54 47 56 63 57
REMARK SMILES IDX 40 58 29 59 30 60 34 61 31 62 33 63 32 64 51 65 52 66 56 67
REMARK SMILES IDX 53 68 55 69 54 70 41 71 42 72 46 73 43 74 45 75 44 76
REMARK H PARENT 4 10 7 12 61 44 39 55
REMARK Flexibility Score: inf
ROOT
ATOM      1  C   UNL A   1      31.640  30.781  26.502  1.00  0.00     0.274 C 
ENDROOT
BRANCH   1   2
ATOM      2  O   UNL A   1      31.433  29.503  25.379  1.00  0.00    -0.460 OA
BRANCH   2   3
ATOM      3  C   UNL A   1      31.163  28.289  24.709  1.00  0.00     0.331 C 
ATOM      4  O   UNL A   1      30.662  27.397  25.413  1.00  0.00    -0.249 OA
BRANCH   3   5
ATOM      5  C   UNL A   1      31.499  27.825  23.025  1.00  0.00     0.136 C 
ATOM      6  C   UNL A   1      32.639  28.745  22.500  1.00  0.00     0.047 C 
BRANCH   5   7
ATOM      7  N   UNL A   1      31.844  26.542  22.276  1.00  0.00    -0.322 N 
ATOM      8  N   UNL A   1      33.666  25.702  23.367  1.00  0.00    -0.331 N 
ATOM      9  C   UNL A   1      33.003  25.850  22.225  1.00  0.00     0.316 C 
ATOM     10  H   UNL A   1      34.591  25.367  23.318  1.00  0.00     0.166 HD
ATOM     11  O   UNL A   1      33.396  25.317  21.199  1.00  0.00    -0.249 OA
ATOM     12  H   UNL A   1      31.108  26.159  21.747  1.00  0.00     0.166 HD
BRANCH   8  13
ATOM     13  C   UNL A   1      33.128  25.996  24.673  1.00  0.00     0.124 C 
BRANCH  13  14
ATOM     14  C   UNL A   1      34.315  27.138  25.547  1.00  0.00     0.027 C 
ATOM     15  C   UNL A   1      34.212  28.163  26.765  1.00  0.00     0.006 C 
ENDBRANCH  13  14
BRANCH  13  16
ATOM     16  C   UNL A   1      32.455  24.537  25.076  1.00  0.00     0.027 A 
ATOM     17  C   UNL A   1      31.293  23.808  24.770  1.00  0.00     0.017 A 
ATOM     18  S   UNL A   1      33.482  23.344  25.918  1.00  0.00    -0.147 S 
ATOM     19  C   UNL A   1      31.030  22.738  25.687  1.00  0.00     0.012 A 
ATOM     20  C   UNL A   1      32.145  22.408  26.407  1.00  0.00     0.065 A 
ENDBRANCH  13  16
ENDBRANCH   8  13
ENDBRANCH   5   7
BRANCH   5  21
ATOM     21  C   UNL A   1      30.190  28.282  22.259  1.00  0.00     0.037 C 
ATOM     22  C   UNL A   1      30.093  29.770  21.903  1.00  0.00     0.007 C 
ENDBRANCH   5  21
ENDBRANCH   3   5
ENDBRANCH   2   3
ENDBRANCH   1   2
BRANCH   1  23
ATOM     23  C   UNL A   1      31.258  32.502  26.506  1.00  0.00     0.275 C 
BRANCH  23  24
ATOM     24  O   UNL A   1      31.814  33.814  27.289  1.00  0.00    -0.458 OA
BRANCH  24  25
ATOM     25  C   UNL A   1      32.989  34.000  27.941  1.00  0.00     0.338 C 
ATOM     26  O   UNL A   1      33.030  34.827  28.855  1.00  0.00    -0.246 OA
BRANCH  25  27
ATOM     27  C   UNL A   1      34.409  33.542  27.997  1.00  0.00     0.060 A 
ATOM     28  C   UNL A   1      34.408  32.151  28.295  1.00  0.00     0.016 A 
ATOM     29  C   UNL A   1      35.343  34.291  28.743  1.00  0.00     0.016 A 
ATOM     30  C   UNL A   1      34.970  31.681  29.499  1.00  0.00     0.010 A 
ATOM     31  C   UNL A   1      36.206  33.676  29.718  1.00  0.00     0.010 A 
ATOM     32  C   UNL A   1      36.036  32.337  30.110  1.00  0.00    -0.014 A 
BRANCH  32  33
ATOM     33  C   UNL A   1      37.014  31.509  30.922  1.00  0.00     0.031 A 
ATOM     34  C   UNL A   1      37.387  31.766  32.372  1.00  0.00     0.074 A 
ATOM     35  C   UNL A   1      37.641  30.483  30.285  1.00  0.00     0.049 A 
ATOM     36  N   UNL A   1      38.442  31.346  33.039  1.00  0.00    -0.248 NA
ATOM     37  C   UNL A   1      36.464  32.567  33.190  1.00  0.00     0.031 C 
ATOM     38  C   UNL A   1      37.344  30.006  28.927  1.00  0.00     0.029 A 
ATOM     39  N   UNL A   1      38.675  29.656  30.671  1.00  0.00    -0.354 N 
ATOM     40  C   UNL A   1      38.344  31.873  34.327  1.00  0.00     0.074 A 
ATOM     41  C   UNL A   1      37.101  32.623  34.359  1.00  0.00     0.031 C 
ATOM     42  C   UNL A   1      38.121  28.974  28.611  1.00  0.00     0.029 A 
ATOM     43  C   UNL A   1      39.111  28.839  29.650  1.00  0.00     0.049 A 
ATOM     44  H   UNL A   1      39.060  29.650  31.577  1.00  0.00     0.167 HD
ATOM     45  C   UNL A   1      39.222  31.759  35.362  1.00  0.00     0.031 A 
ATOM     46  C   UNL A   1      40.241  28.138  29.459  1.00  0.00     0.031 A 
ATOM     47  C   UNL A   1      40.450  30.992  35.303  1.00  0.00     0.049 A 
ATOM     48  C   UNL A   1      41.259  28.148  30.536  1.00  0.00     0.074 A 
ATOM     49  C   UNL A   1      41.429  30.834  36.274  1.00  0.00     0.029 A 
ATOM     50  N   UNL A   1      40.866  30.246  34.207  1.00  0.00    -0.354 N 
ATOM     51  N   UNL A   1      41.210  28.753  31.695  1.00  0.00    -0.248 NA
ATOM     52  C   UNL A   1      42.483  27.387  30.283  1.00  0.00     0.031 C 
ATOM     53  C   UNL A   1      42.461  30.049  35.743  1.00  0.00     0.029 A 
ATOM     54  C   UNL A   1      42.097  29.657  34.466  1.00  0.00     0.049 A 
ATOM     55  H   UNL A   1      40.361  30.149  33.368  1.00  0.00     0.167 HD
ATOM     56  C   UNL A   1      42.392  28.426  32.330  1.00  0.00     0.074 A 
ATOM     57  C   UNL A   1      43.126  27.556  31.429  1.00  0.00     0.031 C 
ATOM     58  C   UNL A   1      42.823  28.810  33.554  1.00  0.00     0.031 A 
BRANCH  45  59
ATOM     59  C   UNL A   1      38.955  32.547  36.629  1.00  0.00    -0.014 A 
ATOM     60  C   UNL A   1      39.456  33.842  36.834  1.00  0.00     0.009 A 
ATOM     61  C   UNL A   1      38.115  31.997  37.617  1.00  0.00     0.009 A 
ATOM     62  C   UNL A   1      39.162  34.543  38.013  1.00  0.00     0.001 A 
ATOM     63  C   UNL A   1      37.801  32.708  38.780  1.00  0.00     0.001 A 
ATOM     64  C   UNL A   1      38.337  33.977  38.984  1.00  0.00     0.000 A 
ENDBRANCH  45  59
BRANCH  46  65
ATOM     65  C   UNL A   1      40.472  27.479  28.143  1.00  0.00    -0.014 A 
ATOM     66  C   UNL A   1      41.193  28.131  27.136  1.00  0.00     0.009 A 
ATOM     67  C   UNL A   1      40.063  26.148  27.931  1.00  0.00     0.009 A 
ATOM     68  C   UNL A   1      41.496  27.468  25.944  1.00  0.00     0.001 A 
ATOM     69  C   UNL A   1      40.404  25.473  26.757  1.00  0.00     0.001 A 
ATOM     70  C   UNL A   1      41.114  26.139  25.761  1.00  0.00     0.000 A 
ENDBRANCH  46  65
BRANCH  58  71
ATOM     71  C   UNL A   1      44.140  28.241  33.988  1.00  0.00    -0.014 A 
ATOM     72  C   UNL A   1      44.222  26.988  34.615  1.00  0.00     0.009 A 
ATOM     73  C   UNL A   1      45.311  28.990  33.796  1.00  0.00     0.009 A 
ATOM     74  C   UNL A   1      45.448  26.514  35.079  1.00  0.00     0.001 A 
ATOM     75  C   UNL A   1      46.540  28.498  34.232  1.00  0.00     0.001 A 
ATOM     76  C   UNL A   1      46.606  27.268  34.884  1.00  0.00     0.000 A 
ENDBRANCH  58  71
ENDBRANCH  32  33
ENDBRANCH  25  27
ENDBRANCH  24  25
ENDBRANCH  23  24
ENDBRANCH   1  23
TORSDOF 16
ENDMDL
MODEL 2
REMARK VINA RESULT:     -11.9      4.493      6.595
REMARK SMILES CC[C@@H](NC(=O)N[C@@](C)(CC)C(=O)OCCOC(=O)c1ccc(-c2c3nc(c(-c4ccccc4)c4ccc([nH]4)c(-c4ccccc4)c4nc(c(-c5ccccc5)c5ccc2[nH]5)C=C4)C=C3)cc1)c1cccs1
REMARK SMILES IDX 15 1 14 2 12 3 13 4 8 5 9 6 7 7 4 8 5 9 6 11 3 13 2 14 1 15
REMARK SMILES IDX 68 16 69 17 72 18 70 19 71 20 10 21 11 22 16 23 17 24 18 25
REMARK SMILES IDX 19 26 20 27 21 28 67 29 22 30 66 31 23 32 24 33 25 34 60 35
REMARK SMILES IDX 26 36 65 37 59 38 61 39 27 40 64 41 58 42 57 43 28 45 50 46
REMARK SMILES IDX 35 47 49 48 36 49 39 50 48 51 62 52 37 53 38 54 47 56 63 57
REMARK SMILES IDX 40 58 29 59 30 60 34 61 31 62 33 63 32 64 51 65 52 66 56 67
REMARK SMILES IDX 53 68 55 69 54 70 41 71 42 72 46 73 43 74 45 75 44 76
REMARK H PARENT 4 10 7 12 61 44 39 55
REMARK Flexibility Score: inf
ROOT
ATOM      1  C   UNL A   1      31.419  27.644  26.267  1.00  0.00     0.274 C 
ENDROOT
BRANCH   1   2
ATOM      2  O   UNL A   1      30.998  26.097  25.662  1.00  0.00    -0.460 OA
BRANCH   2   3
ATOM      3  C   UNL A   1      30.923  24.852  24.999  1.00  0.00     0.331 C 
ATOM      4  O   UNL A   1      30.283  24.856  23.936  1.00  0.00    -0.249 OA
BRANCH   3   5
ATOM      5  C   UNL A   1      31.548  23.263  25.500  1.00  0.00     0.136 C 
ATOM      6  C   UNL A   1      30.461  22.582  26.379  1.00  0.00     0.047 C 
BRANCH   5   7
ATOM      7  N   UNL A   1      32.125  22.031  24.811  1.00  0.00    -0.322 N 
ATOM      8  N   UNL A   1      33.266  22.851  23.010  1.00  0.00    -0.331 N 
ATOM      9  C   UNL A   1      32.549  21.865  23.540  1.00  0.00     0.316 C 
ATOM     10  H   UNL A   1      33.423  22.831  22.039  1.00  0.00     0.166 HD
ATOM     11  O   UNL A   1      32.354  20.831  22.920  1.00  0.00    -0.249 OA
ATOM     12  H   UNL A   1      32.200  21.232  25.382  1.00  0.00     0.166 HD
BRANCH   8  13
ATOM     13  C   UNL A   1      33.831  23.948  23.759  1.00  0.00     0.124 C 
BRANCH  13  14
ATOM     14  C   UNL A   1      33.276  25.540  22.963  1.00  0.00     0.027 C 
ATOM     15  C   UNL A   1      32.685  25.949  21.538  1.00  0.00     0.006 C 
ENDBRANCH  13  14
BRANCH  13  16
ATOM     16  C   UNL A   1      35.319  23.334  24.148  1.00  0.00     0.027 A 
ATOM     17  C   UNL A   1      36.328  22.580  23.525  1.00  0.00     0.017 A 
ATOM     18  S   UNL A   1      36.103  23.918  25.642  1.00  0.00    -0.147 S 
ATOM     19  C   UNL A   1      37.269  22.011  24.445  1.00  0.00     0.012 A 
ATOM     20  C   UNL A   1      37.222  22.635  25.661  1.00  0.00     0.065 A 
ENDBRANCH  13  16
ENDBRANCH   8  13
ENDBRANCH   5   7
BRANCH   5  21
ATOM     21  C   UNL A   1      32.727  23.638  26.489  1.00  0.00     0.037 C 
ATOM     22  C   UNL A   1      33.107  22.578  27.529  1.00  0.00     0.007 C 
ENDBRANCH   5  21
ENDBRANCH   3   5
ENDBRANCH   2   3
ENDBRANCH   1   2
BRANCH   1  23
ATOM     23  C   UNL A   1      32.703  28.262  27.306  1.00  0.00     0.275 C 
BRANCH  23  24
ATOM     24  O   UNL A   1      34.252  28.706  27.100  1.00  0.00    -0.458 OA
BRANCH  24  25
ATOM     25  C   UNL A   1      34.933  29.749  27.638  1.00  0.00     0.338 C 
ATOM     26  O   UNL A   1      34.428  30.873  27.584  1.00  0.00    -0.246 OA
BRANCH  25  27
ATOM     27  C   UNL A   1      36.192  30.110  28.355  1.00  0.00     0.060 A 
ATOM     28  C   UNL A   1      37.244  30.156  27.397  1.00  0.00     0.016 A 
ATOM     29  C   UNL A   1      36.524  29.427  29.544  1.00  0.00     0.016 A 
ATOM     30  C   UNL A   1      38.317  29.247  27.476  1.00  0.00     0.010 A 
ATOM     31  C   UNL A   1      37.822  28.834  29.743  1.00  0.00     0.010 A 
ATOM     32  C   UNL A   1      38.756  28.742  28.698  1.00  0.00    -0.014 A 
BRANCH  32  33
ATOM     33  C   UNL A   1      40.223  28.378  28.835  1.00  0.00     0.031 A 
ATOM     34  C   UNL A   1      41.349  29.363  29.099  1.00  0.00     0.074 A 
ATOM     35  C   UNL A   1      40.560  27.072  28.661  1.00  0.00     0.049 A 
ATOM     36  N   UNL A   1      42.641  29.212  28.893  1.00  0.00    -0.248 NA
ATOM     37  C   UNL A   1      41.002  30.666  29.686  1.00  0.00     0.031 C 
ATOM     38  C   UNL A   1      39.617  25.954  28.505  1.00  0.00     0.029 A 
ATOM     39  N   UNL A   1      41.784  26.443  28.562  1.00  0.00    -0.354 N 
ATOM     40  C   UNL A   1      43.253  30.410  29.267  1.00  0.00     0.074 A 
ATOM     41  C   UNL A   1      42.188  31.272  29.745  1.00  0.00     0.031 C 
ATOM     42  C   UNL A   1      40.270  24.803  28.377  1.00  0.00     0.029 A 
ATOM     43  C   UNL A   1      41.671  25.109  28.233  1.00  0.00     0.049 A 
ATOM     44  H   UNL A   1      42.644  26.897  28.712  1.00  0.00     0.167 HD
ATOM     45  C   UNL A   1      44.568  30.753  29.187  1.00  0.00     0.031 A 
ATOM     46  C   UNL A   1      42.539  24.214  27.733  1.00  0.00     0.031 A 
ATOM     47  C   UNL A   1      45.612  29.865  28.716  1.00  0.00     0.049 A 
ATOM     48  C   UNL A   1      43.938  24.650  27.508  1.00  0.00     0.074 A 
ATOM     49  C   UNL A   1      46.968  30.115  28.561  1.00  0.00     0.029 A 
ATOM     50  N   UNL A   1      45.413  28.546  28.327  1.00  0.00    -0.354 N 
ATOM     51  N   UNL A   1      44.473  25.819  27.745  1.00  0.00    -0.248 NA
ATOM     52  C   UNL A   1      44.849  23.651  26.947  1.00  0.00     0.031 C 
ATOM     53  C   UNL A   1      47.573  28.974  28.020  1.00  0.00     0.029 A 
ATOM     54  C   UNL A   1      46.611  27.985  27.902  1.00  0.00     0.049 A 
ATOM     55  H   UNL A   1      44.549  28.077  28.349  1.00  0.00     0.167 HD
ATOM     56  C   UNL A   1      45.801  25.696  27.385  1.00  0.00     0.074 A 
ATOM     57  C   UNL A   1      45.987  24.329  26.930  1.00  0.00     0.031 C 
ATOM     58  C   UNL A   1      46.777  26.631  27.435  1.00  0.00     0.031 A 
BRANCH  45  59
ATOM     59  C   UNL A   1      44.968  32.176  29.528  1.00  0.00    -0.014 A 
ATOM     60  C   UNL A   1      45.416  32.550  30.804  1.00  0.00     0.009 A 
ATOM     61  C   UNL A   1      44.960  33.153  28.515  1.00  0.00     0.009 A 
ATOM     62  C   UNL A   1      45.799  33.873  31.067  1.00  0.00     0.001 A 
ATOM     63  C   UNL A   1      45.368  34.467  28.772  1.00  0.00     0.001 A 
ATOM     64  C   UNL A   1      45.774  34.830  30.053  1.00  0.00     0.000 A 
ENDBRANCH  45  59
BRANCH  46  65
ATOM     65  C   UNL A   1      42.042  22.870  27.326  1.00  0.00    -0.014 A 
ATOM     66  C   UNL A   1      42.099  21.790  28.215  1.00  0.00     0.009 A 
ATOM     67  C   UNL A   1      41.408  22.691  26.081  1.00  0.00     0.009 A 
ATOM     68  C   UNL A   1      41.537  20.559  27.865  1.00  0.00     0.001 A 
ATOM     69  C   UNL A   1      40.810  21.474  25.751  1.00  0.00     0.001 A 
ATOM     70  C   UNL A   1      40.883  20.406  26.642  1.00  0.00     0.000 A 
ENDBRANCH  46  65
BRANCH  58  71
ATOM     71  C   UNL A   1      48.141  26.172  27.020  1.00  0.00    -0.014 A 
ATOM     72  C   UNL A   1      49.012  25.557  27.932  1.00  0.00     0.009 A 
ATOM     73  C   UNL A   1      48.571  26.392  25.702  1.00  0.00     0.009 A 
ATOM     74  C   UNL A   1      50.305  25.208  27.543  1.00  0.00     0.001 A 
ATOM     75  C   UNL A   1      49.853  26.012  25.308  1.00  0.00     0.001 A 
ATOM     76  C   UNL A   1      50.722  25.432  26.230  1.00  0.00     0.000 A 
ENDBRANCH  58  71
ENDBRANCH  32  33
ENDBRANCH  25  27
ENDBRANCH  24  25
ENDBRANCH  23  24
ENDBRANCH   1  23
TORSDOF 16
ENDMDL
MODEL 3
REMARK VINA RESULT:     -11.8      2.492      7.342
REMARK SMILES CC[C@@H](NC(=O)N[C@@](C)(CC)C(=O)OCCOC(=O)c1ccc(-c2c3nc(c(-c4ccccc4)c4ccc([nH]4)c(-c4ccccc4)c4nc(c(-c5ccccc5)c5ccc2[nH]5)C=C4)C=C3)cc1)c1cccs1
REMARK SMILES IDX 15 1 14 2 12 3 13 4 8 5 9 6 7 7 4 8 5 9 6 11 3 13 2 14 1 15
REMARK SMILES IDX 68 16 69 17 72 18 70 19 71 20 10 21 11 22 16 23 17 24 18 25
REMARK SMILES IDX 19 26 20 27 21 28 67 29 22 30 66 31 23 32 24 33 25 34 60 35
REMARK SMILES IDX 26 36 65 37 59 38 61 39 27 40 64 41 58 42 57 43 28 45 50 46
REMARK SMILES IDX 35 47 49 48 36 49 39 50 48 51 62 52 37 53 38 54 47 56 63 57
REMARK SMILES IDX 40 58 29 59 30 60 34 61 31 62 33 63 32 64 51 65 52 66 56 67
REMARK SMILES IDX 53 68 55 69 54 70 41 71 42 72 46 73 43 74 45 75 44 76
REMARK H PARENT 4 10 7 12 61 44 39 55
REMARK Flexibility Score: inf
ROOT
ATOM      1  C   UNL A   1      36.314  23.201  23.394  1.00  0.00     0.274 C 
ENDROOT
BRANCH   1   2
ATOM      2  O   UNL A   1      34.752  23.906  23.381  1.00  0.00    -0.460 OA
BRANCH   2   3
ATOM      3  C   UNL A   1      33.371  24.194  23.457  1.00  0.00     0.331 C 
ATOM      4  O   UNL A   1      32.947  24.984  22.598  1.00  0.00    -0.249 OA
BRANCH   3   5
ATOM      5  C   UNL A   1      32.165  23.648  24.645  1.00  0.00     0.136 C 
ATOM      6  C   UNL A   1      32.890  23.478  26.011  1.00  0.00     0.047 C 
BRANCH   5   7
ATOM      7  N   UNL A   1      30.802  24.122  25.140  1.00  0.00    -0.322 N 
ATOM      8  N   UNL A   1      31.233  26.056  26.275  1.00  0.00    -0.331 N 
ATOM      9  C   UNL A   1      30.487  24.963  26.148  1.00  0.00     0.316 C 
ATOM     10  H   UNL A   1      31.140  26.579  27.103  1.00  0.00     0.166 HD
ATOM     11  O   UNL A   1      29.519  24.779  26.869  1.00  0.00    -0.249 OA
ATOM     12  H   UNL A   1      30.032  23.757  24.647  1.00  0.00     0.166 HD
BRANCH   8  13
ATOM     13  C   UNL A   1      32.170  26.529  25.285  1.00  0.00     0.124 C 
BRANCH  13  14
ATOM     14  C   UNL A   1      33.762  26.964  26.152  1.00  0.00     0.027 C 
ATOM     15  C   UNL A   1      34.415  28.306  26.716  1.00  0.00     0.006 C 
ENDBRANCH  13  14
BRANCH  13  16
ATOM     16  C   UNL A   1      31.164  27.372  24.273  1.00  0.00     0.027 A 
ATOM     17  C   UNL A   1      30.162  27.087  23.330  1.00  0.00     0.017 A 
ATOM     18  S   UNL A   1      31.017  29.135  24.514  1.00  0.00    -0.147 S 
ATOM     19  C   UNL A   1      29.860  28.189  22.464  1.00  0.00     0.012 A 
ATOM     20  C   UNL A   1      30.309  29.373  22.983  1.00  0.00     0.065 A 
ENDBRANCH  13  16
ENDBRANCH   8  13
ENDBRANCH   5   7
BRANCH   5  21
ATOM     21  C   UNL A   1      31.818  22.182  24.157  1.00  0.00     0.037 C 
ATOM     22  C   UNL A   1      32.180  21.041  25.115  1.00  0.00     0.007 C 
ENDBRANCH   5  21
ENDBRANCH   3   5
ENDBRANCH   2   3
ENDBRANCH   1   2
BRANCH   1  23
ATOM     23  C   UNL A   1      37.223  22.221  24.543  1.00  0.00     0.275 C 
BRANCH  23  24
ATOM     24  O   UNL A   1      38.355  22.506  25.674  1.00  0.00    -0.458 OA
BRANCH  24  25
ATOM     25  C   UNL A   1      38.666  23.659  26.317  1.00  0.00     0.338 C 
ATOM     26  O   UNL A   1      37.768  24.477  26.528  1.00  0.00    -0.246 OA
BRANCH  25  27
ATOM     27  C   UNL A   1      39.794  24.408  26.946  1.00  0.00     0.060 A 
ATOM     28  C   UNL A   1      39.439  24.682  28.297  1.00  0.00     0.016 A 
ATOM     29  C   UNL A   1      40.352  25.510  26.263  1.00  0.00     0.016 A 
ATOM     30  C   UNL A   1      39.271  26.010  28.733  1.00  0.00     0.010 A 
ATOM     31  C   UNL A   1      40.532  26.789  26.901  1.00  0.00     0.010 A 
ATOM     32  C   UNL A   1      39.993  27.059  28.170  1.00  0.00    -0.014 A 
BRANCH  32  33
ATOM     33  C   UNL A   1      40.319  28.254  29.046  1.00  0.00     0.031 A 
ATOM     34  C   UNL A   1      41.465  28.326  30.041  1.00  0.00     0.074 A 
ATOM     35  C   UNL A   1      39.489  29.330  28.968  1.00  0.00     0.049 A 
ATOM     36  N   UNL A   1      41.621  29.142  31.062  1.00  0.00    -0.248 NA
ATOM     37  C   UNL A   1      42.589  27.393  29.866  1.00  0.00     0.031 C 
ATOM     38  C   UNL A   1      38.395  29.502  28.000  1.00  0.00     0.029 A 
ATOM     39  N   UNL A   1      39.405  30.484  29.719  1.00  0.00    -0.354 N 
ATOM     40  C   UNL A   1      42.819  28.790  31.683  1.00  0.00     0.074 A 
ATOM     41  C   UNL A   1      43.371  27.699  30.900  1.00  0.00     0.031 C 
ATOM     42  C   UNL A   1      37.791  30.673  28.178  1.00  0.00     0.029 A 
ATOM     43  C   UNL A   1      38.307  31.251  29.393  1.00  0.00     0.049 A 
ATOM     44  H   UNL A   1      40.058  30.733  30.411  1.00  0.00     0.167 HD
ATOM     45  C   UNL A   1      43.379  29.312  32.810  1.00  0.00     0.031 A 
ATOM     46  C   UNL A   1      37.659  32.238  30.032  1.00  0.00     0.031 A 
ATOM     47  C   UNL A   1      42.809  30.411  33.564  1.00  0.00     0.049 A 
ATOM     48  C   UNL A   1      38.196  32.694  31.337  1.00  0.00     0.074 A 
ATOM     49  C   UNL A   1      43.269  30.998  34.735  1.00  0.00     0.029 A 
ATOM     50  N   UNL A   1      41.651  31.095  33.216  1.00  0.00    -0.354 N 
ATOM     51  N   UNL A   1      39.255  32.267  31.974  1.00  0.00    -0.248 NA
ATOM     52  C   UNL A   1      37.453  33.759  32.011  1.00  0.00     0.031 C 
ATOM     53  C   UNL A   1      42.358  31.987  35.125  1.00  0.00     0.029 A 
ATOM     54  C   UNL A   1      41.366  32.069  34.163  1.00  0.00     0.049 A 
ATOM     55  H   UNL A   1      41.111  30.914  32.413  1.00  0.00     0.167 HD
ATOM     56  C   UNL A   1      39.327  33.031  33.122  1.00  0.00     0.074 A 
ATOM     57  C   UNL A   1      38.210  33.958  33.080  1.00  0.00     0.031 C 
ATOM     58  C   UNL A   1      40.242  32.971  34.117  1.00  0.00     0.031 A 
BRANCH  45  59
ATOM     59  C   UNL A   1      44.627  28.659  33.369  1.00  0.00    -0.014 A 
ATOM     60  C   UNL A   1      45.920  29.110  33.060  1.00  0.00     0.009 A 
ATOM     61  C   UNL A   1      44.498  27.602  34.290  1.00  0.00     0.009 A 
ATOM     62  C   UNL A   1      47.047  28.491  33.620  1.00  0.00     0.001 A 
ATOM     63  C   UNL A   1      45.621  27.002  34.869  1.00  0.00     0.001 A 
ATOM     64  C   UNL A   1      46.897  27.437  34.522  1.00  0.00     0.000 A 
ENDBRANCH  45  59
BRANCH  46  65
ATOM     65  C   UNL A   1      36.380  32.754  29.467  1.00  0.00    -0.014 A 
ATOM     66  C   UNL A   1      36.370  33.886  28.645  1.00  0.00     0.009 A 
ATOM     67  C   UNL A   1      35.178  32.046  29.663  1.00  0.00     0.009 A 
ATOM     68  C   UNL A   1      35.185  34.303  28.033  1.00  0.00     0.001 A 
ATOM     69  C   UNL A   1      34.004  32.439  29.018  1.00  0.00     0.001 A 
ATOM     70  C   UNL A   1      34.008  33.573  28.209  1.00  0.00     0.000 A 
ENDBRANCH  46  65
BRANCH  58  71
ATOM     71  C   UNL A   1      40.077  33.977  35.215  1.00  0.00    -0.014 A 
ATOM     72  C   UNL A   1      39.355  33.674  36.379  1.00  0.00     0.009 A 
ATOM     73  C   UNL A   1      40.625  35.260  35.061  1.00  0.00     0.009 A 
ATOM     74  C   UNL A   1      39.149  34.651  37.352  1.00  0.00     0.001 A 
ATOM     75  C   UNL A   1      40.445  36.225  36.052  1.00  0.00     0.001 A 
ATOM     76  C   UNL A   1      39.698  35.924  37.189  1.00  0.00     0.000 A 
ENDBRANCH  58  71
ENDBRANCH  32  33
ENDBRANCH  25  27
ENDBRANCH  24  25
ENDBRANCH  23  24
ENDBRANCH   1  23
TORSDOF 16
ENDMDL
