MODEL 1
REMARK VINA RESULT:     -10.6      0.000      0.000
REMARK SMILES O=C(C[C@@H]1CCCCO1)N[C@]1(C(=O)OCCOC(=O)c2ccc(-c3c4nc(c(-c5ccccc5)c5ccc([nH]5)c(-c5ccccc5)c5nc(c(-c6ccccc6)c6ccc3[nH]6)C=C5)C=C4)cc2)CCOC1
REMARK SMILES IDX 15 1 14 2 12 3 13 4 11 5 68 6 71 7 69 8 70 9 10 10 1 11 2 12
REMARK SMILES IDX 3 14 4 15 5 16 9 17 6 18 8 19 7 20 16 21 17 22 18 23 19 24
REMARK SMILES IDX 20 25 21 26 67 27 22 28 66 29 23 30 24 31 25 32 60 33 26 34
REMARK SMILES IDX 65 35 59 36 61 37 27 38 64 39 58 40 57 41 28 43 50 44 35 45
REMARK SMILES IDX 49 46 36 47 39 48 48 49 62 50 37 51 38 52 47 54 63 55 40 56
REMARK SMILES IDX 29 57 30 58 34 59 31 60 33 61 32 62 51 63 52 64 56 65 53 66
REMARK SMILES IDX 55 67 54 68 41 69 42 70 46 71 43 72 45 73 44 74
REMARK H PARENT 10 13 61 42 39 53
REMARK Flexibility Score: inf
ROOT
ATOM      1  C   UNL A   1      31.827  29.624  26.827  1.00  0.00     0.274 C 
ENDROOT
BRANCH   1   2
ATOM      2  O   UNL A   1      31.922  29.135  25.477  1.00  0.00    -0.460 OA
BRANCH   2   3
ATOM      3  C   UNL A   1      32.160  27.803  25.327  1.00  0.00     0.334 C 
ATOM      4  O   UNL A   1      32.336  27.048  26.276  1.00  0.00    -0.249 OA
BRANCH   3   5
ATOM      5  C   UNL A   1      32.097  27.349  23.845  1.00  0.00     0.163 C 
ATOM      6  C   UNL A   1      33.353  27.696  23.049  1.00  0.00     0.071 C 
ATOM      7  C   UNL A   1      32.094  25.824  23.740  1.00  0.00     0.200 C 
ATOM      8  C   UNL A   1      33.346  26.656  21.956  1.00  0.00     0.163 C 
ATOM      9  O   UNL A   1      32.810  25.467  22.538  1.00  0.00    -0.378 OA
BRANCH   5  10
ATOM     10  N   UNL A   1      30.937  27.981  23.189  1.00  0.00    -0.338 N 
ATOM     11  O   UNL A   1      29.316  26.478  23.842  1.00  0.00    -0.275 OA
ATOM     12  C   UNL A   1      29.639  27.573  23.400  1.00  0.00     0.223 C 
ATOM     13  H   UNL A   1      31.099  28.731  22.572  1.00  0.00     0.164 HD
BRANCH  12  14
ATOM     14  C   UNL A   1      28.621  28.642  23.114  1.00  0.00     0.132 C 
BRANCH  14  15
ATOM     15  C   UNL A   1      29.314  29.942  22.708  1.00  0.00     0.127 C 
ATOM     16  C   UNL A   1      28.869  31.166  23.542  1.00  0.00     0.033 C 
ATOM     17  O   UNL A   1      29.209  30.070  21.300  1.00  0.00    -0.378 OA
ATOM     18  C   UNL A   1      28.418  32.420  22.824  1.00  0.00     0.005 C 
ATOM     19  C   UNL A   1      28.053  30.790  20.915  1.00  0.00     0.160 C 
ATOM     20  C   UNL A   1      28.256  32.225  21.344  1.00  0.00     0.029 C 
ENDBRANCH  14  15
ENDBRANCH  12  14
ENDBRANCH   5  10
ENDBRANCH   3   5
ENDBRANCH   2   3
ENDBRANCH   1   2
BRANCH   1  21
ATOM     21  C   UNL A   1      32.960  30.620  27.101  1.00  0.00     0.275 C 
BRANCH  21  22
ATOM     22  O   UNL A   1      34.209  29.979  27.462  1.00  0.00    -0.458 OA
BRANCH  22  23
ATOM     23  C   UNL A   1      34.965  30.612  28.402  1.00  0.00     0.338 C 
ATOM     24  O   UNL A   1      34.590  31.487  29.154  1.00  0.00    -0.246 OA
BRANCH  23  25
ATOM     25  C   UNL A   1      36.322  29.986  28.499  1.00  0.00     0.060 A 
ATOM     26  C   UNL A   1      37.159  30.087  27.389  1.00  0.00     0.016 A 
ATOM     27  C   UNL A   1      36.802  29.327  29.638  1.00  0.00     0.016 A 
ATOM     28  C   UNL A   1      38.499  29.662  27.471  1.00  0.00     0.010 A 
ATOM     29  C   UNL A   1      38.131  28.830  29.686  1.00  0.00     0.010 A 
ATOM     30  C   UNL A   1      39.022  29.027  28.621  1.00  0.00    -0.014 A 
BRANCH  30  31
ATOM     31  C   UNL A   1      40.443  28.503  28.568  1.00  0.00     0.031 A 
ATOM     32  C   UNL A   1      41.508  29.340  29.202  1.00  0.00     0.074 A 
ATOM     33  C   UNL A   1      40.860  27.343  28.003  1.00  0.00     0.049 A 
ATOM     34  N   UNL A   1      42.796  29.122  29.223  1.00  0.00    -0.248 NA
ATOM     35  C   UNL A   1      41.098  30.643  29.745  1.00  0.00     0.031 C 
ATOM     36  C   UNL A   1      40.103  26.542  27.071  1.00  0.00     0.029 A 
ATOM     37  N   UNL A   1      42.001  26.574  28.179  1.00  0.00    -0.354 N 
ATOM     38  C   UNL A   1      43.358  30.311  29.646  1.00  0.00     0.074 A 
ATOM     39  C   UNL A   1      42.271  31.206  29.976  1.00  0.00     0.031 C 
ATOM     40  C   UNL A   1      40.587  25.292  27.033  1.00  0.00     0.029 A 
ATOM     41  C   UNL A   1      41.867  25.267  27.717  1.00  0.00     0.049 A 
ATOM     42  H   UNL A   1      42.826  26.920  28.591  1.00  0.00     0.167 HD
ATOM     43  C   UNL A   1      44.665  30.656  29.635  1.00  0.00     0.031 A 
ATOM     44  C   UNL A   1      42.705  24.202  27.740  1.00  0.00     0.031 A 
ATOM     45  C   UNL A   1      45.724  29.784  29.207  1.00  0.00     0.049 A 
ATOM     46  C   UNL A   1      44.159  24.552  27.900  1.00  0.00     0.074 A 
ATOM     47  C   UNL A   1      47.073  30.060  29.102  1.00  0.00     0.029 A 
ATOM     48  N   UNL A   1      45.550  28.466  28.800  1.00  0.00    -0.354 N 
ATOM     49  N   UNL A   1      44.682  25.708  28.222  1.00  0.00    -0.248 NA
ATOM     50  C   UNL A   1      45.143  23.529  27.518  1.00  0.00     0.031 C 
ATOM     51  C   UNL A   1      47.714  28.918  28.610  1.00  0.00     0.029 A 
ATOM     52  C   UNL A   1      46.776  27.908  28.477  1.00  0.00     0.049 A 
ATOM     53  H   UNL A   1      44.684  27.999  28.749  1.00  0.00     0.167 HD
ATOM     54  C   UNL A   1      46.042  25.581  28.008  1.00  0.00     0.074 A 
ATOM     55  C   UNL A   1      46.279  24.210  27.601  1.00  0.00     0.031 C 
ATOM     56  C   UNL A   1      46.996  26.536  28.092  1.00  0.00     0.031 A 
BRANCH  43  57
ATOM     57  C   UNL A   1      44.950  32.095  29.952  1.00  0.00    -0.014 A 
ATOM     58  C   UNL A   1      45.115  33.050  28.937  1.00  0.00     0.009 A 
ATOM     59  C   UNL A   1      45.191  32.464  31.285  1.00  0.00     0.009 A 
ATOM     60  C   UNL A   1      45.590  34.326  29.245  1.00  0.00     0.001 A 
ATOM     61  C   UNL A   1      45.626  33.753  31.593  1.00  0.00     0.001 A 
ATOM     62  C   UNL A   1      45.846  34.675  30.570  1.00  0.00     0.000 A 
ENDBRANCH  43  57
BRANCH  44  63
ATOM     63  C   UNL A   1      42.308  22.795  27.373  1.00  0.00    -0.014 A 
ATOM     64  C   UNL A   1      42.677  22.244  26.127  1.00  0.00     0.009 A 
ATOM     65  C   UNL A   1      41.522  21.994  28.216  1.00  0.00     0.009 A 
ATOM     66  C   UNL A   1      42.294  20.942  25.762  1.00  0.00     0.001 A 
ATOM     67  C   UNL A   1      41.197  20.674  27.883  1.00  0.00     0.001 A 
ATOM     68  C   UNL A   1      41.577  20.148  26.653  1.00  0.00     0.000 A 
ENDBRANCH  44  63
BRANCH  56  69
ATOM     69  C   UNL A   1      48.406  26.103  27.839  1.00  0.00    -0.014 A 
ATOM     70  C   UNL A   1      48.983  26.146  26.561  1.00  0.00     0.009 A 
ATOM     71  C   UNL A   1      49.182  25.687  28.932  1.00  0.00     0.009 A 
ATOM     72  C   UNL A   1      50.315  25.763  26.385  1.00  0.00     0.001 A 
ATOM     73  C   UNL A   1      50.516  25.330  28.756  1.00  0.00     0.001 A 
ATOM     74  C   UNL A   1      51.080  25.363  27.482  1.00  0.00     0.000 A 
ENDBRANCH  56  69
ENDBRANCH  30  31
ENDBRANCH  23  25
ENDBRANCH  22  23
ENDBRANCH  21  22
ENDBRANCH   1  21
TORSDOF 14
ENDMDL
MODEL 2
REMARK VINA RESULT:     -10.6      1.227      6.180
REMARK SMILES O=C(C[C@@H]1CCCCO1)N[C@]1(C(=O)OCCOC(=O)c2ccc(-c3c4nc(c(-c5ccccc5)c5ccc([nH]5)c(-c5ccccc5)c5nc(c(-c6ccccc6)c6ccc3[nH]6)C=C5)C=C4)cc2)CCOC1
REMARK SMILES IDX 15 1 14 2 12 3 13 4 11 5 68 6 71 7 69 8 70 9 10 10 1 11 2 12
REMARK SMILES IDX 3 14 4 15 5 16 9 17 6 18 8 19 7 20 16 21 17 22 18 23 19 24
REMARK SMILES IDX 20 25 21 26 67 27 22 28 66 29 23 30 24 31 25 32 60 33 26 34
REMARK SMILES IDX 65 35 59 36 61 37 27 38 64 39 58 40 57 41 28 43 50 44 35 45
REMARK SMILES IDX 49 46 36 47 39 48 48 49 62 50 37 51 38 52 47 54 63 55 40 56
REMARK SMILES IDX 29 57 30 58 34 59 31 60 33 61 32 62 51 63 52 64 56 65 53 66
REMARK SMILES IDX 55 67 54 68 41 69 42 70 46 71 43 72 45 73 44 74
REMARK H PARENT 10 13 61 42 39 53
REMARK Flexibility Score: inf
ROOT
ATOM      1  C   UNL A   1      32.559  29.642  27.272  1.00  0.00     0.274 C 
ENDROOT
BRANCH   1   2
ATOM      2  O   UNL A   1      32.035  29.318  25.971  1.00  0.00    -0.460 OA
BRANCH   2   3
ATOM      3  C   UNL A   1      31.759  28.006  25.736  1.00  0.00     0.334 C 
ATOM      4  O   UNL A   1      31.302  27.259  26.592  1.00  0.00    -0.249 OA
BRANCH   3   5
ATOM      5  C   UNL A   1      32.008  27.600  24.259  1.00  0.00     0.163 C 
ATOM      6  C   UNL A   1      33.339  28.102  23.706  1.00  0.00     0.071 C 
ATOM      7  C   UNL A   1      32.186  26.087  24.132  1.00  0.00     0.200 C 
ATOM      8  C   UNL A   1      33.637  27.105  22.614  1.00  0.00     0.163 C 
ATOM      9  O   UNL A   1      33.137  25.847  23.071  1.00  0.00    -0.378 OA
BRANCH   5  10
ATOM     10  N   UNL A   1      30.920  28.132  23.416  1.00  0.00    -0.338 N 
ATOM     11  O   UNL A   1      29.286  26.602  23.964  1.00  0.00    -0.275 OA
ATOM     12  C   UNL A   1      29.622  27.679  23.489  1.00  0.00     0.223 C 
ATOM     13  H   UNL A   1      31.133  28.846  22.773  1.00  0.00     0.164 HD
BRANCH  12  14
ATOM     14  C   UNL A   1      28.611  28.677  22.998  1.00  0.00     0.132 C 
BRANCH  14  15
ATOM     15  C   UNL A   1      29.289  30.009  22.680  1.00  0.00     0.127 C 
ATOM     16  C   UNL A   1      28.800  31.179  23.567  1.00  0.00     0.033 C 
ATOM     17  O   UNL A   1      29.216  30.211  21.279  1.00  0.00    -0.378 OA
ATOM     18  C   UNL A   1      28.343  32.461  22.905  1.00  0.00     0.005 C 
ATOM     19  C   UNL A   1      28.056  30.930  20.903  1.00  0.00     0.160 C 
ATOM     20  C   UNL A   1      28.222  32.343  21.413  1.00  0.00     0.029 C 
ENDBRANCH  14  15
ENDBRANCH  12  14
ENDBRANCH   5  10
ENDBRANCH   3   5
ENDBRANCH   2   3
ENDBRANCH   1   2
BRANCH   1  21
ATOM     21  C   UNL A   1      33.911  30.349  27.127  1.00  0.00     0.275 C 
BRANCH  21  22
ATOM     22  O   UNL A   1      35.014  29.591  27.686  1.00  0.00    -0.458 OA
BRANCH  22  23
ATOM     23  C   UNL A   1      35.761  30.220  28.636  1.00  0.00     0.338 C 
ATOM     24  O   UNL A   1      35.342  30.942  29.516  1.00  0.00    -0.246 OA
BRANCH  23  25
ATOM     25  C   UNL A   1      37.193  29.791  28.553  1.00  0.00     0.060 A 
ATOM     26  C   UNL A   1      37.756  29.667  27.283  1.00  0.00     0.016 A 
ATOM     27  C   UNL A   1      37.999  29.526  29.667  1.00  0.00     0.016 A 
ATOM     28  C   UNL A   1      39.135  29.424  27.139  1.00  0.00     0.010 A 
ATOM     29  C   UNL A   1      39.373  29.204  29.512  1.00  0.00     0.010 A 
ATOM     30  C   UNL A   1      39.980  29.190  28.248  1.00  0.00    -0.014 A 
BRANCH  30  31
ATOM     31  C   UNL A   1      41.427  28.824  27.983  1.00  0.00     0.031 A 
ATOM     32  C   UNL A   1      41.702  27.454  27.449  1.00  0.00     0.074 A 
ATOM     33  C   UNL A   1      42.513  29.612  28.177  1.00  0.00     0.049 A 
ATOM     34  N   UNL A   1      42.861  26.902  27.208  1.00  0.00    -0.248 NA
ATOM     35  C   UNL A   1      40.552  26.548  27.312  1.00  0.00     0.031 C 
ATOM     36  C   UNL A   1      42.545  30.821  28.965  1.00  0.00     0.029 A 
ATOM     37  N   UNL A   1      43.802  29.571  27.666  1.00  0.00    -0.354 N 
ATOM     38  C   UNL A   1      42.595  25.559  27.031  1.00  0.00     0.074 A 
ATOM     39  C   UNL A   1      41.158  25.396  27.082  1.00  0.00     0.031 C 
ATOM     40  C   UNL A   1      43.602  31.571  28.622  1.00  0.00     0.029 A 
ATOM     41  C   UNL A   1      44.490  30.775  27.795  1.00  0.00     0.049 A 
ATOM     42  H   UNL A   1      44.193  28.767  27.252  1.00  0.00     0.167 HD
ATOM     43  C   UNL A   1      43.483  24.543  26.960  1.00  0.00     0.031 A 
ATOM     44  C   UNL A   1      45.725  31.167  27.395  1.00  0.00     0.031 A 
ATOM     45  C   UNL A   1      44.909  24.716  27.013  1.00  0.00     0.049 A 
ATOM     46  C   UNL A   1      46.688  30.040  27.142  1.00  0.00     0.074 A 
ATOM     47  C   UNL A   1      45.892  23.746  27.009  1.00  0.00     0.029 A 
ATOM     48  N   UNL A   1      45.556  25.944  27.092  1.00  0.00    -0.354 N 
ATOM     49  N   UNL A   1      46.431  28.759  27.059  1.00  0.00    -0.248 NA
ATOM     50  C   UNL A   1      48.120  30.373  27.122  1.00  0.00     0.031 C 
ATOM     51  C   UNL A   1      47.133  24.383  27.108  1.00  0.00     0.029 A 
ATOM     52  C   UNL A   1      46.928  25.753  27.102  1.00  0.00     0.049 A 
ATOM     53  H   UNL A   1      45.106  26.819  27.134  1.00  0.00     0.167 HD
ATOM     54  C   UNL A   1      47.661  28.127  27.056  1.00  0.00     0.074 A 
ATOM     55  C   UNL A   1      48.671  29.167  27.069  1.00  0.00     0.031 C 
ATOM     56  C   UNL A   1      47.919  26.800  27.094  1.00  0.00     0.031 A 
BRANCH  43  57
ATOM     57  C   UNL A   1      42.886  23.167  26.984  1.00  0.00    -0.014 A 
ATOM     58  C   UNL A   1      42.475  22.526  25.806  1.00  0.00     0.009 A 
ATOM     59  C   UNL A   1      42.608  22.567  28.223  1.00  0.00     0.009 A 
ATOM     60  C   UNL A   1      41.730  21.347  25.872  1.00  0.00     0.001 A 
ATOM     61  C   UNL A   1      41.900  21.366  28.283  1.00  0.00     0.001 A 
ATOM     62  C   UNL A   1      41.443  20.770  27.108  1.00  0.00     0.000 A 
ENDBRANCH  43  57
BRANCH  44  63
ATOM     63  C   UNL A   1      46.226  32.587  27.442  1.00  0.00    -0.014 A 
ATOM     64  C   UNL A   1      46.788  33.115  28.624  1.00  0.00     0.009 A 
ATOM     65  C   UNL A   1      46.116  33.458  26.346  1.00  0.00     0.009 A 
ATOM     66  C   UNL A   1      47.239  34.444  28.689  1.00  0.00     0.001 A 
ATOM     67  C   UNL A   1      46.626  34.761  26.388  1.00  0.00     0.001 A 
ATOM     68  C   UNL A   1      47.181  35.258  27.561  1.00  0.00     0.000 A 
ENDBRANCH  44  63
BRANCH  56  69
ATOM     69  C   UNL A   1      49.359  26.393  27.045  1.00  0.00    -0.014 A 
ATOM     70  C   UNL A   1      50.125  26.211  28.206  1.00  0.00     0.009 A 
ATOM     71  C   UNL A   1      49.938  26.142  25.791  1.00  0.00     0.009 A 
ATOM     72  C   UNL A   1      51.455  25.797  28.106  1.00  0.00     0.001 A 
ATOM     73  C   UNL A   1      51.257  25.705  25.698  1.00  0.00     0.001 A 
ATOM     74  C   UNL A   1      52.015  25.539  26.854  1.00  0.00     0.000 A 
ENDBRANCH  56  69
ENDBRANCH  30  31
ENDBRANCH  23  25
ENDBRANCH  22  23
ENDBRANCH  21  22
ENDBRANCH   1  21
TORSDOF 14
ENDMDL
MODEL 3
REMARK VINA RESULT:     -10.5      2.694      6.563
REMARK SMILES O=C(C[C@@H]1CCCCO1)N[C@]1(C(=O)OCCOC(=O)c2ccc(-c3c4nc(c(-c5ccccc5)c5ccc([nH]5)c(-c5ccccc5)c5nc(c(-c6ccccc6)c6ccc3[nH]6)C=C5)C=C4)cc2)CCOC1
REMARK SMILES IDX 15 1 14 2 12 3 13 4 11 5 68 6 71 7 69 8 70 9 10 10 1 11 2 12
REMARK SMILES IDX 3 14 4 15 5 16 9 17 6 18 8 19 7 20 16 21 17 22 18 23 19 24
REMARK SMILES IDX 20 25 21 26 67 27 22 28 66 29 23 30 24 31 25 32 60 33 26 34
REMARK SMILES IDX 65 35 59 36 61 37 27 38 64 39 58 40 57 41 28 43 50 44 35 45
REMARK SMILES IDX 49 46 36 47 39 48 48 49 62 50 37 51 38 52 47 54 63 55 40 56
REMARK SMILES IDX 29 57 30 58 34 59 31 60 33 61 32 62 51 63 52 64 56 65 53 66
REMARK SMILES IDX 55 67 54 68 41 69 42 70 46 71 43 72 45 73 44 74
REMARK H PARENT 10 13 61 42 39 53
REMARK Flexibility Score: inf
ROOT
ATOM      1  C   UNL A   1      34.792  21.773  24.176  1.00  0.00     0.274 C 
ENDROOT
BRANCH   1   2
ATOM      2  O   UNL A   1      33.411  22.137  24.355  1.00  0.00    -0.460 OA
BRANCH   2   3
ATOM      3  C   UNL A   1      33.125  23.468  24.338  1.00  0.00     0.334 C 
ATOM      4  O   UNL A   1      33.669  24.255  23.573  1.00  0.00    -0.249 OA
BRANCH   3   5
ATOM      5  C   UNL A   1      31.990  23.847  25.325  1.00  0.00     0.163 C 
ATOM      6  C   UNL A   1      30.907  22.777  25.447  1.00  0.00     0.071 C 
ATOM      7  C   UNL A   1      32.511  23.905  26.761  1.00  0.00     0.200 C 
ATOM      8  C   UNL A   1      30.347  23.033  26.825  1.00  0.00     0.163 C 
ATOM      9  O   UNL A   1      31.446  23.463  27.631  1.00  0.00    -0.378 OA
BRANCH   5  10
ATOM     10  N   UNL A   1      31.358  25.104  24.882  1.00  0.00    -0.338 N 
ATOM     11  O   UNL A   1      30.375  24.327  22.947  1.00  0.00    -0.275 OA
ATOM     12  C   UNL A   1      30.473  25.170  23.829  1.00  0.00     0.223 C 
ATOM     13  H   UNL A   1      31.578  25.934  25.363  1.00  0.00     0.164 HD
BRANCH  12  14
ATOM     14  C   UNL A   1      29.552  26.357  23.895  1.00  0.00     0.132 C 
BRANCH  14  15
ATOM     15  C   UNL A   1      30.208  27.577  23.250  1.00  0.00     0.127 C 
ATOM     16  C   UNL A   1      30.881  28.526  24.268  1.00  0.00     0.033 C 
ATOM     17  O   UNL A   1      29.264  28.166  22.371  1.00  0.00    -0.378 OA
ATOM     18  C   UNL A   1      30.548  30.003  24.228  1.00  0.00     0.005 C 
ATOM     19  C   UNL A   1      28.487  29.161  23.012  1.00  0.00     0.160 C 
ATOM     20  C   UNL A   1      29.406  30.324  23.307  1.00  0.00     0.029 C 
ENDBRANCH  14  15
ENDBRANCH  12  14
ENDBRANCH   5  10
ENDBRANCH   3   5
ENDBRANCH   2   3
ENDBRANCH   1   2
BRANCH   1  21
ATOM     21  C   UNL A   1      35.258  20.906  25.352  1.00  0.00     0.275 C 
BRANCH  21  22
ATOM     22  O   UNL A   1      36.348  21.500  26.102  1.00  0.00    -0.458 OA
BRANCH  22  23
ATOM     23  C   UNL A   1      37.608  21.212  25.669  1.00  0.00     0.338 C 
ATOM     24  O   UNL A   1      37.933  20.261  24.990  1.00  0.00    -0.246 OA
BRANCH  23  25
ATOM     25  C   UNL A   1      38.554  22.317  26.023  1.00  0.00     0.060 A 
ATOM     26  C   UNL A   1      38.113  23.627  25.838  1.00  0.00     0.016 A 
ATOM     27  C   UNL A   1      39.838  22.114  26.542  1.00  0.00     0.016 A 
ATOM     28  C   UNL A   1      38.888  24.708  26.298  1.00  0.00     0.010 A 
ATOM     29  C   UNL A   1      40.649  23.213  26.933  1.00  0.00     0.010 A 
ATOM     30  C   UNL A   1      40.173  24.530  26.862  1.00  0.00    -0.014 A 
BRANCH  30  31
ATOM     31  C   UNL A   1      40.976  25.765  27.221  1.00  0.00     0.031 A 
ATOM     32  C   UNL A   1      40.504  26.577  28.385  1.00  0.00     0.074 A 
ATOM     33  C   UNL A   1      42.090  26.219  26.595  1.00  0.00     0.049 A 
ATOM     34  N   UNL A   1      40.995  27.701  28.832  1.00  0.00    -0.248 NA
ATOM     35  C   UNL A   1      39.250  26.157  29.026  1.00  0.00     0.031 C 
ATOM     36  C   UNL A   1      42.545  25.812  25.288  1.00  0.00     0.029 A 
ATOM     37  N   UNL A   1      43.106  27.074  26.997  1.00  0.00    -0.354 N 
ATOM     38  C   UNL A   1      40.042  28.193  29.702  1.00  0.00     0.074 A 
ATOM     39  C   UNL A   1      38.999  27.196  29.804  1.00  0.00     0.031 C 
ATOM     40  C   UNL A   1      43.848  26.098  25.139  1.00  0.00     0.029 A 
ATOM     41  C   UNL A   1      44.260  26.969  26.225  1.00  0.00     0.049 A 
ATOM     42  H   UNL A   1      43.019  27.695  27.756  1.00  0.00     0.167 HD
ATOM     43  C   UNL A   1      39.990  29.422  30.262  1.00  0.00     0.031 A 
ATOM     44  C   UNL A   1      45.470  27.574  26.306  1.00  0.00     0.031 A 
ATOM     45  C   UNL A   1      40.989  30.437  30.067  1.00  0.00     0.049 A 
ATOM     46  C   UNL A   1      45.473  28.866  27.075  1.00  0.00     0.074 A 
ATOM     47  C   UNL A   1      40.998  31.735  30.541  1.00  0.00     0.029 A 
ATOM     48  N   UNL A   1      42.154  30.272  29.325  1.00  0.00    -0.354 N 
ATOM     49  N   UNL A   1      44.526  29.360  27.832  1.00  0.00    -0.248 NA
ATOM     50  C   UNL A   1      46.608  29.775  26.858  1.00  0.00     0.031 C 
ATOM     51  C   UNL A   1      42.155  32.363  30.070  1.00  0.00     0.029 A 
ATOM     52  C   UNL A   1      42.903  31.437  29.361  1.00  0.00     0.049 A 
ATOM     53  H   UNL A   1      42.407  29.450  28.846  1.00  0.00     0.167 HD
ATOM     54  C   UNL A   1      44.908  30.658  28.117  1.00  0.00     0.074 A 
ATOM     55  C   UNL A   1      46.212  30.856  27.516  1.00  0.00     0.031 C 
ATOM     56  C   UNL A   1      44.208  31.611  28.774  1.00  0.00     0.031 A 
BRANCH  43  57
ATOM     57  C   UNL A   1      38.719  29.741  30.992  1.00  0.00    -0.014 A 
ATOM     58  C   UNL A   1      37.634  30.350  30.343  1.00  0.00     0.009 A 
ATOM     59  C   UNL A   1      38.666  29.549  32.382  1.00  0.00     0.009 A 
ATOM     60  C   UNL A   1      36.553  30.831  31.084  1.00  0.00     0.001 A 
ATOM     61  C   UNL A   1      37.564  29.994  33.114  1.00  0.00     0.001 A 
ATOM     62  C   UNL A   1      36.520  30.653  32.467  1.00  0.00     0.000 A 
ENDBRANCH  43  57
BRANCH  44  63
ATOM     63  C   UNL A   1      46.678  27.179  25.497  1.00  0.00    -0.014 A 
ATOM     64  C   UNL A   1      46.930  27.774  24.242  1.00  0.00     0.009 A 
ATOM     65  C   UNL A   1      47.570  26.182  25.919  1.00  0.00     0.009 A 
ATOM     66  C   UNL A   1      48.040  27.400  23.466  1.00  0.00     0.001 A 
ATOM     67  C   UNL A   1      48.713  25.856  25.179  1.00  0.00     0.001 A 
ATOM     68  C   UNL A   1      48.946  26.459  23.948  1.00  0.00     0.000 A 
ENDBRANCH  44  63
BRANCH  56  69
ATOM     69  C   UNL A   1      44.889  32.930  28.971  1.00  0.00    -0.014 A 
ATOM     70  C   UNL A   1      44.715  34.000  28.082  1.00  0.00     0.009 A 
ATOM     71  C   UNL A   1      45.686  33.104  30.113  1.00  0.00     0.009 A 
ATOM     72  C   UNL A   1      45.345  35.222  28.331  1.00  0.00     0.001 A 
ATOM     73  C   UNL A   1      46.293  34.331  30.369  1.00  0.00     0.001 A 
ATOM     74  C   UNL A   1      46.126  35.386  29.476  1.00  0.00     0.000 A 
ENDBRANCH  56  69
ENDBRANCH  30  31
ENDBRANCH  23  25
ENDBRANCH  22  23
ENDBRANCH  21  22
ENDBRANCH   1  21
TORSDOF 14
ENDMDL
