MODEL 1
REMARK VINA RESULT:      -9.7      0.000      0.000
REMARK SMILES COc1cnc(F)c(C(=O)OCCOC(=O)c2ccc(-c3c4nc(c(-c5ccccc5)c5ccc([nH]5)c(-c5ccccc5)c5nc(c(-c6ccccc6)c6ccc3[nH]6)C=C5)C=C4)cc2)c1
REMARK SMILES IDX 13 1 12 2 11 3 9 4 10 5 8 6 3 7 4 8 65 9 5 10 6 11 7 12 2 13
REMARK SMILES IDX 1 14 14 15 15 16 16 17 17 18 18 19 64 20 19 21 63 22 20 23
REMARK SMILES IDX 21 24 22 25 57 26 23 27 62 28 56 29 58 30 24 31 61 32 55 33
REMARK SMILES IDX 54 34 25 36 47 37 32 38 46 39 33 40 36 41 45 42 59 43 34 44
REMARK SMILES IDX 35 45 44 47 60 48 37 49 26 50 27 51 31 52 28 53 30 54 29 55
REMARK SMILES IDX 48 56 49 57 53 58 50 59 52 60 51 61 38 62 39 63 43 64 40 65
REMARK SMILES IDX 42 66 41 67
REMARK H PARENT 58 35 36 46
REMARK Flexibility Score: inf
ROOT
ATOM      1  C   UNL A   1      36.338  33.921  33.785  1.00  0.00     0.275 C 
ENDROOT
BRANCH   1   2
ATOM      2  C   UNL A   1      35.146  34.781  34.201  1.00  0.00     0.275 C 
BRANCH   2   3
ATOM      3  O   UNL A   1      34.669  35.567  33.090  1.00  0.00    -0.458 OA
BRANCH   3   4
ATOM      4  C   UNL A   1      33.606  35.080  32.410  1.00  0.00     0.343 C 
ATOM      5  O   UNL A   1      32.679  34.433  32.875  1.00  0.00    -0.246 OA
BRANCH   4   6
ATOM      6  C   UNL A   1      33.608  35.550  31.019  1.00  0.00     0.118 A 
ATOM      7  C   UNL A   1      33.994  35.121  28.680  1.00  0.00     0.138 A 
ATOM      8  C   UNL A   1      33.643  36.442  28.440  1.00  0.00     0.160 A 
ATOM      9  C   UNL A   1      34.022  34.685  29.999  1.00  0.00     0.068 A 
ATOM     10  N   UNL A   1      33.271  37.314  29.409  1.00  0.00    -0.224 NA
ATOM     11  C   UNL A   1      33.252  36.844  30.680  1.00  0.00     0.227 A 
ATOM     12  F   UNL A   1      32.924  37.726  31.636  1.00  0.00    -0.184 F 
BRANCH   7  13
ATOM     13  O   UNL A   1      34.367  34.341  27.625  1.00  0.00    -0.495 OA
ATOM     14  C   UNL A   1      35.436  33.449  27.949  1.00  0.00     0.278 C 
ENDBRANCH   7  13
ENDBRANCH   4   6
ENDBRANCH   3   4
ENDBRANCH   2   3
ENDBRANCH   1   2
BRANCH   1  15
ATOM     15  O   UNL A   1      35.936  32.541  33.694  1.00  0.00    -0.458 OA
BRANCH  15  16
ATOM     16  C   UNL A   1      35.785  32.058  32.442  1.00  0.00     0.338 C 
ATOM     17  O   UNL A   1      34.755  31.923  31.806  1.00  0.00    -0.246 OA
BRANCH  16  18
ATOM     18  C   UNL A   1      37.107  31.766  31.873  1.00  0.00     0.060 A 
ATOM     19  C   UNL A   1      37.336  32.084  30.539  1.00  0.00     0.016 A 
ATOM     20  C   UNL A   1      38.055  31.048  32.598  1.00  0.00     0.016 A 
ATOM     21  C   UNL A   1      38.471  31.606  29.891  1.00  0.00     0.010 A 
ATOM     22  C   UNL A   1      39.241  30.649  31.969  1.00  0.00     0.010 A 
ATOM     23  C   UNL A   1      39.445  30.885  30.596  1.00  0.00    -0.014 A 
BRANCH  23  24
ATOM     24  C   UNL A   1      40.637  30.339  29.886  1.00  0.00     0.031 A 
ATOM     25  C   UNL A   1      41.872  31.188  29.706  1.00  0.00     0.074 A 
ATOM     26  C   UNL A   1      40.644  29.070  29.428  1.00  0.00     0.049 A 
ATOM     27  N   UNL A   1      42.944  30.949  28.990  1.00  0.00    -0.248 NA
ATOM     28  C   UNL A   1      41.904  32.476  30.417  1.00  0.00     0.031 C 
ATOM     29  C   UNL A   1      39.551  28.105  29.576  1.00  0.00     0.029 A 
ATOM     30  N   UNL A   1      41.615  28.366  28.757  1.00  0.00    -0.354 N 
ATOM     31  C   UNL A   1      43.742  32.080  29.111  1.00  0.00     0.074 A 
ATOM     32  C   UNL A   1      43.035  33.004  29.972  1.00  0.00     0.031 C 
ATOM     33  C   UNL A   1      39.933  26.925  29.065  1.00  0.00     0.029 A 
ATOM     34  C   UNL A   1      41.254  27.073  28.465  1.00  0.00     0.049 A 
ATOM     35  H   UNL A   1      42.485  28.752  28.509  1.00  0.00     0.167 HD
ATOM     36  C   UNL A   1      44.949  32.332  28.551  1.00  0.00     0.031 A 
ATOM     37  C   UNL A   1      41.889  26.120  27.757  1.00  0.00     0.031 A 
ATOM     38  C   UNL A   1      45.677  31.400  27.731  1.00  0.00     0.049 A 
ATOM     39  C   UNL A   1      43.208  26.434  27.114  1.00  0.00     0.074 A 
ATOM     40  C   UNL A   1      46.913  31.565  27.125  1.00  0.00     0.029 A 
ATOM     41  N   UNL A   1      45.248  30.121  27.420  1.00  0.00    -0.354 N 
ATOM     42  N   UNL A   1      43.915  27.535  27.178  1.00  0.00    -0.248 NA
ATOM     43  C   UNL A   1      43.804  25.381  26.279  1.00  0.00     0.031 C 
ATOM     44  C   UNL A   1      47.212  30.398  26.415  1.00  0.00     0.029 A 
ATOM     45  C   UNL A   1      46.186  29.490  26.619  1.00  0.00     0.049 A 
ATOM     46  H   UNL A   1      44.401  29.720  27.722  1.00  0.00     0.167 HD
ATOM     47  C   UNL A   1      45.040  27.306  26.398  1.00  0.00     0.074 A 
ATOM     48  C   UNL A   1      44.934  25.954  25.891  1.00  0.00     0.031 C 
ATOM     49  C   UNL A   1      46.065  28.147  26.118  1.00  0.00     0.031 A 
BRANCH  36  50
ATOM     50  C   UNL A   1      45.544  33.697  28.767  1.00  0.00    -0.014 A 
ATOM     51  C   UNL A   1      46.441  33.952  29.815  1.00  0.00     0.009 A 
ATOM     52  C   UNL A   1      45.227  34.733  27.875  1.00  0.00     0.009 A 
ATOM     53  C   UNL A   1      46.984  35.229  29.982  1.00  0.00     0.001 A 
ATOM     54  C   UNL A   1      45.791  36.001  28.028  1.00  0.00     0.001 A 
ATOM     55  C   UNL A   1      46.662  36.250  29.088  1.00  0.00     0.000 A 
ENDBRANCH  36  50
BRANCH  37  56
ATOM     56  C   UNL A   1      41.252  24.789  27.569  1.00  0.00    -0.014 A 
ATOM     57  C   UNL A   1      41.741  23.662  28.247  1.00  0.00     0.009 A 
ATOM     58  C   UNL A   1      40.150  24.642  26.714  1.00  0.00     0.009 A 
ATOM     59  C   UNL A   1      41.144  22.412  28.061  1.00  0.00     0.001 A 
ATOM     60  C   UNL A   1      39.535  23.398  26.555  1.00  0.00     0.001 A 
ATOM     61  C   UNL A   1      40.037  22.284  27.222  1.00  0.00     0.000 A 
ENDBRANCH  37  56
BRANCH  49  62
ATOM     62  C   UNL A   1      47.163  27.616  25.243  1.00  0.00    -0.014 A 
ATOM     63  C   UNL A   1      47.160  27.844  23.858  1.00  0.00     0.009 A 
ATOM     64  C   UNL A   1      48.226  26.902  25.816  1.00  0.00     0.009 A 
ATOM     65  C   UNL A   1      48.189  27.340  23.059  1.00  0.00     0.001 A 
ATOM     66  C   UNL A   1      49.264  26.419  25.018  1.00  0.00     0.001 A 
ATOM     67  C   UNL A   1      49.240  26.631  23.640  1.00  0.00     0.000 A 
ENDBRANCH  49  62
ENDBRANCH  23  24
ENDBRANCH  16  18
ENDBRANCH  15  16
ENDBRANCH   1  15
TORSDOF 12
ENDMDL
MODEL 2
REMARK VINA RESULT:      -9.7      5.803     10.792
REMARK SMILES COc1cnc(F)c(C(=O)OCCOC(=O)c2ccc(-c3c4nc(c(-c5ccccc5)c5ccc([nH]5)c(-c5ccccc5)c5nc(c(-c6ccccc6)c6ccc3[nH]6)C=C5)C=C4)cc2)c1
REMARK SMILES IDX 13 1 12 2 11 3 9 4 10 5 8 6 3 7 4 8 65 9 5 10 6 11 7 12 2 13
REMARK SMILES IDX 1 14 14 15 15 16 16 17 17 18 18 19 64 20 19 21 63 22 20 23
REMARK SMILES IDX 21 24 22 25 57 26 23 27 62 28 56 29 58 30 24 31 61 32 55 33
REMARK SMILES IDX 54 34 25 36 47 37 32 38 46 39 33 40 36 41 45 42 59 43 34 44
REMARK SMILES IDX 35 45 44 47 60 48 37 49 26 50 27 51 31 52 28 53 30 54 29 55
REMARK SMILES IDX 48 56 49 57 53 58 50 59 52 60 51 61 38 62 39 63 43 64 40 65
REMARK SMILES IDX 42 66 41 67
REMARK H PARENT 58 35 36 46
REMARK Flexibility Score: inf
ROOT
ATOM      1  C   UNL A   1      35.877  20.979  25.078  1.00  0.00     0.275 C 
ENDROOT
BRANCH   1   2
ATOM      2  C   UNL A   1      34.737  21.904  25.498  1.00  0.00     0.275 C 
BRANCH   2   3
ATOM      3  O   UNL A   1      33.651  21.842  24.551  1.00  0.00    -0.458 OA
BRANCH   3   4
ATOM      4  C   UNL A   1      32.528  21.203  24.952  1.00  0.00     0.343 C 
ATOM      5  O   UNL A   1      31.552  21.709  25.484  1.00  0.00    -0.246 OA
BRANCH   4   6
ATOM      6  C   UNL A   1      32.546  19.795  24.536  1.00  0.00     0.118 A 
ATOM      7  C   UNL A   1      32.823  17.466  25.088  1.00  0.00     0.138 A 
ATOM      8  C   UNL A   1      32.611  17.183  23.746  1.00  0.00     0.160 A 
ATOM      9  C   UNL A   1      32.837  18.799  25.477  1.00  0.00     0.068 A 
ATOM     10  N   UNL A   1      32.360  18.125  22.804  1.00  0.00    -0.224 NA
ATOM     11  C   UNL A   1      32.323  19.414  23.223  1.00  0.00     0.227 A 
ATOM     12  F   UNL A   1      32.117  20.342  22.277  1.00  0.00    -0.184 F 
BRANCH   7  13
ATOM     13  O   UNL A   1      33.083  16.434  25.941  1.00  0.00    -0.495 OA
ATOM     14  C   UNL A   1      32.954  15.156  25.315  1.00  0.00     0.278 C 
ENDBRANCH   7  13
ENDBRANCH   4   6
ENDBRANCH   3   4
ENDBRANCH   2   3
ENDBRANCH   1   2
BRANCH   1  15
ATOM     15  O   UNL A   1      37.079  21.746  24.873  1.00  0.00    -0.458 OA
BRANCH  15  16
ATOM     16  C   UNL A   1      38.181  21.286  25.503  1.00  0.00     0.338 C 
ATOM     17  O   UNL A   1      38.621  20.150  25.517  1.00  0.00    -0.246 OA
BRANCH  16  18
ATOM     18  C   UNL A   1      38.873  22.407  26.151  1.00  0.00     0.060 A 
ATOM     19  C   UNL A   1      38.294  23.670  26.081  1.00  0.00     0.016 A 
ATOM     20  C   UNL A   1      40.149  22.248  26.686  1.00  0.00     0.016 A 
ATOM     21  C   UNL A   1      39.021  24.795  26.456  1.00  0.00     0.010 A 
ATOM     22  C   UNL A   1      40.843  23.372  27.150  1.00  0.00     0.010 A 
ATOM     23  C   UNL A   1      40.306  24.665  27.001  1.00  0.00    -0.014 A 
BRANCH  23  24
ATOM     24  C   UNL A   1      41.097  25.878  27.360  1.00  0.00     0.031 A 
ATOM     25  C   UNL A   1      40.550  26.879  28.348  1.00  0.00     0.074 A 
ATOM     26  C   UNL A   1      42.323  26.078  26.838  1.00  0.00     0.049 A 
ATOM     27  N   UNL A   1      41.013  28.062  28.671  1.00  0.00    -0.248 NA
ATOM     28  C   UNL A   1      39.317  26.506  29.060  1.00  0.00     0.031 C 
ATOM     29  C   UNL A   1      43.016  25.173  25.916  1.00  0.00     0.029 A 
ATOM     30  N   UNL A   1      43.218  27.105  27.022  1.00  0.00    -0.354 N 
ATOM     31  C   UNL A   1      40.097  28.597  29.568  1.00  0.00     0.074 A 
ATOM     32  C   UNL A   1      39.054  27.611  29.744  1.00  0.00     0.031 C 
ATOM     33  C   UNL A   1      44.241  25.656  25.662  1.00  0.00     0.029 A 
ATOM     34  C   UNL A   1      44.388  26.949  26.320  1.00  0.00     0.049 A 
ATOM     35  H   UNL A   1      43.037  27.879  27.603  1.00  0.00     0.167 HD
ATOM     36  C   UNL A   1      40.118  29.803  30.184  1.00  0.00     0.031 A 
ATOM     37  C   UNL A   1      45.448  27.768  26.179  1.00  0.00     0.031 A 
ATOM     38  C   UNL A   1      41.176  30.770  30.049  1.00  0.00     0.049 A 
ATOM     39  C   UNL A   1      45.431  29.115  26.841  1.00  0.00     0.074 A 
ATOM     40  C   UNL A   1      41.286  32.018  30.642  1.00  0.00     0.029 A 
ATOM     41  N   UNL A   1      42.316  30.589  29.285  1.00  0.00    -0.354 N 
ATOM     42  N   UNL A   1      44.522  29.636  27.628  1.00  0.00    -0.248 NA
ATOM     43  C   UNL A   1      46.576  29.997  26.573  1.00  0.00     0.031 C 
ATOM     44  C   UNL A   1      42.476  32.607  30.204  1.00  0.00     0.029 A 
ATOM     45  C   UNL A   1      43.129  31.706  29.378  1.00  0.00     0.049 A 
ATOM     46  H   UNL A   1      42.519  29.786  28.753  1.00  0.00     0.167 HD
ATOM     47  C   UNL A   1      44.987  30.904  27.954  1.00  0.00     0.074 A 
ATOM     48  C   UNL A   1      46.269  31.063  27.299  1.00  0.00     0.031 C 
ATOM     49  C   UNL A   1      44.398  31.854  28.718  1.00  0.00     0.031 A 
BRANCH  36  50
ATOM     50  C   UNL A   1      38.930  30.171  31.031  1.00  0.00    -0.014 A 
ATOM     51  C   UNL A   1      37.802  30.802  30.486  1.00  0.00     0.009 A 
ATOM     52  C   UNL A   1      38.931  29.840  32.396  1.00  0.00     0.009 A 
ATOM     53  C   UNL A   1      36.711  31.121  31.298  1.00  0.00     0.001 A 
ATOM     54  C   UNL A   1      37.829  30.136  33.200  1.00  0.00     0.001 A 
ATOM     55  C   UNL A   1      36.723  30.784  32.652  1.00  0.00     0.000 A 
ENDBRANCH  36  50
BRANCH  37  56
ATOM     56  C   UNL A   1      46.593  27.358  25.325  1.00  0.00    -0.014 A 
ATOM     57  C   UNL A   1      46.730  27.864  24.023  1.00  0.00     0.009 A 
ATOM     58  C   UNL A   1      47.558  26.462  25.811  1.00  0.00     0.009 A 
ATOM     59  C   UNL A   1      47.805  27.469  23.222  1.00  0.00     0.001 A 
ATOM     60  C   UNL A   1      48.648  26.094  25.020  1.00  0.00     0.001 A 
ATOM     61  C   UNL A   1      48.767  26.592  23.724  1.00  0.00     0.000 A 
ENDBRANCH  37  56
BRANCH  49  62
ATOM     62  C   UNL A   1      45.150  33.140  28.906  1.00  0.00    -0.014 A 
ATOM     63  C   UNL A   1      44.919  34.243  28.069  1.00  0.00     0.009 A 
ATOM     64  C   UNL A   1      46.080  33.257  29.950  1.00  0.00     0.009 A 
ATOM     65  C   UNL A   1      45.629  35.430  28.257  1.00  0.00     0.001 A 
ATOM     66  C   UNL A   1      46.771  34.453  30.149  1.00  0.00     0.001 A 
ATOM     67  C   UNL A   1      46.551  35.535  29.298  1.00  0.00     0.000 A 
ENDBRANCH  49  62
ENDBRANCH  23  24
ENDBRANCH  16  18
ENDBRANCH  15  16
ENDBRANCH   1  15
TORSDOF 12
ENDMDL
MODEL 3
REMARK VINA RESULT:      -9.5      5.494      9.153
REMARK SMILES COc1cnc(F)c(C(=O)OCCOC(=O)c2ccc(-c3c4nc(c(-c5ccccc5)c5ccc([nH]5)c(-c5ccccc5)c5nc(c(-c6ccccc6)c6ccc3[nH]6)C=C5)C=C4)cc2)c1
REMARK SMILES IDX 13 1 12 2 11 3 9 4 10 5 8 6 3 7 4 8 65 9 5 10 6 11 7 12 2 13
REMARK SMILES IDX 1 14 14 15 15 16 16 17 17 18 18 19 64 20 19 21 63 22 20 23
REMARK SMILES IDX 21 24 22 25 57 26 23 27 62 28 56 29 58 30 24 31 61 32 55 33
REMARK SMILES IDX 54 34 25 36 47 37 32 38 46 39 33 40 36 41 45 42 59 43 34 44
REMARK SMILES IDX 35 45 44 47 60 48 37 49 26 50 27 51 31 52 28 53 30 54 29 55
REMARK SMILES IDX 48 56 49 57 53 58 50 59 52 60 51 61 38 62 39 63 43 64 40 65
REMARK SMILES IDX 42 66 41 67
REMARK H PARENT 58 35 36 46
REMARK Flexibility Score: inf
ROOT
ATOM      1  C   UNL A   1      31.862  29.762  25.195  1.00  0.00     0.275 C 
ENDROOT
BRANCH   1   2
ATOM      2  C   UNL A   1      31.924  28.294  24.778  1.00  0.00     0.275 C 
BRANCH   2   3
ATOM      3  O   UNL A   1      30.648  27.851  24.272  1.00  0.00    -0.458 OA
BRANCH   3   4
ATOM      4  C   UNL A   1      30.384  28.114  22.972  1.00  0.00     0.343 C 
ATOM      5  O   UNL A   1      30.869  27.552  22.001  1.00  0.00    -0.246 OA
BRANCH   4   6
ATOM      6  C   UNL A   1      29.299  29.095  22.842  1.00  0.00     0.118 A 
ATOM      7  C   UNL A   1      28.571  31.338  22.352  1.00  0.00     0.138 A 
ATOM      8  C   UNL A   1      27.279  30.919  22.638  1.00  0.00     0.160 A 
ATOM      9  C   UNL A   1      29.602  30.420  22.504  1.00  0.00     0.068 A 
ATOM     10  N   UNL A   1      26.957  29.654  23.002  1.00  0.00    -0.224 NA
ATOM     11  C   UNL A   1      27.976  28.764  23.086  1.00  0.00     0.227 A 
ATOM     12  F   UNL A   1      27.653  27.526  23.488  1.00  0.00    -0.184 F 
BRANCH   7  13
ATOM     13  O   UNL A   1      28.775  32.643  22.012  1.00  0.00    -0.495 OA
ATOM     14  C   UNL A   1      29.150  33.452  23.129  1.00  0.00     0.278 C 
ENDBRANCH   7  13
ENDBRANCH   4   6
ENDBRANCH   3   4
ENDBRANCH   2   3
ENDBRANCH   1   2
BRANCH   1  15
ATOM     15  O   UNL A   1      32.287  29.900  26.565  1.00  0.00    -0.458 OA
BRANCH  15  16
ATOM     16  C   UNL A   1      32.833  31.092  26.889  1.00  0.00     0.338 C 
ATOM     17  O   UNL A   1      32.318  32.194  26.842  1.00  0.00    -0.246 OA
BRANCH  16  18
ATOM     18  C   UNL A   1      34.188  30.877  27.413  1.00  0.00     0.060 A 
ATOM     19  C   UNL A   1      34.627  29.569  27.594  1.00  0.00     0.016 A 
ATOM     20  C   UNL A   1      34.959  31.946  27.865  1.00  0.00     0.016 A 
ATOM     21  C   UNL A   1      35.791  29.315  28.312  1.00  0.00     0.010 A 
ATOM     22  C   UNL A   1      36.178  31.690  28.505  1.00  0.00     0.010 A 
ATOM     23  C   UNL A   1      36.589  30.370  28.776  1.00  0.00    -0.014 A 
BRANCH  23  24
ATOM     24  C   UNL A   1      37.812  30.091  29.582  1.00  0.00     0.031 A 
ATOM     25  C   UNL A   1      38.960  29.317  28.982  1.00  0.00     0.074 A 
ATOM     26  C   UNL A   1      37.925  30.555  30.843  1.00  0.00     0.049 A 
ATOM     27  N   UNL A   1      40.034  28.845  29.564  1.00  0.00    -0.248 NA
ATOM     28  C   UNL A   1      38.888  29.031  27.540  1.00  0.00     0.031 C 
ATOM     29  C   UNL A   1      36.928  31.368  31.545  1.00  0.00     0.029 A 
ATOM     30  N   UNL A   1      38.943  30.422  31.758  1.00  0.00    -0.354 N 
ATOM     31  C   UNL A   1      40.728  28.152  28.579  1.00  0.00     0.074 A 
ATOM     32  C   UNL A   1      39.957  28.270  27.360  1.00  0.00     0.031 C 
ATOM     33  C   UNL A   1      37.406  31.707  32.752  1.00  0.00     0.029 A 
ATOM     34  C   UNL A   1      38.696  31.056  32.951  1.00  0.00     0.049 A 
ATOM     35  H   UNL A   1      39.769  29.921  31.574  1.00  0.00     0.167 HD
ATOM     36  C   UNL A   1      41.896  27.474  28.680  1.00  0.00     0.031 A 
ATOM     37  C   UNL A   1      39.401  31.080  34.098  1.00  0.00     0.031 A 
ATOM     38  C   UNL A   1      42.691  27.393  29.877  1.00  0.00     0.049 A 
ATOM     39  C   UNL A   1      40.673  30.290  34.198  1.00  0.00     0.074 A 
ATOM     40  C   UNL A   1      43.894  26.733  30.072  1.00  0.00     0.029 A 
ATOM     41  N   UNL A   1      42.374  28.008  31.077  1.00  0.00    -0.354 N 
ATOM     42  N   UNL A   1      41.278  29.581  33.278  1.00  0.00    -0.248 NA
ATOM     43  C   UNL A   1      41.347  30.285  35.505  1.00  0.00     0.031 C 
ATOM     44  C   UNL A   1      44.284  26.918  31.402  1.00  0.00     0.029 A 
ATOM     45  C   UNL A   1      43.349  27.732  32.020  1.00  0.00     0.049 A 
ATOM     46  H   UNL A   1      41.573  28.558  31.236  1.00  0.00     0.167 HD
ATOM     47  C   UNL A   1      42.404  29.049  33.892  1.00  0.00     0.074 A 
ATOM     48  C   UNL A   1      42.412  29.538  35.255  1.00  0.00     0.031 C 
ATOM     49  C   UNL A   1      43.342  28.220  33.374  1.00  0.00     0.031 A 
BRANCH  36  50
ATOM     50  C   UNL A   1      42.369  26.720  27.467  1.00  0.00    -0.014 A 
ATOM     51  C   UNL A   1      43.208  27.311  26.511  1.00  0.00     0.009 A 
ATOM     52  C   UNL A   1      41.994  25.376  27.305  1.00  0.00     0.009 A 
ATOM     53  C   UNL A   1      43.637  26.579  25.400  1.00  0.00     0.001 A 
ATOM     54  C   UNL A   1      42.445  24.640  26.209  1.00  0.00     0.001 A 
ATOM     55  C   UNL A   1      43.259  25.245  25.253  1.00  0.00     0.000 A 
ENDBRANCH  36  50
BRANCH  37  56
ATOM     56  C   UNL A   1      38.885  31.838  35.269  1.00  0.00    -0.014 A 
ATOM     57  C   UNL A   1      38.153  31.187  36.274  1.00  0.00     0.009 A 
ATOM     58  C   UNL A   1      39.128  33.215  35.388  1.00  0.00     0.009 A 
ATOM     59  C   UNL A   1      37.665  31.906  37.369  1.00  0.00     0.001 A 
ATOM     60  C   UNL A   1      38.666  33.924  36.499  1.00  0.00     0.001 A 
ATOM     61  C   UNL A   1      37.929  33.270  37.484  1.00  0.00     0.000 A 
ENDBRANCH  37  56
BRANCH  49  62
ATOM     62  C   UNL A   1      44.467  27.812  34.280  1.00  0.00    -0.014 A 
ATOM     63  C   UNL A   1      44.442  26.583  34.957  1.00  0.00     0.009 A 
ATOM     64  C   UNL A   1      45.576  28.656  34.438  1.00  0.00     0.009 A 
ATOM     65  C   UNL A   1      45.496  26.220  35.798  1.00  0.00     0.001 A 
ATOM     66  C   UNL A   1      46.637  28.282  35.262  1.00  0.00     0.001 A 
ATOM     67  C   UNL A   1      46.593  27.069  35.947  1.00  0.00     0.000 A 
ENDBRANCH  49  62
ENDBRANCH  23  24
ENDBRANCH  16  18
ENDBRANCH  15  16
ENDBRANCH   1  15
TORSDOF 12
ENDMDL
