MODEL 1
REMARK VINA RESULT:     -10.1      0.000      0.000
REMARK SMILES O=C(OCCOC(=O)[C@@H]1CS[C@H](c2cc(Br)ccc2O)[NH2+]1)c1ccc(-c2c3nc(c(-c4ccccc4)c4ccc([nH]4)c(-c4ccccc4)c4nc(c(-c5ccccc5)c5ccc2[nH]5)C=C4)C=C3)cc1
REMARK SMILES IDX 4 1 3 2 2 3 1 4 22 5 23 6 69 7 24 8 68 9 25 10 26 11 27 12
REMARK SMILES IDX 62 13 28 14 67 15 61 16 63 17 29 18 66 19 60 20 59 21 30 23
REMARK SMILES IDX 52 24 37 25 51 26 38 27 41 28 50 29 64 30 39 31 40 32 49 34
REMARK SMILES IDX 65 35 42 36 31 37 32 38 36 39 33 40 35 41 34 42 53 43 54 44
REMARK SMILES IDX 58 45 55 46 57 47 56 48 43 49 44 50 48 51 45 52 47 53 46 54
REMARK SMILES IDX 5 55 6 56 7 57 8 58 9 59 10 60 21 61 11 62 12 63 13 66 14 67
REMARK SMILES IDX 19 68 15 69 18 70 16 71 17 72 20 73
REMARK H PARENT 63 22 41 33 21 64 21 65 20 74
REMARK Flexibility Score: inf
ROOT
ATOM      1  C   UNL A   1      32.181  30.090  27.236  1.00  0.00     0.275 C 
ENDROOT
BRANCH   1   2
ATOM      2  O   UNL A   1      33.607  30.265  27.131  1.00  0.00    -0.458 OA
BRANCH   2   3
ATOM      3  C   UNL A   1      34.509  30.726  28.031  1.00  0.00     0.338 C 
ATOM      4  O   UNL A   1      34.263  31.774  28.626  1.00  0.00    -0.246 OA
BRANCH   3   5
ATOM      5  C   UNL A   1      35.879  30.143  28.209  1.00  0.00     0.060 A 
ATOM      6  C   UNL A   1      36.899  30.133  27.256  1.00  0.00     0.016 A 
ATOM      7  C   UNL A   1      36.176  29.638  29.494  1.00  0.00     0.016 A 
ATOM      8  C   UNL A   1      38.204  29.767  27.598  1.00  0.00     0.010 A 
ATOM      9  C   UNL A   1      37.482  29.279  29.845  1.00  0.00     0.010 A 
ATOM     10  C   UNL A   1      38.508  29.358  28.896  1.00  0.00    -0.014 A 
BRANCH  10  11
ATOM     11  C   UNL A   1      39.861  28.844  29.198  1.00  0.00     0.031 A 
ATOM     12  C   UNL A   1      40.800  29.755  29.927  1.00  0.00     0.074 A 
ATOM     13  C   UNL A   1      40.226  27.588  28.878  1.00  0.00     0.049 A 
ATOM     14  N   UNL A   1      42.018  29.525  30.336  1.00  0.00    -0.248 NA
ATOM     15  C   UNL A   1      40.284  31.092  30.274  1.00  0.00     0.031 C 
ATOM     16  C   UNL A   1      39.363  26.579  28.270  1.00  0.00     0.029 A 
ATOM     17  N   UNL A   1      41.431  26.945  29.014  1.00  0.00    -0.354 N 
ATOM     18  C   UNL A   1      42.402  30.676  31.010  1.00  0.00     0.074 A 
ATOM     19  C   UNL A   1      41.315  31.621  30.912  1.00  0.00     0.031 C 
ATOM     20  C   UNL A   1      40.079  25.470  28.015  1.00  0.00     0.029 A 
ATOM     21  C   UNL A   1      41.449  25.682  28.467  1.00  0.00     0.049 A 
ATOM     22  H   UNL A   1      42.210  27.349  29.461  1.00  0.00     0.167 HD
ATOM     23  C   UNL A   1      43.555  30.914  31.671  1.00  0.00     0.031 A 
ATOM     24  C   UNL A   1      42.463  24.803  28.348  1.00  0.00     0.031 A 
ATOM     25  C   UNL A   1      44.642  29.981  31.738  1.00  0.00     0.049 A 
ATOM     26  C   UNL A   1      43.791  25.157  28.965  1.00  0.00     0.074 A 
ATOM     27  C   UNL A   1      45.858  30.119  32.379  1.00  0.00     0.029 A 
ATOM     28  N   UNL A   1      44.648  28.741  31.116  1.00  0.00    -0.354 N 
ATOM     29  N   UNL A   1      44.119  26.221  29.660  1.00  0.00    -0.248 NA
ATOM     30  C   UNL A   1      44.878  24.180  28.814  1.00  0.00     0.031 C 
ATOM     31  C   UNL A   1      46.627  28.988  32.089  1.00  0.00     0.029 A 
ATOM     32  C   UNL A   1      45.867  28.122  31.318  1.00  0.00     0.049 A 
ATOM     33  H   UNL A   1      43.896  28.358  30.608  1.00  0.00     0.167 HD
ATOM     34  C   UNL A   1      45.433  26.023  30.061  1.00  0.00     0.074 A 
ATOM     35  C   UNL A   1      45.837  24.731  29.545  1.00  0.00     0.031 C 
ATOM     36  C   UNL A   1      46.236  26.833  30.794  1.00  0.00     0.031 A 
BRANCH  23  37
ATOM     37  C   UNL A   1      43.698  32.250  32.335  1.00  0.00    -0.014 A 
ATOM     38  C   UNL A   1      43.296  32.449  33.665  1.00  0.00     0.009 A 
ATOM     39  C   UNL A   1      44.242  33.324  31.617  1.00  0.00     0.009 A 
ATOM     40  C   UNL A   1      43.412  33.708  34.255  1.00  0.00     0.001 A 
ATOM     41  C   UNL A   1      44.378  34.576  32.217  1.00  0.00     0.001 A 
ATOM     42  C   UNL A   1      43.957  34.770  33.532  1.00  0.00     0.000 A 
ENDBRANCH  23  37
BRANCH  24  43
ATOM     43  C   UNL A   1      42.290  23.520  27.611  1.00  0.00    -0.014 A 
ATOM     44  C   UNL A   1      41.902  22.345  28.274  1.00  0.00     0.009 A 
ATOM     45  C   UNL A   1      42.591  23.447  26.240  1.00  0.00     0.009 A 
ATOM     46  C   UNL A   1      41.865  21.122  27.596  1.00  0.00     0.001 A 
ATOM     47  C   UNL A   1      42.526  22.230  25.558  1.00  0.00     0.001 A 
ATOM     48  C   UNL A   1      42.179  21.065  26.239  1.00  0.00     0.000 A 
ENDBRANCH  24  43
BRANCH  36  49
ATOM     49  C   UNL A   1      47.618  26.333  31.099  1.00  0.00    -0.014 A 
ATOM     50  C   UNL A   1      47.901  25.674  32.304  1.00  0.00     0.009 A 
ATOM     51  C   UNL A   1      48.632  26.467  30.137  1.00  0.00     0.009 A 
ATOM     52  C   UNL A   1      49.183  25.183  32.553  1.00  0.00     0.001 A 
ATOM     53  C   UNL A   1      49.903  25.945  30.375  1.00  0.00     0.001 A 
ATOM     54  C   UNL A   1      50.179  25.312  31.585  1.00  0.00     0.000 A 
ENDBRANCH  36  49
ENDBRANCH  10  11
ENDBRANCH   3   5
ENDBRANCH   2   3
ENDBRANCH   1   2
BRANCH   1  55
ATOM     55  C   UNL A   1      31.724  28.632  27.358  1.00  0.00     0.274 C 
BRANCH  55  56
ATOM     56  O   UNL A   1      31.670  27.954  26.094  1.00  0.00    -0.458 OA
BRANCH  56  57
ATOM     57  C   UNL A   1      31.924  26.602  26.126  1.00  0.00     0.365 C 
ATOM     58  O   UNL A   1      31.252  25.796  26.748  1.00  0.00    -0.245 OA
BRANCH  57  59
ATOM     59  C   UNL A   1      33.081  26.251  25.178  1.00  0.00     0.304 C 
ATOM     60  C   UNL A   1      33.755  27.456  24.532  1.00  0.00     0.153 C 
ATOM     61  N   UNL A   1      32.729  25.229  24.165  1.00  0.00    -0.319 N 
ATOM     62  S   UNL A   1      33.638  27.147  22.750  1.00  0.00    -0.087 SA
ATOM     63  C   UNL A   1      32.293  25.925  22.948  1.00  0.00     0.278 C 
ATOM     64  H   UNL A   1      31.973  24.640  24.516  1.00  0.00     0.348 HD
ATOM     65  H   UNL A   1      33.534  24.637  23.964  1.00  0.00     0.348 HD
BRANCH  63  66
ATOM     66  C   UNL A   1      30.897  26.523  23.052  1.00  0.00     0.063 A 
ATOM     67  C   UNL A   1      30.614  27.800  22.532  1.00  0.00     0.030 A 
ATOM     68  C   UNL A   1      29.837  25.839  23.670  1.00  0.00     0.125 A 
ATOM     69  C   UNL A   1      29.381  28.412  22.760  1.00  0.00     0.018 A 
ATOM     70  C   UNL A   1      28.610  26.455  23.922  1.00  0.00     0.048 A 
ATOM     71  Br  UNL A   1      29.069  30.153  22.094  1.00  0.00    -0.051 Br
ATOM     72  C   UNL A   1      28.391  27.758  23.485  1.00  0.00     0.019 A 
BRANCH  68  73
ATOM     73  O   UNL A   1      29.985  24.534  24.048  1.00  0.00    -0.507 OA
ATOM     74  H   UNL A   1      30.822  24.221  24.330  1.00  0.00     0.293 HD
ENDBRANCH  68  73
ENDBRANCH  63  66
ENDBRANCH  57  59
ENDBRANCH  56  57
ENDBRANCH  55  56
ENDBRANCH   1  55
TORSDOF 13
ENDMDL
MODEL 2
REMARK VINA RESULT:     -10.0      3.650      7.562
REMARK SMILES O=C(OCCOC(=O)[C@@H]1CS[C@H](c2cc(Br)ccc2O)[NH2+]1)c1ccc(-c2c3nc(c(-c4ccccc4)c4ccc([nH]4)c(-c4ccccc4)c4nc(c(-c5ccccc5)c5ccc2[nH]5)C=C4)C=C3)cc1
REMARK SMILES IDX 4 1 3 2 2 3 1 4 22 5 23 6 69 7 24 8 68 9 25 10 26 11 27 12
REMARK SMILES IDX 62 13 28 14 67 15 61 16 63 17 29 18 66 19 60 20 59 21 30 23
REMARK SMILES IDX 52 24 37 25 51 26 38 27 41 28 50 29 64 30 39 31 40 32 49 34
REMARK SMILES IDX 65 35 42 36 31 37 32 38 36 39 33 40 35 41 34 42 53 43 54 44
REMARK SMILES IDX 58 45 55 46 57 47 56 48 43 49 44 50 48 51 45 52 47 53 46 54
REMARK SMILES IDX 5 55 6 56 7 57 8 58 9 59 10 60 21 61 11 62 12 63 13 66 14 67
REMARK SMILES IDX 19 68 15 69 18 70 16 71 17 72 20 73
REMARK H PARENT 63 22 41 33 21 64 21 65 20 74
REMARK Flexibility Score: inf
ROOT
ATOM      1  C   UNL A   1      38.286  20.739  25.450  1.00  0.00     0.275 C 
ENDROOT
BRANCH   1   2
ATOM      2  O   UNL A   1      39.335  19.757  25.560  1.00  0.00    -0.458 OA
BRANCH   2   3
ATOM      3  C   UNL A   1      40.639  19.892  25.900  1.00  0.00     0.338 C 
ATOM      4  O   UNL A   1      41.348  18.887  25.917  1.00  0.00    -0.246 OA
BRANCH   3   5
ATOM      5  C   UNL A   1      41.231  21.157  26.443  1.00  0.00     0.060 A 
ATOM      6  C   UNL A   1      41.850  22.162  25.698  1.00  0.00     0.016 A 
ATOM      7  C   UNL A   1      41.063  21.376  27.827  1.00  0.00     0.016 A 
ATOM      8  C   UNL A   1      42.166  23.397  26.271  1.00  0.00     0.010 A 
ATOM      9  C   UNL A   1      41.370  22.613  28.407  1.00  0.00     0.010 A 
ATOM     10  C   UNL A   1      41.910  23.638  27.621  1.00  0.00    -0.014 A 
BRANCH  10  11
ATOM     11  C   UNL A   1      42.379  24.897  28.236  1.00  0.00     0.031 A 
ATOM     12  C   UNL A   1      41.388  26.011  28.374  1.00  0.00     0.074 A 
ATOM     13  C   UNL A   1      43.636  25.029  28.705  1.00  0.00     0.049 A 
ATOM     14  N   UNL A   1      41.544  27.191  28.909  1.00  0.00    -0.248 NA
ATOM     15  C   UNL A   1      40.027  25.746  27.874  1.00  0.00     0.031 C 
ATOM     16  C   UNL A   1      44.650  23.978  28.727  1.00  0.00     0.029 A 
ATOM     17  N   UNL A   1      44.278  26.113  29.249  1.00  0.00    -0.354 N 
ATOM     18  C   UNL A   1      40.298  27.797  28.834  1.00  0.00     0.074 A 
ATOM     19  C   UNL A   1      39.410  26.882  28.158  1.00  0.00     0.031 C 
ATOM     20  C   UNL A   1      45.809  24.483  29.185  1.00  0.00     0.029 A 
ATOM     21  C   UNL A   1      45.610  25.890  29.514  1.00  0.00     0.049 A 
ATOM     22  H   UNL A   1      43.829  26.970  29.431  1.00  0.00     0.167 HD
ATOM     23  C   UNL A   1      39.924  29.005  29.309  1.00  0.00     0.031 A 
ATOM     24  C   UNL A   1      46.556  26.733  29.971  1.00  0.00     0.031 A 
ATOM     25  C   UNL A   1      40.821  29.919  29.953  1.00  0.00     0.049 A 
ATOM     26  C   UNL A   1      46.142  28.131  30.353  1.00  0.00     0.074 A 
ATOM     27  C   UNL A   1      40.549  31.171  30.471  1.00  0.00     0.029 A 
ATOM     28  N   UNL A   1      42.174  29.685  30.144  1.00  0.00    -0.354 N 
ATOM     29  N   UNL A   1      44.945  28.668  30.341  1.00  0.00    -0.248 NA
ATOM     30  C   UNL A   1      47.198  29.028  30.843  1.00  0.00     0.031 C 
ATOM     31  C   UNL A   1      41.754  31.723  30.916  1.00  0.00     0.029 A 
ATOM     32  C   UNL A   1      42.763  30.790  30.729  1.00  0.00     0.049 A 
ATOM     33  H   UNL A   1      42.646  28.856  29.899  1.00  0.00     0.167 HD
ATOM     34  C   UNL A   1      45.096  29.947  30.857  1.00  0.00     0.074 A 
ATOM     35  C   UNL A   1      46.499  30.101  31.187  1.00  0.00     0.031 C 
ATOM     36  C   UNL A   1      44.162  30.910  31.048  1.00  0.00     0.031 A 
BRANCH  23  37
ATOM     37  C   UNL A   1      38.493  29.404  29.107  1.00  0.00    -0.014 A 
ATOM     38  C   UNL A   1      38.047  29.917  27.878  1.00  0.00     0.009 A 
ATOM     39  C   UNL A   1      37.582  29.265  30.162  1.00  0.00     0.009 A 
ATOM     40  C   UNL A   1      36.718  30.307  27.720  1.00  0.00     0.001 A 
ATOM     41  C   UNL A   1      36.247  29.635  29.993  1.00  0.00     0.001 A 
ATOM     42  C   UNL A   1      35.817  30.163  28.776  1.00  0.00     0.000 A 
ENDBRANCH  23  37
BRANCH  24  43
ATOM     43  C   UNL A   1      47.981  26.310  30.080  1.00  0.00    -0.014 A 
ATOM     44  C   UNL A   1      48.837  26.343  28.969  1.00  0.00     0.009 A 
ATOM     45  C   UNL A   1      48.471  25.792  31.291  1.00  0.00     0.009 A 
ATOM     46  C   UNL A   1      50.135  25.824  29.054  1.00  0.00     0.001 A 
ATOM     47  C   UNL A   1      49.777  25.301  31.381  1.00  0.00     0.001 A 
ATOM     48  C   UNL A   1      50.602  25.303  30.258  1.00  0.00     0.000 A 
ENDBRANCH  24  43
BRANCH  36  49
ATOM     49  C   UNL A   1      44.623  32.201  31.659  1.00  0.00    -0.014 A 
ATOM     50  C   UNL A   1      44.661  32.370  33.051  1.00  0.00     0.009 A 
ATOM     51  C   UNL A   1      45.086  33.234  30.830  1.00  0.00     0.009 A 
ATOM     52  C   UNL A   1      45.129  33.565  33.602  1.00  0.00     0.001 A 
ATOM     53  C   UNL A   1      45.584  34.413  31.384  1.00  0.00     0.001 A 
ATOM     54  C   UNL A   1      45.597  34.580  32.767  1.00  0.00     0.000 A 
ENDBRANCH  36  49
ENDBRANCH  10  11
ENDBRANCH   3   5
ENDBRANCH   2   3
ENDBRANCH   1   2
BRANCH   1  55
ATOM     55  C   UNL A   1      37.023  20.246  24.735  1.00  0.00     0.274 C 
BRANCH  55  56
ATOM     56  O   UNL A   1      35.830  20.905  25.187  1.00  0.00    -0.458 OA
BRANCH  56  57
ATOM     57  C   UNL A   1      35.576  22.136  24.627  1.00  0.00     0.365 C 
ATOM     58  O   UNL A   1      35.781  22.409  23.456  1.00  0.00    -0.245 OA
BRANCH  57  59
ATOM     59  C   UNL A   1      34.892  23.058  25.647  1.00  0.00     0.304 C 
ATOM     60  C   UNL A   1      34.622  22.412  27.001  1.00  0.00     0.153 C 
ATOM     61  N   UNL A   1      33.678  23.727  25.123  1.00  0.00    -0.319 N 
ATOM     62  S   UNL A   1      32.839  22.608  27.257  1.00  0.00    -0.087 SA
ATOM     63  C   UNL A   1      32.516  22.905  25.482  1.00  0.00     0.278 C 
ATOM     64  H   UNL A   1      33.741  23.812  24.108  1.00  0.00     0.348 HD
ATOM     65  H   UNL A   1      33.588  24.661  25.521  1.00  0.00     0.348 HD
BRANCH  63  66
ATOM     66  C   UNL A   1      32.372  21.646  24.640  1.00  0.00     0.063 A 
ATOM     67  C   UNL A   1      32.423  20.368  25.229  1.00  0.00     0.030 A 
ATOM     68  C   UNL A   1      32.189  21.698  23.248  1.00  0.00     0.125 A 
ATOM     69  C   UNL A   1      32.446  19.216  24.443  1.00  0.00     0.018 A 
ATOM     70  C   UNL A   1      32.234  20.549  22.456  1.00  0.00     0.048 A 
ATOM     71  Br  UNL A   1      32.577  17.525  25.277  1.00  0.00    -0.051 Br
ATOM     72  C   UNL A   1      32.388  19.303  23.057  1.00  0.00     0.019 A 
BRANCH  68  73
ATOM     73  O   UNL A   1      31.960  22.892  22.626  1.00  0.00    -0.507 OA
ATOM     74  H   UNL A   1      31.090  23.122  22.360  1.00  0.00     0.293 HD
ENDBRANCH  68  73
ENDBRANCH  63  66
ENDBRANCH  57  59
ENDBRANCH  56  57
ENDBRANCH  55  56
ENDBRANCH   1  55
TORSDOF 13
ENDMDL
MODEL 3
REMARK VINA RESULT:      -9.9      1.586      2.278
REMARK SMILES O=C(OCCOC(=O)[C@@H]1CS[C@H](c2cc(Br)ccc2O)[NH2+]1)c1ccc(-c2c3nc(c(-c4ccccc4)c4ccc([nH]4)c(-c4ccccc4)c4nc(c(-c5ccccc5)c5ccc2[nH]5)C=C4)C=C3)cc1
REMARK SMILES IDX 4 1 3 2 2 3 1 4 22 5 23 6 69 7 24 8 68 9 25 10 26 11 27 12
REMARK SMILES IDX 62 13 28 14 67 15 61 16 63 17 29 18 66 19 60 20 59 21 30 23
REMARK SMILES IDX 52 24 37 25 51 26 38 27 41 28 50 29 64 30 39 31 40 32 49 34
REMARK SMILES IDX 65 35 42 36 31 37 32 38 36 39 33 40 35 41 34 42 53 43 54 44
REMARK SMILES IDX 58 45 55 46 57 47 56 48 43 49 44 50 48 51 45 52 47 53 46 54
REMARK SMILES IDX 5 55 6 56 7 57 8 58 9 59 10 60 21 61 11 62 12 63 13 66 14 67
REMARK SMILES IDX 19 68 15 69 18 70 16 71 17 72 20 73
REMARK H PARENT 63 22 41 33 21 64 21 65 20 74
REMARK Flexibility Score: inf
ROOT
ATOM      1  C   UNL A   1      33.182  28.784  27.474  1.00  0.00     0.275 C 
ENDROOT
BRANCH   1   2
ATOM      2  O   UNL A   1      33.757  30.100  27.367  1.00  0.00    -0.458 OA
BRANCH   2   3
ATOM      3  C   UNL A   1      34.553  30.789  28.220  1.00  0.00     0.338 C 
ATOM      4  O   UNL A   1      34.197  31.910  28.580  1.00  0.00    -0.246 OA
BRANCH   3   5
ATOM      5  C   UNL A   1      35.936  30.353  28.603  1.00  0.00     0.060 A 
ATOM      6  C   UNL A   1      36.324  29.851  29.846  1.00  0.00     0.016 A 
ATOM      7  C   UNL A   1      36.902  30.380  27.575  1.00  0.00     0.016 A 
ATOM      8  C   UNL A   1      37.581  29.268  30.030  1.00  0.00     0.010 A 
ATOM      9  C   UNL A   1      38.159  29.790  27.749  1.00  0.00     0.010 A 
ATOM     10  C   UNL A   1      38.497  29.214  28.980  1.00  0.00    -0.014 A 
BRANCH  10  11
ATOM     11  C   UNL A   1      39.867  28.720  29.234  1.00  0.00     0.031 A 
ATOM     12  C   UNL A   1      40.819  29.645  29.928  1.00  0.00     0.074 A 
ATOM     13  C   UNL A   1      40.238  27.467  28.904  1.00  0.00     0.049 A 
ATOM     14  N   UNL A   1      42.053  29.434  30.294  1.00  0.00    -0.248 NA
ATOM     15  C   UNL A   1      40.297  30.976  30.289  1.00  0.00     0.031 C 
ATOM     16  C   UNL A   1      39.367  26.445  28.330  1.00  0.00     0.029 A 
ATOM     17  N   UNL A   1      41.456  26.842  28.999  1.00  0.00    -0.354 N 
ATOM     18  C   UNL A   1      42.445  30.591  30.950  1.00  0.00     0.074 A 
ATOM     19  C   UNL A   1      41.342  31.521  30.890  1.00  0.00     0.031 C 
ATOM     20  C   UNL A   1      40.089  25.346  28.052  1.00  0.00     0.029 A 
ATOM     21  C   UNL A   1      41.472  25.578  28.454  1.00  0.00     0.049 A 
ATOM     22  H   UNL A   1      42.245  27.258  29.417  1.00  0.00     0.167 HD
ATOM     23  C   UNL A   1      43.618  30.846  31.570  1.00  0.00     0.031 A 
ATOM     24  C   UNL A   1      42.493  24.712  28.302  1.00  0.00     0.031 A 
ATOM     25  C   UNL A   1      44.719  29.929  31.600  1.00  0.00     0.049 A 
ATOM     26  C   UNL A   1      43.837  25.087  28.871  1.00  0.00     0.074 A 
ATOM     27  C   UNL A   1      45.954  30.085  32.198  1.00  0.00     0.029 A 
ATOM     28  N   UNL A   1      44.720  28.687  30.982  1.00  0.00    -0.354 N 
ATOM     29  N   UNL A   1      44.175  26.157  29.551  1.00  0.00    -0.248 NA
ATOM     30  C   UNL A   1      44.931  24.123  28.683  1.00  0.00     0.031 C 
ATOM     31  C   UNL A   1      46.729  28.964  31.883  1.00  0.00     0.029 A 
ATOM     32  C   UNL A   1      45.953  28.086  31.142  1.00  0.00     0.049 A 
ATOM     33  H   UNL A   1      43.956  28.293  30.501  1.00  0.00     0.167 HD
ATOM     34  C   UNL A   1      45.504  25.978  29.905  1.00  0.00     0.074 A 
ATOM     35  C   UNL A   1      45.908  24.690  29.378  1.00  0.00     0.031 C 
ATOM     36  C   UNL A   1      46.322  26.800  30.608  1.00  0.00     0.031 A 
BRANCH  23  37
ATOM     37  C   UNL A   1      43.766  32.187  32.225  1.00  0.00    -0.014 A 
ATOM     38  C   UNL A   1      44.274  33.289  31.521  1.00  0.00     0.009 A 
ATOM     39  C   UNL A   1      43.391  32.345  33.567  1.00  0.00     0.009 A 
ATOM     40  C   UNL A   1      44.429  34.521  32.158  1.00  0.00     0.001 A 
ATOM     41  C   UNL A   1      43.525  33.584  34.194  1.00  0.00     0.001 A 
ATOM     42  C   UNL A   1      44.051  34.669  33.493  1.00  0.00     0.000 A 
ENDBRANCH  23  37
BRANCH  24  43
ATOM     43  C   UNL A   1      42.311  23.425  27.574  1.00  0.00    -0.014 A 
ATOM     44  C   UNL A   1      41.907  22.260  28.245  1.00  0.00     0.009 A 
ATOM     45  C   UNL A   1      42.620  23.338  26.206  1.00  0.00     0.009 A 
ATOM     46  C   UNL A   1      41.862  21.031  27.576  1.00  0.00     0.001 A 
ATOM     47  C   UNL A   1      42.547  22.115  25.533  1.00  0.00     0.001 A 
ATOM     48  C   UNL A   1      42.184  20.960  26.222  1.00  0.00     0.000 A 
ENDBRANCH  24  43
BRANCH  36  49
ATOM     49  C   UNL A   1      47.720  26.320  30.864  1.00  0.00    -0.014 A 
ATOM     50  C   UNL A   1      48.056  25.675  32.064  1.00  0.00     0.009 A 
ATOM     51  C   UNL A   1      48.696  26.459  29.864  1.00  0.00     0.009 A 
ATOM     52  C   UNL A   1      49.354  25.202  32.268  1.00  0.00     0.001 A 
ATOM     53  C   UNL A   1      49.981  25.955  30.058  1.00  0.00     0.001 A 
ATOM     54  C   UNL A   1      50.311  25.336  31.262  1.00  0.00     0.000 A 
ENDBRANCH  36  49
ENDBRANCH  10  11
ENDBRANCH   3   5
ENDBRANCH   2   3
ENDBRANCH   1   2
BRANCH   1  55
ATOM     55  C   UNL A   1      33.711  27.771  26.452  1.00  0.00     0.274 C 
BRANCH  55  56
ATOM     56  O   UNL A   1      32.846  27.617  25.317  1.00  0.00    -0.458 OA
BRANCH  56  57
ATOM     57  C   UNL A   1      33.197  28.330  24.194  1.00  0.00     0.365 C 
ATOM     58  O   UNL A   1      34.342  28.451  23.793  1.00  0.00    -0.245 OA
BRANCH  57  59
ATOM     59  C   UNL A   1      31.942  28.836  23.467  1.00  0.00     0.304 C 
ATOM     60  C   UNL A   1      30.648  28.678  24.256  1.00  0.00     0.153 C 
ATOM     61  N   UNL A   1      31.798  28.303  22.091  1.00  0.00    -0.319 N 
ATOM     62  S   UNL A   1      29.563  27.713  23.172  1.00  0.00    -0.087 SA
ATOM     63  C   UNL A   1      30.955  27.103  22.155  1.00  0.00     0.278 C 
ATOM     64  H   UNL A   1      32.715  28.061  21.716  1.00  0.00     0.348 HD
ATOM     65  H   UNL A   1      31.372  29.002  21.483  1.00  0.00     0.348 HD
BRANCH  63  66
ATOM     66  C   UNL A   1      31.668  25.882  22.717  1.00  0.00     0.063 A 
ATOM     67  C   UNL A   1      31.065  25.077  23.703  1.00  0.00     0.030 A 
ATOM     68  C   UNL A   1      32.953  25.507  22.289  1.00  0.00     0.125 A 
ATOM     69  C   UNL A   1      31.776  24.053  24.327  1.00  0.00     0.018 A 
ATOM     70  C   UNL A   1      33.677  24.498  22.927  1.00  0.00     0.048 A 
ATOM     71  Br  UNL A   1      30.943  23.039  25.688  1.00  0.00    -0.051 Br
ATOM     72  C   UNL A   1      33.091  23.784  23.968  1.00  0.00     0.019 A 
BRANCH  68  73
ATOM     73  O   UNL A   1      33.535  26.132  21.222  1.00  0.00    -0.507 OA
ATOM     74  H   UNL A   1      34.171  26.806  21.365  1.00  0.00     0.293 HD
ENDBRANCH  68  73
ENDBRANCH  63  66
ENDBRANCH  57  59
ENDBRANCH  56  57
ENDBRANCH  55  56
ENDBRANCH   1  55
TORSDOF 13
ENDMDL
