MODEL 1
REMARK VINA RESULT:     -11.7      0.000      0.000
REMARK SMILES CCN(CCC(=O)OCCOC(=O)c1ccc(-c2c3nc(c(-c4ccccc4)c4ccc([nH]4)c(-c4ccccc4)c4nc(c(-c5ccccc5)c5ccc2[nH]5)C=C4)C=C3)cc1)C(=O)c1cc(Cl)ccc1F
REMARK SMILES IDX 9 1 8 2 6 3 7 4 5 5 4 6 3 7 2 8 1 9 62 10 63 11 64 12 65 13
REMARK SMILES IDX 70 14 66 15 69 16 71 17 67 18 68 19 10 20 11 21 12 22 13 23
REMARK SMILES IDX 14 24 15 25 61 26 16 27 60 28 17 29 18 30 19 31 54 32 20 33
REMARK SMILES IDX 59 34 53 35 55 36 21 37 58 38 52 39 51 40 22 42 44 43 29 44
REMARK SMILES IDX 43 45 30 46 33 47 42 48 56 49 31 50 32 51 41 53 57 54 34 55
REMARK SMILES IDX 23 56 24 57 28 58 25 59 27 60 26 61 45 62 46 63 50 64 47 65
REMARK SMILES IDX 49 66 48 67 35 68 36 69 40 70 37 71 39 72 38 73
REMARK H PARENT 55 41 33 52
REMARK Flexibility Score: inf
ROOT
ATOM      1  C   UNL A   1      37.071  20.648  25.000  1.00  0.00     0.274 C 
ENDROOT
BRANCH   1   2
ATOM      2  O   UNL A   1      37.241  22.036  24.397  1.00  0.00    -0.462 OA
BRANCH   2   3
ATOM      3  C   UNL A   1      36.481  22.954  23.673  1.00  0.00     0.307 C 
ATOM      4  O   UNL A   1      36.652  23.002  22.451  1.00  0.00    -0.252 OA
BRANCH   3   5
ATOM      5  C   UNL A   1      35.293  23.817  24.330  1.00  0.00     0.144 C 
BRANCH   5   6
ATOM      6  C   UNL A   1      33.728  23.345  24.241  1.00  0.00     0.131 C 
BRANCH   6   7
ATOM      7  N   UNL A   1      33.291  22.263  25.246  1.00  0.00    -0.338 N 
BRANCH   7   8
ATOM      8  C   UNL A   1      34.213  22.154  26.388  1.00  0.00     0.116 C 
ATOM      9  C   UNL A   1      33.612  22.393  27.769  1.00  0.00     0.027 C 
ENDBRANCH   7   8
BRANCH   7  10
ATOM     10  C   UNL A   1      32.217  21.288  25.201  1.00  0.00     0.256 C 
ATOM     11  O   UNL A   1      31.094  21.540  25.645  1.00  0.00    -0.269 OA
BRANCH  10  12
ATOM     12  C   UNL A   1      32.362  19.863  24.747  1.00  0.00     0.077 A 
ATOM     13  C   UNL A   1      33.464  18.686  25.532  1.00  0.00     0.037 A 
ATOM     14  C   UNL A   1      31.995  19.611  23.039  1.00  0.00     0.136 A 
ATOM     15  C   UNL A   1      34.132  17.299  24.600  1.00  0.00     0.042 A 
ATOM     16  C   UNL A   1      32.681  18.243  22.032  1.00  0.00     0.041 A 
ATOM     17  F   UNL A   1      32.057  20.759  22.527  1.00  0.00    -0.206 F 
ATOM     18  Cl  UNL A   1      35.153  16.161  25.376  1.00  0.00    -0.084 Cl
ATOM     19  C   UNL A   1      33.750  17.066  22.853  1.00  0.00     0.023 A 
ENDBRANCH  10  12
ENDBRANCH   7  10
ENDBRANCH   6   7
ENDBRANCH   5   6
ENDBRANCH   3   5
ENDBRANCH   2   3
ENDBRANCH   1   2
BRANCH   1  20
ATOM     20  C   UNL A   1      38.185  19.229  25.016  1.00  0.00     0.275 C 
BRANCH  20  21
ATOM     21  O   UNL A   1      40.105  19.038  25.677  1.00  0.00    -0.458 OA
BRANCH  21  22
ATOM     22  C   UNL A   1      41.483  19.146  25.976  1.00  0.00     0.338 C 
ATOM     23  O   UNL A   1      42.230  18.179  25.823  1.00  0.00    -0.246 OA
BRANCH  22  24
ATOM     24  C   UNL A   1      42.116  20.410  26.483  1.00  0.00     0.060 A 
ATOM     25  C   UNL A   1      41.874  20.959  27.757  1.00  0.00     0.016 A 
ATOM     26  C   UNL A   1      42.881  21.135  25.566  1.00  0.00     0.016 A 
ATOM     27  C   UNL A   1      42.403  22.206  28.113  1.00  0.00     0.010 A 
ATOM     28  C   UNL A   1      43.385  22.393  25.910  1.00  0.00     0.010 A 
ATOM     29  C   UNL A   1      43.118  22.951  27.173  1.00  0.00    -0.014 A 
BRANCH  29  30
ATOM     30  C   UNL A   1      43.388  24.394  27.397  1.00  0.00     0.031 A 
ATOM     31  C   UNL A   1      44.812  24.873  27.307  1.00  0.00     0.074 A 
ATOM     32  C   UNL A   1      42.408  25.265  27.694  1.00  0.00     0.049 A 
ATOM     33  N   UNL A   1      45.315  26.050  27.582  1.00  0.00    -0.248 NA
ATOM     34  C   UNL A   1      45.805  23.885  26.852  1.00  0.00     0.031 C 
ATOM     35  C   UNL A   1      40.981  24.956  27.750  1.00  0.00     0.029 A 
ATOM     36  N   UNL A   1      42.481  26.597  28.021  1.00  0.00    -0.354 N 
ATOM     37  C   UNL A   1      46.681  25.934  27.364  1.00  0.00     0.074 A 
ATOM     38  C   UNL A   1      46.932  24.571  26.948  1.00  0.00     0.031 C 
ATOM     39  C   UNL A   1      40.312  26.069  28.100  1.00  0.00     0.029 A 
ATOM     40  C   UNL A   1      41.265  27.153  28.333  1.00  0.00     0.049 A 
ATOM     41  H   UNL A   1      43.324  27.104  28.031  1.00  0.00     0.167 HD
ATOM     42  C   UNL A   1      47.647  26.873  27.499  1.00  0.00     0.031 A 
ATOM     43  C   UNL A   1      40.961  28.388  28.778  1.00  0.00     0.031 A 
ATOM     44  C   UNL A   1      47.408  28.229  27.916  1.00  0.00     0.049 A 
ATOM     45  C   UNL A   1      42.060  29.394  29.000  1.00  0.00     0.074 A 
ATOM     46  C   UNL A   1      48.320  29.259  28.063  1.00  0.00     0.029 A 
ATOM     47  N   UNL A   1      46.166  28.739  28.258  1.00  0.00    -0.354 N 
ATOM     48  N   UNL A   1      43.347  29.277  28.784  1.00  0.00    -0.248 NA
ATOM     49  C   UNL A   1      41.656  30.708  29.526  1.00  0.00     0.031 C 
ATOM     50  C   UNL A   1      47.637  30.381  28.544  1.00  0.00     0.029 A 
ATOM     51  C   UNL A   1      46.291  30.063  28.642  1.00  0.00     0.049 A 
ATOM     52  H   UNL A   1      45.321  28.235  28.233  1.00  0.00     0.167 HD
ATOM     53  C   UNL A   1      43.902  30.509  29.114  1.00  0.00     0.074 A 
ATOM     54  C   UNL A   1      42.810  31.360  29.541  1.00  0.00     0.031 C 
ATOM     55  C   UNL A   1      45.198  30.902  29.061  1.00  0.00     0.031 A 
BRANCH  42  56
ATOM     56  C   UNL A   1      49.063  26.443  27.240  1.00  0.00    -0.014 A 
ATOM     57  C   UNL A   1      49.616  26.479  25.950  1.00  0.00     0.009 A 
ATOM     58  C   UNL A   1      49.856  25.997  28.308  1.00  0.00     0.009 A 
ATOM     59  C   UNL A   1      50.923  26.038  25.730  1.00  0.00     0.001 A 
ATOM     60  C   UNL A   1      51.170  25.584  28.090  1.00  0.00     0.001 A 
ATOM     61  C   UNL A   1      51.699  25.594  26.801  1.00  0.00     0.000 A 
ENDBRANCH  42  56
BRANCH  43  62
ATOM     62  C   UNL A   1      39.548  28.749  29.059  1.00  0.00    -0.014 A 
ATOM     63  C   UNL A   1      38.999  28.523  30.331  1.00  0.00     0.009 A 
ATOM     64  C   UNL A   1      38.736  29.303  28.058  1.00  0.00     0.009 A 
ATOM     65  C   UNL A   1      37.661  28.830  30.589  1.00  0.00     0.001 A 
ATOM     66  C   UNL A   1      37.406  29.632  28.326  1.00  0.00     0.001 A 
ATOM     67  C   UNL A   1      36.867  29.389  29.589  1.00  0.00     0.000 A 
ENDBRANCH  43  62
BRANCH  55  68
ATOM     68  C   UNL A   1      45.505  32.328  29.424  1.00  0.00    -0.014 A 
ATOM     69  C   UNL A   1      45.453  33.355  28.470  1.00  0.00     0.009 A 
ATOM     70  C   UNL A   1      45.808  32.652  30.756  1.00  0.00     0.009 A 
ATOM     71  C   UNL A   1      45.731  34.674  28.838  1.00  0.00     0.001 A 
ATOM     72  C   UNL A   1      46.059  33.974  31.127  1.00  0.00     0.001 A 
ATOM     73  C   UNL A   1      46.029  34.982  30.166  1.00  0.00     0.000 A 
ENDBRANCH  55  68
ENDBRANCH  29  30
ENDBRANCH  22  24
ENDBRANCH  21  22
ENDBRANCH  20  21
ENDBRANCH   1  20
TORSDOF 16
ENDMDL
MODEL 2
REMARK VINA RESULT:     -11.5      5.489     10.124
REMARK SMILES CCN(CCC(=O)OCCOC(=O)c1ccc(-c2c3nc(c(-c4ccccc4)c4ccc([nH]4)c(-c4ccccc4)c4nc(c(-c5ccccc5)c5ccc2[nH]5)C=C4)C=C3)cc1)C(=O)c1cc(Cl)ccc1F
REMARK SMILES IDX 9 1 8 2 6 3 7 4 5 5 4 6 3 7 2 8 1 9 62 10 63 11 64 12 65 13
REMARK SMILES IDX 70 14 66 15 69 16 71 17 67 18 68 19 10 20 11 21 12 22 13 23
REMARK SMILES IDX 14 24 15 25 61 26 16 27 60 28 17 29 18 30 19 31 54 32 20 33
REMARK SMILES IDX 59 34 53 35 55 36 21 37 58 38 52 39 51 40 22 42 44 43 29 44
REMARK SMILES IDX 43 45 30 46 33 47 42 48 56 49 31 50 32 51 41 53 57 54 34 55
REMARK SMILES IDX 23 56 24 57 28 58 25 59 27 60 26 61 45 62 46 63 50 64 47 65
REMARK SMILES IDX 49 66 48 67 35 68 36 69 40 70 37 71 39 72 38 73
REMARK H PARENT 55 41 33 52
REMARK Flexibility Score: inf
ROOT
ATOM      1  C   UNL A   1      31.974  30.389  26.318  1.00  0.00     0.274 C 
ENDROOT
BRANCH   1   2
ATOM      2  O   UNL A   1      31.451  29.287  25.406  1.00  0.00    -0.462 OA
BRANCH   2   3
ATOM      3  C   UNL A   1      31.542  27.899  25.296  1.00  0.00     0.307 C 
ATOM      4  O   UNL A   1      30.544  27.289  24.899  1.00  0.00    -0.252 OA
BRANCH   3   5
ATOM      5  C   UNL A   1      32.920  27.095  25.501  1.00  0.00     0.144 C 
BRANCH   5   6
ATOM      6  C   UNL A   1      34.014  26.931  24.294  1.00  0.00     0.131 C 
BRANCH   6   7
ATOM      7  N   UNL A   1      33.653  25.923  23.188  1.00  0.00    -0.338 N 
BRANCH   7   8
ATOM      8  C   UNL A   1      33.043  26.571  22.016  1.00  0.00     0.116 C 
ATOM      9  C   UNL A   1      31.573  26.259  21.757  1.00  0.00     0.027 C 
ENDBRANCH   7   8
BRANCH   7  10
ATOM     10  C   UNL A   1      33.711  24.473  23.154  1.00  0.00     0.256 C 
ATOM     11  O   UNL A   1      33.994  23.860  22.121  1.00  0.00    -0.269 OA
BRANCH  10  12
ATOM     12  C   UNL A   1      33.323  23.566  24.288  1.00  0.00     0.077 A 
ATOM     13  C   UNL A   1      31.646  23.422  24.906  1.00  0.00     0.037 A 
ATOM     14  C   UNL A   1      34.634  23.232  25.423  1.00  0.00     0.136 A 
ATOM     15  C   UNL A   1      31.341  22.930  26.609  1.00  0.00     0.042 A 
ATOM     16  C   UNL A   1      34.380  22.771  27.177  1.00  0.00     0.041 A 
ATOM     17  F   UNL A   1      35.481  24.137  25.206  1.00  0.00    -0.206 F 
ATOM     18  Cl  UNL A   1      29.730  22.759  27.173  1.00  0.00    -0.084 Cl
ATOM     19  C   UNL A   1      32.695  22.602  27.754  1.00  0.00     0.023 A 
ENDBRANCH  10  12
ENDBRANCH   7  10
ENDBRANCH   6   7
ENDBRANCH   5   6
ENDBRANCH   3   5
ENDBRANCH   2   3
ENDBRANCH   1   2
BRANCH   1  20
ATOM     20  C   UNL A   1      31.424  32.093  26.539  1.00  0.00     0.275 C 
BRANCH  20  21
ATOM     21  O   UNL A   1      32.221  33.631  27.617  1.00  0.00    -0.458 OA
BRANCH  21  22
ATOM     22  C   UNL A   1      32.992  34.508  28.415  1.00  0.00     0.338 C 
ATOM     23  O   UNL A   1      32.672  35.692  28.523  1.00  0.00    -0.246 OA
BRANCH  22  24
ATOM     24  C   UNL A   1      34.215  34.071  29.168  1.00  0.00     0.060 A 
ATOM     25  C   UNL A   1      35.535  34.324  28.745  1.00  0.00     0.016 A 
ATOM     26  C   UNL A   1      34.004  33.253  30.279  1.00  0.00     0.016 A 
ATOM     27  C   UNL A   1      36.626  33.778  29.433  1.00  0.00     0.010 A 
ATOM     28  C   UNL A   1      35.091  32.684  30.950  1.00  0.00     0.010 A 
ATOM     29  C   UNL A   1      36.407  32.914  30.508  1.00  0.00    -0.014 A 
BRANCH  29  30
ATOM     30  C   UNL A   1      37.504  32.061  31.029  1.00  0.00     0.031 A 
ATOM     31  C   UNL A   1      38.027  32.342  32.413  1.00  0.00     0.074 A 
ATOM     32  C   UNL A   1      38.047  31.072  30.298  1.00  0.00     0.049 A 
ATOM     33  N   UNL A   1      39.054  31.822  33.037  1.00  0.00    -0.248 NA
ATOM     34  C   UNL A   1      37.295  33.353  33.193  1.00  0.00     0.031 C 
ATOM     35  C   UNL A   1      37.599  30.646  28.975  1.00  0.00     0.029 A 
ATOM     36  N   UNL A   1      39.115  30.254  30.576  1.00  0.00    -0.354 N 
ATOM     37  C   UNL A   1      39.108  32.465  34.267  1.00  0.00     0.074 A 
ATOM     38  C   UNL A   1      38.022  33.420  34.297  1.00  0.00     0.031 C 
ATOM     39  C   UNL A   1      38.395  29.648  28.550  1.00  0.00     0.029 A 
ATOM     40  C   UNL A   1      39.429  29.396  29.552  1.00  0.00     0.049 A 
ATOM     41  H   UNL A   1      39.608  30.281  31.427  1.00  0.00     0.167 HD
ATOM     42  C   UNL A   1      39.983  32.282  35.284  1.00  0.00     0.031 A 
ATOM     43  C   UNL A   1      40.450  28.524  29.428  1.00  0.00     0.031 A 
ATOM     44  C   UNL A   1      41.068  31.338  35.261  1.00  0.00     0.049 A 
ATOM     45  C   UNL A   1      41.460  28.394  30.538  1.00  0.00     0.074 A 
ATOM     46  C   UNL A   1      41.995  31.067  36.252  1.00  0.00     0.029 A 
ATOM     47  N   UNL A   1      41.373  30.516  34.189  1.00  0.00    -0.354 N 
ATOM     48  N   UNL A   1      41.499  29.001  31.699  1.00  0.00    -0.248 NA
ATOM     49  C   UNL A   1      42.569  27.453  30.315  1.00  0.00     0.031 C 
ATOM     50  C   UNL A   1      42.895  30.116  35.759  1.00  0.00     0.029 A 
ATOM     51  C   UNL A   1      42.492  29.755  34.483  1.00  0.00     0.049 A 
ATOM     52  H   UNL A   1      40.870  30.478  33.344  1.00  0.00     0.167 HD
ATOM     53  C   UNL A   1      42.612  28.490  32.358  1.00  0.00     0.074 A 
ATOM     54  C   UNL A   1      43.219  27.521  31.468  1.00  0.00     0.031 C 
ATOM     55  C   UNL A   1      43.084  28.791  33.592  1.00  0.00     0.031 A 
BRANCH  42  56
ATOM     56  C   UNL A   1      39.828  33.166  36.489  1.00  0.00    -0.014 A 
ATOM     57  C   UNL A   1      40.464  34.415  36.569  1.00  0.00     0.009 A 
ATOM     58  C   UNL A   1      39.030  32.738  37.561  1.00  0.00     0.009 A 
ATOM     59  C   UNL A   1      40.332  35.201  37.716  1.00  0.00     0.001 A 
ATOM     60  C   UNL A   1      38.878  33.538  38.694  1.00  0.00     0.001 A 
ATOM     61  C   UNL A   1      39.538  34.763  38.776  1.00  0.00     0.000 A 
ENDBRANCH  42  56
BRANCH  43  62
ATOM     62  C   UNL A   1      40.581  27.703  28.197  1.00  0.00    -0.014 A 
ATOM     63  C   UNL A   1      39.993  26.431  28.127  1.00  0.00     0.009 A 
ATOM     64  C   UNL A   1      41.307  28.177  27.093  1.00  0.00     0.009 A 
ATOM     65  C   UNL A   1      40.143  25.644  26.984  1.00  0.00     0.001 A 
ATOM     66  C   UNL A   1      41.435  27.397  25.942  1.00  0.00     0.001 A 
ATOM     67  C   UNL A   1      40.859  26.129  25.891  1.00  0.00     0.000 A 
ENDBRANCH  43  62
BRANCH  55  68
ATOM     68  C   UNL A   1      44.287  28.031  34.078  1.00  0.00    -0.014 A 
ATOM     69  C   UNL A   1      45.590  28.505  33.862  1.00  0.00     0.009 A 
ATOM     70  C   UNL A   1      44.107  26.844  34.804  1.00  0.00     0.009 A 
ATOM     71  C   UNL A   1      46.690  27.786  34.336  1.00  0.00     0.001 A 
ATOM     72  C   UNL A   1      45.206  26.141  35.300  1.00  0.00     0.001 A 
ATOM     73  C   UNL A   1      46.497  26.607  35.057  1.00  0.00     0.000 A 
ENDBRANCH  55  68
ENDBRANCH  29  30
ENDBRANCH  22  24
ENDBRANCH  21  22
ENDBRANCH  20  21
ENDBRANCH   1  20
TORSDOF 16
ENDMDL
MODEL 3
REMARK VINA RESULT:     -11.3      2.112      3.100
REMARK SMILES CCN(CCC(=O)OCCOC(=O)c1ccc(-c2c3nc(c(-c4ccccc4)c4ccc([nH]4)c(-c4ccccc4)c4nc(c(-c5ccccc5)c5ccc2[nH]5)C=C4)C=C3)cc1)C(=O)c1cc(Cl)ccc1F
REMARK SMILES IDX 9 1 8 2 6 3 7 4 5 5 4 6 3 7 2 8 1 9 62 10 63 11 64 12 65 13
REMARK SMILES IDX 70 14 66 15 69 16 71 17 67 18 68 19 10 20 11 21 12 22 13 23
REMARK SMILES IDX 14 24 15 25 61 26 16 27 60 28 17 29 18 30 19 31 54 32 20 33
REMARK SMILES IDX 59 34 53 35 55 36 21 37 58 38 52 39 51 40 22 42 44 43 29 44
REMARK SMILES IDX 43 45 30 46 33 47 42 48 56 49 31 50 32 51 41 53 57 54 34 55
REMARK SMILES IDX 23 56 24 57 28 58 25 59 27 60 26 61 45 62 46 63 50 64 47 65
REMARK SMILES IDX 49 66 48 67 35 68 36 69 40 70 37 71 39 72 38 73
REMARK H PARENT 55 41 33 52
REMARK Flexibility Score: inf
ROOT
ATOM      1  C   UNL A   1      36.815  20.747  25.050  1.00  0.00     0.274 C 
ENDROOT
BRANCH   1   2
ATOM      2  O   UNL A   1      36.866  22.169  24.506  1.00  0.00    -0.462 OA
BRANCH   2   3
ATOM      3  C   UNL A   1      35.970  23.183  24.166  1.00  0.00     0.307 C 
ATOM      4  O   UNL A   1      35.531  23.197  23.012  1.00  0.00    -0.252 OA
BRANCH   3   5
ATOM      5  C   UNL A   1      35.368  24.213  25.245  1.00  0.00     0.144 C 
BRANCH   5   6
ATOM      6  C   UNL A   1      33.933  23.949  25.988  1.00  0.00     0.131 C 
BRANCH   6   7
ATOM      7  N   UNL A   1      32.939  23.047  25.234  1.00  0.00    -0.338 N 
BRANCH   7   8
ATOM      8  C   UNL A   1      32.811  21.716  25.850  1.00  0.00     0.116 C 
ATOM      9  C   UNL A   1      33.730  21.426  27.032  1.00  0.00     0.027 C 
ENDBRANCH   7   8
BRANCH   7  10
ATOM     10  C   UNL A   1      32.212  23.244  23.994  1.00  0.00     0.256 C 
ATOM     11  O   UNL A   1      31.856  22.294  23.292  1.00  0.00    -0.269 OA
BRANCH  10  12
ATOM     12  C   UNL A   1      31.926  24.579  23.363  1.00  0.00     0.077 A 
ATOM     13  C   UNL A   1      33.205  25.665  22.731  1.00  0.00     0.037 A 
ATOM     14  C   UNL A   1      30.429  25.331  23.920  1.00  0.00     0.136 A 
ATOM     15  C   UNL A   1      32.936  27.442  22.654  1.00  0.00     0.042 A 
ATOM     16  C   UNL A   1      30.121  27.137  23.904  1.00  0.00     0.041 A 
ATOM     17  F   UNL A   1      30.150  24.731  24.990  1.00  0.00    -0.206 F 
ATOM     18  Cl  UNL A   1      34.155  28.463  22.011  1.00  0.00    -0.084 Cl
ATOM     19  C   UNL A   1      31.402  28.191  23.236  1.00  0.00     0.023 A 
ENDBRANCH  10  12
ENDBRANCH   7  10
ENDBRANCH   6   7
ENDBRANCH   5   6
ENDBRANCH   3   5
ENDBRANCH   2   3
ENDBRANCH   1   2
BRANCH   1  20
ATOM     20  C   UNL A   1      38.007  19.398  24.928  1.00  0.00     0.275 C 
BRANCH  20  21
ATOM     21  O   UNL A   1      39.894  19.202  25.681  1.00  0.00    -0.458 OA
BRANCH  21  22
ATOM     22  C   UNL A   1      41.271  19.259  25.993  1.00  0.00     0.338 C 
ATOM     23  O   UNL A   1      41.974  18.253  25.889  1.00  0.00    -0.246 OA
BRANCH  22  24
ATOM     24  C   UNL A   1      41.957  20.512  26.457  1.00  0.00     0.060 A 
ATOM     25  C   UNL A   1      41.947  20.970  27.789  1.00  0.00     0.016 A 
ATOM     26  C   UNL A   1      42.516  21.320  25.466  1.00  0.00     0.016 A 
ATOM     27  C   UNL A   1      42.502  22.212  28.124  1.00  0.00     0.010 A 
ATOM     28  C   UNL A   1      43.044  22.572  25.794  1.00  0.00     0.010 A 
ATOM     29  C   UNL A   1      43.007  23.041  27.120  1.00  0.00    -0.014 A 
BRANCH  29  30
ATOM     30  C   UNL A   1      43.278  24.475  27.388  1.00  0.00     0.031 A 
ATOM     31  C   UNL A   1      44.708  24.946  27.359  1.00  0.00     0.074 A 
ATOM     32  C   UNL A   1      42.295  25.347  27.670  1.00  0.00     0.049 A 
ATOM     33  N   UNL A   1      45.209  26.113  27.680  1.00  0.00    -0.248 NA
ATOM     34  C   UNL A   1      45.710  23.962  26.916  1.00  0.00     0.031 C 
ATOM     35  C   UNL A   1      40.865  25.048  27.668  1.00  0.00     0.029 A 
ATOM     36  N   UNL A   1      42.365  26.670  28.031  1.00  0.00    -0.354 N 
ATOM     37  C   UNL A   1      46.581  25.991  27.507  1.00  0.00     0.074 A 
ATOM     38  C   UNL A   1      46.838  24.637  27.068  1.00  0.00     0.031 C 
ATOM     39  C   UNL A   1      40.190  26.157  28.020  1.00  0.00     0.029 A 
ATOM     40  C   UNL A   1      41.142  27.228  28.312  1.00  0.00     0.049 A 
ATOM     41  H   UNL A   1      43.210  27.171  28.082  1.00  0.00     0.167 HD
ATOM     42  C   UNL A   1      47.547  26.921  27.699  1.00  0.00     0.031 A 
ATOM     43  C   UNL A   1      40.830  28.454  28.776  1.00  0.00     0.031 A 
ATOM     44  C   UNL A   1      47.302  28.267  28.139  1.00  0.00     0.049 A 
ATOM     45  C   UNL A   1      41.927  29.447  29.060  1.00  0.00     0.074 A 
ATOM     46  C   UNL A   1      48.215  29.287  28.342  1.00  0.00     0.029 A 
ATOM     47  N   UNL A   1      46.053  28.779  28.449  1.00  0.00    -0.354 N 
ATOM     48  N   UNL A   1      43.221  29.325  28.888  1.00  0.00    -0.248 NA
ATOM     49  C   UNL A   1      41.514  30.751  29.603  1.00  0.00     0.031 C 
ATOM     50  C   UNL A   1      47.523  30.403  28.826  1.00  0.00     0.029 A 
ATOM     51  C   UNL A   1      46.172  30.093  28.869  1.00  0.00     0.049 A 
ATOM     52  H   UNL A   1      45.206  28.282  28.382  1.00  0.00     0.167 HD
ATOM     53  C   UNL A   1      43.771  30.545  29.266  1.00  0.00     0.074 A 
ATOM     54  C   UNL A   1      42.670  31.394  29.674  1.00  0.00     0.031 C 
ATOM     55  C   UNL A   1      45.071  30.929  29.268  1.00  0.00     0.031 A 
BRANCH  42  56
ATOM     56  C   UNL A   1      48.969  26.486  27.480  1.00  0.00    -0.014 A 
ATOM     57  C   UNL A   1      49.755  25.993  28.533  1.00  0.00     0.009 A 
ATOM     58  C   UNL A   1      49.528  26.571  26.195  1.00  0.00     0.009 A 
ATOM     59  C   UNL A   1      51.086  25.631  28.310  1.00  0.00     0.001 A 
ATOM     60  C   UNL A   1      50.848  26.182  25.970  1.00  0.00     0.001 A 
ATOM     61  C   UNL A   1      51.630  25.723  27.029  1.00  0.00     0.000 A 
ENDBRANCH  42  56
BRANCH  43  62
ATOM     62  C   UNL A   1      39.410  28.819  29.015  1.00  0.00    -0.014 A 
ATOM     63  C   UNL A   1      38.826  28.603  30.273  1.00  0.00     0.009 A 
ATOM     64  C   UNL A   1      38.628  29.367  27.987  1.00  0.00     0.009 A 
ATOM     65  C   UNL A   1      37.482  28.913  30.491  1.00  0.00     0.001 A 
ATOM     66  C   UNL A   1      37.291  29.699  28.217  1.00  0.00     0.001 A 
ATOM     67  C   UNL A   1      36.717  29.466  29.466  1.00  0.00     0.000 A 
ENDBRANCH  43  62
BRANCH  55  68
ATOM     68  C   UNL A   1      45.374  32.344  29.676  1.00  0.00    -0.014 A 
ATOM     69  C   UNL A   1      45.365  33.393  28.745  1.00  0.00     0.009 A 
ATOM     70  C   UNL A   1      45.630  32.635  31.025  1.00  0.00     0.009 A 
ATOM     71  C   UNL A   1      45.638  34.701  29.153  1.00  0.00     0.001 A 
ATOM     72  C   UNL A   1      45.875  33.946  31.435  1.00  0.00     0.001 A 
ATOM     73  C   UNL A   1      45.889  34.976  30.498  1.00  0.00     0.000 A 
ENDBRANCH  55  68
ENDBRANCH  29  30
ENDBRANCH  22  24
ENDBRANCH  21  22
ENDBRANCH  20  21
ENDBRANCH   1  20
TORSDOF 16
ENDMDL
