MODEL 1
REMARK VINA RESULT:      -9.5      0.000      0.000
REMARK SMILES CC(C)[C@H](NC(=O)[C@H](C)NC(=O)C[NH3+])C(=O)OCCOC(=O)c1ccc(-c2c3nc(c(-c4ccccc4)c4ccc([nH]4)c(-c4ccccc4)c4nc(c(-c5ccccc5)c5ccc2[nH]5)C=C4)C=C3)cc1
REMARK SMILES IDX 17 1 15 2 16 3 4 4 2 5 1 6 3 7 5 8 6 9 7 11 8 12 9 13 10 14
REMARK SMILES IDX 11 15 12 17 13 18 14 19 18 23 19 24 20 25 21 26 22 27 23 28
REMARK SMILES IDX 24 29 70 30 25 31 69 32 26 33 27 34 28 35 63 36 29 37 68 38
REMARK SMILES IDX 62 39 64 40 30 41 67 42 61 43 60 44 31 46 53 47 38 48 52 49
REMARK SMILES IDX 39 50 42 51 51 52 65 53 40 54 41 55 50 57 66 58 43 59 32 60
REMARK SMILES IDX 33 61 37 62 34 63 36 64 35 65 54 66 55 67 59 68 56 69 58 70
REMARK SMILES IDX 57 71 44 72 45 73 49 74 46 75 48 76 47 77
REMARK H PARENT 5 10 10 16 14 20 14 21 14 22 64 45 42 56
REMARK Flexibility Score: inf
ROOT
ATOM      1  O   UNL A   1      37.465  22.111  24.654  1.00  0.00    -0.461 OA
ENDROOT
BRANCH   1   2
ATOM      2  C   UNL A   1      37.001  23.184  25.350  1.00  0.00     0.329 C 
ATOM      3  O   UNL A   1      37.725  23.992  25.918  1.00  0.00    -0.250 OA
BRANCH   2   4
ATOM      4  C   UNL A   1      35.454  23.299  25.292  1.00  0.00     0.194 C 
BRANCH   4   5
ATOM      5  C   UNL A   1      34.941  24.644  24.712  1.00  0.00     0.017 C 
ATOM      6  C   UNL A   1      34.204  24.453  23.374  1.00  0.00     0.010 C 
ATOM      7  C   UNL A   1      33.989  25.381  25.662  1.00  0.00     0.010 C 
ENDBRANCH   4   5
BRANCH   4   8
ATOM      8  N   UNL A   1      34.762  22.809  26.490  1.00  0.00    -0.341 N 
ATOM      9  C   UNL A   1      33.902  21.788  26.735  1.00  0.00     0.243 C 
ATOM     10  H   UNL A   1      34.967  23.338  27.294  1.00  0.00     0.164 HD
ATOM     11  O   UNL A   1      33.517  21.681  27.904  1.00  0.00    -0.273 OA
BRANCH   9  12
ATOM     12  C   UNL A   1      33.327  20.898  25.607  1.00  0.00     0.168 C 
ATOM     13  C   UNL A   1      32.155  21.624  24.943  1.00  0.00     0.041 C 
BRANCH  12  14
ATOM     14  N   UNL A   1      32.854  19.603  26.083  1.00  0.00    -0.340 N 
ATOM     15  C   UNL A   1      32.901  18.387  25.463  1.00  0.00     0.275 C 
ATOM     16  H   UNL A   1      32.443  19.605  26.978  1.00  0.00     0.164 HD
ATOM     17  O   UNL A   1      32.230  17.467  25.934  1.00  0.00    -0.268 OA
BRANCH  15  18
ATOM     18  C   UNL A   1      33.850  18.145  24.287  1.00  0.00     0.360 C 
BRANCH  18  19
ATOM     19  N   UNL A   1      35.159  17.642  24.718  1.00  0.00    -0.350 N 
ATOM     20  H   UNL A   1      35.787  18.429  24.889  1.00  0.00     0.344 HD
ATOM     21  H   UNL A   1      35.552  17.047  23.988  1.00  0.00     0.344 HD
ATOM     22  H   UNL A   1      35.051  17.102  25.575  1.00  0.00     0.344 HD
ENDBRANCH  18  19
ENDBRANCH  15  18
ENDBRANCH  12  14
ENDBRANCH   9  12
ENDBRANCH   4   8
ENDBRANCH   2   4
ENDBRANCH   1   2
BRANCH   1  23
ATOM     23  C   UNL A   1      37.650  20.871  25.366  1.00  0.00     0.274 C 
BRANCH  23  24
ATOM     24  C   UNL A   1      38.924  20.171  24.890  1.00  0.00     0.275 C 
BRANCH  24  25
ATOM     25  O   UNL A   1      39.567  19.482  25.977  1.00  0.00    -0.458 OA
BRANCH  25  26
ATOM     26  C   UNL A   1      40.912  19.579  26.004  1.00  0.00     0.338 C 
ATOM     27  O   UNL A   1      41.736  18.820  25.506  1.00  0.00    -0.246 OA
BRANCH  26  28
ATOM     28  C   UNL A   1      41.279  20.879  26.568  1.00  0.00     0.060 A 
ATOM     29  C   UNL A   1      41.843  21.823  25.709  1.00  0.00     0.016 A 
ATOM     30  C   UNL A   1      41.113  21.154  27.923  1.00  0.00     0.016 A 
ATOM     31  C   UNL A   1      42.261  23.051  26.192  1.00  0.00     0.010 A 
ATOM     32  C   UNL A   1      41.517  22.397  28.411  1.00  0.00     0.010 A 
ATOM     33  C   UNL A   1      42.096  23.343  27.546  1.00  0.00    -0.014 A 
BRANCH  33  34
ATOM     34  C   UNL A   1      42.559  24.644  28.063  1.00  0.00     0.031 A 
ATOM     35  C   UNL A   1      41.555  25.709  28.368  1.00  0.00     0.074 A 
ATOM     36  C   UNL A   1      43.874  24.844  28.259  1.00  0.00     0.049 A 
ATOM     37  N   UNL A   1      41.755  26.961  28.680  1.00  0.00    -0.248 NA
ATOM     38  C   UNL A   1      40.138  25.314  28.314  1.00  0.00     0.031 C 
ATOM     39  C   UNL A   1      44.922  23.838  28.068  1.00  0.00     0.029 A 
ATOM     40  N   UNL A   1      44.552  25.965  28.657  1.00  0.00    -0.354 N 
ATOM     41  C   UNL A   1      40.490  27.515  28.825  1.00  0.00     0.074 A 
ATOM     42  C   UNL A   1      39.530  26.464  28.565  1.00  0.00     0.031 C 
ATOM     43  C   UNL A   1      46.114  24.394  28.340  1.00  0.00     0.029 A 
ATOM     44  C   UNL A   1      45.915  25.803  28.657  1.00  0.00     0.049 A 
ATOM     45  H   UNL A   1      44.106  26.804  28.916  1.00  0.00     0.167 HD
ATOM     46  C   UNL A   1      40.169  28.791  29.137  1.00  0.00     0.031 A 
ATOM     47  C   UNL A   1      46.892  26.708  28.841  1.00  0.00     0.031 A 
ATOM     48  C   UNL A   1      41.141  29.820  29.389  1.00  0.00     0.049 A 
ATOM     49  C   UNL A   1      46.509  28.138  29.093  1.00  0.00     0.074 A 
ATOM     50  C   UNL A   1      40.931  31.146  29.717  1.00  0.00     0.029 A 
ATOM     51  N   UNL A   1      42.514  29.630  29.334  1.00  0.00    -0.354 N 
ATOM     52  N   UNL A   1      45.312  28.663  29.207  1.00  0.00    -0.248 NA
ATOM     53  C   UNL A   1      47.608  29.103  29.225  1.00  0.00     0.031 C 
ATOM     54  C   UNL A   1      42.178  31.772  29.811  1.00  0.00     0.029 A 
ATOM     55  C   UNL A   1      43.165  30.823  29.592  1.00  0.00     0.049 A 
ATOM     56  H   UNL A   1      42.959  28.774  29.140  1.00  0.00     0.167 HD
ATOM     57  C   UNL A   1      45.513  30.016  29.436  1.00  0.00     0.074 A 
ATOM     58  C   UNL A   1      46.946  30.228  29.464  1.00  0.00     0.031 C 
ATOM     59  C   UNL A   1      44.595  30.999  29.605  1.00  0.00     0.031 A 
BRANCH  46  60
ATOM     60  C   UNL A   1      38.711  29.151  29.163  1.00  0.00    -0.014 A 
ATOM     61  C   UNL A   1      37.951  29.050  30.338  1.00  0.00     0.009 A 
ATOM     62  C   UNL A   1      38.094  29.614  27.990  1.00  0.00     0.009 A 
ATOM     63  C   UNL A   1      36.592  29.379  30.329  1.00  0.00     0.001 A 
ATOM     64  C   UNL A   1      36.743  29.965  27.990  1.00  0.00     0.001 A 
ATOM     65  C   UNL A   1      35.992  29.840  29.157  1.00  0.00     0.000 A 
ENDBRANCH  46  60
BRANCH  47  66
ATOM     66  C   UNL A   1      48.315  26.298  28.727  1.00  0.00    -0.014 A 
ATOM     67  C   UNL A   1      49.031  25.870  29.854  1.00  0.00     0.009 A 
ATOM     68  C   UNL A   1      48.965  26.328  27.482  1.00  0.00     0.009 A 
ATOM     69  C   UNL A   1      50.371  25.494  29.738  1.00  0.00     0.001 A 
ATOM     70  C   UNL A   1      50.296  25.924  27.364  1.00  0.00     0.001 A 
ATOM     71  C   UNL A   1      51.001  25.517  28.494  1.00  0.00     0.000 A 
ENDBRANCH  47  66
BRANCH  59  72
ATOM     72  C   UNL A   1      45.121  32.383  29.851  1.00  0.00    -0.014 A 
ATOM     73  C   UNL A   1      45.389  32.833  31.152  1.00  0.00     0.009 A 
ATOM     74  C   UNL A   1      45.396  33.225  28.763  1.00  0.00     0.009 A 
ATOM     75  C   UNL A   1      45.903  34.113  31.360  1.00  0.00     0.001 A 
ATOM     76  C   UNL A   1      45.934  34.495  28.973  1.00  0.00     0.001 A 
ATOM     77  C   UNL A   1      46.181  34.939  30.272  1.00  0.00     0.000 A 
ENDBRANCH  59  72
ENDBRANCH  33  34
ENDBRANCH  26  28
ENDBRANCH  25  26
ENDBRANCH  24  25
ENDBRANCH  23  24
ENDBRANCH   1  23
TORSDOF 17
ENDMDL
MODEL 2
REMARK VINA RESULT:      -9.3      5.668     10.157
REMARK SMILES CC(C)[C@H](NC(=O)[C@H](C)NC(=O)C[NH3+])C(=O)OCCOC(=O)c1ccc(-c2c3nc(c(-c4ccccc4)c4ccc([nH]4)c(-c4ccccc4)c4nc(c(-c5ccccc5)c5ccc2[nH]5)C=C4)C=C3)cc1
REMARK SMILES IDX 17 1 15 2 16 3 4 4 2 5 1 6 3 7 5 8 6 9 7 11 8 12 9 13 10 14
REMARK SMILES IDX 11 15 12 17 13 18 14 19 18 23 19 24 20 25 21 26 22 27 23 28
REMARK SMILES IDX 24 29 70 30 25 31 69 32 26 33 27 34 28 35 63 36 29 37 68 38
REMARK SMILES IDX 62 39 64 40 30 41 67 42 61 43 60 44 31 46 53 47 38 48 52 49
REMARK SMILES IDX 39 50 42 51 51 52 65 53 40 54 41 55 50 57 66 58 43 59 32 60
REMARK SMILES IDX 33 61 37 62 34 63 36 64 35 65 54 66 55 67 59 68 56 69 58 70
REMARK SMILES IDX 57 71 44 72 45 73 49 74 46 75 48 76 47 77
REMARK H PARENT 5 10 10 16 14 20 14 21 14 22 64 45 42 56
REMARK Flexibility Score: inf
ROOT
ATOM      1  O   UNL A   1      32.887  29.961  27.474  1.00  0.00    -0.461 OA
ENDROOT
BRANCH   1   2
ATOM      2  C   UNL A   1      33.860  29.215  26.883  1.00  0.00     0.329 C 
ATOM      3  O   UNL A   1      35.041  29.258  27.205  1.00  0.00    -0.250 OA
BRANCH   2   4
ATOM      4  C   UNL A   1      33.292  28.263  25.795  1.00  0.00     0.194 C 
BRANCH   4   5
ATOM      5  C   UNL A   1      33.281  26.768  26.208  1.00  0.00     0.017 C 
ATOM      6  C   UNL A   1      31.850  26.217  26.347  1.00  0.00     0.010 C 
ATOM      7  C   UNL A   1      34.028  25.867  25.216  1.00  0.00     0.010 C 
ENDBRANCH   4   5
BRANCH   4   8
ATOM      8  N   UNL A   1      33.755  28.551  24.433  1.00  0.00    -0.341 N 
ATOM      9  C   UNL A   1      33.135  28.704  23.236  1.00  0.00     0.243 C 
ATOM     10  H   UNL A   1      34.732  28.657  24.375  1.00  0.00     0.164 HD
ATOM     11  O   UNL A   1      33.875  28.948  22.276  1.00  0.00    -0.273 OA
BRANCH   9  12
ATOM     12  C   UNL A   1      31.620  28.454  23.047  1.00  0.00     0.168 C 
ATOM     13  C   UNL A   1      31.394  26.984  22.687  1.00  0.00     0.041 C 
BRANCH  12  14
ATOM     14  N   UNL A   1      31.028  29.279  22.000  1.00  0.00    -0.340 N 
ATOM     15  C   UNL A   1      29.887  30.028  22.035  1.00  0.00     0.275 C 
ATOM     16  H   UNL A   1      31.521  29.299  21.148  1.00  0.00     0.164 HD
ATOM     17  O   UNL A   1      29.437  30.454  20.969  1.00  0.00    -0.268 OA
BRANCH  15  18
ATOM     18  C   UNL A   1      29.252  30.424  23.370  1.00  0.00     0.360 C 
BRANCH  18  19
ATOM     19  N   UNL A   1      29.151  31.879  23.533  1.00  0.00    -0.350 N 
ATOM     20  H   UNL A   1      28.603  32.270  22.765  1.00  0.00     0.344 HD
ATOM     21  H   UNL A   1      30.086  32.287  23.526  1.00  0.00     0.344 HD
ATOM     22  H   UNL A   1      28.694  32.091  24.419  1.00  0.00     0.344 HD
ENDBRANCH  18  19
ENDBRANCH  15  18
ENDBRANCH  12  14
ENDBRANCH   9  12
ENDBRANCH   4   8
ENDBRANCH   2   4
ENDBRANCH   1   2
BRANCH   1  23
ATOM     23  C   UNL A   1      32.570  31.242  26.895  1.00  0.00     0.274 C 
BRANCH  23  24
ATOM     24  C   UNL A   1      33.329  32.355  27.619  1.00  0.00     0.275 C 
BRANCH  24  25
ATOM     25  O   UNL A   1      32.557  33.569  27.645  1.00  0.00    -0.458 OA
BRANCH  25  26
ATOM     26  C   UNL A   1      33.041  34.540  28.448  1.00  0.00     0.338 C 
ATOM     27  O   UNL A   1      32.528  35.617  28.724  1.00  0.00    -0.246 OA
BRANCH  26  28
ATOM     28  C   UNL A   1      34.230  34.033  29.135  1.00  0.00     0.060 A 
ATOM     29  C   UNL A   1      35.476  34.327  28.578  1.00  0.00     0.016 A 
ATOM     30  C   UNL A   1      34.125  33.250  30.282  1.00  0.00     0.016 A 
ATOM     31  C   UNL A   1      36.634  33.832  29.150  1.00  0.00     0.010 A 
ATOM     32  C   UNL A   1      35.293  32.764  30.871  1.00  0.00     0.010 A 
ATOM     33  C   UNL A   1      36.547  33.050  30.302  1.00  0.00    -0.014 A 
BRANCH  33  34
ATOM     34  C   UNL A   1      37.781  32.508  30.899  1.00  0.00     0.031 A 
ATOM     35  C   UNL A   1      38.445  31.329  30.261  1.00  0.00     0.074 A 
ATOM     36  C   UNL A   1      38.291  33.089  31.998  1.00  0.00     0.049 A 
ATOM     37  N   UNL A   1      39.439  30.608  30.704  1.00  0.00    -0.248 NA
ATOM     38  C   UNL A   1      37.921  30.906  28.952  1.00  0.00     0.031 C 
ATOM     39  C   UNL A   1      37.760  34.291  32.645  1.00  0.00     0.029 A 
ATOM     40  N   UNL A   1      39.367  32.740  32.770  1.00  0.00    -0.354 N 
ATOM     41  C   UNL A   1      39.638  29.621  29.747  1.00  0.00     0.074 A 
ATOM     42  C   UNL A   1      38.662  29.836  28.701  1.00  0.00     0.031 C 
ATOM     43  C   UNL A   1      38.509  34.573  33.723  1.00  0.00     0.029 A 
ATOM     44  C   UNL A   1      39.523  33.537  33.876  1.00  0.00     0.049 A 
ATOM     45  H   UNL A   1      39.968  31.990  32.553  1.00  0.00     0.167 HD
ATOM     46  C   UNL A   1      40.551  28.624  29.755  1.00  0.00     0.031 A 
ATOM     47  C   UNL A   1      40.360  33.410  34.921  1.00  0.00     0.031 A 
ATOM     48  C   UNL A   1      41.511  28.429  30.807  1.00  0.00     0.049 A 
ATOM     49  C   UNL A   1      41.300  32.239  34.951  1.00  0.00     0.074 A 
ATOM     50  C   UNL A   1      42.485  27.454  30.919  1.00  0.00     0.029 A 
ATOM     51  N   UNL A   1      41.610  29.230  31.936  1.00  0.00    -0.354 N 
ATOM     52  N   UNL A   1      41.470  31.296  34.055  1.00  0.00    -0.248 NA
ATOM     53  C   UNL A   1      42.150  32.105  36.140  1.00  0.00     0.031 C 
ATOM     54  C   UNL A   1      43.141  27.635  32.141  1.00  0.00     0.029 A 
ATOM     55  C   UNL A   1      42.608  28.753  32.766  1.00  0.00     0.049 A 
ATOM     56  H   UNL A   1      41.051  30.019  32.119  1.00  0.00     0.167 HD
ATOM     57  C   UNL A   1      42.455  30.462  34.566  1.00  0.00     0.074 A 
ATOM     58  C   UNL A   1      42.857  31.023  35.841  1.00  0.00     0.031 C 
ATOM     59  C   UNL A   1      42.978  29.332  34.032  1.00  0.00     0.031 A 
BRANCH  46  60
ATOM     60  C   UNL A   1      40.510  27.640  28.621  1.00  0.00    -0.014 A 
ATOM     61  C   UNL A   1      41.241  27.848  27.442  1.00  0.00     0.009 A 
ATOM     62  C   UNL A   1      39.736  26.476  28.747  1.00  0.00     0.009 A 
ATOM     63  C   UNL A   1      41.173  26.921  26.397  1.00  0.00     0.001 A 
ATOM     64  C   UNL A   1      39.689  25.540  27.712  1.00  0.00     0.001 A 
ATOM     65  C   UNL A   1      40.402  25.767  26.536  1.00  0.00     0.000 A 
ENDBRANCH  46  60
BRANCH  47  66
ATOM     66  C   UNL A   1      40.295  34.378  36.046  1.00  0.00    -0.014 A 
ATOM     67  C   UNL A   1      39.433  34.161  37.130  1.00  0.00     0.009 A 
ATOM     68  C   UNL A   1      41.105  35.526  36.043  1.00  0.00     0.009 A 
ATOM     69  C   UNL A   1      39.373  35.081  38.179  1.00  0.00     0.001 A 
ATOM     70  C   UNL A   1      41.064  36.428  37.107  1.00  0.00     0.001 A 
ATOM     71  C   UNL A   1      40.191  36.209  38.170  1.00  0.00     0.000 A 
ENDBRANCH  47  66
BRANCH  59  72
ATOM     72  C   UNL A   1      44.052  28.644  34.822  1.00  0.00    -0.014 A 
ATOM     73  C   UNL A   1      43.739  27.626  35.734  1.00  0.00     0.009 A 
ATOM     74  C   UNL A   1      45.397  28.987  34.611  1.00  0.00     0.009 A 
ATOM     75  C   UNL A   1      44.753  26.979  36.440  1.00  0.00     0.001 A 
ATOM     76  C   UNL A   1      46.410  28.320  35.299  1.00  0.00     0.001 A 
ATOM     77  C   UNL A   1      46.087  27.321  36.218  1.00  0.00     0.000 A 
ENDBRANCH  59  72
ENDBRANCH  33  34
ENDBRANCH  26  28
ENDBRANCH  25  26
ENDBRANCH  24  25
ENDBRANCH  23  24
ENDBRANCH   1  23
TORSDOF 17
ENDMDL
MODEL 3
REMARK VINA RESULT:      -9.1      1.315      6.383
REMARK SMILES CC(C)[C@H](NC(=O)[C@H](C)NC(=O)C[NH3+])C(=O)OCCOC(=O)c1ccc(-c2c3nc(c(-c4ccccc4)c4ccc([nH]4)c(-c4ccccc4)c4nc(c(-c5ccccc5)c5ccc2[nH]5)C=C4)C=C3)cc1
REMARK SMILES IDX 17 1 15 2 16 3 4 4 2 5 1 6 3 7 5 8 6 9 7 11 8 12 9 13 10 14
REMARK SMILES IDX 11 15 12 17 13 18 14 19 18 23 19 24 20 25 21 26 22 27 23 28
REMARK SMILES IDX 24 29 70 30 25 31 69 32 26 33 27 34 28 35 63 36 29 37 68 38
REMARK SMILES IDX 62 39 64 40 30 41 67 42 61 43 60 44 31 46 53 47 38 48 52 49
REMARK SMILES IDX 39 50 42 51 51 52 65 53 40 54 41 55 50 57 66 58 43 59 32 60
REMARK SMILES IDX 33 61 37 62 34 63 36 64 35 65 54 66 55 67 59 68 56 69 58 70
REMARK SMILES IDX 57 71 44 72 45 73 49 74 46 75 48 76 47 77
REMARK H PARENT 5 10 10 16 14 20 14 21 14 22 64 45 42 56
REMARK Flexibility Score: inf
ROOT
ATOM      1  O   UNL A   1      38.257  20.680  24.648  1.00  0.00    -0.461 OA
ENDROOT
BRANCH   1   2
ATOM      2  C   UNL A   1      36.963  20.305  24.841  1.00  0.00     0.329 C 
ATOM      3  O   UNL A   1      36.607  19.143  24.994  1.00  0.00    -0.250 OA
BRANCH   2   4
ATOM      4  C   UNL A   1      36.001  21.522  24.903  1.00  0.00     0.194 C 
BRANCH   4   5
ATOM      5  C   UNL A   1      36.631  22.851  24.408  1.00  0.00     0.017 C 
ATOM      6  C   UNL A   1      35.859  23.448  23.217  1.00  0.00     0.010 C 
ATOM      7  C   UNL A   1      36.696  23.925  25.500  1.00  0.00     0.010 C 
ENDBRANCH   4   5
BRANCH   4   8
ATOM      8  N   UNL A   1      35.205  21.606  26.132  1.00  0.00    -0.341 N 
ATOM      9  C   UNL A   1      33.979  21.151  26.498  1.00  0.00     0.243 C 
ATOM     10  H   UNL A   1      35.660  22.101  26.851  1.00  0.00     0.164 HD
ATOM     11  O   UNL A   1      33.630  21.422  27.652  1.00  0.00    -0.273 OA
BRANCH   9  12
ATOM     12  C   UNL A   1      33.018  20.461  25.502  1.00  0.00     0.168 C 
ATOM     13  C   UNL A   1      31.714  21.258  25.427  1.00  0.00     0.041 C 
BRANCH  12  14
ATOM     14  N   UNL A   1      32.695  19.088  25.873  1.00  0.00    -0.340 N 
ATOM     15  C   UNL A   1      32.527  17.995  25.072  1.00  0.00     0.275 C 
ATOM     16  H   UNL A   1      32.583  18.926  26.838  1.00  0.00     0.164 HD
ATOM     17  O   UNL A   1      32.021  16.985  25.564  1.00  0.00    -0.268 OA
BRANCH  15  18
ATOM     18  C   UNL A   1      33.060  17.987  23.637  1.00  0.00     0.360 C 
BRANCH  18  19
ATOM     19  N   UNL A   1      31.986  18.051  22.640  1.00  0.00    -0.350 N 
ATOM     20  H   UNL A   1      31.444  18.905  22.777  1.00  0.00     0.344 HD
ATOM     21  H   UNL A   1      31.376  17.241  22.746  1.00  0.00     0.344 HD
ATOM     22  H   UNL A   1      32.390  18.052  21.704  1.00  0.00     0.344 HD
ENDBRANCH  18  19
ENDBRANCH  15  18
ENDBRANCH  12  14
ENDBRANCH   9  12
ENDBRANCH   4   8
ENDBRANCH   2   4
ENDBRANCH   1   2
BRANCH   1  23
ATOM     23  C   UNL A   1      39.142  20.674  25.785  1.00  0.00     0.274 C 
BRANCH  23  24
ATOM     24  C   UNL A   1      39.997  19.406  25.787  1.00  0.00     0.275 C 
BRANCH  24  25
ATOM     25  O   UNL A   1      41.134  19.557  26.654  1.00  0.00    -0.458 OA
BRANCH  25  26
ATOM     26  C   UNL A   1      42.273  19.952  26.046  1.00  0.00     0.338 C 
ATOM     27  O   UNL A   1      42.913  19.364  25.183  1.00  0.00    -0.246 OA
BRANCH  26  28
ATOM     28  C   UNL A   1      42.556  21.336  26.431  1.00  0.00     0.060 A 
ATOM     29  C   UNL A   1      42.507  21.654  27.790  1.00  0.00     0.016 A 
ATOM     30  C   UNL A   1      42.823  22.313  25.476  1.00  0.00     0.016 A 
ATOM     31  C   UNL A   1      42.712  22.955  28.213  1.00  0.00     0.010 A 
ATOM     32  C   UNL A   1      43.047  23.623  25.901  1.00  0.00     0.010 A 
ATOM     33  C   UNL A   1      42.986  23.946  27.269  1.00  0.00    -0.014 A 
BRANCH  33  34
ATOM     34  C   UNL A   1      43.184  25.334  27.721  1.00  0.00     0.031 A 
ATOM     35  C   UNL A   1      44.567  25.811  28.035  1.00  0.00     0.074 A 
ATOM     36  C   UNL A   1      42.121  26.149  27.831  1.00  0.00     0.049 A 
ATOM     37  N   UNL A   1      44.944  26.932  28.587  1.00  0.00    -0.248 NA
ATOM     38  C   UNL A   1      45.672  24.904  27.681  1.00  0.00     0.031 C 
ATOM     39  C   UNL A   1      40.745  25.800  27.470  1.00  0.00     0.029 A 
ATOM     40  N   UNL A   1      42.033  27.437  28.287  1.00  0.00    -0.354 N 
ATOM     41  C   UNL A   1      46.326  26.854  28.682  1.00  0.00     0.074 A 
ATOM     42  C   UNL A   1      46.722  25.576  28.132  1.00  0.00     0.031 C 
ATOM     43  C   UNL A   1      39.947  26.849  27.729  1.00  0.00     0.029 A 
ATOM     44  C   UNL A   1      40.745  27.909  28.332  1.00  0.00     0.049 A 
ATOM     45  H   UNL A   1      42.815  27.970  28.557  1.00  0.00     0.167 HD
ATOM     46  C   UNL A   1      47.180  27.769  29.194  1.00  0.00     0.031 A 
ATOM     47  C   UNL A   1      40.261  29.051  28.853  1.00  0.00     0.031 A 
ATOM     48  C   UNL A   1      46.763  29.033  29.738  1.00  0.00     0.049 A 
ATOM     49  C   UNL A   1      41.220  30.009  29.500  1.00  0.00     0.074 A 
ATOM     50  C   UNL A   1      47.541  30.040  30.280  1.00  0.00     0.029 A 
ATOM     51  N   UNL A   1      45.444  29.459  29.810  1.00  0.00    -0.354 N 
ATOM     52  N   UNL A   1      42.525  29.922  29.609  1.00  0.00    -0.248 NA
ATOM     53  C   UNL A   1      40.641  31.211  30.111  1.00  0.00     0.031 C 
ATOM     54  C   UNL A   1      46.687  31.054  30.727  1.00  0.00     0.029 A 
ATOM     55  C   UNL A   1      45.383  30.700  30.416  1.00  0.00     0.049 A 
ATOM     56  H   UNL A   1      44.669  28.952  29.478  1.00  0.00     0.167 HD
ATOM     57  C   UNL A   1      42.925  31.063  30.288  1.00  0.00     0.074 A 
ATOM     58  C   UNL A   1      41.727  31.835  30.550  1.00  0.00     0.031 C 
ATOM     59  C   UNL A   1      44.171  31.438  30.667  1.00  0.00     0.031 A 
BRANCH  46  60
ATOM     60  C   UNL A   1      48.637  27.406  29.241  1.00  0.00    -0.014 A 
ATOM     61  C   UNL A   1      49.514  27.756  28.204  1.00  0.00     0.009 A 
ATOM     62  C   UNL A   1      49.139  26.714  30.354  1.00  0.00     0.009 A 
ATOM     63  C   UNL A   1      50.863  27.393  28.268  1.00  0.00     0.001 A 
ATOM     64  C   UNL A   1      50.491  26.374  30.427  1.00  0.00     0.001 A 
ATOM     65  C   UNL A   1      51.350  26.708  29.381  1.00  0.00     0.000 A 
ENDBRANCH  46  60
BRANCH  47  66
ATOM     66  C   UNL A   1      38.799  29.312  28.840  1.00  0.00    -0.014 A 
ATOM     67  C   UNL A   1      38.170  29.810  27.690  1.00  0.00     0.009 A 
ATOM     68  C   UNL A   1      38.022  29.057  29.982  1.00  0.00     0.009 A 
ATOM     69  C   UNL A   1      36.796  30.061  27.691  1.00  0.00     0.001 A 
ATOM     70  C   UNL A   1      36.644  29.282  29.970  1.00  0.00     0.001 A 
ATOM     71  C   UNL A   1      36.034  29.792  28.827  1.00  0.00     0.000 A 
ENDBRANCH  47  66
BRANCH  59  72
ATOM     72  C   UNL A   1      44.294  32.749  31.387  1.00  0.00    -0.014 A 
ATOM     73  C   UNL A   1      44.455  33.949  30.680  1.00  0.00     0.009 A 
ATOM     74  C   UNL A   1      44.198  32.784  32.786  1.00  0.00     0.009 A 
ATOM     75  C   UNL A   1      44.542  35.161  31.365  1.00  0.00     0.001 A 
ATOM     76  C   UNL A   1      44.259  34.000  33.466  1.00  0.00     0.001 A 
ATOM     77  C   UNL A   1      44.436  35.187  32.755  1.00  0.00     0.000 A 
ENDBRANCH  59  72
ENDBRANCH  33  34
ENDBRANCH  26  28
ENDBRANCH  25  26
ENDBRANCH  24  25
ENDBRANCH  23  24
ENDBRANCH   1  23
TORSDOF 17
ENDMDL
