MODEL 1
REMARK VINA RESULT:     -12.9      0.000      0.000
REMARK SMILES Cc1ccn(CC(=O)N2CCC3(CC2)NC(=O)C[C@@H]3C(=O)OCCOC(=O)c2ccc(-c3c4nc(c(-c5ccccc5)c5ccc([nH]5)c(-c5ccccc5)c5nc(c(-c6ccccc6)c6ccc3[nH]6)C=C5)C=C4)cc2)n1
REMARK SMILES IDX 23 1 22 2 20 3 21 4 19 5 7 6 8 7 9 8 10 9 14 10 11 11 13 12
REMARK SMILES IDX 12 13 15 14 16 15 18 17 17 18 6 19 5 20 1 21 2 22 3 23 76 24
REMARK SMILES IDX 4 25 24 26 25 27 26 28 27 29 28 30 29 31 75 32 30 33 74 34
REMARK SMILES IDX 31 35 32 36 33 37 68 38 34 39 73 40 67 41 69 42 35 43 72 44
REMARK SMILES IDX 66 45 65 46 36 48 58 49 43 50 57 51 44 52 47 53 56 54 70 55
REMARK SMILES IDX 45 56 46 57 55 59 71 60 48 61 37 62 38 63 42 64 39 65 41 66
REMARK SMILES IDX 40 67 59 68 60 69 64 70 61 71 63 72 62 73 49 74 50 75 54 76
REMARK SMILES IDX 51 77 53 78 52 79
REMARK H PARENT 15 16 69 47 47 58
REMARK Flexibility Score: inf
ROOT
ATOM      1  C   UNL A   1      32.156  30.113  26.878  1.00  0.00     0.274 C 
ENDROOT
BRANCH   1   2
ATOM      2  O   UNL A   1      32.133  28.960  26.006  1.00  0.00    -0.462 OA
BRANCH   2   3
ATOM      3  C   UNL A   1      31.640  27.803  26.556  1.00  0.00     0.311 C 
ATOM      4  O   UNL A   1      31.693  27.515  27.742  1.00  0.00    -0.252 OA
BRANCH   3   5
ATOM      5  C   UNL A   1      30.905  27.006  25.494  1.00  0.00     0.134 C 
ATOM      6  C   UNL A   1      33.922  21.414  26.188  1.00  0.00     0.244 C 
ATOM      7  O   UNL A   1      35.139  21.480  26.488  1.00  0.00    -0.273 OA
ATOM      8  N   UNL A   1      33.016  22.577  26.869  1.00  0.00    -0.341 N 
ATOM      9  C   UNL A   1      34.069  23.955  26.235  1.00  0.00     0.122 C 
ATOM     10  C   UNL A   1      30.934  22.943  27.117  1.00  0.00     0.122 C 
ATOM     11  C   UNL A   1      33.242  25.229  25.188  1.00  0.00     0.051 C 
ATOM     12  C   UNL A   1      30.230  24.253  25.753  1.00  0.00     0.051 C 
ATOM     13  C   UNL A   1      31.439  25.553  25.062  1.00  0.00     0.057 C 
ATOM     14  N   UNL A   1      31.240  25.720  23.587  1.00  0.00    -0.350 N 
ATOM     15  C   UNL A   1      30.963  26.993  23.133  1.00  0.00     0.221 C 
ATOM     16  H   UNL A   1      31.304  24.955  22.969  1.00  0.00     0.164 HD
ATOM     17  C   UNL A   1      30.770  27.912  24.282  1.00  0.00     0.117 C 
ATOM     18  O   UNL A   1      30.887  27.324  21.961  1.00  0.00    -0.275 OA
BRANCH   6  19
ATOM     19  C   UNL A   1      33.594  20.442  24.827  1.00  0.00     0.244 C 
BRANCH  19  20
ATOM     20  N   UNL A   1      33.651  18.936  24.623  1.00  0.00    -0.263 N 
ATOM     21  C   UNL A   1      32.422  15.733  25.700  1.00  0.00     0.069 C 
ATOM     22  C   UNL A   1      33.134  16.896  25.126  1.00  0.00     0.059 A 
ATOM     23  C   UNL A   1      34.459  16.851  24.687  1.00  0.00     0.045 A 
ATOM     24  N   UNL A   1      32.614  18.143  25.068  1.00  0.00    -0.178 NA
ATOM     25  C   UNL A   1      34.693  18.124  24.246  1.00  0.00     0.109 A 
ENDBRANCH  19  20
ENDBRANCH   6  19
ENDBRANCH   3   5
ENDBRANCH   2   3
ENDBRANCH   1   2
BRANCH   1  26
ATOM     26  C   UNL A   1      33.544  30.743  26.874  1.00  0.00     0.275 C 
BRANCH  26  27
ATOM     27  O   UNL A   1      33.646  31.546  28.060  1.00  0.00    -0.458 OA
BRANCH  27  28
ATOM     28  C   UNL A   1      34.874  32.108  28.179  1.00  0.00     0.338 C 
ATOM     29  O   UNL A   1      35.432  32.670  27.251  1.00  0.00    -0.246 OA
BRANCH  28  30
ATOM     30  C   UNL A   1      35.527  31.654  29.530  1.00  0.00     0.060 A 
ATOM     31  C   UNL A   1      36.817  32.459  30.758  1.00  0.00     0.016 A 
ATOM     32  C   UNL A   1      35.954  30.109  28.795  1.00  0.00     0.016 A 
ATOM     33  C   UNL A   1      38.488  31.679  30.636  1.00  0.00     0.010 A 
ATOM     34  C   UNL A   1      37.451  29.480  28.876  1.00  0.00     0.010 A 
ATOM     35  C   UNL A   1      38.728  30.157  29.672  1.00  0.00    -0.014 A 
BRANCH  35  36
ATOM     36  C   UNL A   1      39.884  29.017  29.633  1.00  0.00     0.031 A 
ATOM     37  C   UNL A   1      40.205  28.444  30.995  1.00  0.00     0.074 A 
ATOM     38  C   UNL A   1      40.458  28.219  28.637  1.00  0.00     0.049 A 
ATOM     39  N   UNL A   1      41.370  28.557  31.544  1.00  0.00    -0.248 NA
ATOM     40  C   UNL A   1      39.215  27.848  31.898  1.00  0.00     0.031 C 
ATOM     41  C   UNL A   1      40.209  28.136  27.186  1.00  0.00     0.029 A 
ATOM     42  N   UNL A   1      41.465  27.230  28.743  1.00  0.00    -0.354 N 
ATOM     43  C   UNL A   1      41.243  28.255  32.887  1.00  0.00     0.074 A 
ATOM     44  C   UNL A   1      39.877  27.832  33.065  1.00  0.00     0.031 C 
ATOM     45  C   UNL A   1      40.851  27.066  26.623  1.00  0.00     0.029 A 
ATOM     46  C   UNL A   1      41.704  26.410  27.603  1.00  0.00     0.049 A 
ATOM     47  H   UNL A   1      41.981  27.114  29.574  1.00  0.00     0.167 HD
ATOM     48  C   UNL A   1      42.328  28.319  33.706  1.00  0.00     0.031 A 
ATOM     49  C   UNL A   1      42.625  25.393  27.384  1.00  0.00     0.031 A 
ATOM     50  C   UNL A   1      43.414  29.044  33.077  1.00  0.00     0.049 A 
ATOM     51  C   UNL A   1      43.727  25.591  28.336  1.00  0.00     0.074 A 
ATOM     52  C   UNL A   1      43.783  30.349  32.827  1.00  0.00     0.029 A 
ATOM     53  N   UNL A   1      44.146  28.280  32.211  1.00  0.00    -0.354 N 
ATOM     54  N   UNL A   1      44.534  26.603  28.272  1.00  0.00    -0.248 NA
ATOM     55  C   UNL A   1      43.599  24.929  29.613  1.00  0.00     0.031 C 
ATOM     56  C   UNL A   1      44.398  30.328  31.529  1.00  0.00     0.029 A 
ATOM     57  C   UNL A   1      44.490  29.004  31.109  1.00  0.00     0.049 A 
ATOM     58  H   UNL A   1      44.390  27.340  32.362  1.00  0.00     0.167 HD
ATOM     59  C   UNL A   1      44.576  27.048  29.579  1.00  0.00     0.074 A 
ATOM     60  C   UNL A   1      44.033  25.936  30.372  1.00  0.00     0.031 C 
ATOM     61  C   UNL A   1      44.769  28.373  29.843  1.00  0.00     0.031 A 
BRANCH  48  62
ATOM     62  C   UNL A   1      42.585  27.231  34.723  1.00  0.00    -0.014 A 
ATOM     63  C   UNL A   1      42.803  25.916  34.267  1.00  0.00     0.009 A 
ATOM     64  C   UNL A   1      42.292  27.383  36.090  1.00  0.00     0.009 A 
ATOM     65  C   UNL A   1      42.642  24.816  35.119  1.00  0.00     0.001 A 
ATOM     66  C   UNL A   1      42.153  26.290  36.946  1.00  0.00     0.001 A 
ATOM     67  C   UNL A   1      42.302  25.003  36.455  1.00  0.00     0.000 A 
ENDBRANCH  48  62
BRANCH  49  68
ATOM     68  C   UNL A   1      42.611  24.054  26.660  1.00  0.00    -0.014 A 
ATOM     69  C   UNL A   1      43.785  23.380  26.209  1.00  0.00     0.009 A 
ATOM     70  C   UNL A   1      41.463  23.256  26.765  1.00  0.00     0.009 A 
ATOM     71  C   UNL A   1      43.792  21.998  25.889  1.00  0.00     0.001 A 
ATOM     72  C   UNL A   1      41.473  21.878  26.462  1.00  0.00     0.001 A 
ATOM     73  C   UNL A   1      42.633  21.245  26.028  1.00  0.00     0.000 A 
ENDBRANCH  49  68
BRANCH  61  74
ATOM     74  C   UNL A   1      45.214  29.254  28.702  1.00  0.00    -0.014 A 
ATOM     75  C   UNL A   1      46.531  29.340  28.208  1.00  0.00     0.009 A 
ATOM     76  C   UNL A   1      44.214  29.988  28.051  1.00  0.00     0.009 A 
ATOM     77  C   UNL A   1      46.829  30.164  27.113  1.00  0.00     0.001 A 
ATOM     78  C   UNL A   1      44.507  30.792  26.952  1.00  0.00     0.001 A 
ATOM     79  C   UNL A   1      45.815  30.888  26.486  1.00  0.00     0.000 A 
ENDBRANCH  61  74
ENDBRANCH  35  36
ENDBRANCH  28  30
ENDBRANCH  27  28
ENDBRANCH  26  27
ENDBRANCH   1  26
TORSDOF 13
ENDMDL
MODEL 2
REMARK VINA RESULT:     -12.7      4.208      7.890
REMARK SMILES Cc1ccn(CC(=O)N2CCC3(CC2)NC(=O)C[C@@H]3C(=O)OCCOC(=O)c2ccc(-c3c4nc(c(-c5ccccc5)c5ccc([nH]5)c(-c5ccccc5)c5nc(c(-c6ccccc6)c6ccc3[nH]6)C=C5)C=C4)cc2)n1
REMARK SMILES IDX 23 1 22 2 20 3 21 4 19 5 7 6 8 7 9 8 10 9 14 10 11 11 13 12
REMARK SMILES IDX 12 13 15 14 16 15 18 17 17 18 6 19 5 20 1 21 2 22 3 23 76 24
REMARK SMILES IDX 4 25 24 26 25 27 26 28 27 29 28 30 29 31 75 32 30 33 74 34
REMARK SMILES IDX 31 35 32 36 33 37 68 38 34 39 73 40 67 41 69 42 35 43 72 44
REMARK SMILES IDX 66 45 65 46 36 48 58 49 43 50 57 51 44 52 47 53 56 54 70 55
REMARK SMILES IDX 45 56 46 57 55 59 71 60 48 61 37 62 38 63 42 64 39 65 41 66
REMARK SMILES IDX 40 67 59 68 60 69 64 70 61 71 63 72 62 73 49 74 50 75 54 76
REMARK SMILES IDX 51 77 53 78 52 79
REMARK H PARENT 15 16 69 47 47 58
REMARK Flexibility Score: inf
ROOT
ATOM      1  C   UNL A   1      39.725  34.183  33.396  1.00  0.00     0.274 C 
ENDROOT
BRANCH   1   2
ATOM      2  O   UNL A   1      39.161  33.429  34.494  1.00  0.00    -0.462 OA
BRANCH   2   3
ATOM      3  C   UNL A   1      37.959  32.816  34.243  1.00  0.00     0.311 C 
ATOM      4  O   UNL A   1      36.893  33.137  34.744  1.00  0.00    -0.252 OA
BRANCH   3   5
ATOM      5  C   UNL A   1      38.136  31.773  33.153  1.00  0.00     0.134 C 
ATOM      6  C   UNL A   1      33.846  33.987  28.963  1.00  0.00     0.244 C 
ATOM      7  O   UNL A   1      32.819  34.513  29.455  1.00  0.00    -0.273 OA
ATOM      8  N   UNL A   1      35.198  34.267  29.819  1.00  0.00    -0.341 N 
ATOM      9  C   UNL A   1      34.486  33.640  31.402  1.00  0.00     0.122 C 
ATOM     10  C   UNL A   1      37.288  34.021  29.496  1.00  0.00     0.122 C 
ATOM     11  C   UNL A   1      35.373  32.249  32.229  1.00  0.00     0.051 C 
ATOM     12  C   UNL A   1      37.995  32.343  30.368  1.00  0.00     0.051 C 
ATOM     13  C   UNL A   1      37.101  31.707  31.925  1.00  0.00     0.057 C 
ATOM     14  N   UNL A   1      36.971  30.215  31.880  1.00  0.00    -0.350 N 
ATOM     15  C   UNL A   1      37.497  29.510  32.943  1.00  0.00     0.221 C 
ATOM     16  H   UNL A   1      36.531  29.760  31.126  1.00  0.00     0.164 HD
ATOM     17  C   UNL A   1      38.234  30.426  33.848  1.00  0.00     0.117 C 
ATOM     18  O   UNL A   1      37.379  28.309  33.121  1.00  0.00    -0.275 OA
BRANCH   6  19
ATOM     19  C   UNL A   1      33.522  32.769  27.816  1.00  0.00     0.244 C 
BRANCH  19  20
ATOM     20  N   UNL A   1      34.239  31.468  27.493  1.00  0.00    -0.263 N 
ATOM     21  C   UNL A   1      33.871  28.006  26.587  1.00  0.00     0.069 C 
ATOM     22  C   UNL A   1      34.293  29.355  27.025  1.00  0.00     0.059 A 
ATOM     23  C   UNL A   1      35.411  29.592  27.829  1.00  0.00     0.045 A 
ATOM     24  N   UNL A   1      33.585  30.481  26.783  1.00  0.00    -0.178 NA
ATOM     25  C   UNL A   1      35.416  30.951  27.977  1.00  0.00     0.109 A 
ENDBRANCH  19  20
ENDBRANCH   6  19
ENDBRANCH   3   5
ENDBRANCH   2   3
ENDBRANCH   1   2
BRANCH   1  26
ATOM     26  C   UNL A   1      41.103  34.711  33.780  1.00  0.00     0.275 C 
BRANCH  26  27
ATOM     27  O   UNL A   1      41.975  33.576  33.886  1.00  0.00    -0.458 OA
BRANCH  27  28
ATOM     28  C   UNL A   1      43.204  33.839  33.380  1.00  0.00     0.338 C 
ATOM     29  O   UNL A   1      44.037  34.495  33.985  1.00  0.00    -0.246 OA
BRANCH  28  30
ATOM     30  C   UNL A   1      43.238  33.453  31.861  1.00  0.00     0.060 A 
ATOM     31  C   UNL A   1      41.902  33.419  30.435  1.00  0.00     0.016 A 
ATOM     32  C   UNL A   1      44.033  31.935  32.272  1.00  0.00     0.016 A 
ATOM     33  C   UNL A   1      41.363  31.702  30.015  1.00  0.00     0.010 A 
ATOM     34  C   UNL A   1      43.516  30.494  31.722  1.00  0.00     0.010 A 
ATOM     35  C   UNL A   1      42.243  30.265  30.698  1.00  0.00    -0.014 A 
BRANCH  35  36
ATOM     36  C   UNL A   1      42.321  28.694  30.296  1.00  0.00     0.031 A 
ATOM     37  C   UNL A   1      42.795  27.811  31.428  1.00  0.00     0.074 A 
ATOM     38  C   UNL A   1      41.792  27.904  29.270  1.00  0.00     0.049 A 
ATOM     39  N   UNL A   1      43.886  27.120  31.367  1.00  0.00    -0.248 NA
ATOM     40  C   UNL A   1      42.173  27.759  32.756  1.00  0.00     0.031 C 
ATOM     41  C   UNL A   1      40.936  28.241  28.117  1.00  0.00     0.029 A 
ATOM     42  N   UNL A   1      41.925  26.513  29.043  1.00  0.00    -0.354 N 
ATOM     43  C   UNL A   1      44.212  26.718  32.648  1.00  0.00     0.074 A 
ATOM     44  C   UNL A   1      43.121  27.152  33.484  1.00  0.00     0.031 C 
ATOM     45  C   UNL A   1      40.482  27.120  27.479  1.00  0.00     0.029 A 
ATOM     46  C   UNL A   1      41.094  25.927  28.044  1.00  0.00     0.049 A 
ATOM     47  H   UNL A   1      42.568  25.971  29.555  1.00  0.00     0.167 HD
ATOM     48  C   UNL A   1      45.339  25.986  32.867  1.00  0.00     0.031 A 
ATOM     49  C   UNL A   1      41.010  24.622  27.575  1.00  0.00     0.031 A 
ATOM     50  C   UNL A   1      46.223  26.035  31.720  1.00  0.00     0.049 A 
ATOM     51  C   UNL A   1      42.287  23.964  27.884  1.00  0.00     0.074 A 
ATOM     52  C   UNL A   1      47.139  26.896  31.152  1.00  0.00     0.029 A 
ATOM     53  N   UNL A   1      45.878  25.157  30.731  1.00  0.00    -0.354 N 
ATOM     54  N   UNL A   1      43.404  24.303  27.322  1.00  0.00    -0.248 NA
ATOM     55  C   UNL A   1      42.369  23.289  29.158  1.00  0.00     0.031 C 
ATOM     56  C   UNL A   1      46.968  26.749  29.732  1.00  0.00     0.029 A 
ATOM     57  C   UNL A   1      46.055  25.723  29.505  1.00  0.00     0.049 A 
ATOM     58  H   UNL A   1      45.547  24.243  30.884  1.00  0.00     0.167 HD
ATOM     59  C   UNL A   1      44.273  24.398  28.391  1.00  0.00     0.074 A 
ATOM     60  C   UNL A   1      43.594  23.696  29.490  1.00  0.00     0.031 C 
ATOM     61  C   UNL A   1      45.309  25.286  28.351  1.00  0.00     0.031 A 
BRANCH  48  62
ATOM     62  C   UNL A   1      45.310  24.795  33.797  1.00  0.00    -0.014 A 
ATOM     63  C   UNL A   1      44.321  23.810  33.605  1.00  0.00     0.009 A 
ATOM     64  C   UNL A   1      45.989  24.774  35.028  1.00  0.00     0.009 A 
ATOM     65  C   UNL A   1      43.974  22.921  34.629  1.00  0.00     0.001 A 
ATOM     66  C   UNL A   1      45.660  23.875  36.043  1.00  0.00     0.001 A 
ATOM     67  C   UNL A   1      44.634  22.963  35.853  1.00  0.00     0.000 A 
ENDBRANCH  48  62
BRANCH  49  68
ATOM     68  C   UNL A   1      39.884  23.700  27.130  1.00  0.00    -0.014 A 
ATOM     69  C   UNL A   1      38.601  24.157  26.703  1.00  0.00     0.009 A 
ATOM     70  C   UNL A   1      40.210  22.390  26.753  1.00  0.00     0.009 A 
ATOM     71  C   UNL A   1      37.716  23.343  25.950  1.00  0.00     0.001 A 
ATOM     72  C   UNL A   1      39.338  21.586  25.989  1.00  0.00     0.001 A 
ATOM     73  C   UNL A   1      38.094  22.058  25.583  1.00  0.00     0.000 A 
ENDBRANCH  49  68
BRANCH  61  74
ATOM     74  C   UNL A   1      45.630  25.925  27.023  1.00  0.00    -0.014 A 
ATOM     75  C   UNL A   1      45.050  27.110  26.529  1.00  0.00     0.009 A 
ATOM     76  C   UNL A   1      46.635  25.313  26.263  1.00  0.00     0.009 A 
ATOM     77  C   UNL A   1      45.452  27.640  25.294  1.00  0.00     0.001 A 
ATOM     78  C   UNL A   1      47.048  25.850  25.045  1.00  0.00     0.001 A 
ATOM     79  C   UNL A   1      46.452  27.008  24.555  1.00  0.00     0.000 A 
ENDBRANCH  61  74
ENDBRANCH  35  36
ENDBRANCH  28  30
ENDBRANCH  27  28
ENDBRANCH  26  27
ENDBRANCH   1  26
TORSDOF 13
ENDMDL
MODEL 3
REMARK VINA RESULT:     -12.6      4.677     10.147
REMARK SMILES Cc1ccn(CC(=O)N2CCC3(CC2)NC(=O)C[C@@H]3C(=O)OCCOC(=O)c2ccc(-c3c4nc(c(-c5ccccc5)c5ccc([nH]5)c(-c5ccccc5)c5nc(c(-c6ccccc6)c6ccc3[nH]6)C=C5)C=C4)cc2)n1
REMARK SMILES IDX 23 1 22 2 20 3 21 4 19 5 7 6 8 7 9 8 10 9 14 10 11 11 13 12
REMARK SMILES IDX 12 13 15 14 16 15 18 17 17 18 6 19 5 20 1 21 2 22 3 23 76 24
REMARK SMILES IDX 4 25 24 26 25 27 26 28 27 29 28 30 29 31 75 32 30 33 74 34
REMARK SMILES IDX 31 35 32 36 33 37 68 38 34 39 73 40 67 41 69 42 35 43 72 44
REMARK SMILES IDX 66 45 65 46 36 48 58 49 43 50 57 51 44 52 47 53 56 54 70 55
REMARK SMILES IDX 45 56 46 57 55 59 71 60 48 61 37 62 38 63 42 64 39 65 41 66
REMARK SMILES IDX 40 67 59 68 60 69 64 70 61 71 63 72 62 73 49 74 50 75 54 76
REMARK SMILES IDX 51 77 53 78 52 79
REMARK H PARENT 15 16 69 47 47 58
REMARK Flexibility Score: inf
ROOT
ATOM      1  C   UNL A   1      46.535  26.767  28.398  1.00  0.00     0.274 C 
ENDROOT
BRANCH   1   2
ATOM      2  O   UNL A   1      46.663  25.644  27.496  1.00  0.00    -0.462 OA
BRANCH   2   3
ATOM      3  C   UNL A   1      46.007  25.762  26.297  1.00  0.00     0.311 C 
ATOM      4  O   UNL A   1      46.478  25.466  25.210  1.00  0.00    -0.252 OA
BRANCH   3   5
ATOM      5  C   UNL A   1      44.570  26.186  26.541  1.00  0.00     0.134 C 
ATOM      6  C   UNL A   1      41.777  20.444  26.233  1.00  0.00     0.244 C 
ATOM      7  O   UNL A   1      42.280  19.633  25.419  1.00  0.00    -0.273 OA
ATOM      8  N   UNL A   1      42.870  21.401  26.962  1.00  0.00    -0.341 N 
ATOM      9  C   UNL A   1      43.608  21.993  25.376  1.00  0.00     0.122 C 
ATOM     10  C   UNL A   1      42.866  22.734  28.622  1.00  0.00     0.122 C 
ATOM     11  C   UNL A   1      43.603  23.813  25.077  1.00  0.00     0.051 C 
ATOM     12  C   UNL A   1      42.694  24.660  28.043  1.00  0.00     0.051 C 
ATOM     13  C   UNL A   1      43.371  25.136  26.328  1.00  0.00     0.057 C 
ATOM     14  N   UNL A   1      42.431  26.076  25.637  1.00  0.00    -0.350 N 
ATOM     15  C   UNL A   1      42.948  27.288  25.226  1.00  0.00     0.221 C 
ATOM     16  H   UNL A   1      41.487  25.840  25.485  1.00  0.00     0.164 HD
ATOM     17  C   UNL A   1      44.338  27.443  25.720  1.00  0.00     0.117 C 
ATOM     18  O   UNL A   1      42.356  28.116  24.553  1.00  0.00    -0.275 OA
BRANCH   6  19
ATOM     19  C   UNL A   1      40.097  20.662  26.051  1.00  0.00     0.244 C 
BRANCH  19  20
ATOM     20  N   UNL A   1      39.203  21.869  26.284  1.00  0.00    -0.263 N 
ATOM     21  C   UNL A   1      36.403  23.780  25.082  1.00  0.00     0.069 C 
ATOM     22  C   UNL A   1      37.608  23.227  25.738  1.00  0.00     0.059 A 
ATOM     23  C   UNL A   1      38.573  24.014  26.371  1.00  0.00     0.045 A 
ATOM     24  N   UNL A   1      37.953  21.920  25.700  1.00  0.00    -0.178 NA
ATOM     25  C   UNL A   1      39.485  23.100  26.823  1.00  0.00     0.109 A 
ENDBRANCH  19  20
ENDBRANCH   6  19
ENDBRANCH   3   5
ENDBRANCH   2   3
ENDBRANCH   1   2
BRANCH   1  26
ATOM     26  C   UNL A   1      47.595  26.682  29.491  1.00  0.00     0.275 C 
BRANCH  26  27
ATOM     27  O   UNL A   1      47.516  27.897  30.251  1.00  0.00    -0.458 OA
BRANCH  27  28
ATOM     28  C   UNL A   1      47.539  27.656  31.584  1.00  0.00     0.338 C 
ATOM     29  O   UNL A   1      48.577  27.488  32.203  1.00  0.00    -0.246 OA
BRANCH  28  30
ATOM     30  C   UNL A   1      46.088  27.336  32.084  1.00  0.00     0.060 A 
ATOM     31  C   UNL A   1      44.694  26.093  31.511  1.00  0.00     0.016 A 
ATOM     32  C   UNL A   1      45.708  29.057  32.058  1.00  0.00     0.016 A 
ATOM     33  C   UNL A   1      43.316  26.941  30.617  1.00  0.00     0.010 A 
ATOM     34  C   UNL A   1      44.381  29.655  31.333  1.00  0.00     0.010 A 
ATOM     35  C   UNL A   1      43.217  28.755  30.584  1.00  0.00    -0.014 A 
BRANCH  35  36
ATOM     36  C   UNL A   1      42.031  29.815  30.257  1.00  0.00     0.031 A 
ATOM     37  C   UNL A   1      42.531  31.094  29.623  1.00  0.00     0.074 A 
ATOM     38  C   UNL A   1      40.639  29.743  30.143  1.00  0.00     0.049 A 
ATOM     39  N   UNL A   1      42.402  32.251  30.185  1.00  0.00    -0.248 NA
ATOM     40  C   UNL A   1      43.341  31.152  28.401  1.00  0.00     0.031 C 
ATOM     41  C   UNL A   1      39.701  28.616  30.298  1.00  0.00     0.029 A 
ATOM     42  N   UNL A   1      39.706  30.761  29.827  1.00  0.00    -0.354 N 
ATOM     43  C   UNL A   1      43.248  33.136  29.545  1.00  0.00     0.074 A 
ATOM     44  C   UNL A   1      43.824  32.402  28.447  1.00  0.00     0.031 C 
ATOM     45  C   UNL A   1      38.438  28.948  29.891  1.00  0.00     0.029 A 
ATOM     46  C   UNL A   1      38.365  30.363  29.556  1.00  0.00     0.049 A 
ATOM     47  H   UNL A   1      39.974  31.708  29.797  1.00  0.00     0.167 HD
ATOM     48  C   UNL A   1      43.322  34.430  29.960  1.00  0.00     0.031 A 
ATOM     49  C   UNL A   1      37.233  31.108  29.252  1.00  0.00     0.031 A 
ATOM     50  C   UNL A   1      42.724  34.592  31.270  1.00  0.00     0.049 A 
ATOM     51  C   UNL A   1      37.461  32.471  29.755  1.00  0.00     0.074 A 
ATOM     52  C   UNL A   1      43.044  34.365  32.593  1.00  0.00     0.029 A 
ATOM     53  N   UNL A   1      41.362  34.710  31.234  1.00  0.00    -0.354 N 
ATOM     54  N   UNL A   1      37.545  32.746  31.018  1.00  0.00    -0.248 NA
ATOM     55  C   UNL A   1      38.076  33.399  28.835  1.00  0.00     0.031 C 
ATOM     56  C   UNL A   1      41.821  33.930  33.210  1.00  0.00     0.029 A 
ATOM     57  C   UNL A   1      40.797  34.035  32.274  1.00  0.00     0.049 A 
ATOM     58  H   UNL A   1      40.861  35.211  30.553  1.00  0.00     0.167 HD
ATOM     59  C   UNL A   1      38.669  33.545  31.087  1.00  0.00     0.074 A 
ATOM     60  C   UNL A   1      38.916  33.967  29.701  1.00  0.00     0.031 C 
ATOM     61  C   UNL A   1      39.446  33.534  32.209  1.00  0.00     0.031 A 
BRANCH  48  62
ATOM     62  C   UNL A   1      43.345  35.557  28.954  1.00  0.00    -0.014 A 
ATOM     63  C   UNL A   1      43.812  36.822  29.364  1.00  0.00     0.009 A 
ATOM     64  C   UNL A   1      42.628  35.512  27.745  1.00  0.00     0.009 A 
ATOM     65  C   UNL A   1      43.493  37.982  28.647  1.00  0.00     0.001 A 
ATOM     66  C   UNL A   1      42.327  36.664  27.016  1.00  0.00     0.001 A 
ATOM     67  C   UNL A   1      42.738  37.904  27.481  1.00  0.00     0.000 A 
ENDBRANCH  48  62
BRANCH  49  68
ATOM     68  C   UNL A   1      36.039  30.939  28.324  1.00  0.00    -0.014 A 
ATOM     69  C   UNL A   1      35.708  29.717  27.666  1.00  0.00     0.009 A 
ATOM     70  C   UNL A   1      35.003  31.881  28.399  1.00  0.00     0.009 A 
ATOM     71  C   UNL A   1      34.420  29.470  27.125  1.00  0.00     0.001 A 
ATOM     72  C   UNL A   1      33.717  31.629  27.875  1.00  0.00     0.001 A 
ATOM     73  C   UNL A   1      33.420  30.427  27.242  1.00  0.00     0.000 A 
ENDBRANCH  49  68
BRANCH  61  74
ATOM     74  C   UNL A   1      38.885  32.866  33.440  1.00  0.00    -0.014 A 
ATOM     75  C   UNL A   1      39.122  31.530  33.818  1.00  0.00     0.009 A 
ATOM     76  C   UNL A   1      38.123  33.671  34.296  1.00  0.00     0.009 A 
ATOM     77  C   UNL A   1      38.581  31.019  35.008  1.00  0.00     0.001 A 
ATOM     78  C   UNL A   1      37.602  33.170  35.487  1.00  0.00     0.001 A 
ATOM     79  C   UNL A   1      37.822  31.842  35.841  1.00  0.00     0.000 A 
ENDBRANCH  61  74
ENDBRANCH  35  36
ENDBRANCH  28  30
ENDBRANCH  27  28
ENDBRANCH  26  27
ENDBRANCH   1  26
TORSDOF 13
ENDMDL
