MODEL 1
REMARK VINA RESULT:     -13.0      0.000      0.000
REMARK SMILES O=C(OCCOC(=O)c1ccc(-c2c3nc(c(-c4ccccc4)c4ccc([nH]4)c(-c4ccccc4)c4nc(c(-c5ccccc5)c5ccc2[nH]5)C=C4)C=C3)cc1)C1=Cc2cc(OC(F)(F)F)ccc2O[C@@H]1C(F)(F)F
REMARK SMILES IDX 4 1 3 2 2 3 1 4 57 5 58 6 71 7 59 8 70 9 60 10 69 11 61 12
REMARK SMILES IDX 68 13 67 14 72 15 73 16 74 17 75 18 62 19 63 20 64 21 65 22
REMARK SMILES IDX 66 23 5 24 6 25 7 26 8 27 9 28 10 29 56 30 11 31 55 32 12 33
REMARK SMILES IDX 13 34 14 35 49 36 15 37 54 38 48 39 50 40 16 41 53 42 47 43
REMARK SMILES IDX 46 44 17 46 39 47 24 48 38 49 25 50 28 51 37 52 51 53 26 54
REMARK SMILES IDX 27 55 36 57 52 58 29 59 18 60 19 61 23 62 20 63 22 64 21 65
REMARK SMILES IDX 40 66 41 67 45 68 42 69 44 70 43 71 30 72 31 73 35 74 32 75
REMARK SMILES IDX 34 76 33 77
REMARK H PARENT 50 45 28 56
REMARK Flexibility Score: inf
ROOT
ATOM      1  C   UNL A   1      31.789  30.786  26.813  1.00  0.00     0.275 C 
ENDROOT
BRANCH   1   2
ATOM      2  O   UNL A   1      31.983  29.887  25.541  1.00  0.00    -0.459 OA
BRANCH   2   3
ATOM      3  C   UNL A   1      31.710  28.597  25.758  1.00  0.00     0.338 C 
ATOM      4  O   UNL A   1      31.481  27.994  26.775  1.00  0.00    -0.246 OA
BRANCH   3   5
ATOM      5  C   UNL A   1      32.079  28.169  24.438  1.00  0.00     0.087 C 
ATOM      6  C   UNL A   1      33.283  27.317  24.501  1.00  0.00     0.027 C 
ATOM      7  C   UNL A   1      30.328  27.578  23.867  1.00  0.00     0.316 C 
ATOM      8  C   UNL A   1      33.246  25.541  24.188  1.00  0.00     0.021 A 
ATOM      9  O   UNL A   1      30.276  25.677  23.556  1.00  0.00    -0.475 OA
ATOM     10  C   UNL A   1      34.363  24.826  24.503  1.00  0.00     0.058 A 
ATOM     11  C   UNL A   1      31.788  24.690  23.809  1.00  0.00     0.128 A 
ATOM     12  C   UNL A   1      34.219  23.428  24.517  1.00  0.00     0.130 A 
ATOM     13  C   UNL A   1      31.725  23.323  23.823  1.00  0.00     0.051 A 
ATOM     14  C   UNL A   1      32.977  22.721  24.197  1.00  0.00     0.050 A 
BRANCH   7  15
ATOM     15  C   UNL A   1      29.919  28.814  22.999  1.00  0.00     0.430 C 
ATOM     16  F   UNL A   1      30.779  29.031  21.993  1.00  0.00    -0.167 F 
ATOM     17  F   UNL A   1      28.738  28.520  22.375  1.00  0.00    -0.167 F 
ATOM     18  F   UNL A   1      29.634  29.952  23.653  1.00  0.00    -0.167 F 
ENDBRANCH   7  15
BRANCH  12  19
ATOM     19  O   UNL A   1      35.419  22.869  24.887  1.00  0.00    -0.406 OA
BRANCH  19  20
ATOM     20  C   UNL A   1      36.481  22.741  23.973  1.00  0.00     0.573 C 
ATOM     21  F   UNL A   1      37.078  21.539  24.089  1.00  0.00    -0.132 F 
ATOM     22  F   UNL A   1      36.051  22.925  22.710  1.00  0.00    -0.132 F 
ATOM     23  F   UNL A   1      37.393  23.698  24.257  1.00  0.00    -0.132 F 
ENDBRANCH  19  20
ENDBRANCH  12  19
ENDBRANCH   3   5
ENDBRANCH   2   3
ENDBRANCH   1   2
BRANCH   1  24
ATOM     24  C   UNL A   1      32.008  32.930  26.901  1.00  0.00     0.275 C 
BRANCH  24  25
ATOM     25  O   UNL A   1      32.412  33.852  28.272  1.00  0.00    -0.458 OA
BRANCH  25  26
ATOM     26  C   UNL A   1      32.909  35.055  28.689  1.00  0.00     0.338 C 
ATOM     27  O   UNL A   1      32.376  36.144  28.763  1.00  0.00    -0.246 OA
BRANCH  26  28
ATOM     28  C   UNL A   1      34.179  34.697  29.393  1.00  0.00     0.060 A 
ATOM     29  C   UNL A   1      34.095  34.010  30.616  1.00  0.00     0.016 A 
ATOM     30  C   UNL A   1      35.369  34.676  28.663  1.00  0.00     0.016 A 
ATOM     31  C   UNL A   1      35.116  33.115  30.978  1.00  0.00     0.010 A 
ATOM     32  C   UNL A   1      36.392  33.804  29.040  1.00  0.00     0.010 A 
ATOM     33  C   UNL A   1      36.246  32.967  30.160  1.00  0.00    -0.014 A 
BRANCH  33  34
ATOM     34  C   UNL A   1      37.407  32.151  30.603  1.00  0.00     0.031 A 
ATOM     35  C   UNL A   1      38.140  32.675  31.800  1.00  0.00     0.074 A 
ATOM     36  C   UNL A   1      37.850  31.051  29.959  1.00  0.00     0.049 A 
ATOM     37  N   UNL A   1      39.205  32.215  32.399  1.00  0.00    -0.248 NA
ATOM     38  C   UNL A   1      37.596  33.914  32.385  1.00  0.00     0.031 C 
ATOM     39  C   UNL A   1      37.245  30.433  28.779  1.00  0.00     0.029 A 
ATOM     40  N   UNL A   1      38.947  30.257  30.218  1.00  0.00    -0.354 N 
ATOM     41  C   UNL A   1      39.450  33.108  33.432  1.00  0.00     0.074 A 
ATOM     42  C   UNL A   1      38.473  34.166  33.338  1.00  0.00     0.031 C 
ATOM     43  C   UNL A   1      37.978  29.359  28.418  1.00  0.00     0.029 A 
ATOM     44  C   UNL A   1      39.113  29.218  29.330  1.00  0.00     0.049 A 
ATOM     45  H   UNL A   1      39.560  30.420  30.971  1.00  0.00     0.167 HD
ATOM     46  C   UNL A   1      40.393  33.050  34.398  1.00  0.00     0.031 A 
ATOM     47  C   UNL A   1      40.072  28.266  29.274  1.00  0.00     0.031 A 
ATOM     48  C   UNL A   1      41.402  32.039  34.468  1.00  0.00     0.049 A 
ATOM     49  C   UNL A   1      41.168  28.267  30.318  1.00  0.00     0.074 A 
ATOM     50  C   UNL A   1      42.413  31.889  35.396  1.00  0.00     0.029 A 
ATOM     51  N   UNL A   1      41.533  31.009  33.550  1.00  0.00    -0.354 N 
ATOM     52  N   UNL A   1      41.340  29.066  31.345  1.00  0.00    -0.248 NA
ATOM     53  C   UNL A   1      42.196  27.217  30.204  1.00  0.00     0.031 C 
ATOM     54  C   UNL A   1      43.188  30.789  35.013  1.00  0.00     0.029 A 
ATOM     55  C   UNL A   1      42.622  30.225  33.879  1.00  0.00     0.049 A 
ATOM     56  H   UNL A   1      40.939  30.858  32.779  1.00  0.00     0.167 HD
ATOM     57  C   UNL A   1      42.459  28.587  32.021  1.00  0.00     0.074 A 
ATOM     58  C   UNL A   1      42.923  27.426  31.292  1.00  0.00     0.031 C 
ATOM     59  C   UNL A   1      43.046  29.059  33.148  1.00  0.00     0.031 A 
BRANCH  46  60
ATOM     60  C   UNL A   1      40.355  34.156  35.411  1.00  0.00    -0.014 A 
ATOM     61  C   UNL A   1      39.588  34.028  36.583  1.00  0.00     0.009 A 
ATOM     62  C   UNL A   1      40.994  35.373  35.141  1.00  0.00     0.009 A 
ATOM     63  C   UNL A   1      39.406  35.121  37.429  1.00  0.00     0.001 A 
ATOM     64  C   UNL A   1      40.837  36.455  36.008  1.00  0.00     0.001 A 
ATOM     65  C   UNL A   1      40.029  36.334  37.139  1.00  0.00     0.000 A 
ENDBRANCH  46  60
BRANCH  47  66
ATOM     66  C   UNL A   1      40.060  27.201  28.228  1.00  0.00    -0.014 A 
ATOM     67  C   UNL A   1      39.393  25.985  28.460  1.00  0.00     0.009 A 
ATOM     68  C   UNL A   1      40.790  27.344  27.037  1.00  0.00     0.009 A 
ATOM     69  C   UNL A   1      39.488  24.928  27.548  1.00  0.00     0.001 A 
ATOM     70  C   UNL A   1      40.862  26.294  26.113  1.00  0.00     0.001 A 
ATOM     71  C   UNL A   1      40.222  25.082  26.375  1.00  0.00     0.000 A 
ENDBRANCH  47  66
BRANCH  59  72
ATOM     72  C   UNL A   1      44.212  28.290  33.706  1.00  0.00    -0.014 A 
ATOM     73  C   UNL A   1      45.534  28.614  33.370  1.00  0.00     0.009 A 
ATOM     74  C   UNL A   1      43.976  27.278  34.650  1.00  0.00     0.009 A 
ATOM     75  C   UNL A   1      46.598  27.921  33.953  1.00  0.00     0.001 A 
ATOM     76  C   UNL A   1      45.040  26.609  35.254  1.00  0.00     0.001 A 
ATOM     77  C   UNL A   1      46.350  26.926  34.900  1.00  0.00     0.000 A 
ENDBRANCH  59  72
ENDBRANCH  33  34
ENDBRANCH  26  28
ENDBRANCH  25  26
ENDBRANCH  24  25
ENDBRANCH   1  24
TORSDOF 14
ENDMDL
MODEL 2
REMARK VINA RESULT:     -13.0      4.418     10.051
REMARK SMILES O=C(OCCOC(=O)c1ccc(-c2c3nc(c(-c4ccccc4)c4ccc([nH]4)c(-c4ccccc4)c4nc(c(-c5ccccc5)c5ccc2[nH]5)C=C4)C=C3)cc1)C1=Cc2cc(OC(F)(F)F)ccc2O[C@@H]1C(F)(F)F
REMARK SMILES IDX 4 1 3 2 2 3 1 4 57 5 58 6 71 7 59 8 70 9 60 10 69 11 61 12
REMARK SMILES IDX 68 13 67 14 72 15 73 16 74 17 75 18 62 19 63 20 64 21 65 22
REMARK SMILES IDX 66 23 5 24 6 25 7 26 8 27 9 28 10 29 56 30 11 31 55 32 12 33
REMARK SMILES IDX 13 34 14 35 49 36 15 37 54 38 48 39 50 40 16 41 53 42 47 43
REMARK SMILES IDX 46 44 17 46 39 47 24 48 38 49 25 50 28 51 37 52 51 53 26 54
REMARK SMILES IDX 27 55 36 57 52 58 29 59 18 60 19 61 23 62 20 63 22 64 21 65
REMARK SMILES IDX 40 66 41 67 45 68 42 69 44 70 43 71 30 72 31 73 35 74 32 75
REMARK SMILES IDX 34 76 33 77
REMARK H PARENT 50 45 28 56
REMARK Flexibility Score: inf
ROOT
ATOM      1  C   UNL A   1      37.799  21.230  24.652  1.00  0.00     0.275 C 
ENDROOT
BRANCH   1   2
ATOM      2  O   UNL A   1      36.957  22.490  25.066  1.00  0.00    -0.459 OA
BRANCH   2   3
ATOM      3  C   UNL A   1      35.956  22.758  24.222  1.00  0.00     0.338 C 
ATOM      4  O   UNL A   1      35.961  23.152  23.084  1.00  0.00    -0.246 OA
BRANCH   3   5
ATOM      5  C   UNL A   1      34.931  22.702  25.225  1.00  0.00     0.087 C 
ATOM      6  C   UNL A   1      34.709  24.045  25.798  1.00  0.00     0.027 C 
ATOM      7  C   UNL A   1      33.630  21.702  24.200  1.00  0.00     0.316 C 
ATOM      8  C   UNL A   1      33.219  25.011  25.485  1.00  0.00     0.021 A 
ATOM      9  O   UNL A   1      32.046  22.740  23.840  1.00  0.00    -0.475 OA
ATOM     10  C   UNL A   1      33.229  26.319  25.869  1.00  0.00     0.058 A 
ATOM     11  C   UNL A   1      31.938  24.447  24.468  1.00  0.00     0.128 A 
ATOM     12  C   UNL A   1      32.185  27.118  25.371  1.00  0.00     0.130 A 
ATOM     13  C   UNL A   1      30.940  25.279  24.036  1.00  0.00     0.051 A 
ATOM     14  C   UNL A   1      31.107  26.627  24.508  1.00  0.00     0.050 A 
BRANCH   7  15
ATOM     15  C   UNL A   1      33.861  20.284  24.820  1.00  0.00     0.430 C 
ATOM     16  F   UNL A   1      33.595  20.259  26.134  1.00  0.00    -0.167 F 
ATOM     17  F   UNL A   1      32.942  19.430  24.273  1.00  0.00    -0.167 F 
ATOM     18  F   UNL A   1      35.028  19.679  24.546  1.00  0.00    -0.167 F 
ENDBRANCH   7  15
BRANCH  12  19
ATOM     19  O   UNL A   1      32.366  28.403  25.821  1.00  0.00    -0.406 OA
BRANCH  19  20
ATOM     20  C   UNL A   1      32.014  28.778  27.132  1.00  0.00     0.573 C 
ATOM     21  F   UNL A   1      31.674  30.080  27.188  1.00  0.00    -0.132 F 
ATOM     22  F   UNL A   1      31.006  28.015  27.594  1.00  0.00    -0.132 F 
ATOM     23  F   UNL A   1      33.093  28.586  27.923  1.00  0.00    -0.132 F 
ENDBRANCH  19  20
ENDBRANCH  12  19
ENDBRANCH   3   5
ENDBRANCH   2   3
ENDBRANCH   1   2
BRANCH   1  24
ATOM     24  C   UNL A   1      39.080  20.075  25.946  1.00  0.00     0.275 C 
BRANCH  24  25
ATOM     25  O   UNL A   1      40.534  19.308  25.512  1.00  0.00    -0.458 OA
BRANCH  25  26
ATOM     26  C   UNL A   1      41.725  18.842  25.992  1.00  0.00     0.338 C 
ATOM     27  O   UNL A   1      42.264  17.763  25.850  1.00  0.00    -0.246 OA
BRANCH  26  28
ATOM     28  C   UNL A   1      42.436  20.075  26.456  1.00  0.00     0.060 A 
ATOM     29  C   UNL A   1      42.982  20.935  25.489  1.00  0.00     0.016 A 
ATOM     30  C   UNL A   1      42.191  20.544  27.748  1.00  0.00     0.016 A 
ATOM     31  C   UNL A   1      43.054  22.314  25.751  1.00  0.00     0.010 A 
ATOM     32  C   UNL A   1      42.289  21.912  28.013  1.00  0.00     0.010 A 
ATOM     33  C   UNL A   1      42.654  22.816  26.999  1.00  0.00    -0.014 A 
BRANCH  33  34
ATOM     34  C   UNL A   1      42.873  24.241  27.354  1.00  0.00     0.031 A 
ATOM     35  C   UNL A   1      44.304  24.686  27.374  1.00  0.00     0.074 A 
ATOM     36  C   UNL A   1      41.890  25.094  27.711  1.00  0.00     0.049 A 
ATOM     37  N   UNL A   1      44.819  25.846  27.679  1.00  0.00    -0.248 NA
ATOM     38  C   UNL A   1      45.294  23.652  27.019  1.00  0.00     0.031 C 
ATOM     39  C   UNL A   1      40.457  24.800  27.748  1.00  0.00     0.029 A 
ATOM     40  N   UNL A   1      41.965  26.404  28.132  1.00  0.00    -0.354 N 
ATOM     41  C   UNL A   1      46.189  25.678  27.546  1.00  0.00     0.074 A 
ATOM     42  C   UNL A   1      46.430  24.298  27.202  1.00  0.00     0.031 C 
ATOM     43  C   UNL A   1      39.792  25.896  28.167  1.00  0.00     0.029 A 
ATOM     44  C   UNL A   1      40.747  26.968  28.443  1.00  0.00     0.049 A 
ATOM     45  H   UNL A   1      42.816  26.895  28.206  1.00  0.00     0.167 HD
ATOM     46  C   UNL A   1      47.173  26.595  27.673  1.00  0.00     0.031 A 
ATOM     47  C   UNL A   1      40.453  28.208  28.893  1.00  0.00     0.031 A 
ATOM     48  C   UNL A   1      46.952  27.952  28.068  1.00  0.00     0.049 A 
ATOM     49  C   UNL A   1      41.578  29.198  29.108  1.00  0.00     0.074 A 
ATOM     50  C   UNL A   1      47.875  28.964  28.240  1.00  0.00     0.029 A 
ATOM     51  N   UNL A   1      45.706  28.478  28.374  1.00  0.00    -0.354 N 
ATOM     52  N   UNL A   1      42.865  29.055  28.894  1.00  0.00    -0.248 NA
ATOM     53  C   UNL A   1      41.204  30.531  29.613  1.00  0.00     0.031 C 
ATOM     54  C   UNL A   1      47.192  30.096  28.695  1.00  0.00     0.029 A 
ATOM     55  C   UNL A   1      45.837  29.801  28.751  1.00  0.00     0.049 A 
ATOM     56  H   UNL A   1      44.856  27.984  28.329  1.00  0.00     0.167 HD
ATOM     57  C   UNL A   1      43.443  30.287  29.189  1.00  0.00     0.074 A 
ATOM     58  C   UNL A   1      42.367  31.167  29.592  1.00  0.00     0.031 C 
ATOM     59  C   UNL A   1      44.745  30.661  29.124  1.00  0.00     0.031 A 
BRANCH  46  60
ATOM     60  C   UNL A   1      48.563  26.100  27.407  1.00  0.00    -0.014 A 
ATOM     61  C   UNL A   1      49.368  25.626  28.458  1.00  0.00     0.009 A 
ATOM     62  C   UNL A   1      49.112  26.216  26.123  1.00  0.00     0.009 A 
ATOM     63  C   UNL A   1      50.716  25.342  28.240  1.00  0.00     0.001 A 
ATOM     64  C   UNL A   1      50.453  25.898  25.902  1.00  0.00     0.001 A 
ATOM     65  C   UNL A   1      51.257  25.480  26.964  1.00  0.00     0.000 A 
ENDBRANCH  46  60
BRANCH  47  66
ATOM     66  C   UNL A   1      39.046  28.634  29.155  1.00  0.00    -0.014 A 
ATOM     67  C   UNL A   1      38.301  29.279  28.151  1.00  0.00     0.009 A 
ATOM     68  C   UNL A   1      38.469  28.493  30.426  1.00  0.00     0.009 A 
ATOM     69  C   UNL A   1      37.033  29.805  28.423  1.00  0.00     0.001 A 
ATOM     70  C   UNL A   1      37.188  28.998  30.689  1.00  0.00     0.001 A 
ATOM     71  C   UNL A   1      36.478  29.665  29.692  1.00  0.00     0.000 A 
ENDBRANCH  47  66
BRANCH  59  72
ATOM     72  C   UNL A   1      45.077  32.095  29.431  1.00  0.00    -0.014 A 
ATOM     73  C   UNL A   1      45.462  32.502  30.716  1.00  0.00     0.009 A 
ATOM     74  C   UNL A   1      45.085  33.035  28.387  1.00  0.00     0.009 A 
ATOM     75  C   UNL A   1      45.825  33.829  30.955  1.00  0.00     0.001 A 
ATOM     76  C   UNL A   1      45.479  34.352  28.621  1.00  0.00     0.001 A 
ATOM     77  C   UNL A   1      45.842  34.750  29.907  1.00  0.00     0.000 A 
ENDBRANCH  59  72
ENDBRANCH  33  34
ENDBRANCH  26  28
ENDBRANCH  25  26
ENDBRANCH  24  25
ENDBRANCH   1  24
TORSDOF 14
ENDMDL
MODEL 3
REMARK VINA RESULT:     -12.9      1.020      5.963
REMARK SMILES O=C(OCCOC(=O)c1ccc(-c2c3nc(c(-c4ccccc4)c4ccc([nH]4)c(-c4ccccc4)c4nc(c(-c5ccccc5)c5ccc2[nH]5)C=C4)C=C3)cc1)C1=Cc2cc(OC(F)(F)F)ccc2O[C@@H]1C(F)(F)F
REMARK SMILES IDX 4 1 3 2 2 3 1 4 57 5 58 6 71 7 59 8 70 9 60 10 69 11 61 12
REMARK SMILES IDX 68 13 67 14 72 15 73 16 74 17 75 18 62 19 63 20 64 21 65 22
REMARK SMILES IDX 66 23 5 24 6 25 7 26 8 27 9 28 10 29 56 30 11 31 55 32 12 33
REMARK SMILES IDX 13 34 14 35 49 36 15 37 54 38 48 39 50 40 16 41 53 42 47 43
REMARK SMILES IDX 46 44 17 46 39 47 24 48 38 49 25 50 28 51 37 52 51 53 26 54
REMARK SMILES IDX 27 55 36 57 52 58 29 59 18 60 19 61 23 62 20 63 22 64 21 65
REMARK SMILES IDX 40 66 41 67 45 68 42 69 44 70 43 71 30 72 31 73 35 74 32 75
REMARK SMILES IDX 34 76 33 77
REMARK H PARENT 50 45 28 56
REMARK Flexibility Score: inf
ROOT
ATOM      1  C   UNL A   1      32.155  30.074  26.874  1.00  0.00     0.275 C 
ENDROOT
BRANCH   1   2
ATOM      2  O   UNL A   1      32.437  29.181  25.614  1.00  0.00    -0.459 OA
BRANCH   2   3
ATOM      3  C   UNL A   1      31.952  27.941  25.725  1.00  0.00     0.338 C 
ATOM      4  O   UNL A   1      31.672  27.282  26.693  1.00  0.00    -0.246 OA
BRANCH   3   5
ATOM      5  C   UNL A   1      32.174  27.598  24.349  1.00  0.00     0.087 C 
ATOM      6  C   UNL A   1      33.359  26.726  24.229  1.00  0.00     0.027 C 
ATOM      7  C   UNL A   1      30.360  27.072  23.926  1.00  0.00     0.316 C 
ATOM      8  C   UNL A   1      33.252  24.976  23.805  1.00  0.00     0.021 A 
ATOM      9  O   UNL A   1      30.236  25.198  23.498  1.00  0.00    -0.475 OA
ATOM     10  C   UNL A   1      34.380  24.226  23.954  1.00  0.00     0.058 A 
ATOM     11  C   UNL A   1      31.744  24.175  23.526  1.00  0.00     0.128 A 
ATOM     12  C   UNL A   1      34.208  22.832  23.891  1.00  0.00     0.130 A 
ATOM     13  C   UNL A   1      31.654  22.811  23.457  1.00  0.00     0.051 A 
ATOM     14  C   UNL A   1      32.924  22.166  23.657  1.00  0.00     0.050 A 
BRANCH   7  15
ATOM     15  C   UNL A   1      29.891  28.371  23.189  1.00  0.00     0.430 C 
ATOM     16  F   UNL A   1      30.494  28.522  22.001  1.00  0.00    -0.167 F 
ATOM     17  F   UNL A   1      28.566  28.224  22.880  1.00  0.00    -0.167 F 
ATOM     18  F   UNL A   1      29.906  29.513  23.895  1.00  0.00    -0.167 F 
ENDBRANCH   7  15
BRANCH  12  19
ATOM     19  O   UNL A   1      35.427  22.232  24.096  1.00  0.00    -0.406 OA
BRANCH  19  20
ATOM     20  C   UNL A   1      35.664  21.415  25.219  1.00  0.00     0.573 C 
ATOM     21  F   UNL A   1      35.237  20.157  25.000  1.00  0.00    -0.132 F 
ATOM     22  F   UNL A   1      36.970  21.413  25.542  1.00  0.00    -0.132 F 
ATOM     23  F   UNL A   1      34.967  21.926  26.259  1.00  0.00    -0.132 F 
ENDBRANCH  19  20
ENDBRANCH  12  19
ENDBRANCH   3   5
ENDBRANCH   2   3
ENDBRANCH   1   2
BRANCH   1  24
ATOM     24  C   UNL A   1      31.402  32.095  26.858  1.00  0.00     0.275 C 
BRANCH  24  25
ATOM     25  O   UNL A   1      32.300  33.514  27.121  1.00  0.00    -0.458 OA
BRANCH  25  26
ATOM     26  C   UNL A   1      32.917  34.273  28.077  1.00  0.00     0.338 C 
ATOM     27  O   UNL A   1      32.486  35.178  28.762  1.00  0.00    -0.246 OA
BRANCH  26  28
ATOM     28  C   UNL A   1      34.174  33.520  28.381  1.00  0.00     0.060 A 
ATOM     29  C   UNL A   1      35.400  34.199  28.287  1.00  0.00     0.016 A 
ATOM     30  C   UNL A   1      34.086  32.340  29.122  1.00  0.00     0.016 A 
ATOM     31  C   UNL A   1      36.464  33.828  29.126  1.00  0.00     0.010 A 
ATOM     32  C   UNL A   1      35.155  31.959  29.936  1.00  0.00     0.010 A 
ATOM     33  C   UNL A   1      36.325  32.736  29.997  1.00  0.00    -0.014 A 
BRANCH  33  34
ATOM     34  C   UNL A   1      37.486  32.227  30.772  1.00  0.00     0.031 A 
ATOM     35  C   UNL A   1      38.225  31.083  30.146  1.00  0.00     0.074 A 
ATOM     36  C   UNL A   1      37.842  32.682  31.992  1.00  0.00     0.049 A 
ATOM     37  N   UNL A   1      39.246  30.401  30.588  1.00  0.00    -0.248 NA
ATOM     38  C   UNL A   1      37.710  30.636  28.838  1.00  0.00     0.031 C 
ATOM     39  C   UNL A   1      37.212  33.779  32.727  1.00  0.00     0.029 A 
ATOM     40  N   UNL A   1      38.838  32.250  32.841  1.00  0.00    -0.354 N 
ATOM     41  C   UNL A   1      39.495  29.452  29.608  1.00  0.00     0.074 A 
ATOM     42  C   UNL A   1      38.485  29.598  28.589  1.00  0.00     0.031 C 
ATOM     43  C   UNL A   1      37.836  33.932  33.913  1.00  0.00     0.029 A 
ATOM     44  C   UNL A   1      38.901  32.937  34.032  1.00  0.00     0.049 A 
ATOM     45  H   UNL A   1      39.450  31.512  32.615  1.00  0.00     0.167 HD
ATOM     46  C   UNL A   1      40.493  28.544  29.541  1.00  0.00     0.031 A 
ATOM     47  C   UNL A   1      39.732  32.775  35.086  1.00  0.00     0.031 A 
ATOM     48  C   UNL A   1      41.466  28.350  30.571  1.00  0.00     0.049 A 
ATOM     49  C   UNL A   1      40.793  31.697  35.027  1.00  0.00     0.074 A 
ATOM     50  C   UNL A   1      42.514  27.453  30.613  1.00  0.00     0.029 A 
ATOM     51  N   UNL A   1      41.492  29.066  31.758  1.00  0.00    -0.354 N 
ATOM     52  N   UNL A   1      41.076  30.860  34.056  1.00  0.00    -0.248 NA
ATOM     53  C   UNL A   1      41.662  31.553  36.208  1.00  0.00     0.031 C 
ATOM     54  C   UNL A   1      43.151  27.594  31.850  1.00  0.00     0.029 A 
ATOM     55  C   UNL A   1      42.531  28.618  32.551  1.00  0.00     0.049 A 
ATOM     56  H   UNL A   1      40.865  29.785  31.999  1.00  0.00     0.167 HD
ATOM     57  C   UNL A   1      42.181  30.131  34.487  1.00  0.00     0.074 A 
ATOM     58  C   UNL A   1      42.520  30.626  35.805  1.00  0.00     0.031 C 
ATOM     59  C   UNL A   1      42.860  29.146  33.849  1.00  0.00     0.031 A 
BRANCH  46  60
ATOM     60  C   UNL A   1      40.514  27.690  28.307  1.00  0.00    -0.014 A 
ATOM     61  C   UNL A   1      39.861  26.445  28.287  1.00  0.00     0.009 A 
ATOM     62  C   UNL A   1      41.286  28.076  27.204  1.00  0.00     0.009 A 
ATOM     63  C   UNL A   1      40.036  25.574  27.212  1.00  0.00     0.001 A 
ATOM     64  C   UNL A   1      41.431  27.216  26.115  1.00  0.00     0.001 A 
ATOM     65  C   UNL A   1      40.823  25.960  26.128  1.00  0.00     0.000 A 
ENDBRANCH  46  60
BRANCH  47  66
ATOM     66  C   UNL A   1      39.648  33.650  36.294  1.00  0.00    -0.014 A 
ATOM     67  C   UNL A   1      38.824  33.289  37.375  1.00  0.00     0.009 A 
ATOM     68  C   UNL A   1      40.303  34.890  36.340  1.00  0.00     0.009 A 
ATOM     69  C   UNL A   1      38.627  34.161  38.451  1.00  0.00     0.001 A 
ATOM     70  C   UNL A   1      40.125  35.751  37.432  1.00  0.00     0.001 A 
ATOM     71  C   UNL A   1      39.278  35.392  38.479  1.00  0.00     0.000 A 
ENDBRANCH  47  66
BRANCH  59  72
ATOM     72  C   UNL A   1      44.076  28.580  34.529  1.00  0.00    -0.014 A 
ATOM     73  C   UNL A   1      45.338  29.175  34.393  1.00  0.00     0.009 A 
ATOM     74  C   UNL A   1      43.930  27.480  35.390  1.00  0.00     0.009 A 
ATOM     75  C   UNL A   1      46.437  28.663  35.087  1.00  0.00     0.001 A 
ATOM     76  C   UNL A   1      45.022  26.990  36.107  1.00  0.00     0.001 A 
ATOM     77  C   UNL A   1      46.276  27.578  35.950  1.00  0.00     0.000 A 
ENDBRANCH  59  72
ENDBRANCH  33  34
ENDBRANCH  26  28
ENDBRANCH  25  26
ENDBRANCH  24  25
ENDBRANCH   1  24
TORSDOF 14
ENDMDL
