MODEL 1
REMARK VINA RESULT:     -11.9      0.000      0.000
REMARK SMILES C[C@H](Oc1ccc(/C=C2/SC(=S)N(c3ccc(F)cc3)C2=O)cc1)C(=O)OCCOC(=O)c1ccc(-c2c3nc(c(-c4ccccc4)c4ccc([nH]4)c(-c4ccccc4)c4nc(c(-c5ccccc5)c5ccc2[nH]5)C=C4)C=C3)cc1
REMARK SMILES IDX 28 1 27 2 25 3 26 4 2 5 1 6 3 7 4 8 5 9 24 10 6 11 23 12
REMARK SMILES IDX 7 13 8 14 9 15 10 16 21 17 11 18 13 19 22 20 12 21 14 22
REMARK SMILES IDX 15 23 20 24 16 25 19 26 17 27 18 28 29 29 30 30 31 31 32 32
REMARK SMILES IDX 33 33 34 34 80 35 35 36 79 37 36 38 37 39 38 40 73 41 39 42
REMARK SMILES IDX 78 43 72 44 74 45 40 46 77 47 71 48 70 49 41 51 63 52 48 53
REMARK SMILES IDX 62 54 49 55 52 56 61 57 75 58 50 59 51 60 60 62 76 63 53 64
REMARK SMILES IDX 42 65 43 66 47 67 44 68 46 69 45 70 64 71 65 72 69 73 66 74
REMARK SMILES IDX 68 75 67 76 54 77 55 78 59 79 56 80 58 81 57 82
REMARK H PARENT 74 50 52 61
REMARK Flexibility Score: inf
ROOT
ATOM      1  C   UNL A   1      34.461  34.177  29.948  1.00  0.00     0.274 C 
ENDROOT
BRANCH   1   2
ATOM      2  O   UNL A   1      33.795  33.151  29.191  1.00  0.00    -0.459 OA
BRANCH   2   3
ATOM      3  C   UNL A   1      34.539  32.503  28.250  1.00  0.00     0.347 C 
ATOM      4  O   UNL A   1      35.428  33.023  27.582  1.00  0.00    -0.248 OA
BRANCH   3   5
ATOM      5  C   UNL A   1      34.105  31.048  28.062  1.00  0.00     0.279 C 
ATOM      6  C   UNL A   1      35.297  30.264  27.514  1.00  0.00     0.066 C 
BRANCH   5   7
ATOM      7  O   UNL A   1      32.956  31.014  27.220  1.00  0.00    -0.479 OA
BRANCH   7   8
ATOM      8  C   UNL A   1      32.654  29.884  26.518  1.00  0.00     0.120 A 
ATOM      9  C   UNL A   1      32.969  29.626  25.187  1.00  0.00     0.047 A 
ATOM     10  C   UNL A   1      31.920  28.941  27.240  1.00  0.00     0.047 A 
ATOM     11  C   UNL A   1      32.447  28.495  24.546  1.00  0.00     0.012 A 
ATOM     12  C   UNL A   1      31.418  27.800  26.613  1.00  0.00     0.012 A 
ATOM     13  C   UNL A   1      31.625  27.606  25.243  1.00  0.00    -0.024 A 
BRANCH  13  14
ATOM     14  C   UNL A   1      30.943  26.524  24.527  1.00  0.00     0.029 C 
ATOM     15  C   UNL A   1      31.452  25.293  24.349  1.00  0.00     0.081 C 
ATOM     16  S   UNL A   1      30.660  24.084  23.417  1.00  0.00    -0.054 SA
ATOM     17  C   UNL A   1      32.763  24.772  24.844  1.00  0.00     0.270 C 
ATOM     18  C   UNL A   1      32.040  22.984  23.488  1.00  0.00     0.152 C 
ATOM     19  N   UNL A   1      33.069  23.562  24.219  1.00  0.00    -0.261 N 
ATOM     20  O   UNL A   1      33.446  25.360  25.671  1.00  0.00    -0.268 OA
ATOM     21  S   UNL A   1      31.928  21.454  22.817  1.00  0.00    -0.051 S 
BRANCH  19  22
ATOM     22  C   UNL A   1      34.389  23.017  24.348  1.00  0.00     0.051 A 
ATOM     23  C   UNL A   1      35.389  23.304  23.402  1.00  0.00     0.030 A 
ATOM     24  C   UNL A   1      34.690  22.098  25.369  1.00  0.00     0.030 A 
ATOM     25  C   UNL A   1      36.649  22.702  23.476  1.00  0.00     0.041 A 
ATOM     26  C   UNL A   1      35.948  21.492  25.441  1.00  0.00     0.041 A 
ATOM     27  C   UNL A   1      36.916  21.798  24.494  1.00  0.00     0.123 A 
ATOM     28  F   UNL A   1      38.114  21.204  24.556  1.00  0.00    -0.207 F 
ENDBRANCH  19  22
ENDBRANCH  13  14
ENDBRANCH   7   8
ENDBRANCH   5   7
ENDBRANCH   3   5
ENDBRANCH   2   3
ENDBRANCH   1   2
BRANCH   1  29
ATOM     29  C   UNL A   1      34.423  33.890  31.451  1.00  0.00     0.275 C 
BRANCH  29  30
ATOM     30  O   UNL A   1      34.759  32.520  31.733  1.00  0.00    -0.458 OA
BRANCH  30  31
ATOM     31  C   UNL A   1      35.769  32.347  32.616  1.00  0.00     0.338 C 
ATOM     32  O   UNL A   1      35.759  32.574  33.812  1.00  0.00    -0.246 OA
BRANCH  31  33
ATOM     33  C   UNL A   1      36.904  31.709  31.933  1.00  0.00     0.060 A 
ATOM     34  C   UNL A   1      37.985  31.276  32.707  1.00  0.00     0.016 A 
ATOM     35  C   UNL A   1      36.932  31.597  30.541  1.00  0.00     0.016 A 
ATOM     36  C   UNL A   1      39.104  30.723  32.091  1.00  0.00     0.010 A 
ATOM     37  C   UNL A   1      38.061  31.052  29.925  1.00  0.00     0.010 A 
ATOM     38  C   UNL A   1      39.155  30.622  30.696  1.00  0.00    -0.014 A 
BRANCH  38  39
ATOM     39  C   UNL A   1      40.379  30.121  30.031  1.00  0.00     0.031 A 
ATOM     40  C   UNL A   1      41.540  31.046  29.815  1.00  0.00     0.074 A 
ATOM     41  C   UNL A   1      40.442  28.845  29.614  1.00  0.00     0.049 A 
ATOM     42  N   UNL A   1      42.661  30.831  29.176  1.00  0.00    -0.248 NA
ATOM     43  C   UNL A   1      41.421  32.393  30.395  1.00  0.00     0.031 C 
ATOM     44  C   UNL A   1      39.394  27.841  29.799  1.00  0.00     0.029 A 
ATOM     45  N   UNL A   1      41.431  28.180  28.934  1.00  0.00    -0.354 N 
ATOM     46  C   UNL A   1      43.372  32.021  29.256  1.00  0.00     0.074 A 
ATOM     47  C   UNL A   1      42.552  32.958  29.994  1.00  0.00     0.031 C 
ATOM     48  C   UNL A   1      39.791  26.689  29.234  1.00  0.00     0.029 A 
ATOM     49  C   UNL A   1      41.098  26.887  28.613  1.00  0.00     0.049 A 
ATOM     50  H   UNL A   1      42.296  28.588  28.700  1.00  0.00     0.167 HD
ATOM     51  C   UNL A   1      44.597  32.307  28.754  1.00  0.00     0.031 A 
ATOM     52  C   UNL A   1      41.758  25.976  27.873  1.00  0.00     0.031 A 
ATOM     53  C   UNL A   1      45.408  31.376  28.017  1.00  0.00     0.049 A 
ATOM     54  C   UNL A   1      43.090  26.335  27.276  1.00  0.00     0.074 A 
ATOM     55  C   UNL A   1      46.674  31.563  27.490  1.00  0.00     0.029 A 
ATOM     56  N   UNL A   1      45.026  30.083  27.694  1.00  0.00    -0.354 N 
ATOM     57  N   UNL A   1      43.761  27.457  27.373  1.00  0.00    -0.248 NA
ATOM     58  C   UNL A   1      43.753  25.304  26.466  1.00  0.00     0.031 C 
ATOM     59  C   UNL A   1      47.039  30.398  26.808  1.00  0.00     0.029 A 
ATOM     60  C   UNL A   1      46.021  29.469  26.950  1.00  0.00     0.049 A 
ATOM     61  H   UNL A   1      44.176  29.663  27.955  1.00  0.00     0.167 HD
ATOM     62  C   UNL A   1      44.932  27.262  26.652  1.00  0.00     0.074 A 
ATOM     63  C   UNL A   1      44.886  25.909  26.135  1.00  0.00     0.031 C 
ATOM     64  C   UNL A   1      45.955  28.125  26.440  1.00  0.00     0.031 A 
BRANCH  51  65
ATOM     65  C   UNL A   1      45.112  33.704  28.953  1.00  0.00    -0.014 A 
ATOM     66  C   UNL A   1      46.084  33.994  29.923  1.00  0.00     0.009 A 
ATOM     67  C   UNL A   1      44.631  34.741  28.139  1.00  0.00     0.009 A 
ATOM     68  C   UNL A   1      46.536  35.304  30.097  1.00  0.00     0.001 A 
ATOM     69  C   UNL A   1      45.103  36.045  28.300  1.00  0.00     0.001 A 
ATOM     70  C   UNL A   1      46.048  36.327  29.284  1.00  0.00     0.000 A 
ENDBRANCH  51  65
BRANCH  52  71
ATOM     71  C   UNL A   1      41.145  24.646  27.626  1.00  0.00    -0.014 A 
ATOM     72  C   UNL A   1      41.631  23.501  28.271  1.00  0.00     0.009 A 
ATOM     73  C   UNL A   1      40.057  24.522  26.747  1.00  0.00     0.009 A 
ATOM     74  C   UNL A   1      41.050  22.254  28.030  1.00  0.00     0.001 A 
ATOM     75  C   UNL A   1      39.461  23.279  26.528  1.00  0.00     0.001 A 
ATOM     76  C   UNL A   1      39.962  22.145  27.164  1.00  0.00     0.000 A 
ENDBRANCH  52  71
BRANCH  64  77
ATOM     77  C   UNL A   1      47.118  27.627  25.633  1.00  0.00    -0.014 A 
ATOM     78  C   UNL A   1      48.177  26.932  26.238  1.00  0.00     0.009 A 
ATOM     79  C   UNL A   1      47.128  27.812  24.241  1.00  0.00     0.009 A 
ATOM     80  C   UNL A   1      49.235  26.450  25.465  1.00  0.00     0.001 A 
ATOM     81  C   UNL A   1      48.177  27.308  23.469  1.00  0.00     0.001 A 
ATOM     82  C   UNL A   1      49.232  26.635  24.082  1.00  0.00     0.000 A 
ENDBRANCH  64  77
ENDBRANCH  38  39
ENDBRANCH  31  33
ENDBRANCH  30  31
ENDBRANCH  29  30
ENDBRANCH   1  29
TORSDOF 15
ENDMDL
MODEL 2
REMARK VINA RESULT:     -11.8      4.193      9.667
REMARK SMILES C[C@H](Oc1ccc(/C=C2/SC(=S)N(c3ccc(F)cc3)C2=O)cc1)C(=O)OCCOC(=O)c1ccc(-c2c3nc(c(-c4ccccc4)c4ccc([nH]4)c(-c4ccccc4)c4nc(c(-c5ccccc5)c5ccc2[nH]5)C=C4)C=C3)cc1
REMARK SMILES IDX 28 1 27 2 25 3 26 4 2 5 1 6 3 7 4 8 5 9 24 10 6 11 23 12
REMARK SMILES IDX 7 13 8 14 9 15 10 16 21 17 11 18 13 19 22 20 12 21 14 22
REMARK SMILES IDX 15 23 20 24 16 25 19 26 17 27 18 28 29 29 30 30 31 31 32 32
REMARK SMILES IDX 33 33 34 34 80 35 35 36 79 37 36 38 37 39 38 40 73 41 39 42
REMARK SMILES IDX 78 43 72 44 74 45 40 46 77 47 71 48 70 49 41 51 63 52 48 53
REMARK SMILES IDX 62 54 49 55 52 56 61 57 75 58 50 59 51 60 60 62 76 63 53 64
REMARK SMILES IDX 42 65 43 66 47 67 44 68 46 69 45 70 64 71 65 72 69 73 66 74
REMARK SMILES IDX 68 75 67 76 54 77 55 78 59 79 56 80 58 81 57 82
REMARK H PARENT 74 50 52 61
REMARK Flexibility Score: inf
ROOT
ATOM      1  C   UNL A   1      42.688  21.164  26.214  1.00  0.00     0.274 C 
ENDROOT
BRANCH   1   2
ATOM      2  O   UNL A   1      41.352  21.250  25.688  1.00  0.00    -0.459 OA
BRANCH   2   3
ATOM      3  C   UNL A   1      40.401  21.772  26.513  1.00  0.00     0.347 C 
ATOM      4  O   UNL A   1      40.388  21.645  27.733  1.00  0.00    -0.248 OA
BRANCH   3   5
ATOM      5  C   UNL A   1      39.295  22.497  25.743  1.00  0.00     0.279 C 
ATOM      6  C   UNL A   1      38.739  23.603  26.639  1.00  0.00     0.066 C 
BRANCH   5   7
ATOM      7  O   UNL A   1      38.318  21.543  25.331  1.00  0.00    -0.479 OA
BRANCH   7   8
ATOM      8  C   UNL A   1      37.027  21.932  25.123  1.00  0.00     0.120 A 
ATOM      9  C   UNL A   1      35.953  21.738  25.988  1.00  0.00     0.047 A 
ATOM     10  C   UNL A   1      36.806  22.542  23.887  1.00  0.00     0.047 A 
ATOM     11  C   UNL A   1      34.650  22.036  25.569  1.00  0.00     0.012 A 
ATOM     12  C   UNL A   1      35.512  22.864  23.475  1.00  0.00     0.012 A 
ATOM     13  C   UNL A   1      34.420  22.550  24.290  1.00  0.00    -0.024 A 
BRANCH  13  14
ATOM     14  C   UNL A   1      33.048  22.696  23.796  1.00  0.00     0.029 C 
ATOM     15  C   UNL A   1      32.335  23.833  23.860  1.00  0.00     0.081 C 
ATOM     16  S   UNL A   1      30.693  23.932  23.357  1.00  0.00    -0.054 SA
ATOM     17  C   UNL A   1      32.777  25.153  24.406  1.00  0.00     0.270 C 
ATOM     18  C   UNL A   1      30.494  25.569  23.991  1.00  0.00     0.152 C 
ATOM     19  N   UNL A   1      31.680  26.000  24.569  1.00  0.00    -0.261 N 
ATOM     20  O   UNL A   1      33.944  25.408  24.671  1.00  0.00    -0.268 OA
ATOM     21  S   UNL A   1      29.055  26.391  23.752  1.00  0.00    -0.051 S 
BRANCH  19  22
ATOM     22  C   UNL A   1      31.834  27.215  25.316  1.00  0.00     0.051 A 
ATOM     23  C   UNL A   1      31.677  27.233  26.713  1.00  0.00     0.030 A 
ATOM     24  C   UNL A   1      32.044  28.439  24.659  1.00  0.00     0.030 A 
ATOM     25  C   UNL A   1      31.737  28.431  27.431  1.00  0.00     0.041 A 
ATOM     26  C   UNL A   1      32.099  29.639  25.376  1.00  0.00     0.041 A 
ATOM     27  C   UNL A   1      31.945  29.624  26.755  1.00  0.00     0.123 A 
ATOM     28  F   UNL A   1      31.981  30.776  27.438  1.00  0.00    -0.207 F 
ENDBRANCH  19  22
ENDBRANCH  13  14
ENDBRANCH   7   8
ENDBRANCH   5   7
ENDBRANCH   3   5
ENDBRANCH   2   3
ENDBRANCH   1   2
BRANCH   1  29
ATOM     29  C   UNL A   1      43.700  21.879  25.316  1.00  0.00     0.275 C 
BRANCH  29  30
ATOM     30  O   UNL A   1      43.205  23.158  24.882  1.00  0.00    -0.458 OA
BRANCH  30  31
ATOM     31  C   UNL A   1      44.039  24.200  25.101  1.00  0.00     0.338 C 
ATOM     32  O   UNL A   1      45.072  24.464  24.514  1.00  0.00    -0.246 OA
BRANCH  31  33
ATOM     33  C   UNL A   1      43.449  25.085  26.118  1.00  0.00     0.060 A 
ATOM     34  C   UNL A   1      43.967  26.377  26.253  1.00  0.00     0.016 A 
ATOM     35  C   UNL A   1      42.443  24.625  26.970  1.00  0.00     0.016 A 
ATOM     36  C   UNL A   1      43.477  27.222  27.244  1.00  0.00     0.010 A 
ATOM     37  C   UNL A   1      41.960  25.472  27.971  1.00  0.00     0.010 A 
ATOM     38  C   UNL A   1      42.481  26.769  28.119  1.00  0.00    -0.014 A 
BRANCH  38  39
ATOM     39  C   UNL A   1      42.022  27.630  29.232  1.00  0.00     0.031 A 
ATOM     40  C   UNL A   1      42.731  27.579  30.553  1.00  0.00     0.074 A 
ATOM     41  C   UNL A   1      40.968  28.446  29.059  1.00  0.00     0.049 A 
ATOM     42  N   UNL A   1      42.431  28.180  31.676  1.00  0.00    -0.248 NA
ATOM     43  C   UNL A   1      43.934  26.735  30.619  1.00  0.00     0.031 C 
ATOM     44  C   UNL A   1      40.221  28.612  27.812  1.00  0.00     0.029 A 
ATOM     45  N   UNL A   1      40.335  29.280  29.945  1.00  0.00    -0.354 N 
ATOM     46  C   UNL A   1      43.396  27.772  32.588  1.00  0.00     0.074 A 
ATOM     47  C   UNL A   1      44.281  26.862  31.893  1.00  0.00     0.031 C 
ATOM     48  C   UNL A   1      39.221  29.484  28.017  1.00  0.00     0.029 A 
ATOM     49  C   UNL A   1      39.232  29.905  29.415  1.00  0.00     0.049 A 
ATOM     50  H   UNL A   1      40.640  29.419  30.871  1.00  0.00     0.167 HD
ATOM     51  C   UNL A   1      43.527  28.121  33.890  1.00  0.00     0.031 A 
ATOM     52  C   UNL A   1      38.317  30.700  30.000  1.00  0.00     0.031 A 
ATOM     53  C   UNL A   1      42.642  29.022  34.580  1.00  0.00     0.049 A 
ATOM     54  C   UNL A   1      38.449  31.027  31.461  1.00  0.00     0.074 A 
ATOM     55  C   UNL A   1      42.707  29.458  35.892  1.00  0.00     0.029 A 
ATOM     56  N   UNL A   1      41.526  29.617  34.014  1.00  0.00    -0.354 N 
ATOM     57  N   UNL A   1      39.374  30.650  32.310  1.00  0.00    -0.248 NA
ATOM     58  C   UNL A   1      37.410  31.885  32.045  1.00  0.00     0.031 C 
ATOM     59  C   UNL A   1      41.603  30.281  36.133  1.00  0.00     0.029 A 
ATOM     60  C   UNL A   1      40.876  30.395  34.958  1.00  0.00     0.049 A 
ATOM     61  H   UNL A   1      41.238  29.504  33.080  1.00  0.00     0.167 HD
ATOM     62  C   UNL A   1      39.040  31.238  33.522  1.00  0.00     0.074 A 
ATOM     63  C   UNL A   1      37.833  32.008  33.296  1.00  0.00     0.031 C 
ATOM     64  C   UNL A   1      39.676  31.150  34.716  1.00  0.00     0.031 A 
BRANCH  51  65
ATOM     65  C   UNL A   1      44.648  27.487  34.662  1.00  0.00    -0.014 A 
ATOM     66  C   UNL A   1      45.968  27.949  34.546  1.00  0.00     0.009 A 
ATOM     67  C   UNL A   1      44.373  26.424  35.536  1.00  0.00     0.009 A 
ATOM     68  C   UNL A   1      46.996  27.333  35.265  1.00  0.00     0.001 A 
ATOM     69  C   UNL A   1      45.398  25.826  36.270  1.00  0.00     0.001 A 
ATOM     70  C   UNL A   1      46.710  26.276  36.127  1.00  0.00     0.000 A 
ENDBRANCH  51  65
BRANCH  52  71
ATOM     71  C   UNL A   1      37.171  31.210  29.205  1.00  0.00    -0.014 A 
ATOM     72  C   UNL A   1      36.091  30.375  28.887  1.00  0.00     0.009 A 
ATOM     73  C   UNL A   1      37.151  32.544  28.769  1.00  0.00     0.009 A 
ATOM     74  C   UNL A   1      35.018  30.863  28.137  1.00  0.00     0.001 A 
ATOM     75  C   UNL A   1      36.067  33.036  28.042  1.00  0.00     0.001 A 
ATOM     76  C   UNL A   1      35.004  32.193  27.720  1.00  0.00     0.000 A 
ENDBRANCH  52  71
BRANCH  64  77
ATOM     77  C   UNL A   1      39.093  31.923  35.863  1.00  0.00    -0.014 A 
ATOM     78  C   UNL A   1      39.341  33.297  36.013  1.00  0.00     0.009 A 
ATOM     79  C   UNL A   1      38.244  31.279  36.776  1.00  0.00     0.009 A 
ATOM     80  C   UNL A   1      38.766  34.004  37.070  1.00  0.00     0.001 A 
ATOM     81  C   UNL A   1      37.653  31.995  37.818  1.00  0.00     0.001 A 
ATOM     82  C   UNL A   1      37.920  33.354  37.968  1.00  0.00     0.000 A 
ENDBRANCH  64  77
ENDBRANCH  38  39
ENDBRANCH  31  33
ENDBRANCH  30  31
ENDBRANCH  29  30
ENDBRANCH   1  29
TORSDOF 15
ENDMDL
MODEL 3
REMARK VINA RESULT:     -11.2      3.242      8.465
REMARK SMILES C[C@H](Oc1ccc(/C=C2/SC(=S)N(c3ccc(F)cc3)C2=O)cc1)C(=O)OCCOC(=O)c1ccc(-c2c3nc(c(-c4ccccc4)c4ccc([nH]4)c(-c4ccccc4)c4nc(c(-c5ccccc5)c5ccc2[nH]5)C=C4)C=C3)cc1
REMARK SMILES IDX 28 1 27 2 25 3 26 4 2 5 1 6 3 7 4 8 5 9 24 10 6 11 23 12
REMARK SMILES IDX 7 13 8 14 9 15 10 16 21 17 11 18 13 19 22 20 12 21 14 22
REMARK SMILES IDX 15 23 20 24 16 25 19 26 17 27 18 28 29 29 30 30 31 31 32 32
REMARK SMILES IDX 33 33 34 34 80 35 35 36 79 37 36 38 37 39 38 40 73 41 39 42
REMARK SMILES IDX 78 43 72 44 74 45 40 46 77 47 71 48 70 49 41 51 63 52 48 53
REMARK SMILES IDX 62 54 49 55 52 56 61 57 75 58 50 59 51 60 60 62 76 63 53 64
REMARK SMILES IDX 42 65 43 66 47 67 44 68 46 69 45 70 64 71 65 72 69 73 66 74
REMARK SMILES IDX 68 75 67 76 54 77 55 78 59 79 56 80 58 81 57 82
REMARK H PARENT 74 50 52 61
REMARK Flexibility Score: inf
ROOT
ATOM      1  C   UNL A   1      41.394  20.211  27.406  1.00  0.00     0.274 C 
ENDROOT
BRANCH   1   2
ATOM      2  O   UNL A   1      40.170  20.774  26.902  1.00  0.00    -0.459 OA
BRANCH   2   3
ATOM      3  C   UNL A   1      40.022  22.124  27.021  1.00  0.00     0.347 C 
ATOM      4  O   UNL A   1      40.649  22.830  27.804  1.00  0.00    -0.248 OA
BRANCH   3   5
ATOM      5  C   UNL A   1      38.928  22.674  26.102  1.00  0.00     0.279 C 
ATOM      6  C   UNL A   1      38.477  24.025  26.657  1.00  0.00     0.066 C 
BRANCH   5   7
ATOM      7  O   UNL A   1      37.881  21.712  26.004  1.00  0.00    -0.479 OA
BRANCH   7   8
ATOM      8  C   UNL A   1      36.820  21.938  25.177  1.00  0.00     0.120 A 
ATOM      9  C   UNL A   1      36.868  22.475  23.894  1.00  0.00     0.047 A 
ATOM     10  C   UNL A   1      35.581  21.621  25.737  1.00  0.00     0.047 A 
ATOM     11  C   UNL A   1      35.683  22.811  23.226  1.00  0.00     0.012 A 
ATOM     12  C   UNL A   1      34.397  21.931  25.066  1.00  0.00     0.012 A 
ATOM     13  C   UNL A   1      34.444  22.589  23.833  1.00  0.00    -0.024 A 
BRANCH  13  14
ATOM     14  C   UNL A   1      33.221  23.099  23.207  1.00  0.00     0.029 C 
ATOM     15  C   UNL A   1      32.739  24.341  23.382  1.00  0.00     0.081 C 
ATOM     16  S   UNL A   1      31.247  24.865  22.708  1.00  0.00    -0.054 SA
ATOM     17  C   UNL A   1      33.336  25.439  24.203  1.00  0.00     0.270 C 
ATOM     18  C   UNL A   1      31.270  26.394  23.591  1.00  0.00     0.152 C 
ATOM     19  N   UNL A   1      32.411  26.469  24.378  1.00  0.00    -0.261 N 
ATOM     20  O   UNL A   1      34.474  25.395  24.651  1.00  0.00    -0.268 OA
ATOM     21  S   UNL A   1      30.072  27.534  23.326  1.00  0.00    -0.051 S 
BRANCH  19  22
ATOM     22  C   UNL A   1      32.677  27.499  25.339  1.00  0.00     0.051 A 
ATOM     23  C   UNL A   1      32.025  27.514  26.585  1.00  0.00     0.030 A 
ATOM     24  C   UNL A   1      33.520  28.578  25.022  1.00  0.00     0.030 A 
ATOM     25  C   UNL A   1      32.215  28.566  27.487  1.00  0.00     0.041 A 
ATOM     26  C   UNL A   1      33.707  29.633  25.921  1.00  0.00     0.041 A 
ATOM     27  C   UNL A   1      33.053  29.618  27.146  1.00  0.00     0.123 A 
ATOM     28  F   UNL A   1      33.220  30.636  27.999  1.00  0.00    -0.207 F 
ENDBRANCH  19  22
ENDBRANCH  13  14
ENDBRANCH   7   8
ENDBRANCH   5   7
ENDBRANCH   3   5
ENDBRANCH   2   3
ENDBRANCH   1   2
BRANCH   1  29
ATOM     29  C   UNL A   1      42.257  19.628  26.284  1.00  0.00     0.275 C 
BRANCH  29  30
ATOM     30  O   UNL A   1      42.614  20.634  25.320  1.00  0.00    -0.458 OA
BRANCH  30  31
ATOM     31  C   UNL A   1      43.846  21.169  25.479  1.00  0.00     0.338 C 
ATOM     32  O   UNL A   1      44.914  20.690  25.146  1.00  0.00    -0.246 OA
BRANCH  31  33
ATOM     33  C   UNL A   1      43.716  22.526  26.032  1.00  0.00     0.060 A 
ATOM     34  C   UNL A   1      43.346  23.560  25.167  1.00  0.00     0.016 A 
ATOM     35  C   UNL A   1      44.017  22.786  27.370  1.00  0.00     0.016 A 
ATOM     36  C   UNL A   1      43.272  24.868  25.639  1.00  0.00     0.010 A 
ATOM     37  C   UNL A   1      43.952  24.101  27.839  1.00  0.00     0.010 A 
ATOM     38  C   UNL A   1      43.589  25.148  26.974  1.00  0.00    -0.014 A 
BRANCH  38  39
ATOM     39  C   UNL A   1      43.601  26.547  27.457  1.00  0.00     0.031 A 
ATOM     40  C   UNL A   1      44.909  27.263  27.627  1.00  0.00     0.074 A 
ATOM     41  C   UNL A   1      42.445  27.166  27.751  1.00  0.00     0.049 A 
ATOM     42  N   UNL A   1      45.141  28.452  28.122  1.00  0.00    -0.248 NA
ATOM     43  C   UNL A   1      46.113  26.543  27.184  1.00  0.00     0.031 C 
ATOM     44  C   UNL A   1      41.111  26.588  27.592  1.00  0.00     0.029 A 
ATOM     45  N   UNL A   1      42.212  28.419  28.260  1.00  0.00    -0.354 N 
ATOM     46  C   UNL A   1      46.519  28.615  28.070  1.00  0.00     0.074 A 
ATOM     47  C   UNL A   1      47.071  27.401  27.510  1.00  0.00     0.031 C 
ATOM     48  C   UNL A   1      40.198  27.480  28.009  1.00  0.00     0.029 A 
ATOM     49  C   UNL A   1      40.884  28.672  28.501  1.00  0.00     0.049 A 
ATOM     50  H   UNL A   1      42.927  29.073  28.436  1.00  0.00     0.167 HD
ATOM     51  C   UNL A   1      47.258  29.681  28.461  1.00  0.00     0.031 A 
ATOM     52  C   UNL A   1      40.291  29.731  29.082  1.00  0.00     0.031 A 
ATOM     53  C   UNL A   1      46.707  30.886  29.023  1.00  0.00     0.049 A 
ATOM     54  C   UNL A   1      41.136  30.878  29.563  1.00  0.00     0.074 A 
ATOM     55  C   UNL A   1      47.371  32.032  29.425  1.00  0.00     0.029 A 
ATOM     56  N   UNL A   1      45.359  31.095  29.270  1.00  0.00    -0.354 N 
ATOM     57  N   UNL A   1      42.436  31.030  29.493  1.00  0.00    -0.248 NA
ATOM     58  C   UNL A   1      40.432  31.997  30.204  1.00  0.00     0.031 C 
ATOM     59  C   UNL A   1      46.428  32.916  29.960  1.00  0.00     0.029 A 
ATOM     60  C   UNL A   1      45.173  32.340  29.846  1.00  0.00     0.049 A 
ATOM     61  H   UNL A   1      44.642  30.454  29.066  1.00  0.00     0.167 HD
ATOM     62  C   UNL A   1      42.705  32.267  30.064  1.00  0.00     0.074 A 
ATOM     63  C   UNL A   1      41.431  32.830  30.463  1.00  0.00     0.031 C 
ATOM     64  C   UNL A   1      43.900  32.882  30.241  1.00  0.00     0.031 A 
BRANCH  51  65
ATOM     65  C   UNL A   1      48.750  29.569  28.332  1.00  0.00    -0.014 A 
ATOM     66  C   UNL A   1      49.536  29.046  29.370  1.00  0.00     0.009 A 
ATOM     67  C   UNL A   1      49.374  29.972  27.142  1.00  0.00     0.009 A 
ATOM     68  C   UNL A   1      50.924  28.964  29.231  1.00  0.00     0.001 A 
ATOM     69  C   UNL A   1      50.758  29.868  26.997  1.00  0.00     0.001 A 
ATOM     70  C   UNL A   1      51.532  29.372  28.044  1.00  0.00     0.000 A 
ENDBRANCH  51  65
BRANCH  52  71
ATOM     71  C   UNL A   1      38.819  29.734  29.276  1.00  0.00    -0.014 A 
ATOM     72  C   UNL A   1      37.961  30.145  28.247  1.00  0.00     0.009 A 
ATOM     73  C   UNL A   1      38.266  29.314  30.497  1.00  0.00     0.009 A 
ATOM     74  C   UNL A   1      36.577  30.147  28.440  1.00  0.00     0.001 A 
ATOM     75  C   UNL A   1      36.882  29.292  30.678  1.00  0.00     0.001 A 
ATOM     76  C   UNL A   1      36.039  29.715  29.651  1.00  0.00     0.000 A 
ENDBRANCH  52  71
BRANCH  64  77
ATOM     77  C   UNL A   1      43.884  34.244  30.872  1.00  0.00    -0.014 A 
ATOM     78  C   UNL A   1      43.960  34.399  32.265  1.00  0.00     0.009 A 
ATOM     79  C   UNL A   1      43.843  35.387  30.058  1.00  0.00     0.009 A 
ATOM     80  C   UNL A   1      43.974  35.675  32.831  1.00  0.00     0.001 A 
ATOM     81  C   UNL A   1      43.880  36.661  30.627  1.00  0.00     0.001 A 
ATOM     82  C   UNL A   1      43.939  36.804  32.012  1.00  0.00     0.000 A 
ENDBRANCH  64  77
ENDBRANCH  38  39
ENDBRANCH  31  33
ENDBRANCH  30  31
ENDBRANCH  29  30
ENDBRANCH   1  29
TORSDOF 15
ENDMDL
