MODEL 1
REMARK VINA RESULT:     -11.1      0.000      0.000
REMARK SMILES CC1(C)CCC[C@H]1NC(=O)N[C@@H]1COC[C@@]1(C)C(=O)OCCOC(=O)c1ccc(-c2c3nc(c(-c4ccccc4)c4ccc([nH]4)c(-c4ccccc4)c4nc(c(-c5ccccc5)c5ccc2[nH]5)C=C4)C=C3)cc1
REMARK SMILES IDX 21 1 20 2 18 3 19 4 16 5 12 6 13 7 14 8 15 9 17 10 11 11
REMARK SMILES IDX 8 12 9 13 10 15 7 17 1 18 2 19 3 20 4 21 5 22 6 23 22 24
REMARK SMILES IDX 23 25 24 26 25 27 26 28 27 29 73 30 28 31 72 32 29 33 30 34
REMARK SMILES IDX 31 35 66 36 32 37 71 38 65 39 67 40 33 41 70 42 64 43 63 44
REMARK SMILES IDX 34 46 56 47 41 48 55 49 42 50 45 51 54 52 68 53 43 54 44 55
REMARK SMILES IDX 53 57 69 58 46 59 35 60 36 61 40 62 37 63 39 64 38 65 57 66
REMARK SMILES IDX 58 67 62 68 59 69 61 70 60 71 47 72 48 73 52 74 49 75 51 76
REMARK SMILES IDX 50 77
REMARK H PARENT 8 14 11 16 67 45 45 56
REMARK Flexibility Score: inf
ROOT
ATOM      1  C   UNL A   1      32.206  29.964  26.870  1.00  0.00     0.274 C 
ENDROOT
BRANCH   1   2
ATOM      2  O   UNL A   1      31.701  28.900  26.033  1.00  0.00    -0.462 OA
BRANCH   2   3
ATOM      3  C   UNL A   1      31.382  27.719  26.641  1.00  0.00     0.316 C 
ATOM      4  O   UNL A   1      31.233  27.596  27.848  1.00  0.00    -0.251 OA
BRANCH   3   5
ATOM      5  C   UNL A   1      31.122  26.616  25.598  1.00  0.00     0.111 C 
ATOM      6  C   UNL A   1      32.284  25.635  25.422  1.00  0.00     0.129 C 
ATOM      7  C   UNL A   1      31.795  24.292  25.961  1.00  0.00     0.186 C 
ATOM      8  O   UNL A   1      30.373  24.337  25.948  1.00  0.00    -0.378 OA
ATOM      9  C   UNL A   1      29.997  25.706  26.118  1.00  0.00     0.181 C 
ATOM     10  C   UNL A   1      30.720  27.340  24.317  1.00  0.00     0.028 C 
BRANCH   6  11
ATOM     11  N   UNL A   1      32.921  25.526  24.095  1.00  0.00    -0.332 N 
ATOM     12  N   UNL A   1      34.908  24.190  23.922  1.00  0.00    -0.335 N 
ATOM     13  C   UNL A   1      33.962  24.998  23.455  1.00  0.00     0.315 C 
ATOM     14  H   UNL A   1      35.507  23.903  23.196  1.00  0.00     0.165 HD
ATOM     15  O   UNL A   1      34.042  25.290  22.255  1.00  0.00    -0.249 OA
ATOM     16  H   UNL A   1      32.377  26.026  23.445  1.00  0.00     0.165 HD
BRANCH  12  17
ATOM     17  C   UNL A   1      35.323  23.601  25.195  1.00  0.00     0.089 C 
ATOM     18  C   UNL A   1      33.893  21.472  24.459  1.00  0.00     0.013 C 
ATOM     19  C   UNL A   1      35.027  22.059  25.322  1.00  0.00    -0.015 C 
ATOM     20  C   UNL A   1      34.728  21.706  26.799  1.00  0.00     0.013 C 
ATOM     21  C   UNL A   1      36.350  21.423  24.877  1.00  0.00     0.008 C 
ATOM     22  C   UNL A   1      37.420  22.321  25.462  1.00  0.00     0.003 C 
ATOM     23  C   UNL A   1      36.853  23.733  25.356  1.00  0.00     0.025 C 
ENDBRANCH  12  17
ENDBRANCH   6  11
ENDBRANCH   3   5
ENDBRANCH   2   3
ENDBRANCH   1   2
BRANCH   1  24
ATOM     24  C   UNL A   1      33.671  29.678  27.244  1.00  0.00     0.275 C 
BRANCH  24  25
ATOM     25  O   UNL A   1      34.361  30.937  27.361  1.00  0.00    -0.458 OA
BRANCH  25  26
ATOM     26  C   UNL A   1      34.913  31.224  28.565  1.00  0.00     0.338 C 
ATOM     27  O   UNL A   1      34.426  31.927  29.439  1.00  0.00    -0.246 OA
BRANCH  26  28
ATOM     28  C   UNL A   1      36.229  30.543  28.669  1.00  0.00     0.060 A 
ATOM     29  C   UNL A   1      37.058  30.439  27.552  1.00  0.00     0.016 A 
ATOM     30  C   UNL A   1      36.652  29.988  29.876  1.00  0.00     0.016 A 
ATOM     31  C   UNL A   1      38.261  29.739  27.607  1.00  0.00     0.010 A 
ATOM     32  C   UNL A   1      37.926  29.403  29.965  1.00  0.00     0.010 A 
ATOM     33  C   UNL A   1      38.751  29.274  28.830  1.00  0.00    -0.014 A 
BRANCH  33  34
ATOM     34  C   UNL A   1      40.129  28.709  28.942  1.00  0.00     0.031 A 
ATOM     35  C   UNL A   1      41.290  29.600  29.292  1.00  0.00     0.074 A 
ATOM     36  C   UNL A   1      40.364  27.404  28.680  1.00  0.00     0.049 A 
ATOM     37  N   UNL A   1      42.572  29.387  29.142  1.00  0.00    -0.248 NA
ATOM     38  C   UNL A   1      40.961  30.913  29.870  1.00  0.00     0.031 C 
ATOM     39  C   UNL A   1      39.348  26.389  28.388  1.00  0.00     0.029 A 
ATOM     40  N   UNL A   1      41.548  26.706  28.608  1.00  0.00    -0.354 N 
ATOM     41  C   UNL A   1      43.200  30.563  29.536  1.00  0.00     0.074 A 
ATOM     42  C   UNL A   1      42.157  31.482  29.944  1.00  0.00     0.031 C 
ATOM     43  C   UNL A   1      39.944  25.204  28.201  1.00  0.00     0.029 A 
ATOM     44  C   UNL A   1      41.388  25.390  28.241  1.00  0.00     0.049 A 
ATOM     45  H   UNL A   1      42.424  27.110  28.800  1.00  0.00     0.167 HD
ATOM     46  C   UNL A   1      44.523  30.854  29.540  1.00  0.00     0.031 A 
ATOM     47  C   UNL A   1      42.288  24.448  27.905  1.00  0.00     0.031 A 
ATOM     48  C   UNL A   1      45.560  29.923  29.178  1.00  0.00     0.049 A 
ATOM     49  C   UNL A   1      43.744  24.805  27.866  1.00  0.00     0.074 A 
ATOM     50  C   UNL A   1      46.930  30.123  29.157  1.00  0.00     0.029 A 
ATOM     51  N   UNL A   1      45.342  28.610  28.794  1.00  0.00    -0.354 N 
ATOM     52  N   UNL A   1      44.320  25.944  28.159  1.00  0.00    -0.248 NA
ATOM     53  C   UNL A   1      44.672  23.753  27.427  1.00  0.00     0.031 C 
ATOM     54  C   UNL A   1      47.539  28.940  28.724  1.00  0.00     0.029 A 
ATOM     55  C   UNL A   1      46.549  27.991  28.523  1.00  0.00     0.049 A 
ATOM     56  H   UNL A   1      44.458  28.181  28.723  1.00  0.00     0.167 HD
ATOM     57  C   UNL A   1      45.678  25.743  27.956  1.00  0.00     0.074 A 
ATOM     58  C   UNL A   1      45.842  24.369  27.527  1.00  0.00     0.031 C 
ATOM     59  C   UNL A   1      46.698  26.621  28.108  1.00  0.00     0.031 A 
BRANCH  46  60
ATOM     60  C   UNL A   1      44.926  32.258  29.896  1.00  0.00    -0.014 A 
ATOM     61  C   UNL A   1      45.248  32.623  31.211  1.00  0.00     0.009 A 
ATOM     62  C   UNL A   1      45.019  33.223  28.880  1.00  0.00     0.009 A 
ATOM     63  C   UNL A   1      45.625  33.936  31.506  1.00  0.00     0.001 A 
ATOM     64  C   UNL A   1      45.421  34.528  29.174  1.00  0.00     0.001 A 
ATOM     65  C   UNL A   1      45.715  34.886  30.488  1.00  0.00     0.000 A 
ENDBRANCH  46  60
BRANCH  47  66
ATOM     66  C   UNL A   1      41.826  23.093  27.499  1.00  0.00    -0.014 A 
ATOM     67  C   UNL A   1      41.451  22.833  26.173  1.00  0.00     0.009 A 
ATOM     68  C   UNL A   1      41.773  22.047  28.436  1.00  0.00     0.009 A 
ATOM     69  C   UNL A   1      41.021  21.558  25.796  1.00  0.00     0.001 A 
ATOM     70  C   UNL A   1      41.373  20.766  28.050  1.00  0.00     0.001 A 
ATOM     71  C   UNL A   1      40.991  20.525  26.733  1.00  0.00     0.000 A 
ENDBRANCH  47  66
BRANCH  59  72
ATOM     72  C   UNL A   1      48.086  26.111  27.858  1.00  0.00    -0.014 A 
ATOM     73  C   UNL A   1      48.827  25.489  28.874  1.00  0.00     0.009 A 
ATOM     74  C   UNL A   1      48.639  26.214  26.572  1.00  0.00     0.009 A 
ATOM     75  C   UNL A   1      50.107  24.997  28.610  1.00  0.00     0.001 A 
ATOM     76  C   UNL A   1      49.908  25.701  26.305  1.00  0.00     0.001 A 
ATOM     77  C   UNL A   1      50.643  25.098  27.325  1.00  0.00     0.000 A 
ENDBRANCH  59  72
ENDBRANCH  33  34
ENDBRANCH  26  28
ENDBRANCH  25  26
ENDBRANCH  24  25
ENDBRANCH   1  24
TORSDOF 13
ENDMDL
MODEL 2
REMARK VINA RESULT:     -10.9      1.152      2.141
REMARK SMILES CC1(C)CCC[C@H]1NC(=O)N[C@@H]1COC[C@@]1(C)C(=O)OCCOC(=O)c1ccc(-c2c3nc(c(-c4ccccc4)c4ccc([nH]4)c(-c4ccccc4)c4nc(c(-c5ccccc5)c5ccc2[nH]5)C=C4)C=C3)cc1
REMARK SMILES IDX 21 1 20 2 18 3 19 4 16 5 12 6 13 7 14 8 15 9 17 10 11 11
REMARK SMILES IDX 8 12 9 13 10 15 7 17 1 18 2 19 3 20 4 21 5 22 6 23 22 24
REMARK SMILES IDX 23 25 24 26 25 27 26 28 27 29 73 30 28 31 72 32 29 33 30 34
REMARK SMILES IDX 31 35 66 36 32 37 71 38 65 39 67 40 33 41 70 42 64 43 63 44
REMARK SMILES IDX 34 46 56 47 41 48 55 49 42 50 45 51 54 52 68 53 43 54 44 55
REMARK SMILES IDX 53 57 69 58 46 59 35 60 36 61 40 62 37 63 39 64 38 65 57 66
REMARK SMILES IDX 58 67 62 68 59 69 61 70 60 71 47 72 48 73 52 74 49 75 51 76
REMARK SMILES IDX 50 77
REMARK H PARENT 8 14 11 16 67 45 45 56
REMARK Flexibility Score: inf
ROOT
ATOM      1  C   UNL A   1      31.793  29.484  26.471  1.00  0.00     0.274 C 
ENDROOT
BRANCH   1   2
ATOM      2  O   UNL A   1      32.325  28.351  25.749  1.00  0.00    -0.462 OA
BRANCH   2   3
ATOM      3  C   UNL A   1      31.484  27.702  24.889  1.00  0.00     0.316 C 
ATOM      4  O   UNL A   1      30.717  28.275  24.128  1.00  0.00    -0.251 OA
BRANCH   3   5
ATOM      5  C   UNL A   1      31.724  26.182  24.928  1.00  0.00     0.111 C 
ATOM      6  C   UNL A   1      30.442  25.346  24.896  1.00  0.00     0.129 C 
ATOM      7  C   UNL A   1      30.435  24.622  23.551  1.00  0.00     0.186 C 
ATOM      8  O   UNL A   1      31.780  24.603  23.088  1.00  0.00    -0.378 OA
ATOM      9  C   UNL A   1      32.423  25.763  23.624  1.00  0.00     0.181 C 
ATOM     10  C   UNL A   1      32.602  25.929  26.149  1.00  0.00     0.028 C 
BRANCH   6  11
ATOM     11  N   UNL A   1      30.156  24.449  26.034  1.00  0.00    -0.332 N 
ATOM     12  N   UNL A   1      31.461  22.443  26.224  1.00  0.00    -0.335 N 
ATOM     13  C   UNL A   1      30.503  23.290  26.587  1.00  0.00     0.315 C 
ATOM     14  H   UNL A   1      31.532  21.703  26.869  1.00  0.00     0.165 HD
ATOM     15  O   UNL A   1      29.851  22.972  27.590  1.00  0.00    -0.249 OA
ATOM     16  H   UNL A   1      29.451  24.859  26.585  1.00  0.00     0.165 HD
BRANCH  12  17
ATOM     17  C   UNL A   1      32.440  22.285  25.149  1.00  0.00     0.089 C 
ATOM     18  C   UNL A   1      34.279  22.834  27.003  1.00  0.00     0.013 C 
ATOM     19  C   UNL A   1      33.934  22.198  25.642  1.00  0.00    -0.015 C 
ATOM     20  C   UNL A   1      34.871  22.817  24.579  1.00  0.00     0.013 C 
ATOM     21  C   UNL A   1      34.168  20.684  25.746  1.00  0.00     0.008 C 
ATOM     22  C   UNL A   1      33.439  20.105  24.551  1.00  0.00     0.003 C 
ATOM     23  C   UNL A   1      32.184  20.960  24.400  1.00  0.00     0.025 C 
ENDBRANCH  12  17
ENDBRANCH   6  11
ENDBRANCH   3   5
ENDBRANCH   2   3
ENDBRANCH   1   2
BRANCH   1  24
ATOM     24  C   UNL A   1      32.915  30.504  26.733  1.00  0.00     0.275 C 
BRANCH  24  25
ATOM     25  O   UNL A   1      33.874  29.901  27.623  1.00  0.00    -0.458 OA
BRANCH  25  26
ATOM     26  C   UNL A   1      34.696  30.741  28.298  1.00  0.00     0.338 C 
ATOM     27  O   UNL A   1      34.408  31.845  28.735  1.00  0.00    -0.246 OA
BRANCH  26  28
ATOM     28  C   UNL A   1      36.032  30.105  28.433  1.00  0.00     0.060 A 
ATOM     29  C   UNL A   1      36.932  30.128  27.367  1.00  0.00     0.016 A 
ATOM     30  C   UNL A   1      36.404  29.468  29.615  1.00  0.00     0.016 A 
ATOM     31  C   UNL A   1      38.159  29.474  27.443  1.00  0.00     0.010 A 
ATOM     32  C   UNL A   1      37.695  28.928  29.739  1.00  0.00     0.010 A 
ATOM     33  C   UNL A   1      38.593  28.927  28.653  1.00  0.00    -0.014 A 
BRANCH  33  34
ATOM     34  C   UNL A   1      39.985  28.409  28.809  1.00  0.00     0.031 A 
ATOM     35  C   UNL A   1      41.105  29.341  29.185  1.00  0.00     0.074 A 
ATOM     36  C   UNL A   1      40.271  27.111  28.564  1.00  0.00     0.049 A 
ATOM     37  N   UNL A   1      42.398  29.170  29.074  1.00  0.00    -0.248 NA
ATOM     38  C   UNL A   1      40.717  30.645  29.744  1.00  0.00     0.031 C 
ATOM     39  C   UNL A   1      39.298  26.061  28.250  1.00  0.00     0.029 A 
ATOM     40  N   UNL A   1      41.479  26.453  28.530  1.00  0.00    -0.354 N 
ATOM     41  C   UNL A   1      42.975  30.369  29.476  1.00  0.00     0.074 A 
ATOM     42  C   UNL A   1      41.891  31.254  29.848  1.00  0.00     0.031 C 
ATOM     43  C   UNL A   1      39.938  24.895  28.088  1.00  0.00     0.029 A 
ATOM     44  C   UNL A   1      41.373  25.130  28.169  1.00  0.00     0.049 A 
ATOM     45  H   UNL A   1      42.336  26.887  28.744  1.00  0.00     0.167 HD
ATOM     46  C   UNL A   1      44.287  30.704  29.516  1.00  0.00     0.031 A 
ATOM     47  C   UNL A   1      42.313  24.216  27.864  1.00  0.00     0.031 A 
ATOM     48  C   UNL A   1      45.364  29.805  29.191  1.00  0.00     0.049 A 
ATOM     49  C   UNL A   1      43.758  24.621  27.865  1.00  0.00     0.074 A 
ATOM     50  C   UNL A   1      46.727  30.051  29.207  1.00  0.00     0.029 A 
ATOM     51  N   UNL A   1      45.201  28.484  28.810  1.00  0.00    -0.354 N 
ATOM     52  N   UNL A   1      44.287  25.781  28.165  1.00  0.00    -0.248 NA
ATOM     53  C   UNL A   1      44.732  23.598  27.460  1.00  0.00     0.031 C 
ATOM     54  C   UNL A   1      47.387  28.886  28.801  1.00  0.00     0.029 A 
ATOM     55  C   UNL A   1      46.436  27.904  28.578  1.00  0.00     0.049 A 
ATOM     56  H   UNL A   1      44.334  28.024  28.717  1.00  0.00     0.167 HD
ATOM     57  C   UNL A   1      45.656  25.624  28.002  1.00  0.00     0.074 A 
ATOM     58  C   UNL A   1      45.878  24.253  27.589  1.00  0.00     0.031 C 
ATOM     59  C   UNL A   1      46.641  26.537  28.177  1.00  0.00     0.031 A 
BRANCH  46  60
ATOM     60  C   UNL A   1      44.632  32.123  29.873  1.00  0.00    -0.014 A 
ATOM     61  C   UNL A   1      44.692  33.135  28.905  1.00  0.00     0.009 A 
ATOM     62  C   UNL A   1      44.864  32.454  31.218  1.00  0.00     0.009 A 
ATOM     63  C   UNL A   1      45.010  34.445  29.273  1.00  0.00     0.001 A 
ATOM     64  C   UNL A   1      45.156  33.769  31.587  1.00  0.00     0.001 A 
ATOM     65  C   UNL A   1      45.237  34.762  30.612  1.00  0.00     0.000 A 
ENDBRANCH  46  60
BRANCH  47  66
ATOM     66  C   UNL A   1      41.909  22.844  27.456  1.00  0.00    -0.014 A 
ATOM     67  C   UNL A   1      41.898  21.795  28.387  1.00  0.00     0.009 A 
ATOM     68  C   UNL A   1      41.517  22.579  26.133  1.00  0.00     0.009 A 
ATOM     69  C   UNL A   1      41.514  20.509  27.999  1.00  0.00     0.001 A 
ATOM     70  C   UNL A   1      41.104  21.300  25.755  1.00  0.00     0.001 A 
ATOM     71  C   UNL A   1      41.110  20.265  26.687  1.00  0.00     0.000 A 
ENDBRANCH  47  66
BRANCH  59  72
ATOM     72  C   UNL A   1      48.052  26.071  27.971  1.00  0.00    -0.014 A 
ATOM     73  C   UNL A   1      48.666  26.143  26.711  1.00  0.00     0.009 A 
ATOM     74  C   UNL A   1      48.791  25.598  29.066  1.00  0.00     0.009 A 
ATOM     75  C   UNL A   1      49.989  25.729  26.550  1.00  0.00     0.001 A 
ATOM     76  C   UNL A   1      50.120  25.208  28.907  1.00  0.00     0.001 A 
ATOM     77  C   UNL A   1      50.716  25.268  27.648  1.00  0.00     0.000 A 
ENDBRANCH  59  72
ENDBRANCH  33  34
ENDBRANCH  26  28
ENDBRANCH  25  26
ENDBRANCH  24  25
ENDBRANCH   1  24
TORSDOF 13
ENDMDL
MODEL 3
REMARK VINA RESULT:     -10.8      1.075      1.779
REMARK SMILES CC1(C)CCC[C@H]1NC(=O)N[C@@H]1COC[C@@]1(C)C(=O)OCCOC(=O)c1ccc(-c2c3nc(c(-c4ccccc4)c4ccc([nH]4)c(-c4ccccc4)c4nc(c(-c5ccccc5)c5ccc2[nH]5)C=C4)C=C3)cc1
REMARK SMILES IDX 21 1 20 2 18 3 19 4 16 5 12 6 13 7 14 8 15 9 17 10 11 11
REMARK SMILES IDX 8 12 9 13 10 15 7 17 1 18 2 19 3 20 4 21 5 22 6 23 22 24
REMARK SMILES IDX 23 25 24 26 25 27 26 28 27 29 73 30 28 31 72 32 29 33 30 34
REMARK SMILES IDX 31 35 66 36 32 37 71 38 65 39 67 40 33 41 70 42 64 43 63 44
REMARK SMILES IDX 34 46 56 47 41 48 55 49 42 50 45 51 54 52 68 53 43 54 44 55
REMARK SMILES IDX 53 57 69 58 46 59 35 60 36 61 40 62 37 63 39 64 38 65 57 66
REMARK SMILES IDX 58 67 62 68 59 69 61 70 60 71 47 72 48 73 52 74 49 75 51 76
REMARK SMILES IDX 50 77
REMARK H PARENT 8 14 11 16 67 45 45 56
REMARK Flexibility Score: inf
ROOT
ATOM      1  C   UNL A   1      32.200  29.194  27.534  1.00  0.00     0.274 C 
ENDROOT
BRANCH   1   2
ATOM      2  O   UNL A   1      31.397  28.703  26.437  1.00  0.00    -0.462 OA
BRANCH   2   3
ATOM      3  C   UNL A   1      31.989  27.833  25.565  1.00  0.00     0.316 C 
ATOM      4  O   UNL A   1      32.502  26.776  25.904  1.00  0.00    -0.251 OA
BRANCH   3   5
ATOM      5  C   UNL A   1      31.811  28.306  24.111  1.00  0.00     0.111 C 
ATOM      6  C   UNL A   1      31.144  27.277  23.195  1.00  0.00     0.129 C 
ATOM      7  C   UNL A   1      29.776  27.851  22.830  1.00  0.00     0.186 C 
ATOM      8  O   UNL A   1      29.847  29.254  23.049  1.00  0.00    -0.378 OA
ATOM      9  C   UNL A   1      30.801  29.466  24.094  1.00  0.00     0.181 C 
ATOM     10  C   UNL A   1      33.193  28.752  23.645  1.00  0.00     0.028 C 
BRANCH   6  11
ATOM     11  N   UNL A   1      31.894  26.785  22.022  1.00  0.00    -0.332 N 
ATOM     12  N   UNL A   1      33.290  24.857  22.324  1.00  0.00    -0.335 N 
ATOM     13  C   UNL A   1      32.767  25.862  21.630  1.00  0.00     0.315 C 
ATOM     14  H   UNL A   1      33.852  24.292  21.746  1.00  0.00     0.165 HD
ATOM     15  O   UNL A   1      33.124  25.947  20.447  1.00  0.00    -0.249 OA
ATOM     16  H   UNL A   1      31.663  27.346  21.247  1.00  0.00     0.165 HD
BRANCH  12  17
ATOM     17  C   UNL A   1      33.277  24.340  23.692  1.00  0.00     0.089 C 
ATOM     18  C   UNL A   1      32.550  22.014  22.605  1.00  0.00     0.013 C 
ATOM     19  C   UNL A   1      33.179  22.771  23.791  1.00  0.00    -0.015 C 
ATOM     20  C   UNL A   1      32.402  22.376  25.070  1.00  0.00     0.013 C 
ATOM     21  C   UNL A   1      34.650  22.347  23.906  1.00  0.00     0.008 C 
ATOM     22  C   UNL A   1      35.280  23.401  24.793  1.00  0.00     0.003 C 
ATOM     23  C   UNL A   1      34.598  24.708  24.402  1.00  0.00     0.025 C 
ENDBRANCH  12  17
ENDBRANCH   6  11
ENDBRANCH   3   5
ENDBRANCH   2   3
ENDBRANCH   1   2
BRANCH   1  24
ATOM     24  C   UNL A   1      32.857  30.528  27.139  1.00  0.00     0.275 C 
BRANCH  24  25
ATOM     25  O   UNL A   1      34.286  30.368  27.217  1.00  0.00    -0.458 OA
BRANCH  25  26
ATOM     26  C   UNL A   1      34.897  30.851  28.326  1.00  0.00     0.338 C 
ATOM     27  O   UNL A   1      34.448  31.683  29.100  1.00  0.00    -0.246 OA
BRANCH  26  28
ATOM     28  C   UNL A   1      36.227  30.204  28.466  1.00  0.00     0.060 A 
ATOM     29  C   UNL A   1      37.113  30.177  27.389  1.00  0.00     0.016 A 
ATOM     30  C   UNL A   1      36.608  29.606  29.666  1.00  0.00     0.016 A 
ATOM     31  C   UNL A   1      38.333  29.511  27.472  1.00  0.00     0.010 A 
ATOM     32  C   UNL A   1      37.894  29.055  29.792  1.00  0.00     0.010 A 
ATOM     33  C   UNL A   1      38.777  29.003  28.696  1.00  0.00    -0.014 A 
BRANCH  33  34
ATOM     34  C   UNL A   1      40.165  28.474  28.851  1.00  0.00     0.031 A 
ATOM     35  C   UNL A   1      41.290  29.394  29.244  1.00  0.00     0.074 A 
ATOM     36  C   UNL A   1      40.443  27.177  28.593  1.00  0.00     0.049 A 
ATOM     37  N   UNL A   1      42.582  29.215  29.136  1.00  0.00    -0.248 NA
ATOM     38  C   UNL A   1      40.907  30.695  29.815  1.00  0.00     0.031 C 
ATOM     39  C   UNL A   1      39.464  26.137  28.264  1.00  0.00     0.029 A 
ATOM     40  N   UNL A   1      41.646  26.511  28.557  1.00  0.00    -0.354 N 
ATOM     41  C   UNL A   1      43.164  30.405  29.554  1.00  0.00     0.074 A 
ATOM     42  C   UNL A   1      42.085  31.294  29.931  1.00  0.00     0.031 C 
ATOM     43  C   UNL A   1      40.097  24.969  28.091  1.00  0.00     0.029 A 
ATOM     44  C   UNL A   1      41.534  25.193  28.181  1.00  0.00     0.049 A 
ATOM     45  H   UNL A   1      42.505  26.936  28.780  1.00  0.00     0.167 HD
ATOM     46  C   UNL A   1      44.479  30.731  29.604  1.00  0.00     0.031 A 
ATOM     47  C   UNL A   1      42.469  24.276  27.871  1.00  0.00     0.031 A 
ATOM     48  C   UNL A   1      45.551  29.829  29.273  1.00  0.00     0.049 A 
ATOM     49  C   UNL A   1      43.916  24.671  27.882  1.00  0.00     0.074 A 
ATOM     50  C   UNL A   1      46.916  30.065  29.299  1.00  0.00     0.029 A 
ATOM     51  N   UNL A   1      45.381  28.513  28.877  1.00  0.00    -0.354 N 
ATOM     52  N   UNL A   1      44.451  25.824  28.198  1.00  0.00    -0.248 NA
ATOM     53  C   UNL A   1      44.885  23.646  27.470  1.00  0.00     0.031 C 
ATOM     54  C   UNL A   1      47.569  28.900  28.882  1.00  0.00     0.029 A 
ATOM     55  C   UNL A   1      46.613  27.927  28.644  1.00  0.00     0.049 A 
ATOM     56  H   UNL A   1      44.512  28.061  28.775  1.00  0.00     0.167 HD
ATOM     57  C   UNL A   1      45.820  25.660  28.039  1.00  0.00     0.074 A 
ATOM     58  C   UNL A   1      46.035  24.292  27.611  1.00  0.00     0.031 C 
ATOM     59  C   UNL A   1      46.811  26.563  28.229  1.00  0.00     0.031 A 
BRANCH  46  60
ATOM     60  C   UNL A   1      44.832  32.144  29.979  1.00  0.00    -0.014 A 
ATOM     61  C   UNL A   1      44.940  33.158  29.017  1.00  0.00     0.009 A 
ATOM     62  C   UNL A   1      45.021  32.467  31.332  1.00  0.00     0.009 A 
ATOM     63  C   UNL A   1      45.265  34.462  29.401  1.00  0.00     0.001 A 
ATOM     64  C   UNL A   1      45.319  33.776  31.716  1.00  0.00     0.001 A 
ATOM     65  C   UNL A   1      45.449  34.771  30.749  1.00  0.00     0.000 A 
ENDBRANCH  46  60
BRANCH  47  66
ATOM     66  C   UNL A   1      42.057  22.911  27.445  1.00  0.00    -0.014 A 
ATOM     67  C   UNL A   1      41.670  22.663  26.120  1.00  0.00     0.009 A 
ATOM     68  C   UNL A   1      42.064  21.845  28.360  1.00  0.00     0.009 A 
ATOM     69  C   UNL A   1      41.286  21.378  25.724  1.00  0.00     0.001 A 
ATOM     70  C   UNL A   1      41.711  20.557  27.955  1.00  0.00     0.001 A 
ATOM     71  C   UNL A   1      41.315  20.326  26.639  1.00  0.00     0.000 A 
ENDBRANCH  47  66
BRANCH  59  72
ATOM     72  C   UNL A   1      48.220  26.091  28.023  1.00  0.00    -0.014 A 
ATOM     73  C   UNL A   1      48.839  26.171  26.767  1.00  0.00     0.009 A 
ATOM     74  C   UNL A   1      48.950  25.602  29.117  1.00  0.00     0.009 A 
ATOM     75  C   UNL A   1      50.160  25.750  26.607  1.00  0.00     0.001 A 
ATOM     76  C   UNL A   1      50.277  25.204  28.959  1.00  0.00     0.001 A 
ATOM     77  C   UNL A   1      50.880  25.273  27.704  1.00  0.00     0.000 A 
ENDBRANCH  59  72
ENDBRANCH  33  34
ENDBRANCH  26  28
ENDBRANCH  25  26
ENDBRANCH  24  25
ENDBRANCH   1  24
TORSDOF 13
ENDMDL
