MODEL 1
REMARK VINA RESULT:     -10.6      0.000      0.000
REMARK SMILES Cc1cc(Cl)ccc1Oc1cc(C)c(N)c(C(=O)OCCOC(=O)c2ccc(-c3c4nc(c(-c5ccccc5)c5ccc([nH]5)c(-c5ccccc5)c5nc(c(-c6ccccc6)c6ccc3[nH]6)C=C5)C=C4)cc2)c1
REMARK SMILES IDX 20 1 19 2 17 3 18 4 16 5 10 6 11 7 73 8 12 9 13 10 14 11
REMARK SMILES IDX 9 12 8 13 1 14 2 15 3 16 4 17 7 18 5 19 6 20 15 21 21 24
REMARK SMILES IDX 22 25 23 26 24 27 25 28 26 29 72 30 27 31 71 32 28 33 29 34
REMARK SMILES IDX 30 35 65 36 31 37 70 38 64 39 66 40 32 41 69 42 63 43 62 44
REMARK SMILES IDX 33 46 55 47 40 48 54 49 41 50 44 51 53 52 67 53 42 54 43 55
REMARK SMILES IDX 52 57 68 58 45 59 34 60 35 61 39 62 36 63 38 64 37 65 56 66
REMARK SMILES IDX 57 67 61 68 58 69 60 70 59 71 46 72 47 73 51 74 48 75 50 76
REMARK SMILES IDX 49 77
REMARK H PARENT 15 22 15 23 66 45 44 56
REMARK Flexibility Score: inf
ROOT
ATOM      1  C   UNL A   1      32.538  29.846  25.781  1.00  0.00     0.275 C 
ENDROOT
BRANCH   1   2
ATOM      2  O   UNL A   1      33.427  29.126  24.899  1.00  0.00    -0.458 OA
BRANCH   2   3
ATOM      3  C   UNL A   1      32.836  28.508  23.843  1.00  0.00     0.340 C 
ATOM      4  O   UNL A   1      32.017  29.010  23.086  1.00  0.00    -0.246 OA
BRANCH   3   5
ATOM      5  C   UNL A   1      33.277  27.096  23.737  1.00  0.00     0.086 A 
ATOM      6  C   UNL A   1      34.121  25.108  24.776  1.00  0.00     0.128 A 
ATOM      7  C   UNL A   1      33.716  24.338  23.685  1.00  0.00     0.052 A 
ATOM      8  C   UNL A   1      33.804  26.462  24.858  1.00  0.00     0.065 A 
ATOM      9  C   UNL A   1      33.234  24.970  22.538  1.00  0.00    -0.024 A 
ATOM     10  C   UNL A   1      32.997  24.164  21.290  1.00  0.00     0.047 C 
ATOM     11  C   UNL A   1      33.098  26.371  22.539  1.00  0.00     0.049 A 
BRANCH   6  12
ATOM     12  O   UNL A   1      34.855  24.581  25.798  1.00  0.00    -0.457 OA
BRANCH  12  13
ATOM     13  C   UNL A   1      35.472  23.350  25.641  1.00  0.00     0.130 A 
ATOM     14  C   UNL A   1      33.554  21.703  26.281  1.00  0.00     0.048 C 
ATOM     15  C   UNL A   1      34.948  22.053  25.830  1.00  0.00    -0.007 A 
ATOM     16  C   UNL A   1      35.798  20.948  25.604  1.00  0.00     0.027 A 
ATOM     17  C   UNL A   1      37.099  21.119  25.137  1.00  0.00     0.041 A 
ATOM     18  C   UNL A   1      36.784  23.499  25.158  1.00  0.00     0.049 A 
ATOM     19  Cl  UNL A   1      38.085  19.743  24.837  1.00  0.00    -0.084 Cl
ATOM     20  C   UNL A   1      37.594  22.393  24.900  1.00  0.00     0.024 A 
ENDBRANCH  12  13
ENDBRANCH   6  12
BRANCH  11  21
ATOM     21  N   UNL A   1      33.039  27.030  21.312  1.00  0.00    -0.398 N 
ATOM     22  H   UNL A   1      32.175  27.141  20.854  1.00  0.00     0.156 HD
ATOM     23  H   UNL A   1      33.862  27.385  20.903  1.00  0.00     0.156 HD
ENDBRANCH  11  21
ENDBRANCH   3   5
ENDBRANCH   2   3
ENDBRANCH   1   2
BRANCH   1  24
ATOM     24  C   UNL A   1      32.708  29.392  27.230  1.00  0.00     0.275 C 
BRANCH  24  25
ATOM     25  O   UNL A   1      34.107  29.283  27.550  1.00  0.00    -0.458 OA
BRANCH  25  26
ATOM     26  C   UNL A   1      34.677  30.389  28.077  1.00  0.00     0.338 C 
ATOM     27  O   UNL A   1      34.141  31.451  28.345  1.00  0.00    -0.246 OA
BRANCH  26  28
ATOM     28  C   UNL A   1      36.095  30.132  28.384  1.00  0.00     0.060 A 
ATOM     29  C   UNL A   1      37.035  30.292  27.377  1.00  0.00     0.016 A 
ATOM     30  C   UNL A   1      36.465  29.525  29.584  1.00  0.00     0.016 A 
ATOM     31  C   UNL A   1      38.285  29.695  27.503  1.00  0.00     0.010 A 
ATOM     32  C   UNL A   1      37.784  29.081  29.767  1.00  0.00     0.010 A 
ATOM     33  C   UNL A   1      38.709  29.121  28.711  1.00  0.00    -0.014 A 
BRANCH  33  34
ATOM     34  C   UNL A   1      40.107  28.603  28.851  1.00  0.00     0.031 A 
ATOM     35  C   UNL A   1      41.239  29.493  29.308  1.00  0.00     0.074 A 
ATOM     36  C   UNL A   1      40.375  27.305  28.579  1.00  0.00     0.049 A 
ATOM     37  N   UNL A   1      42.531  29.279  29.250  1.00  0.00    -0.248 NA
ATOM     38  C   UNL A   1      40.879  30.794  29.896  1.00  0.00     0.031 C 
ATOM     39  C   UNL A   1      39.388  26.295  28.184  1.00  0.00     0.029 A 
ATOM     40  N   UNL A   1      41.557  26.605  28.605  1.00  0.00    -0.354 N 
ATOM     41  C   UNL A   1      43.137  30.440  29.721  1.00  0.00     0.074 A 
ATOM     42  C   UNL A   1      42.070  31.351  30.079  1.00  0.00     0.031 C 
ATOM     43  C   UNL A   1      39.984  25.100  28.092  1.00  0.00     0.029 A 
ATOM     44  C   UNL A   1      41.418  25.285  28.244  1.00  0.00     0.049 A 
ATOM     45  H   UNL A   1      42.419  27.008  28.857  1.00  0.00     0.167 HD
ATOM     46  C   UNL A   1      44.459  30.722  29.826  1.00  0.00     0.031 A 
ATOM     47  C   UNL A   1      42.328  24.335  27.964  1.00  0.00     0.031 A 
ATOM     48  C   UNL A   1      45.513  29.793  29.507  1.00  0.00     0.049 A 
ATOM     49  C   UNL A   1      43.779  24.696  27.996  1.00  0.00     0.074 A 
ATOM     50  C   UNL A   1      46.884  29.979  29.589  1.00  0.00     0.029 A 
ATOM     51  N   UNL A   1      45.315  28.496  29.057  1.00  0.00    -0.354 N 
ATOM     52  N   UNL A   1      44.336  25.826  28.351  1.00  0.00    -0.248 NA
ATOM     53  C   UNL A   1      44.723  23.666  27.543  1.00  0.00     0.031 C 
ATOM     54  C   UNL A   1      47.513  28.814  29.135  1.00  0.00     0.029 A 
ATOM     55  C   UNL A   1      46.536  27.884  28.823  1.00  0.00     0.049 A 
ATOM     56  H   UNL A   1      44.437  28.074  28.922  1.00  0.00     0.167 HD
ATOM     57  C   UNL A   1      45.696  25.650  28.154  1.00  0.00     0.074 A 
ATOM     58  C   UNL A   1      45.882  24.293  27.683  1.00  0.00     0.031 C 
ATOM     59  C   UNL A   1      46.702  26.540  28.335  1.00  0.00     0.031 A 
BRANCH  46  60
ATOM     60  C   UNL A   1      44.855  32.114  30.243  1.00  0.00    -0.014 A 
ATOM     61  C   UNL A   1      45.275  32.410  31.549  1.00  0.00     0.009 A 
ATOM     62  C   UNL A   1      44.871  33.139  29.280  1.00  0.00     0.009 A 
ATOM     63  C   UNL A   1      45.675  33.707  31.887  1.00  0.00     0.001 A 
ATOM     64  C   UNL A   1      45.295  34.426  29.615  1.00  0.00     0.001 A 
ATOM     65  C   UNL A   1      45.690  34.712  30.920  1.00  0.00     0.000 A 
ENDBRANCH  46  60
BRANCH  47  66
ATOM     66  C   UNL A   1      41.872  22.995  27.505  1.00  0.00    -0.014 A 
ATOM     67  C   UNL A   1      41.629  22.745  26.148  1.00  0.00     0.009 A 
ATOM     68  C   UNL A   1      41.726  21.943  28.426  1.00  0.00     0.009 A 
ATOM     69  C   UNL A   1      41.254  21.467  25.724  1.00  0.00     0.001 A 
ATOM     70  C   UNL A   1      41.390  20.659  27.996  1.00  0.00     0.001 A 
ATOM     71  C   UNL A   1      41.149  20.423  26.645  1.00  0.00     0.000 A 
ENDBRANCH  47  66
BRANCH  59  72
ATOM     72  C   UNL A   1      48.088  26.060  28.025  1.00  0.00    -0.014 A 
ATOM     73  C   UNL A   1      48.886  25.475  29.021  1.00  0.00     0.009 A 
ATOM     74  C   UNL A   1      48.596  26.182  26.724  1.00  0.00     0.009 A 
ATOM     75  C   UNL A   1      50.180  25.047  28.724  1.00  0.00     0.001 A 
ATOM     76  C   UNL A   1      49.882  25.731  26.425  1.00  0.00     0.001 A 
ATOM     77  C   UNL A   1      50.675  25.172  27.426  1.00  0.00     0.000 A 
ENDBRANCH  59  72
ENDBRANCH  33  34
ENDBRANCH  26  28
ENDBRANCH  25  26
ENDBRANCH  24  25
ENDBRANCH   1  24
TORSDOF 14
ENDMDL
MODEL 2
REMARK VINA RESULT:     -10.6      5.007     10.120
REMARK SMILES Cc1cc(Cl)ccc1Oc1cc(C)c(N)c(C(=O)OCCOC(=O)c2ccc(-c3c4nc(c(-c5ccccc5)c5ccc([nH]5)c(-c5ccccc5)c5nc(c(-c6ccccc6)c6ccc3[nH]6)C=C5)C=C4)cc2)c1
REMARK SMILES IDX 20 1 19 2 17 3 18 4 16 5 10 6 11 7 73 8 12 9 13 10 14 11
REMARK SMILES IDX 9 12 8 13 1 14 2 15 3 16 4 17 7 18 5 19 6 20 15 21 21 24
REMARK SMILES IDX 22 25 23 26 24 27 25 28 26 29 72 30 27 31 71 32 28 33 29 34
REMARK SMILES IDX 30 35 65 36 31 37 70 38 64 39 66 40 32 41 69 42 63 43 62 44
REMARK SMILES IDX 33 46 55 47 40 48 54 49 41 50 44 51 53 52 67 53 42 54 43 55
REMARK SMILES IDX 52 57 68 58 45 59 34 60 35 61 39 62 36 63 38 64 37 65 56 66
REMARK SMILES IDX 57 67 61 68 58 69 60 70 59 71 46 72 47 73 51 74 48 75 50 76
REMARK SMILES IDX 49 77
REMARK H PARENT 15 22 15 23 66 45 44 56
REMARK Flexibility Score: inf
ROOT
ATOM      1  C   UNL A   1      45.809  24.113  24.935  1.00  0.00     0.275 C 
ENDROOT
BRANCH   1   2
ATOM      2  O   UNL A   1      44.898  23.173  25.549  1.00  0.00    -0.458 OA
BRANCH   2   3
ATOM      3  C   UNL A   1      44.031  22.558  24.704  1.00  0.00     0.340 C 
ATOM      4  O   UNL A   1      43.953  22.742  23.497  1.00  0.00    -0.246 OA
BRANCH   3   5
ATOM      5  C   UNL A   1      43.128  21.641  25.441  1.00  0.00     0.086 A 
ATOM      6  C   UNL A   1      40.994  21.196  26.437  1.00  0.00     0.128 A 
ATOM      7  C   UNL A   1      41.257  19.826  26.447  1.00  0.00     0.052 A 
ATOM      8  C   UNL A   1      41.871  22.094  25.835  1.00  0.00     0.065 A 
ATOM      9  C   UNL A   1      42.530  19.368  26.102  1.00  0.00    -0.024 A 
ATOM     10  C   UNL A   1      42.881  17.920  26.314  1.00  0.00     0.047 C 
ATOM     11  C   UNL A   1      43.498  20.300  25.680  1.00  0.00     0.049 A 
BRANCH   6  12
ATOM     12  O   UNL A   1      39.880  21.720  27.027  1.00  0.00    -0.457 OA
BRANCH  12  13
ATOM     13  C   UNL A   1      38.838  22.186  26.242  1.00  0.00     0.130 A 
ATOM     14  C   UNL A   1      38.778  24.715  26.875  1.00  0.00     0.048 C 
ATOM     15  C   UNL A   1      38.315  23.492  26.127  1.00  0.00    -0.007 A 
ATOM     16  C   UNL A   1      37.232  23.704  25.246  1.00  0.00     0.027 A 
ATOM     17  C   UNL A   1      36.731  22.675  24.453  1.00  0.00     0.041 A 
ATOM     18  C   UNL A   1      38.324  21.165  25.423  1.00  0.00     0.049 A 
ATOM     19  Cl  UNL A   1      35.437  22.989  23.365  1.00  0.00    -0.084 Cl
ATOM     20  C   UNL A   1      37.282  21.405  24.528  1.00  0.00     0.024 A 
ENDBRANCH  12  13
ENDBRANCH   6  12
BRANCH  11  21
ATOM     21  N   UNL A   1      44.841  19.935  25.751  1.00  0.00    -0.398 N 
ATOM     22  H   UNL A   1      45.489  20.530  26.193  1.00  0.00     0.156 HD
ATOM     23  H   UNL A   1      45.141  19.082  25.362  1.00  0.00     0.156 HD
ENDBRANCH  11  21
ENDBRANCH   3   5
ENDBRANCH   2   3
ENDBRANCH   1   2
BRANCH   1  24
ATOM     24  C   UNL A   1      45.415  25.554  25.254  1.00  0.00     0.275 C 
BRANCH  24  25
ATOM     25  O   UNL A   1      44.334  25.570  26.204  1.00  0.00    -0.458 OA
BRANCH  25  26
ATOM     26  C   UNL A   1      43.144  26.007  25.732  1.00  0.00     0.338 C 
ATOM     27  O   UNL A   1      42.666  25.822  24.626  1.00  0.00    -0.246 OA
BRANCH  26  28
ATOM     28  C   UNL A   1      42.407  26.715  26.792  1.00  0.00     0.060 A 
ATOM     29  C   UNL A   1      42.541  28.092  26.894  1.00  0.00     0.016 A 
ATOM     30  C   UNL A   1      41.770  26.007  27.812  1.00  0.00     0.016 A 
ATOM     31  C   UNL A   1      42.199  28.730  28.081  1.00  0.00     0.010 A 
ATOM     32  C   UNL A   1      41.269  26.689  28.932  1.00  0.00     0.010 A 
ATOM     33  C   UNL A   1      41.512  28.061  29.105  1.00  0.00    -0.014 A 
BRANCH  33  34
ATOM     34  C   UNL A   1      41.044  28.810  30.315  1.00  0.00     0.031 A 
ATOM     35  C   UNL A   1      39.832  29.712  30.268  1.00  0.00     0.074 A 
ATOM     36  C   UNL A   1      41.704  28.675  31.488  1.00  0.00     0.049 A 
ATOM     37  N   UNL A   1      39.439  30.609  31.138  1.00  0.00    -0.248 NA
ATOM     38  C   UNL A   1      38.954  29.600  29.091  1.00  0.00     0.031 C 
ATOM     39  C   UNL A   1      42.856  27.799  31.723  1.00  0.00     0.029 A 
ATOM     40  N   UNL A   1      41.493  29.263  32.713  1.00  0.00    -0.354 N 
ATOM     41  C   UNL A   1      38.318  31.220  30.584  1.00  0.00     0.074 A 
ATOM     42  C   UNL A   1      38.080  30.577  29.309  1.00  0.00     0.031 C 
ATOM     43  C   UNL A   1      43.192  27.840  33.017  1.00  0.00     0.029 A 
ATOM     44  C   UNL A   1      42.402  28.871  33.668  1.00  0.00     0.049 A 
ATOM     45  H   UNL A   1      40.765  29.901  32.888  1.00  0.00     0.167 HD
ATOM     46  C   UNL A   1      37.570  32.233  31.086  1.00  0.00     0.031 A 
ATOM     47  C   UNL A   1      42.657  29.341  34.903  1.00  0.00     0.031 A 
ATOM     48  C   UNL A   1      37.788  32.838  32.377  1.00  0.00     0.049 A 
ATOM     49  C   UNL A   1      41.882  30.520  35.400  1.00  0.00     0.074 A 
ATOM     50  C   UNL A   1      37.080  33.863  32.981  1.00  0.00     0.029 A 
ATOM     51  N   UNL A   1      38.783  32.463  33.267  1.00  0.00    -0.354 N 
ATOM     52  N   UNL A   1      40.887  31.149  34.827  1.00  0.00    -0.248 NA
ATOM     53  C   UNL A   1      42.296  31.082  36.691  1.00  0.00     0.031 C 
ATOM     54  C   UNL A   1      37.682  34.146  34.213  1.00  0.00     0.029 A 
ATOM     55  C   UNL A   1      38.729  33.260  34.399  1.00  0.00     0.049 A 
ATOM     56  H   UNL A   1      39.432  31.739  33.117  1.00  0.00     0.167 HD
ATOM     57  C   UNL A   1      40.561  32.190  35.680  1.00  0.00     0.074 A 
ATOM     58  C   UNL A   1      41.441  32.086  36.827  1.00  0.00     0.031 C 
ATOM     59  C   UNL A   1      39.625  33.156  35.521  1.00  0.00     0.031 A 
BRANCH  46  60
ATOM     60  C   UNL A   1      36.480  32.807  30.219  1.00  0.00    -0.014 A 
ATOM     61  C   UNL A   1      36.728  33.828  29.289  1.00  0.00     0.009 A 
ATOM     62  C   UNL A   1      35.187  32.261  30.295  1.00  0.00     0.009 A 
ATOM     63  C   UNL A   1      35.698  34.306  28.473  1.00  0.00     0.001 A 
ATOM     64  C   UNL A   1      34.167  32.723  29.461  1.00  0.00     0.001 A 
ATOM     65  C   UNL A   1      34.421  33.751  28.556  1.00  0.00     0.000 A 
ENDBRANCH  46  60
BRANCH  47  66
ATOM     66  C   UNL A   1      43.782  28.767  35.688  1.00  0.00    -0.014 A 
ATOM     67  C   UNL A   1      45.076  29.294  35.580  1.00  0.00     0.009 A 
ATOM     68  C   UNL A   1      43.552  27.714  36.591  1.00  0.00     0.009 A 
ATOM     69  C   UNL A   1      46.113  28.780  36.363  1.00  0.00     0.001 A 
ATOM     70  C   UNL A   1      44.580  27.230  37.400  1.00  0.00     0.001 A 
ATOM     71  C   UNL A   1      45.862  27.760  37.282  1.00  0.00     0.000 A 
ENDBRANCH  47  66
BRANCH  59  72
ATOM     72  C   UNL A   1      39.508  34.167  36.623  1.00  0.00    -0.014 A 
ATOM     73  C   UNL A   1      40.127  35.422  36.515  1.00  0.00     0.009 A 
ATOM     74  C   UNL A   1      38.762  33.866  37.771  1.00  0.00     0.009 A 
ATOM     75  C   UNL A   1      40.024  36.348  37.554  1.00  0.00     0.001 A 
ATOM     76  C   UNL A   1      38.641  34.804  38.797  1.00  0.00     0.001 A 
ATOM     77  C   UNL A   1      39.279  36.040  38.692  1.00  0.00     0.000 A 
ENDBRANCH  59  72
ENDBRANCH  33  34
ENDBRANCH  26  28
ENDBRANCH  25  26
ENDBRANCH  24  25
ENDBRANCH   1  24
TORSDOF 14
ENDMDL
MODEL 3
REMARK VINA RESULT:     -10.6      3.715      6.873
REMARK SMILES Cc1cc(Cl)ccc1Oc1cc(C)c(N)c(C(=O)OCCOC(=O)c2ccc(-c3c4nc(c(-c5ccccc5)c5ccc([nH]5)c(-c5ccccc5)c5nc(c(-c6ccccc6)c6ccc3[nH]6)C=C5)C=C4)cc2)c1
REMARK SMILES IDX 20 1 19 2 17 3 18 4 16 5 10 6 11 7 73 8 12 9 13 10 14 11
REMARK SMILES IDX 9 12 8 13 1 14 2 15 3 16 4 17 7 18 5 19 6 20 15 21 21 24
REMARK SMILES IDX 22 25 23 26 24 27 25 28 26 29 72 30 27 31 71 32 28 33 29 34
REMARK SMILES IDX 30 35 65 36 31 37 70 38 64 39 66 40 32 41 69 42 63 43 62 44
REMARK SMILES IDX 33 46 55 47 40 48 54 49 41 50 44 51 53 52 67 53 42 54 43 55
REMARK SMILES IDX 52 57 68 58 45 59 34 60 35 61 39 62 36 63 38 64 37 65 56 66
REMARK SMILES IDX 57 67 61 68 58 69 60 70 59 71 46 72 47 73 51 74 48 75 50 76
REMARK SMILES IDX 49 77
REMARK H PARENT 15 22 15 23 66 45 44 56
REMARK Flexibility Score: inf
ROOT
ATOM      1  C   UNL A   1      31.794  27.775  26.605  1.00  0.00     0.275 C 
ENDROOT
BRANCH   1   2
ATOM      2  O   UNL A   1      32.440  27.312  25.398  1.00  0.00    -0.458 OA
BRANCH   2   3
ATOM      3  C   UNL A   1      32.064  26.080  24.966  1.00  0.00     0.340 C 
ATOM      4  O   UNL A   1      31.050  25.821  24.335  1.00  0.00    -0.246 OA
BRANCH   3   5
ATOM      5  C   UNL A   1      33.034  25.045  25.399  1.00  0.00     0.086 A 
ATOM      6  C   UNL A   1      35.276  24.198  25.443  1.00  0.00     0.128 A 
ATOM      7  C   UNL A   1      34.968  23.371  26.523  1.00  0.00     0.052 A 
ATOM      8  C   UNL A   1      34.351  25.115  24.951  1.00  0.00     0.065 A 
ATOM      9  C   UNL A   1      33.642  23.257  26.946  1.00  0.00    -0.024 A 
ATOM     10  C   UNL A   1      33.275  22.213  27.966  1.00  0.00     0.047 C 
ATOM     11  C   UNL A   1      32.656  24.039  26.314  1.00  0.00     0.049 A 
BRANCH   6  12
ATOM     12  O   UNL A   1      36.483  24.136  24.809  1.00  0.00    -0.457 OA
BRANCH  12  13
ATOM     13  C   UNL A   1      37.463  23.276  25.276  1.00  0.00     0.130 A 
ATOM     14  C   UNL A   1      38.719  24.780  26.998  1.00  0.00     0.048 C 
ATOM     15  C   UNL A   1      38.467  23.501  26.243  1.00  0.00    -0.007 A 
ATOM     16  C   UNL A   1      39.358  22.446  26.539  1.00  0.00     0.027 A 
ATOM     17  C   UNL A   1      39.216  21.191  25.954  1.00  0.00     0.041 A 
ATOM     18  C   UNL A   1      37.331  21.998  24.706  1.00  0.00     0.049 A 
ATOM     19  Cl  UNL A   1      40.300  19.925  26.375  1.00  0.00    -0.084 Cl
ATOM     20  C   UNL A   1      38.196  20.957  25.044  1.00  0.00     0.024 A 
ENDBRANCH  12  13
ENDBRANCH   6  12
BRANCH  11  21
ATOM     21  N   UNL A   1      31.326  23.634  26.416  1.00  0.00    -0.398 N 
ATOM     22  H   UNL A   1      30.834  23.356  25.611  1.00  0.00     0.156 HD
ATOM     23  H   UNL A   1      30.880  23.625  27.294  1.00  0.00     0.156 HD
ENDBRANCH  11  21
ENDBRANCH   3   5
ENDBRANCH   2   3
ENDBRANCH   1   2
BRANCH   1  24
ATOM     24  C   UNL A   1      31.595  29.290  26.579  1.00  0.00     0.275 C 
BRANCH  24  25
ATOM     25  O   UNL A   1      32.813  29.940  26.176  1.00  0.00    -0.458 OA
BRANCH  25  26
ATOM     26  C   UNL A   1      33.209  30.977  26.947  1.00  0.00     0.338 C 
ATOM     27  O   UNL A   1      32.550  31.941  27.298  1.00  0.00    -0.246 OA
BRANCH  26  28
ATOM     28  C   UNL A   1      34.591  30.767  27.410  1.00  0.00     0.060 A 
ATOM     29  C   UNL A   1      35.038  29.470  27.613  1.00  0.00     0.016 A 
ATOM     30  C   UNL A   1      35.365  31.840  27.852  1.00  0.00     0.016 A 
ATOM     31  C   UNL A   1      36.159  29.245  28.406  1.00  0.00     0.010 A 
ATOM     32  C   UNL A   1      36.588  31.604  28.499  1.00  0.00     0.010 A 
ATOM     33  C   UNL A   1      36.987  30.297  28.824  1.00  0.00    -0.014 A 
BRANCH  33  34
ATOM     34  C   UNL A   1      38.256  30.010  29.566  1.00  0.00     0.031 A 
ATOM     35  C   UNL A   1      39.374  29.209  28.940  1.00  0.00     0.074 A 
ATOM     36  C   UNL A   1      38.425  30.483  30.822  1.00  0.00     0.049 A 
ATOM     37  N   UNL A   1      40.420  28.666  29.513  1.00  0.00    -0.248 NA
ATOM     38  C   UNL A   1      39.308  28.978  27.487  1.00  0.00     0.031 C 
ATOM     39  C   UNL A   1      37.471  31.324  31.552  1.00  0.00     0.029 A 
ATOM     40  N   UNL A   1      39.467  30.338  31.706  1.00  0.00    -0.354 N 
ATOM     41  C   UNL A   1      41.092  27.970  28.513  1.00  0.00     0.074 A 
ATOM     42  C   UNL A   1      40.346  28.175  27.290  1.00  0.00     0.031 C 
ATOM     43  C   UNL A   1      38.003  31.688  32.724  1.00  0.00     0.029 A 
ATOM     44  C   UNL A   1      39.252  30.969  32.909  1.00  0.00     0.049 A 
ATOM     45  H   UNL A   1      40.286  29.833  31.500  1.00  0.00     0.167 HD
ATOM     46  C   UNL A   1      42.215  27.217  28.613  1.00  0.00     0.031 A 
ATOM     47  C   UNL A   1      39.917  30.915  34.078  1.00  0.00     0.031 A 
ATOM     48  C   UNL A   1      42.976  27.055  29.827  1.00  0.00     0.049 A 
ATOM     49  C   UNL A   1      41.100  30.005  34.192  1.00  0.00     0.074 A 
ATOM     50  C   UNL A   1      44.134  26.322  30.030  1.00  0.00     0.029 A 
ATOM     51  N   UNL A   1      42.661  27.644  31.042  1.00  0.00    -0.354 N 
ATOM     52  N   UNL A   1      41.669  29.279  33.263  1.00  0.00    -0.248 NA
ATOM     53  C   UNL A   1      41.701  29.872  35.525  1.00  0.00     0.031 C 
ATOM     54  C   UNL A   1      44.487  26.423  31.381  1.00  0.00     0.029 A 
ATOM     55  C   UNL A   1      43.581  27.263  32.006  1.00  0.00     0.049 A 
ATOM     56  H   UNL A   1      41.896  28.243  31.197  1.00  0.00     0.167 HD
ATOM     57  C   UNL A   1      42.690  28.591  33.899  1.00  0.00     0.074 A 
ATOM     58  C   UNL A   1      42.683  29.015  35.285  1.00  0.00     0.031 C 
ATOM     59  C   UNL A   1      43.547  27.678  33.384  1.00  0.00     0.031 A 
BRANCH  46  60
ATOM     60  C   UNL A   1      42.667  26.452  27.397  1.00  0.00    -0.014 A 
ATOM     61  C   UNL A   1      43.524  27.015  26.439  1.00  0.00     0.009 A 
ATOM     62  C   UNL A   1      42.274  25.111  27.247  1.00  0.00     0.009 A 
ATOM     63  C   UNL A   1      43.954  26.258  25.344  1.00  0.00     0.001 A 
ATOM     64  C   UNL A   1      42.726  24.351  26.167  1.00  0.00     0.001 A 
ATOM     65  C   UNL A   1      43.560  24.927  25.211  1.00  0.00     0.000 A 
ENDBRANCH  46  60
BRANCH  47  66
ATOM     66  C   UNL A   1      39.390  31.650  35.258  1.00  0.00    -0.014 A 
ATOM     67  C   UNL A   1      39.758  32.980  35.499  1.00  0.00     0.009 A 
ATOM     68  C   UNL A   1      38.470  31.033  36.124  1.00  0.00     0.009 A 
ATOM     69  C   UNL A   1      39.213  33.676  36.582  1.00  0.00     0.001 A 
ATOM     70  C   UNL A   1      37.898  31.742  37.180  1.00  0.00     0.001 A 
ATOM     71  C   UNL A   1      38.273  33.062  37.411  1.00  0.00     0.000 A 
ENDBRANCH  47  66
BRANCH  59  72
ATOM     72  C   UNL A   1      44.550  27.089  34.330  1.00  0.00    -0.014 A 
ATOM     73  C   UNL A   1      45.786  27.716  34.551  1.00  0.00     0.009 A 
ATOM     74  C   UNL A   1      44.251  25.904  35.017  1.00  0.00     0.009 A 
ATOM     75  C   UNL A   1      46.717  27.149  35.422  1.00  0.00     0.001 A 
ATOM     76  C   UNL A   1      45.174  25.353  35.906  1.00  0.00     0.001 A 
ATOM     77  C   UNL A   1      46.409  25.971  36.101  1.00  0.00     0.000 A 
ENDBRANCH  59  72
ENDBRANCH  33  34
ENDBRANCH  26  28
ENDBRANCH  25  26
ENDBRANCH  24  25
ENDBRANCH   1  24
TORSDOF 14
ENDMDL
