MODEL 1
REMARK VINA RESULT:     -12.2      0.000      0.000
REMARK SMILES C[C@H](C(=O)OCCOC(=O)c1ccc(-c2c3nc(c(-c4ccccc4)c4ccc([nH]4)c(-c4ccccc4)c4nc(c(-c5ccccc5)c5ccc2[nH]5)C=C4)C=C3)cc1)N1C(=O)C[C@@H](N2C(=O)/C(=C/c3ccccc3)SC2=S)C1=O
REMARK SMILES IDX 6 1 5 2 3 3 4 4 2 5 1 6 59 7 60 8 78 9 61 10 62 11 63 12
REMARK SMILES IDX 79 13 64 14 65 15 76 16 66 17 67 18 75 19 77 20 68 21 69 22
REMARK SMILES IDX 70 23 74 24 71 25 73 26 72 27 7 28 8 29 9 30 10 31 11 32
REMARK SMILES IDX 12 33 58 34 13 35 57 36 14 37 15 38 16 39 51 40 17 41 56 42
REMARK SMILES IDX 50 43 52 44 18 45 55 46 49 47 48 48 19 50 41 51 26 52 40 53
REMARK SMILES IDX 27 54 30 55 39 56 53 57 28 58 29 59 38 61 54 62 31 63 20 64
REMARK SMILES IDX 21 65 25 66 22 67 24 68 23 69 42 70 43 71 47 72 44 73 46 74
REMARK SMILES IDX 45 75 32 76 33 77 37 78 34 79 36 80 35 81
REMARK H PARENT 52 49 30 60
REMARK Flexibility Score: inf
ROOT
ATOM      1  C   UNL A   1      31.506  29.289  23.697  1.00  0.00     0.274 C 
ENDROOT
BRANCH   1   2
ATOM      2  O   UNL A   1      32.888  28.960  23.470  1.00  0.00    -0.461 OA
BRANCH   2   3
ATOM      3  C   UNL A   1      33.136  27.868  22.697  1.00  0.00     0.329 C 
ATOM      4  O   UNL A   1      34.009  27.794  21.839  1.00  0.00    -0.250 OA
BRANCH   3   5
ATOM      5  C   UNL A   1      32.204  26.703  23.045  1.00  0.00     0.200 C 
ATOM      6  C   UNL A   1      31.735  25.856  21.869  1.00  0.00     0.044 C 
BRANCH   5   7
ATOM      7  N   UNL A   1      32.736  25.913  24.138  1.00  0.00    -0.267 N 
ATOM      8  C   UNL A   1      32.365  26.046  25.443  1.00  0.00     0.232 C 
ATOM      9  C   UNL A   1      33.827  25.108  23.990  1.00  0.00     0.253 C 
ATOM     10  O   UNL A   1      31.584  26.869  25.895  1.00  0.00    -0.274 OA
ATOM     11  C   UNL A   1      33.071  25.012  26.269  1.00  0.00     0.136 C 
ATOM     12  C   UNL A   1      34.178  24.528  25.344  1.00  0.00     0.191 C 
ATOM     13  O   UNL A   1      34.452  24.906  22.958  1.00  0.00    -0.272 OA
BRANCH  12  14
ATOM     14  N   UNL A   1      34.336  23.080  25.212  1.00  0.00    -0.280 N 
ATOM     15  C   UNL A   1      33.215  22.309  24.949  1.00  0.00     0.266 C 
ATOM     16  C   UNL A   1      35.541  22.410  25.258  1.00  0.00     0.149 C 
ATOM     17  O   UNL A   1      32.074  22.736  24.839  1.00  0.00    -0.268 OA
ATOM     18  C   UNL A   1      33.581  20.880  24.822  1.00  0.00     0.081 C 
ATOM     19  S   UNL A   1      35.277  20.690  25.008  1.00  0.00    -0.054 SA
ATOM     20  S   UNL A   1      37.057  23.039  25.548  1.00  0.00    -0.052 S 
ATOM     21  C   UNL A   1      32.653  19.937  24.616  1.00  0.00     0.029 C 
BRANCH  21  22
ATOM     22  C   UNL A   1      32.903  18.494  24.599  1.00  0.00    -0.024 A 
ATOM     23  C   UNL A   1      32.532  17.698  25.686  1.00  0.00     0.008 A 
ATOM     24  C   UNL A   1      33.557  17.909  23.507  1.00  0.00     0.008 A 
ATOM     25  C   UNL A   1      32.796  16.327  25.669  1.00  0.00     0.001 A 
ATOM     26  C   UNL A   1      33.816  16.539  23.491  1.00  0.00     0.001 A 
ATOM     27  C   UNL A   1      33.434  15.749  24.572  1.00  0.00     0.000 A 
ENDBRANCH  21  22
ENDBRANCH  12  14
ENDBRANCH   5   7
ENDBRANCH   3   5
ENDBRANCH   2   3
ENDBRANCH   1   2
BRANCH   1  28
ATOM     28  C   UNL A   1      31.400  30.050  25.015  1.00  0.00     0.275 C 
BRANCH  28  29
ATOM     29  O   UNL A   1      32.669  29.972  25.695  1.00  0.00    -0.458 OA
BRANCH  29  30
ATOM     30  C   UNL A   1      32.906  30.938  26.613  1.00  0.00     0.338 C 
ATOM     31  O   UNL A   1      32.168  31.857  26.925  1.00  0.00    -0.246 OA
BRANCH  30  32
ATOM     32  C   UNL A   1      34.214  30.712  27.265  1.00  0.00     0.060 A 
ATOM     33  C   UNL A   1      34.631  29.428  27.622  1.00  0.00     0.016 A 
ATOM     34  C   UNL A   1      34.984  31.815  27.631  1.00  0.00     0.016 A 
ATOM     35  C   UNL A   1      35.764  29.254  28.419  1.00  0.00     0.010 A 
ATOM     36  C   UNL A   1      36.184  31.627  28.324  1.00  0.00     0.010 A 
ATOM     37  C   UNL A   1      36.579  30.345  28.750  1.00  0.00    -0.014 A 
BRANCH  37  38
ATOM     38  C   UNL A   1      37.849  30.172  29.512  1.00  0.00     0.031 A 
ATOM     39  C   UNL A   1      38.986  29.371  28.930  1.00  0.00     0.074 A 
ATOM     40  C   UNL A   1      37.973  30.678  30.757  1.00  0.00     0.049 A 
ATOM     41  N   UNL A   1      40.043  28.878  29.526  1.00  0.00    -0.248 NA
ATOM     42  C   UNL A   1      38.911  29.064  27.493  1.00  0.00     0.031 C 
ATOM     43  C   UNL A   1      36.985  31.511  31.446  1.00  0.00     0.029 A 
ATOM     44  N   UNL A   1      38.988  30.548  31.674  1.00  0.00    -0.354 N 
ATOM     45  C   UNL A   1      40.721  28.149  28.556  1.00  0.00     0.074 A 
ATOM     46  C   UNL A   1      39.957  28.266  27.332  1.00  0.00     0.031 C 
ATOM     47  C   UNL A   1      37.451  31.840  32.659  1.00  0.00     0.029 A 
ATOM     48  C   UNL A   1      38.723  31.161  32.876  1.00  0.00     0.049 A 
ATOM     49  H   UNL A   1      39.825  30.064  31.489  1.00  0.00     0.167 HD
ATOM     50  C   UNL A   1      41.870  27.439  28.678  1.00  0.00     0.031 A 
ATOM     51  C   UNL A   1      39.389  31.140  34.044  1.00  0.00     0.031 A 
ATOM     52  C   UNL A   1      42.654  27.360  29.883  1.00  0.00     0.049 A 
ATOM     53  C   UNL A   1      40.634  30.313  34.168  1.00  0.00     0.074 A 
ATOM     54  C   UNL A   1      43.848  26.691  30.093  1.00  0.00     0.029 A 
ATOM     55  N   UNL A   1      42.331  27.984  31.078  1.00  0.00    -0.354 N 
ATOM     56  N   UNL A   1      41.237  29.587  33.259  1.00  0.00    -0.248 NA
ATOM     57  C   UNL A   1      41.282  30.290  35.488  1.00  0.00     0.031 C 
ATOM     58  C   UNL A   1      44.225  26.874  31.427  1.00  0.00     0.029 A 
ATOM     59  C   UNL A   1      43.293  27.701  32.033  1.00  0.00     0.049 A 
ATOM     60  H   UNL A   1      41.536  28.546  31.225  1.00  0.00     0.167 HD
ATOM     61  C   UNL A   1      42.342  29.033  33.890  1.00  0.00     0.074 A 
ATOM     62  C   UNL A   1      42.337  29.522  35.254  1.00  0.00     0.031 C 
ATOM     63  C   UNL A   1      43.276  28.193  33.385  1.00  0.00     0.031 A 
BRANCH  50  64
ATOM     64  C   UNL A   1      42.331  26.649  27.484  1.00  0.00    -0.014 A 
ATOM     65  C   UNL A   1      41.899  25.333  27.257  1.00  0.00     0.009 A 
ATOM     66  C   UNL A   1      43.180  27.256  26.543  1.00  0.00     0.009 A 
ATOM     67  C   UNL A   1      42.334  24.632  26.129  1.00  0.00     0.001 A 
ATOM     68  C   UNL A   1      43.590  26.563  25.404  1.00  0.00     0.001 A 
ATOM     69  C   UNL A   1      43.174  25.249  25.202  1.00  0.00     0.000 A 
ENDBRANCH  50  64
BRANCH  51  70
ATOM     70  C   UNL A   1      38.855  31.887  35.213  1.00  0.00    -0.014 A 
ATOM     71  C   UNL A   1      38.154  31.216  36.224  1.00  0.00     0.009 A 
ATOM     72  C   UNL A   1      39.055  33.272  35.327  1.00  0.00     0.009 A 
ATOM     73  C   UNL A   1      37.649  31.920  37.321  1.00  0.00     0.001 A 
ATOM     74  C   UNL A   1      38.577  33.968  36.438  1.00  0.00     0.001 A 
ATOM     75  C   UNL A   1      37.868  33.293  37.430  1.00  0.00     0.000 A 
ENDBRANCH  51  70
BRANCH  63  76
ATOM     76  C   UNL A   1      44.392  27.784  34.303  1.00  0.00    -0.014 A 
ATOM     77  C   UNL A   1      45.563  28.549  34.411  1.00  0.00     0.009 A 
ATOM     78  C   UNL A   1      44.257  26.627  35.085  1.00  0.00     0.009 A 
ATOM     79  C   UNL A   1      46.593  28.143  35.262  1.00  0.00     0.001 A 
ATOM     80  C   UNL A   1      45.277  26.238  35.954  1.00  0.00     0.001 A 
ATOM     81  C   UNL A   1      46.448  26.991  36.035  1.00  0.00     0.000 A 
ENDBRANCH  63  76
ENDBRANCH  37  38
ENDBRANCH  30  32
ENDBRANCH  29  30
ENDBRANCH  28  29
ENDBRANCH   1  28
TORSDOF 14
ENDMDL
MODEL 2
REMARK VINA RESULT:     -12.0      3.880      9.388
REMARK SMILES C[C@H](C(=O)OCCOC(=O)c1ccc(-c2c3nc(c(-c4ccccc4)c4ccc([nH]4)c(-c4ccccc4)c4nc(c(-c5ccccc5)c5ccc2[nH]5)C=C4)C=C3)cc1)N1C(=O)C[C@@H](N2C(=O)/C(=C/c3ccccc3)SC2=S)C1=O
REMARK SMILES IDX 6 1 5 2 3 3 4 4 2 5 1 6 59 7 60 8 78 9 61 10 62 11 63 12
REMARK SMILES IDX 79 13 64 14 65 15 76 16 66 17 67 18 75 19 77 20 68 21 69 22
REMARK SMILES IDX 70 23 74 24 71 25 73 26 72 27 7 28 8 29 9 30 10 31 11 32
REMARK SMILES IDX 12 33 58 34 13 35 57 36 14 37 15 38 16 39 51 40 17 41 56 42
REMARK SMILES IDX 50 43 52 44 18 45 55 46 49 47 48 48 19 50 41 51 26 52 40 53
REMARK SMILES IDX 27 54 30 55 39 56 53 57 28 58 29 59 38 61 54 62 31 63 20 64
REMARK SMILES IDX 21 65 25 66 22 67 24 68 23 69 42 70 43 71 47 72 44 73 46 74
REMARK SMILES IDX 45 75 32 76 33 77 37 78 34 79 36 80 35 81
REMARK H PARENT 52 49 30 60
REMARK Flexibility Score: inf
ROOT
ATOM      1  C   UNL A   1      34.920  20.896  25.509  1.00  0.00     0.274 C 
ENDROOT
BRANCH   1   2
ATOM      2  O   UNL A   1      33.876  20.423  24.639  1.00  0.00    -0.461 OA
BRANCH   2   3
ATOM      3  C   UNL A   1      33.154  21.370  23.981  1.00  0.00     0.329 C 
ATOM      4  O   UNL A   1      32.198  21.146  23.248  1.00  0.00    -0.250 OA
BRANCH   3   5
ATOM      5  C   UNL A   1      33.660  22.784  24.287  1.00  0.00     0.200 C 
ATOM      6  C   UNL A   1      34.469  23.451  23.183  1.00  0.00     0.044 C 
BRANCH   5   7
ATOM      7  N   UNL A   1      32.594  23.624  24.798  1.00  0.00    -0.267 N 
ATOM      8  C   UNL A   1      32.229  23.702  26.109  1.00  0.00     0.232 C 
ATOM      9  C   UNL A   1      31.706  24.252  23.975  1.00  0.00     0.253 C 
ATOM     10  O   UNL A   1      32.694  23.051  27.032  1.00  0.00    -0.274 OA
ATOM     11  C   UNL A   1      31.143  24.726  26.263  1.00  0.00     0.136 C 
ATOM     12  C   UNL A   1      30.666  24.941  24.834  1.00  0.00     0.191 C 
ATOM     13  O   UNL A   1      31.708  24.242  22.752  1.00  0.00    -0.272 OA
BRANCH  12  14
ATOM     14  N   UNL A   1      30.530  26.329  24.390  1.00  0.00    -0.280 N 
ATOM     15  C   UNL A   1      29.297  26.764  23.934  1.00  0.00     0.266 C 
ATOM     16  C   UNL A   1      31.528  27.279  24.455  1.00  0.00     0.149 C 
ATOM     17  O   UNL A   1      28.292  26.070  23.843  1.00  0.00    -0.268 OA
ATOM     18  C   UNL A   1      29.352  28.195  23.560  1.00  0.00     0.081 C 
ATOM     19  S   UNL A   1      30.922  28.820  23.863  1.00  0.00    -0.054 SA
ATOM     20  S   UNL A   1      33.106  27.083  24.954  1.00  0.00    -0.052 S 
ATOM     21  C   UNL A   1      28.288  28.824  23.045  1.00  0.00     0.029 C 
BRANCH  21  22
ATOM     22  C   UNL A   1      28.283  30.197  22.535  1.00  0.00    -0.024 A 
ATOM     23  C   UNL A   1      28.369  31.280  23.414  1.00  0.00     0.008 A 
ATOM     24  C   UNL A   1      28.147  30.433  21.161  1.00  0.00     0.008 A 
ATOM     25  C   UNL A   1      28.340  32.585  22.918  1.00  0.00     0.001 A 
ATOM     26  C   UNL A   1      28.122  31.737  20.668  1.00  0.00     0.001 A 
ATOM     27  C   UNL A   1      28.219  32.812  21.547  1.00  0.00     0.000 A 
ENDBRANCH  21  22
ENDBRANCH  12  14
ENDBRANCH   5   7
ENDBRANCH   3   5
ENDBRANCH   2   3
ENDBRANCH   1   2
BRANCH   1  28
ATOM     28  C   UNL A   1      36.258  20.392  24.978  1.00  0.00     0.275 C 
BRANCH  28  29
ATOM     29  O   UNL A   1      37.227  21.455  25.084  1.00  0.00    -0.458 OA
BRANCH  29  30
ATOM     30  C   UNL A   1      38.430  21.107  25.597  1.00  0.00     0.338 C 
ATOM     31  O   UNL A   1      38.942  20.001  25.593  1.00  0.00    -0.246 OA
BRANCH  30  32
ATOM     32  C   UNL A   1      39.112  22.297  26.150  1.00  0.00     0.060 A 
ATOM     33  C   UNL A   1      38.547  23.569  26.041  1.00  0.00     0.016 A 
ATOM     34  C   UNL A   1      40.393  22.153  26.682  1.00  0.00     0.016 A 
ATOM     35  C   UNL A   1      39.293  24.700  26.378  1.00  0.00     0.010 A 
ATOM     36  C   UNL A   1      41.089  23.279  27.133  1.00  0.00     0.010 A 
ATOM     37  C   UNL A   1      40.559  24.572  26.965  1.00  0.00    -0.014 A 
BRANCH  37  38
ATOM     38  C   UNL A   1      41.333  25.759  27.428  1.00  0.00     0.031 A 
ATOM     39  C   UNL A   1      40.717  26.743  28.390  1.00  0.00     0.074 A 
ATOM     40  C   UNL A   1      42.568  26.001  26.943  1.00  0.00     0.049 A 
ATOM     41  N   UNL A   1      41.105  27.957  28.696  1.00  0.00    -0.248 NA
ATOM     42  C   UNL A   1      39.492  26.313  29.083  1.00  0.00     0.031 C 
ATOM     43  C   UNL A   1      43.321  25.128  26.040  1.00  0.00     0.029 A 
ATOM     44  N   UNL A   1      43.408  27.073  27.136  1.00  0.00    -0.354 N 
ATOM     45  C   UNL A   1      40.137  28.458  29.560  1.00  0.00     0.074 A 
ATOM     46  C   UNL A   1      39.147  27.416  29.733  1.00  0.00     0.031 C 
ATOM     47  C   UNL A   1      44.515  25.682  25.781  1.00  0.00     0.029 A 
ATOM     48  C   UNL A   1      44.574  26.992  26.415  1.00  0.00     0.049 A 
ATOM     49  H   UNL A   1      43.193  27.826  27.734  1.00  0.00     0.167 HD
ATOM     50  C   UNL A   1      40.076  29.679  30.147  1.00  0.00     0.031 A 
ATOM     51  C   UNL A   1      45.561  27.887  26.229  1.00  0.00     0.031 A 
ATOM     52  C   UNL A   1      41.083  30.698  30.012  1.00  0.00     0.049 A 
ATOM     53  C   UNL A   1      45.451  29.247  26.854  1.00  0.00     0.074 A 
ATOM     54  C   UNL A   1      41.123  31.954  30.593  1.00  0.00     0.029 A 
ATOM     55  N   UNL A   1      42.238  30.573  29.254  1.00  0.00    -0.354 N 
ATOM     56  N   UNL A   1      44.508  29.727  27.626  1.00  0.00    -0.248 NA
ATOM     57  C   UNL A   1      46.537  30.195  26.565  1.00  0.00     0.031 C 
ATOM     58  C   UNL A   1      42.280  32.606  30.154  1.00  0.00     0.029 A 
ATOM     59  C   UNL A   1      42.986  31.735  29.339  1.00  0.00     0.049 A 
ATOM     60  H   UNL A   1      42.488  29.776  28.732  1.00  0.00     0.167 HD
ATOM     61  C   UNL A   1      44.892  31.025  27.928  1.00  0.00     0.074 A 
ATOM     62  C   UNL A   1      46.164  31.252  27.272  1.00  0.00     0.031 C 
ATOM     63  C   UNL A   1      44.249  31.948  28.682  1.00  0.00     0.031 A 
BRANCH  50  64
ATOM     64  C   UNL A   1      38.852  30.001  30.960  1.00  0.00    -0.014 A 
ATOM     65  C   UNL A   1      38.837  29.869  32.356  1.00  0.00     0.009 A 
ATOM     66  C   UNL A   1      37.706  30.493  30.313  1.00  0.00     0.009 A 
ATOM     67  C   UNL A   1      37.688  30.192  33.084  1.00  0.00     0.001 A 
ATOM     68  C   UNL A   1      36.571  30.841  31.044  1.00  0.00     0.001 A 
ATOM     69  C   UNL A   1      36.559  30.683  32.428  1.00  0.00     0.000 A 
ENDBRANCH  50  64
BRANCH  51  70
ATOM     70  C   UNL A   1      46.719  27.542  25.363  1.00  0.00    -0.014 A 
ATOM     71  C   UNL A   1      46.737  27.926  24.015  1.00  0.00     0.009 A 
ATOM     72  C   UNL A   1      47.816  26.836  25.885  1.00  0.00     0.009 A 
ATOM     73  C   UNL A   1      47.824  27.597  23.202  1.00  0.00     0.001 A 
ATOM     74  C   UNL A   1      48.913  26.536  25.078  1.00  0.00     0.001 A 
ATOM     75  C   UNL A   1      48.914  26.910  23.735  1.00  0.00     0.000 A 
ENDBRANCH  51  70
BRANCH  63  76
ATOM     76  C   UNL A   1      44.931  33.272  28.868  1.00  0.00    -0.014 A 
ATOM     77  C   UNL A   1      45.858  33.475  29.902  1.00  0.00     0.009 A 
ATOM     78  C   UNL A   1      44.656  34.325  27.981  1.00  0.00     0.009 A 
ATOM     79  C   UNL A   1      46.472  34.718  30.063  1.00  0.00     0.001 A 
ATOM     80  C   UNL A   1      45.290  35.559  28.129  1.00  0.00     0.001 A 
ATOM     81  C   UNL A   1      46.191  35.757  29.176  1.00  0.00     0.000 A 
ENDBRANCH  63  76
ENDBRANCH  37  38
ENDBRANCH  30  32
ENDBRANCH  29  30
ENDBRANCH  28  29
ENDBRANCH   1  28
TORSDOF 14
ENDMDL
MODEL 3
REMARK VINA RESULT:     -12.0      3.417      6.446
REMARK SMILES C[C@H](C(=O)OCCOC(=O)c1ccc(-c2c3nc(c(-c4ccccc4)c4ccc([nH]4)c(-c4ccccc4)c4nc(c(-c5ccccc5)c5ccc2[nH]5)C=C4)C=C3)cc1)N1C(=O)C[C@@H](N2C(=O)/C(=C/c3ccccc3)SC2=S)C1=O
REMARK SMILES IDX 6 1 5 2 3 3 4 4 2 5 1 6 59 7 60 8 78 9 61 10 62 11 63 12
REMARK SMILES IDX 79 13 64 14 65 15 76 16 66 17 67 18 75 19 77 20 68 21 69 22
REMARK SMILES IDX 70 23 74 24 71 25 73 26 72 27 7 28 8 29 9 30 10 31 11 32
REMARK SMILES IDX 12 33 58 34 13 35 57 36 14 37 15 38 16 39 51 40 17 41 56 42
REMARK SMILES IDX 50 43 52 44 18 45 55 46 49 47 48 48 19 50 41 51 26 52 40 53
REMARK SMILES IDX 27 54 30 55 39 56 53 57 28 58 29 59 38 61 54 62 31 63 20 64
REMARK SMILES IDX 21 65 25 66 22 67 24 68 23 69 42 70 43 71 47 72 44 73 46 74
REMARK SMILES IDX 45 75 32 76 33 77 37 78 34 79 36 80 35 81
REMARK H PARENT 52 49 30 60
REMARK Flexibility Score: inf
ROOT
ATOM      1  C   UNL A   1      31.979  29.731  25.757  1.00  0.00     0.274 C 
ENDROOT
BRANCH   1   2
ATOM      2  O   UNL A   1      32.988  28.869  25.202  1.00  0.00    -0.461 OA
BRANCH   2   3
ATOM      3  C   UNL A   1      32.756  28.385  23.951  1.00  0.00     0.329 C 
ATOM      4  O   UNL A   1      33.261  28.820  22.922  1.00  0.00    -0.250 OA
BRANCH   3   5
ATOM      5  C   UNL A   1      31.796  27.191  23.972  1.00  0.00     0.200 C 
ATOM      6  C   UNL A   1      31.488  26.565  22.619  1.00  0.00     0.044 C 
BRANCH   5   7
ATOM      7  N   UNL A   1      32.191  26.218  24.972  1.00  0.00    -0.267 N 
ATOM      8  C   UNL A   1      31.575  26.050  26.176  1.00  0.00     0.232 C 
ATOM      9  C   UNL A   1      33.363  25.526  24.890  1.00  0.00     0.253 C 
ATOM     10  O   UNL A   1      30.648  26.714  26.616  1.00  0.00    -0.274 OA
ATOM     11  C   UNL A   1      32.213  24.905  26.906  1.00  0.00     0.136 C 
ATOM     12  C   UNL A   1      33.513  24.692  26.145  1.00  0.00     0.191 C 
ATOM     13  O   UNL A   1      34.184  25.583  23.984  1.00  0.00    -0.272 OA
BRANCH  12  14
ATOM     14  N   UNL A   1      33.832  23.316  25.764  1.00  0.00    -0.280 N 
ATOM     15  C   UNL A   1      32.795  22.462  25.425  1.00  0.00     0.266 C 
ATOM     16  C   UNL A   1      35.108  22.807  25.642  1.00  0.00     0.149 C 
ATOM     17  O   UNL A   1      31.606  22.753  25.439  1.00  0.00    -0.268 OA
ATOM     18  C   UNL A   1      33.317  21.130  25.044  1.00  0.00     0.081 C 
ATOM     19  S   UNL A   1      35.032  21.130  25.119  1.00  0.00    -0.054 SA
ATOM     20  S   UNL A   1      36.555  23.567  25.966  1.00  0.00    -0.052 S 
ATOM     21  C   UNL A   1      32.495  20.123  24.723  1.00  0.00     0.029 C 
BRANCH  21  22
ATOM     22  C   UNL A   1      32.911  18.746  24.452  1.00  0.00    -0.024 A 
ATOM     23  C   UNL A   1      33.177  18.330  23.144  1.00  0.00     0.008 A 
ATOM     24  C   UNL A   1      33.004  17.823  25.501  1.00  0.00     0.008 A 
ATOM     25  C   UNL A   1      33.551  17.007  22.895  1.00  0.00     0.001 A 
ATOM     26  C   UNL A   1      33.382  16.504  25.250  1.00  0.00     0.001 A 
ATOM     27  C   UNL A   1      33.656  16.097  23.947  1.00  0.00     0.000 A 
ENDBRANCH  21  22
ENDBRANCH  12  14
ENDBRANCH   5   7
ENDBRANCH   3   5
ENDBRANCH   2   3
ENDBRANCH   1   2
BRANCH   1  28
ATOM     28  C   UNL A   1      32.616  30.574  26.857  1.00  0.00     0.275 C 
BRANCH  28  29
ATOM     29  O   UNL A   1      33.910  30.022  27.171  1.00  0.00    -0.458 OA
BRANCH  29  30
ATOM     30  C   UNL A   1      34.636  30.704  28.087  1.00  0.00     0.338 C 
ATOM     31  O   UNL A   1      34.285  31.678  28.730  1.00  0.00    -0.246 OA
BRANCH  30  32
ATOM     32  C   UNL A   1      35.959  30.068  28.266  1.00  0.00     0.060 A 
ATOM     33  C   UNL A   1      36.339  29.522  29.494  1.00  0.00     0.016 A 
ATOM     34  C   UNL A   1      36.880  30.122  27.221  1.00  0.00     0.016 A 
ATOM     35  C   UNL A   1      37.657  29.116  29.706  1.00  0.00     0.010 A 
ATOM     36  C   UNL A   1      38.165  29.601  27.399  1.00  0.00     0.010 A 
ATOM     37  C   UNL A   1      38.581  29.113  28.652  1.00  0.00    -0.014 A 
BRANCH  37  38
ATOM     38  C   UNL A   1      39.966  28.588  28.824  1.00  0.00     0.031 A 
ATOM     39  C   UNL A   1      41.087  29.512  29.230  1.00  0.00     0.074 A 
ATOM     40  C   UNL A   1      40.245  27.296  28.558  1.00  0.00     0.049 A 
ATOM     41  N   UNL A   1      42.381  29.321  29.168  1.00  0.00    -0.248 NA
ATOM     42  C   UNL A   1      40.700  30.831  29.755  1.00  0.00     0.031 C 
ATOM     43  C   UNL A   1      39.270  26.265  28.196  1.00  0.00     0.029 A 
ATOM     44  N   UNL A   1      41.447  26.629  28.538  1.00  0.00    -0.354 N 
ATOM     45  C   UNL A   1      42.962  30.516  29.579  1.00  0.00     0.074 A 
ATOM     46  C   UNL A   1      41.878  31.424  29.891  1.00  0.00     0.031 C 
ATOM     47  C   UNL A   1      39.904  25.097  28.018  1.00  0.00     0.029 A 
ATOM     48  C   UNL A   1      41.339  25.314  28.153  1.00  0.00     0.049 A 
ATOM     49  H   UNL A   1      42.304  27.053  28.776  1.00  0.00     0.167 HD
ATOM     50  C   UNL A   1      44.276  30.830  29.677  1.00  0.00     0.031 A 
ATOM     51  C   UNL A   1      42.280  24.394  27.879  1.00  0.00     0.031 A 
ATOM     52  C   UNL A   1      45.354  29.913  29.412  1.00  0.00     0.049 A 
ATOM     53  C   UNL A   1      43.729  24.776  27.953  1.00  0.00     0.074 A 
ATOM     54  C   UNL A   1      46.718  30.131  29.513  1.00  0.00     0.029 A 
ATOM     55  N   UNL A   1      45.190  28.597  29.006  1.00  0.00    -0.354 N 
ATOM     56  N   UNL A   1      44.264  25.923  28.292  1.00  0.00    -0.248 NA
ATOM     57  C   UNL A   1      44.704  23.738  27.588  1.00  0.00     0.031 C 
ATOM     58  C   UNL A   1      47.380  28.961  29.129  1.00  0.00     0.029 A 
ATOM     59  C   UNL A   1      46.427  27.998  28.837  1.00  0.00     0.049 A 
ATOM     60  H   UNL A   1      44.323  28.155  28.860  1.00  0.00     0.167 HD
ATOM     61  C   UNL A   1      45.636  25.741  28.197  1.00  0.00     0.074 A 
ATOM     62  C   UNL A   1      45.853  24.369  27.788  1.00  0.00     0.031 C 
ATOM     63  C   UNL A   1      46.629  26.633  28.428  1.00  0.00     0.031 A 
BRANCH  50  64
ATOM     64  C   UNL A   1      44.630  32.244  30.049  1.00  0.00    -0.014 A 
ATOM     65  C   UNL A   1      44.854  32.623  31.381  1.00  0.00     0.009 A 
ATOM     66  C   UNL A   1      44.788  33.203  29.035  1.00  0.00     0.009 A 
ATOM     67  C   UNL A   1      45.197  33.942  31.692  1.00  0.00     0.001 A 
ATOM     68  C   UNL A   1      45.158  34.512  29.346  1.00  0.00     0.001 A 
ATOM     69  C   UNL A   1      45.354  34.883  30.674  1.00  0.00     0.000 A 
ENDBRANCH  50  64
BRANCH  51  70
ATOM     70  C   UNL A   1      41.877  23.027  27.453  1.00  0.00    -0.014 A 
ATOM     71  C   UNL A   1      41.841  22.690  26.093  1.00  0.00     0.009 A 
ATOM     72  C   UNL A   1      41.538  22.053  28.405  1.00  0.00     0.009 A 
ATOM     73  C   UNL A   1      41.458  21.407  25.693  1.00  0.00     0.001 A 
ATOM     74  C   UNL A   1      41.185  20.764  28.005  1.00  0.00     0.001 A 
ATOM     75  C   UNL A   1      41.138  20.444  26.650  1.00  0.00     0.000 A 
ENDBRANCH  51  70
BRANCH  63  76
ATOM     76  C   UNL A   1      48.038  26.138  28.281  1.00  0.00    -0.014 A 
ATOM     77  C   UNL A   1      48.752  25.636  29.380  1.00  0.00     0.009 A 
ATOM     78  C   UNL A   1      48.651  26.155  27.019  1.00  0.00     0.009 A 
ATOM     79  C   UNL A   1      50.066  25.191  29.222  1.00  0.00     0.001 A 
ATOM     80  C   UNL A   1      49.955  25.685  26.859  1.00  0.00     0.001 A 
ATOM     81  C   UNL A   1      50.665  25.212  27.962  1.00  0.00     0.000 A 
ENDBRANCH  63  76
ENDBRANCH  37  38
ENDBRANCH  30  32
ENDBRANCH  29  30
ENDBRANCH  28  29
ENDBRANCH   1  28
TORSDOF 14
ENDMDL
