MODEL 1
REMARK VINA RESULT:     -10.4      0.000      0.000
REMARK SMILES C[C@H]1CCCN(C(=O)c2cn(C)nc2C(=O)OCCOC(=O)c2ccc(-c3c4nc(c(-c5ccccc5)c5ccc([nH]5)c(-c5ccccc5)c5nc(c(-c6ccccc6)c6ccc3[nH]6)C=C5)C=C4)cc2)C1
REMARK SMILES IDX 18 1 17 2 15 3 16 4 14 5 9 6 10 7 11 8 13 9 12 10 7 11 8 12
REMARK SMILES IDX 6 13 1 14 2 15 3 16 71 17 4 18 5 19 19 20 20 21 21 22 22 23
REMARK SMILES IDX 23 24 24 25 70 26 25 27 69 28 26 29 27 30 28 31 63 32 29 33
REMARK SMILES IDX 68 34 62 35 64 36 30 37 67 38 61 39 60 40 31 42 53 43 38 44
REMARK SMILES IDX 52 45 39 46 42 47 51 48 65 49 40 50 41 51 50 53 66 54 43 55
REMARK SMILES IDX 32 56 33 57 37 58 34 59 36 60 35 61 54 62 55 63 59 64 56 65
REMARK SMILES IDX 58 66 57 67 44 68 45 69 49 70 46 71 48 72 47 73
REMARK H PARENT 64 41 42 52
REMARK Flexibility Score: inf
ROOT
ATOM      1  C   UNL A   1      37.792  20.486  24.918  1.00  0.00     0.275 C 
ENDROOT
BRANCH   1   2
ATOM      2  O   UNL A   1      36.639  21.144  25.469  1.00  0.00    -0.457 OA
BRANCH   2   3
ATOM      3  C   UNL A   1      35.729  21.639  24.572  1.00  0.00     0.359 C 
ATOM      4  O   UNL A   1      36.005  22.458  23.709  1.00  0.00    -0.244 OA
BRANCH   3   5
ATOM      5  C   UNL A   1      34.415  20.974  24.681  1.00  0.00     0.183 A 
ATOM      6  C   UNL A   1      33.114  21.563  24.667  1.00  0.00     0.092 A 
ATOM      7  C   UNL A   1      32.248  20.505  24.881  1.00  0.00     0.123 A 
ATOM      8  N   UNL A   1      33.028  19.407  25.066  1.00  0.00    -0.274 N 
ATOM      9  N   UNL A   1      34.332  19.641  24.881  1.00  0.00    -0.165 NA
ATOM     10  C   UNL A   1      32.602  18.093  25.485  1.00  0.00     0.173 C 
BRANCH   6  11
ATOM     11  C   UNL A   1      32.787  22.946  24.368  1.00  0.00     0.257 C 
ATOM     12  O   UNL A   1      32.658  23.291  23.195  1.00  0.00    -0.269 OA
BRANCH  11  13
ATOM     13  N   UNL A   1      32.593  23.839  25.422  1.00  0.00    -0.338 N 
ATOM     14  C   UNL A   1      33.780  26.466  24.362  1.00  0.00     0.009 C 
ATOM     15  C   UNL A   1      33.600  26.049  25.824  1.00  0.00     0.005 C 
ATOM     16  C   UNL A   1      32.245  26.520  26.387  1.00  0.00     0.007 C 
ATOM     17  C   UNL A   1      33.750  24.528  25.984  1.00  0.00     0.123 C 
ATOM     18  C   UNL A   1      31.061  25.689  25.877  1.00  0.00     0.022 C 
ATOM     19  C   UNL A   1      31.323  24.194  26.051  1.00  0.00     0.120 C 
ENDBRANCH  11  13
ENDBRANCH   6  11
ENDBRANCH   3   5
ENDBRANCH   2   3
ENDBRANCH   1   2
BRANCH   1  20
ATOM     20  C   UNL A   1      39.074  20.980  25.594  1.00  0.00     0.275 C 
BRANCH  20  21
ATOM     21  O   UNL A   1      39.828  19.894  26.167  1.00  0.00    -0.458 OA
BRANCH  21  22
ATOM     22  C   UNL A   1      41.169  19.965  25.996  1.00  0.00     0.338 C 
ATOM     23  O   UNL A   1      41.883  19.162  25.417  1.00  0.00    -0.246 OA
BRANCH  22  24
ATOM     24  C   UNL A   1      41.668  21.254  26.511  1.00  0.00     0.060 A 
ATOM     25  C   UNL A   1      41.541  21.493  27.880  1.00  0.00     0.016 A 
ATOM     26  C   UNL A   1      42.201  22.236  25.672  1.00  0.00     0.016 A 
ATOM     27  C   UNL A   1      41.955  22.704  28.427  1.00  0.00     0.010 A 
ATOM     28  C   UNL A   1      42.603  23.462  26.219  1.00  0.00     0.010 A 
ATOM     29  C   UNL A   1      42.477  23.703  27.599  1.00  0.00    -0.014 A 
BRANCH  29  30
ATOM     30  C   UNL A   1      42.838  25.012  28.189  1.00  0.00     0.031 A 
ATOM     31  C   UNL A   1      41.776  26.047  28.423  1.00  0.00     0.074 A 
ATOM     32  C   UNL A   1      44.109  25.255  28.558  1.00  0.00     0.049 A 
ATOM     33  N   UNL A   1      41.894  27.251  28.922  1.00  0.00    -0.248 NA
ATOM     34  C   UNL A   1      40.400  25.677  28.052  1.00  0.00     0.031 C 
ATOM     35  C   UNL A   1      45.224  24.317  28.421  1.00  0.00     0.029 A 
ATOM     36  N   UNL A   1      44.674  26.368  29.127  1.00  0.00    -0.354 N 
ATOM     37  C   UNL A   1      40.614  27.791  28.907  1.00  0.00     0.074 A 
ATOM     38  C   UNL A   1      39.735  26.787  28.347  1.00  0.00     0.031 C 
ATOM     39  C   UNL A   1      46.340  24.896  28.894  1.00  0.00     0.029 A 
ATOM     40  C   UNL A   1      46.025  26.252  29.337  1.00  0.00     0.049 A 
ATOM     41  H   UNL A   1      44.159  27.174  29.362  1.00  0.00     0.167 HD
ATOM     42  C   UNL A   1      40.209  29.014  29.322  1.00  0.00     0.031 A 
ATOM     43  C   UNL A   1      46.913  27.143  29.816  1.00  0.00     0.031 A 
ATOM     44  C   UNL A   1      41.074  30.012  29.891  1.00  0.00     0.049 A 
ATOM     45  C   UNL A   1      46.440  28.508  30.233  1.00  0.00     0.074 A 
ATOM     46  C   UNL A   1      40.744  31.272  30.362  1.00  0.00     0.029 A 
ATOM     47  N   UNL A   1      42.441  29.866  30.062  1.00  0.00    -0.354 N 
ATOM     48  N   UNL A   1      45.224  28.997  30.233  1.00  0.00    -0.248 NA
ATOM     49  C   UNL A   1      47.466  29.444  30.718  1.00  0.00     0.031 C 
ATOM     50  C   UNL A   1      41.919  31.901  30.786  1.00  0.00     0.029 A 
ATOM     51  C   UNL A   1      42.973  31.020  30.610  1.00  0.00     0.049 A 
ATOM     52  H   UNL A   1      42.957  29.060  29.828  1.00  0.00     0.167 HD
ATOM     53  C   UNL A   1      45.336  30.288  30.728  1.00  0.00     0.074 A 
ATOM     54  C   UNL A   1      46.735  30.503  31.035  1.00  0.00     0.031 C 
ATOM     55  C   UNL A   1      44.366  31.216  30.908  1.00  0.00     0.031 A 
BRANCH  42  56
ATOM     56  C   UNL A   1      38.761  29.358  29.144  1.00  0.00    -0.014 A 
ATOM     57  C   UNL A   1      38.265  29.794  27.907  1.00  0.00     0.009 A 
ATOM     58  C   UNL A   1      37.874  29.195  30.219  1.00  0.00     0.009 A 
ATOM     59  C   UNL A   1      36.906  30.079  27.756  1.00  0.00     0.001 A 
ATOM     60  C   UNL A   1      36.514  29.464  30.060  1.00  0.00     0.001 A 
ATOM     61  C   UNL A   1      36.031  29.910  28.831  1.00  0.00     0.000 A 
ENDBRANCH  42  56
BRANCH  43  62
ATOM     62  C   UNL A   1      48.353  26.790  29.894  1.00  0.00    -0.014 A 
ATOM     63  C   UNL A   1      49.222  27.087  28.835  1.00  0.00     0.009 A 
ATOM     64  C   UNL A   1      48.856  26.131  31.026  1.00  0.00     0.009 A 
ATOM     65  C   UNL A   1      50.565  26.708  28.899  1.00  0.00     0.001 A 
ATOM     66  C   UNL A   1      50.203  25.775  31.097  1.00  0.00     0.001 A 
ATOM     67  C   UNL A   1      51.055  26.055  30.031  1.00  0.00     0.000 A 
ENDBRANCH  43  62
BRANCH  55  68
ATOM     68  C   UNL A   1      44.784  32.539  31.479  1.00  0.00    -0.014 A 
ATOM     69  C   UNL A   1      44.820  32.746  32.867  1.00  0.00     0.009 A 
ATOM     70  C   UNL A   1      45.181  33.576  30.622  1.00  0.00     0.009 A 
ATOM     71  C   UNL A   1      45.222  33.978  33.385  1.00  0.00     0.001 A 
ATOM     72  C   UNL A   1      45.601  34.801  31.143  1.00  0.00     0.001 A 
ATOM     73  C   UNL A   1      45.615  35.003  32.523  1.00  0.00     0.000 A 
ENDBRANCH  55  68
ENDBRANCH  29  30
ENDBRANCH  22  24
ENDBRANCH  21  22
ENDBRANCH  20  21
ENDBRANCH   1  20
TORSDOF 13
ENDMDL
MODEL 2
REMARK VINA RESULT:     -10.4      0.369      6.059
REMARK SMILES C[C@H]1CCCN(C(=O)c2cn(C)nc2C(=O)OCCOC(=O)c2ccc(-c3c4nc(c(-c5ccccc5)c5ccc([nH]5)c(-c5ccccc5)c5nc(c(-c6ccccc6)c6ccc3[nH]6)C=C5)C=C4)cc2)C1
REMARK SMILES IDX 18 1 17 2 15 3 16 4 14 5 9 6 10 7 11 8 13 9 12 10 7 11 8 12
REMARK SMILES IDX 6 13 1 14 2 15 3 16 71 17 4 18 5 19 19 20 20 21 21 22 22 23
REMARK SMILES IDX 23 24 24 25 70 26 25 27 69 28 26 29 27 30 28 31 63 32 29 33
REMARK SMILES IDX 68 34 62 35 64 36 30 37 67 38 61 39 60 40 31 42 53 43 38 44
REMARK SMILES IDX 52 45 39 46 42 47 51 48 65 49 40 50 41 51 50 53 66 54 43 55
REMARK SMILES IDX 32 56 33 57 37 58 34 59 36 60 35 61 54 62 55 63 59 64 56 65
REMARK SMILES IDX 58 66 57 67 44 68 45 69 49 70 46 71 48 72 47 73
REMARK H PARENT 64 41 42 52
REMARK Flexibility Score: inf
ROOT
ATOM      1  C   UNL A   1      37.770  20.538  24.847  1.00  0.00     0.275 C 
ENDROOT
BRANCH   1   2
ATOM      2  O   UNL A   1      36.598  21.099  25.461  1.00  0.00    -0.457 OA
BRANCH   2   3
ATOM      3  C   UNL A   1      35.672  21.656  24.618  1.00  0.00     0.359 C 
ATOM      4  O   UNL A   1      35.932  22.538  23.814  1.00  0.00    -0.244 OA
BRANCH   3   5
ATOM      5  C   UNL A   1      34.362  20.980  24.699  1.00  0.00     0.183 A 
ATOM      6  C   UNL A   1      33.056  21.558  24.663  1.00  0.00     0.092 A 
ATOM      7  C   UNL A   1      32.195  20.491  24.855  1.00  0.00     0.123 A 
ATOM      8  N   UNL A   1      32.980  19.400  25.049  1.00  0.00    -0.274 N 
ATOM      9  N   UNL A   1      34.286  19.645  24.889  1.00  0.00    -0.165 NA
ATOM     10  C   UNL A   1      32.558  18.079  25.452  1.00  0.00     0.173 C 
BRANCH   6  11
ATOM     11  C   UNL A   1      32.723  22.940  24.366  1.00  0.00     0.257 C 
ATOM     12  O   UNL A   1      32.658  23.301  23.192  1.00  0.00    -0.269 OA
BRANCH  11  13
ATOM     13  N   UNL A   1      32.451  23.813  25.419  1.00  0.00    -0.338 N 
ATOM     14  C   UNL A   1      33.698  26.463  24.492  1.00  0.00     0.009 C 
ATOM     15  C   UNL A   1      33.417  26.018  25.931  1.00  0.00     0.005 C 
ATOM     16  C   UNL A   1      32.024  26.475  26.406  1.00  0.00     0.007 C 
ATOM     17  C   UNL A   1      33.563  24.495  26.074  1.00  0.00     0.123 C 
ATOM     18  C   UNL A   1      30.883  25.649  25.799  1.00  0.00     0.022 C 
ATOM     19  C   UNL A   1      31.139  24.152  25.964  1.00  0.00     0.120 C 
ENDBRANCH  11  13
ENDBRANCH   6  11
ENDBRANCH   3   5
ENDBRANCH   2   3
ENDBRANCH   1   2
BRANCH   1  20
ATOM     20  C   UNL A   1      39.020  20.857  25.672  1.00  0.00     0.275 C 
BRANCH  20  21
ATOM     21  O   UNL A   1      39.713  19.659  26.076  1.00  0.00    -0.458 OA
BRANCH  21  22
ATOM     22  C   UNL A   1      41.064  19.730  26.037  1.00  0.00     0.338 C 
ATOM     23  O   UNL A   1      41.832  18.907  25.564  1.00  0.00    -0.246 OA
BRANCH  22  24
ATOM     24  C   UNL A   1      41.509  21.040  26.546  1.00  0.00     0.060 A 
ATOM     25  C   UNL A   1      41.331  21.296  27.907  1.00  0.00     0.016 A 
ATOM     26  C   UNL A   1      42.040  22.025  25.709  1.00  0.00     0.016 A 
ATOM     27  C   UNL A   1      41.692  22.526  28.448  1.00  0.00     0.010 A 
ATOM     28  C   UNL A   1      42.388  23.270  26.250  1.00  0.00     0.010 A 
ATOM     29  C   UNL A   1      42.211  23.528  27.620  1.00  0.00    -0.014 A 
BRANCH  29  30
ATOM     30  C   UNL A   1      42.515  24.856  28.201  1.00  0.00     0.031 A 
ATOM     31  C   UNL A   1      43.916  25.185  28.625  1.00  0.00     0.074 A 
ATOM     32  C   UNL A   1      41.543  25.782  28.305  1.00  0.00     0.049 A 
ATOM     33  N   UNL A   1      44.378  26.288  29.159  1.00  0.00    -0.248 NA
ATOM     34  C   UNL A   1      44.931  24.141  28.418  1.00  0.00     0.031 C 
ATOM     35  C   UNL A   1      40.152  25.599  27.890  1.00  0.00     0.029 A 
ATOM     36  N   UNL A   1      41.584  27.064  28.790  1.00  0.00    -0.354 N 
ATOM     37  C   UNL A   1      45.733  26.064  29.370  1.00  0.00     0.074 A 
ATOM     38  C   UNL A   1      46.018  24.721  28.911  1.00  0.00     0.031 C 
ATOM     39  C   UNL A   1      39.471  26.730  28.140  1.00  0.00     0.029 A 
ATOM     40  C   UNL A   1      40.369  27.702  28.757  1.00  0.00     0.049 A 
ATOM     41  H   UNL A   1      42.406  27.487  29.128  1.00  0.00     0.167 HD
ATOM     42  C   UNL A   1      46.655  26.902  29.899  1.00  0.00     0.031 A 
ATOM     43  C   UNL A   1      40.015  28.926  29.192  1.00  0.00     0.031 A 
ATOM     44  C   UNL A   1      46.381  28.240  30.345  1.00  0.00     0.049 A 
ATOM     45  C   UNL A   1      41.052  29.821  29.811  1.00  0.00     0.074 A 
ATOM     46  C   UNL A   1      47.261  29.170  30.873  1.00  0.00     0.029 A 
ATOM     47  N   UNL A   1      45.132  28.840  30.321  1.00  0.00    -0.354 N 
ATOM     48  N   UNL A   1      42.333  29.603  29.985  1.00  0.00    -0.248 NA
ATOM     49  C   UNL A   1      40.593  31.131  30.294  1.00  0.00     0.031 C 
ATOM     50  C   UNL A   1      46.537  30.321  31.201  1.00  0.00     0.029 A 
ATOM     51  C   UNL A   1      45.213  30.118  30.845  1.00  0.00     0.049 A 
ATOM     52  H   UNL A   1      44.309  28.419  29.981  1.00  0.00     0.167 HD
ATOM     53  C   UNL A   1      42.834  30.751  30.583  1.00  0.00     0.074 A 
ATOM     54  C   UNL A   1      41.724  31.671  30.727  1.00  0.00     0.031 C 
ATOM     55  C   UNL A   1      44.100  31.018  30.981  1.00  0.00     0.031 A 
BRANCH  42  56
ATOM     56  C   UNL A   1      48.050  26.379  30.058  1.00  0.00    -0.014 A 
ATOM     57  C   UNL A   1      49.000  26.521  29.036  1.00  0.00     0.009 A 
ATOM     58  C   UNL A   1      48.432  25.780  31.268  1.00  0.00     0.009 A 
ATOM     59  C   UNL A   1      50.303  26.053  29.217  1.00  0.00     0.001 A 
ATOM     60  C   UNL A   1      49.739  25.330  31.453  1.00  0.00     0.001 A 
ATOM     61  C   UNL A   1      50.673  25.463  30.426  1.00  0.00     0.000 A 
ENDBRANCH  42  56
BRANCH  43  62
ATOM     62  C   UNL A   1      38.601  29.370  29.094  1.00  0.00    -0.014 A 
ATOM     63  C   UNL A   1      38.117  29.966  27.922  1.00  0.00     0.009 A 
ATOM     64  C   UNL A   1      37.737  29.216  30.190  1.00  0.00     0.009 A 
ATOM     65  C   UNL A   1      36.798  30.422  27.857  1.00  0.00     0.001 A 
ATOM     66  C   UNL A   1      36.414  29.651  30.113  1.00  0.00     0.001 A 
ATOM     67  C   UNL A   1      35.947  30.262  28.951  1.00  0.00     0.000 A 
ENDBRANCH  43  62
BRANCH  55  68
ATOM     68  C   UNL A   1      44.354  32.364  31.593  1.00  0.00    -0.014 A 
ATOM     69  C   UNL A   1      44.693  33.467  30.794  1.00  0.00     0.009 A 
ATOM     70  C   UNL A   1      44.216  32.539  32.978  1.00  0.00     0.009 A 
ATOM     71  C   UNL A   1      44.914  34.717  31.375  1.00  0.00     0.001 A 
ATOM     72  C   UNL A   1      44.420  33.794  33.554  1.00  0.00     0.001 A 
ATOM     73  C   UNL A   1      44.775  34.879  32.754  1.00  0.00     0.000 A 
ENDBRANCH  55  68
ENDBRANCH  29  30
ENDBRANCH  22  24
ENDBRANCH  21  22
ENDBRANCH  20  21
ENDBRANCH   1  20
TORSDOF 13
ENDMDL
MODEL 3
REMARK VINA RESULT:     -10.3      3.828      8.744
REMARK SMILES C[C@H]1CCCN(C(=O)c2cn(C)nc2C(=O)OCCOC(=O)c2ccc(-c3c4nc(c(-c5ccccc5)c5ccc([nH]5)c(-c5ccccc5)c5nc(c(-c6ccccc6)c6ccc3[nH]6)C=C5)C=C4)cc2)C1
REMARK SMILES IDX 18 1 17 2 15 3 16 4 14 5 9 6 10 7 11 8 13 9 12 10 7 11 8 12
REMARK SMILES IDX 6 13 1 14 2 15 3 16 71 17 4 18 5 19 19 20 20 21 21 22 22 23
REMARK SMILES IDX 23 24 24 25 70 26 25 27 69 28 26 29 27 30 28 31 63 32 29 33
REMARK SMILES IDX 68 34 62 35 64 36 30 37 67 38 61 39 60 40 31 42 53 43 38 44
REMARK SMILES IDX 52 45 39 46 42 47 51 48 65 49 40 50 41 51 50 53 66 54 43 55
REMARK SMILES IDX 32 56 33 57 37 58 34 59 36 60 35 61 54 62 55 63 59 64 56 65
REMARK SMILES IDX 58 66 57 67 44 68 45 69 49 70 46 71 48 72 47 73
REMARK H PARENT 64 41 42 52
REMARK Flexibility Score: inf
ROOT
ATOM      1  C   UNL A   1      32.733  31.001  27.018  1.00  0.00     0.275 C 
ENDROOT
BRANCH   1   2
ATOM      2  O   UNL A   1      32.406  30.414  25.747  1.00  0.00    -0.457 OA
BRANCH   2   3
ATOM      3  C   UNL A   1      31.727  29.224  25.779  1.00  0.00     0.359 C 
ATOM      4  O   UNL A   1      31.663  28.507  26.765  1.00  0.00    -0.244 OA
BRANCH   3   5
ATOM      5  C   UNL A   1      30.973  28.976  24.534  1.00  0.00     0.183 A 
ATOM      6  C   UNL A   1      30.865  27.765  23.784  1.00  0.00     0.092 A 
ATOM      7  C   UNL A   1      30.110  28.106  22.674  1.00  0.00     0.123 A 
ATOM      8  N   UNL A   1      29.870  29.440  22.774  1.00  0.00    -0.274 N 
ATOM      9  N   UNL A   1      30.312  29.979  23.916  1.00  0.00    -0.165 NA
ATOM     10  C   UNL A   1      29.266  30.297  21.782  1.00  0.00     0.173 C 
BRANCH   6  11
ATOM     11  C   UNL A   1      31.343  26.451  24.176  1.00  0.00     0.257 C 
ATOM     12  O   UNL A   1      30.630  25.742  24.885  1.00  0.00    -0.269 OA
BRANCH  11  13
ATOM     13  N   UNL A   1      32.582  26.014  23.710  1.00  0.00    -0.338 N 
ATOM     14  C   UNL A   1      33.694  24.379  26.061  1.00  0.00     0.009 C 
ATOM     15  C   UNL A   1      34.488  25.067  24.946  1.00  0.00     0.005 C 
ATOM     16  C   UNL A   1      34.737  24.117  23.758  1.00  0.00     0.007 C 
ATOM     17  C   UNL A   1      33.780  26.346  24.475  1.00  0.00     0.123 C 
ATOM     18  C   UNL A   1      33.488  23.894  22.897  1.00  0.00     0.022 C 
ATOM     19  C   UNL A   1      32.841  25.223  22.510  1.00  0.00     0.120 C 
ENDBRANCH  11  13
ENDBRANCH   6  11
ENDBRANCH   3   5
ENDBRANCH   2   3
ENDBRANCH   1   2
BRANCH   1  20
ATOM     20  C   UNL A   1      31.846  32.217  27.298  1.00  0.00     0.275 C 
BRANCH  20  21
ATOM     21  O   UNL A   1      32.579  33.452  27.176  1.00  0.00    -0.458 OA
BRANCH  21  22
ATOM     22  C   UNL A   1      33.015  33.986  28.341  1.00  0.00     0.338 C 
ATOM     23  O   UNL A   1      32.404  34.737  29.083  1.00  0.00    -0.246 OA
BRANCH  22  24
ATOM     24  C   UNL A   1      34.334  33.422  28.683  1.00  0.00     0.060 A 
ATOM     25  C   UNL A   1      34.433  32.684  29.864  1.00  0.00     0.016 A 
ATOM     26  C   UNL A   1      35.469  33.650  27.900  1.00  0.00     0.016 A 
ATOM     27  C   UNL A   1      35.656  32.156  30.267  1.00  0.00     0.010 A 
ATOM     28  C   UNL A   1      36.704  33.133  28.314  1.00  0.00     0.010 A 
ATOM     29  C   UNL A   1      36.804  32.388  29.502  1.00  0.00    -0.014 A 
BRANCH  29  30
ATOM     30  C   UNL A   1      38.108  31.885  29.990  1.00  0.00     0.031 A 
ATOM     31  C   UNL A   1      38.655  30.590  29.465  1.00  0.00     0.074 A 
ATOM     32  C   UNL A   1      38.823  32.613  30.868  1.00  0.00     0.049 A 
ATOM     33  N   UNL A   1      39.772  29.981  29.773  1.00  0.00    -0.248 NA
ATOM     34  C   UNL A   1      37.841  29.889  28.459  1.00  0.00     0.031 C 
ATOM     35  C   UNL A   1      38.421  33.906  31.420  1.00  0.00     0.029 A 
ATOM     36  N   UNL A   1      40.042  32.364  31.445  1.00  0.00    -0.354 N 
ATOM     37  C   UNL A   1      39.788  28.817  29.015  1.00  0.00     0.074 A 
ATOM     38  C   UNL A   1      38.568  28.801  28.236  1.00  0.00     0.031 C 
ATOM     39  C   UNL A   1      39.378  34.338  32.259  1.00  0.00     0.029 A 
ATOM     40  C   UNL A   1      40.442  33.340  32.324  1.00  0.00     0.049 A 
ATOM     41  H   UNL A   1      40.580  31.564  31.248  1.00  0.00     0.167 HD
ATOM     42  C   UNL A   1      40.733  27.849  28.974  1.00  0.00     0.031 A 
ATOM     43  C   UNL A   1      41.535  33.413  33.107  1.00  0.00     0.031 A 
ATOM     44  C   UNL A   1      41.952  27.865  29.736  1.00  0.00     0.049 A 
ATOM     45  C   UNL A   1      42.549  32.304  33.069  1.00  0.00     0.074 A 
ATOM     46  C   UNL A   1      42.980  26.936  29.737  1.00  0.00     0.029 A 
ATOM     47  N   UNL A   1      42.308  28.857  30.635  1.00  0.00    -0.354 N 
ATOM     48  N   UNL A   1      42.560  31.220  32.332  1.00  0.00    -0.248 NA
ATOM     49  C   UNL A   1      43.703  32.431  33.972  1.00  0.00     0.031 C 
ATOM     50  C   UNL A   1      43.941  27.350  30.665  1.00  0.00     0.029 A 
ATOM     51  C   UNL A   1      43.527  28.553  31.214  1.00  0.00     0.049 A 
ATOM     52  H   UNL A   1      41.772  29.660  30.832  1.00  0.00     0.167 HD
ATOM     53  C   UNL A   1      43.724  30.545  32.671  1.00  0.00     0.074 A 
ATOM     54  C   UNL A   1      44.404  31.348  33.667  1.00  0.00     0.031 C 
ATOM     55  C   UNL A   1      44.187  29.362  32.203  1.00  0.00     0.031 A 
BRANCH  42  56
ATOM     56  C   UNL A   1      40.469  26.665  28.094  1.00  0.00    -0.014 A 
ATOM     57  C   UNL A   1      41.008  26.585  26.802  1.00  0.00     0.009 A 
ATOM     58  C   UNL A   1      39.709  25.593  28.586  1.00  0.00     0.009 A 
ATOM     59  C   UNL A   1      40.773  25.458  26.011  1.00  0.00     0.001 A 
ATOM     60  C   UNL A   1      39.492  24.461  27.800  1.00  0.00     0.001 A 
ATOM     61  C   UNL A   1      40.020  24.396  26.511  1.00  0.00     0.000 A 
ENDBRANCH  42  56
BRANCH  43  62
ATOM     62  C   UNL A   1      41.713  34.563  34.028  1.00  0.00    -0.014 A 
ATOM     63  C   UNL A   1      42.376  35.724  33.606  1.00  0.00     0.009 A 
ATOM     64  C   UNL A   1      41.237  34.491  35.347  1.00  0.00     0.009 A 
ATOM     65  C   UNL A   1      42.579  36.783  34.495  1.00  0.00     0.001 A 
ATOM     66  C   UNL A   1      41.422  35.558  36.225  1.00  0.00     0.001 A 
ATOM     67  C   UNL A   1      42.100  36.700  35.802  1.00  0.00     0.000 A 
ENDBRANCH  43  62
BRANCH  55  68
ATOM     68  C   UNL A   1      45.497  28.876  32.749  1.00  0.00    -0.014 A 
ATOM     69  C   UNL A   1      45.543  28.040  33.874  1.00  0.00     0.009 A 
ATOM     70  C   UNL A   1      46.695  29.229  32.108  1.00  0.00     0.009 A 
ATOM     71  C   UNL A   1      46.769  27.585  34.364  1.00  0.00     0.001 A 
ATOM     72  C   UNL A   1      47.917  28.758  32.589  1.00  0.00     0.001 A 
ATOM     73  C   UNL A   1      47.954  27.942  33.720  1.00  0.00     0.000 A 
ENDBRANCH  55  68
ENDBRANCH  29  30
ENDBRANCH  22  24
ENDBRANCH  21  22
ENDBRANCH  20  21
ENDBRANCH   1  20
TORSDOF 13
ENDMDL
