MODEL 1
REMARK VINA RESULT:     -12.3      0.000      0.000
REMARK SMILES Cc1ccc(Oc2cc(C(=O)OCCOC(=O)c3ccc(-c4c5nc(c(-c6ccccc6)c6ccc([nH]6)c(-c6ccccc6)c6nc(c(-c7ccccc7)c7ccc4[nH]7)C=C6)C=C5)cc3)nc3ccccc23)cc1
REMARK SMILES IDX 13 1 12 2 10 3 11 4 9 5 7 6 8 7 72 8 67 9 71 10 66 11 68 12
REMARK SMILES IDX 70 13 69 14 6 15 5 16 1 17 2 18 3 19 74 20 4 21 73 22 14 23
REMARK SMILES IDX 15 24 16 25 17 26 18 27 19 28 65 29 20 30 64 31 21 32 22 33
REMARK SMILES IDX 23 34 58 35 24 36 63 37 57 38 59 39 25 40 62 41 56 42 55 43
REMARK SMILES IDX 26 45 48 46 33 47 47 48 34 49 37 50 46 51 60 52 35 53 36 54
REMARK SMILES IDX 45 56 61 57 38 58 27 59 28 60 32 61 29 62 31 63 30 64 49 65
REMARK SMILES IDX 50 66 54 67 51 68 53 69 52 70 39 71 40 72 44 73 41 74 43 75
REMARK SMILES IDX 42 76
REMARK H PARENT 59 44 37 55
REMARK Flexibility Score: inf
ROOT
ATOM      1  C   UNL A   1      38.939  20.992  25.830  1.00  0.00     0.275 C 
ENDROOT
BRANCH   1   2
ATOM      2  O   UNL A   1      37.889  21.355  24.912  1.00  0.00    -0.457 OA
BRANCH   2   3
ATOM      3  C   UNL A   1      37.095  22.340  25.419  1.00  0.00     0.357 C 
ATOM      4  O   UNL A   1      37.509  23.394  25.889  1.00  0.00    -0.244 OA
BRANCH   3   5
ATOM      5  C   UNL A   1      35.641  22.019  25.475  1.00  0.00     0.152 A 
ATOM      6  C   UNL A   1      33.633  21.011  24.656  1.00  0.00     0.139 A 
ATOM      7  C   UNL A   1      35.031  20.976  24.798  1.00  0.00     0.084 A 
ATOM      8  C   UNL A   1      32.875  21.998  25.341  1.00  0.00     0.043 A 
ATOM      9  C   UNL A   1      33.616  22.996  26.004  1.00  0.00     0.075 A 
ATOM     10  C   UNL A   1      31.462  22.078  25.412  1.00  0.00     0.014 A 
ATOM     11  N   UNL A   1      34.941  23.015  26.061  1.00  0.00    -0.240 NA
ATOM     12  C   UNL A   1      32.973  24.050  26.621  1.00  0.00     0.029 A 
ATOM     13  C   UNL A   1      30.828  23.153  26.036  1.00  0.00     0.001 A 
ATOM     14  C   UNL A   1      31.587  24.151  26.629  1.00  0.00     0.002 A 
BRANCH   6  15
ATOM     15  O   UNL A   1      33.093  20.018  23.851  1.00  0.00    -0.457 OA
BRANCH  15  16
ATOM     16  C   UNL A   1      33.166  18.683  24.219  1.00  0.00     0.127 A 
ATOM     17  C   UNL A   1      32.845  14.560  25.504  1.00  0.00     0.044 C 
ATOM     18  C   UNL A   1      33.006  15.993  25.077  1.00  0.00    -0.051 A 
ATOM     19  C   UNL A   1      32.511  17.026  25.880  1.00  0.00     0.007 A 
ATOM     20  C   UNL A   1      33.650  16.325  23.880  1.00  0.00     0.007 A 
ATOM     21  C   UNL A   1      32.590  18.359  25.453  1.00  0.00     0.047 A 
ATOM     22  C   UNL A   1      33.753  17.663  23.465  1.00  0.00     0.047 A 
ENDBRANCH  15  16
ENDBRANCH   6  15
ENDBRANCH   3   5
ENDBRANCH   2   3
ENDBRANCH   1   2
BRANCH   1  23
ATOM     23  C   UNL A   1      39.412  19.536  25.716  1.00  0.00     0.275 C 
BRANCH  23  24
ATOM     24  O   UNL A   1      40.810  19.280  25.399  1.00  0.00    -0.458 OA
BRANCH  24  25
ATOM     25  C   UNL A   1      41.903  19.588  26.139  1.00  0.00     0.338 C 
ATOM     26  O   UNL A   1      42.795  18.773  26.360  1.00  0.00    -0.246 OA
BRANCH  25  27
ATOM     27  C   UNL A   1      42.018  20.964  26.632  1.00  0.00     0.060 A 
ATOM     28  C   UNL A   1      42.115  22.019  25.710  1.00  0.00     0.016 A 
ATOM     29  C   UNL A   1      41.917  21.204  27.995  1.00  0.00     0.016 A 
ATOM     30  C   UNL A   1      42.014  23.329  26.144  1.00  0.00     0.010 A 
ATOM     31  C   UNL A   1      41.630  22.473  28.411  1.00  0.00     0.010 A 
ATOM     32  C   UNL A   1      41.773  23.528  27.498  1.00  0.00    -0.014 A 
BRANCH  32  33
ATOM     33  C   UNL A   1      42.068  24.779  28.163  1.00  0.00     0.031 A 
ATOM     34  C   UNL A   1      41.034  25.806  28.288  1.00  0.00     0.074 A 
ATOM     35  C   UNL A   1      43.300  24.731  28.722  1.00  0.00     0.049 A 
ATOM     36  N   UNL A   1      41.275  27.061  28.408  1.00  0.00    -0.248 NA
ATOM     37  C   UNL A   1      39.602  25.514  28.211  1.00  0.00     0.031 C 
ATOM     38  C   UNL A   1      43.970  25.529  29.725  1.00  0.00     0.029 A 
ATOM     39  N   UNL A   1      44.307  23.853  28.287  1.00  0.00    -0.354 N 
ATOM     40  C   UNL A   1      40.104  27.629  28.867  1.00  0.00     0.074 A 
ATOM     41  C   UNL A   1      39.064  26.701  28.512  1.00  0.00     0.031 C 
ATOM     42  C   UNL A   1      45.303  25.343  29.590  1.00  0.00     0.029 A 
ATOM     43  C   UNL A   1      45.521  24.512  28.405  1.00  0.00     0.049 A 
ATOM     44  H   UNL A   1      44.174  22.934  27.957  1.00  0.00     0.167 HD
ATOM     45  C   UNL A   1      40.194  28.674  29.739  1.00  0.00     0.031 A 
ATOM     46  C   UNL A   1      46.109  24.906  27.235  1.00  0.00     0.031 A 
ATOM     47  C   UNL A   1      41.604  29.002  29.960  1.00  0.00     0.049 A 
ATOM     48  C   UNL A   1      46.034  26.412  27.116  1.00  0.00     0.074 A 
ATOM     49  C   UNL A   1      42.484  28.635  30.965  1.00  0.00     0.029 A 
ATOM     50  N   UNL A   1      42.378  29.407  28.880  1.00  0.00    -0.354 N 
ATOM     51  N   UNL A   1      45.061  27.143  27.596  1.00  0.00    -0.248 NA
ATOM     52  C   UNL A   1      47.110  27.204  26.539  1.00  0.00     0.031 C 
ATOM     53  C   UNL A   1      43.802  28.724  30.434  1.00  0.00     0.029 A 
ATOM     54  C   UNL A   1      43.714  29.138  29.115  1.00  0.00     0.049 A 
ATOM     55  H   UNL A   1      42.026  29.826  28.063  1.00  0.00     0.167 HD
ATOM     56  C   UNL A   1      45.422  28.462  27.532  1.00  0.00     0.074 A 
ATOM     57  C   UNL A   1      46.694  28.450  26.824  1.00  0.00     0.031 C 
ATOM     58  C   UNL A   1      44.701  29.474  28.100  1.00  0.00     0.031 A 
BRANCH  45  59
ATOM     59  C   UNL A   1      39.086  29.152  30.650  1.00  0.00    -0.014 A 
ATOM     60  C   UNL A   1      38.819  28.431  31.831  1.00  0.00     0.009 A 
ATOM     61  C   UNL A   1      38.258  30.261  30.411  1.00  0.00     0.009 A 
ATOM     62  C   UNL A   1      37.761  28.758  32.689  1.00  0.00     0.001 A 
ATOM     63  C   UNL A   1      37.185  30.588  31.258  1.00  0.00     0.001 A 
ATOM     64  C   UNL A   1      36.934  29.833  32.396  1.00  0.00     0.000 A 
ENDBRANCH  45  59
BRANCH  46  65
ATOM     65  C   UNL A   1      45.960  23.924  26.097  1.00  0.00    -0.014 A 
ATOM     66  C   UNL A   1      46.131  22.543  26.372  1.00  0.00     0.009 A 
ATOM     67  C   UNL A   1      45.411  24.264  24.853  1.00  0.00     0.009 A 
ATOM     68  C   UNL A   1      45.665  21.550  25.501  1.00  0.00     0.001 A 
ATOM     69  C   UNL A   1      44.978  23.265  23.960  1.00  0.00     0.001 A 
ATOM     70  C   UNL A   1      45.075  21.913  24.298  1.00  0.00     0.000 A 
ENDBRANCH  46  65
BRANCH  58  71
ATOM     71  C   UNL A   1      44.885  30.938  27.797  1.00  0.00    -0.014 A 
ATOM     72  C   UNL A   1      44.454  31.546  26.614  1.00  0.00     0.009 A 
ATOM     73  C   UNL A   1      45.351  31.794  28.823  1.00  0.00     0.009 A 
ATOM     74  C   UNL A   1      44.535  32.931  26.444  1.00  0.00     0.001 A 
ATOM     75  C   UNL A   1      45.363  33.179  28.685  1.00  0.00     0.001 A 
ATOM     76  C   UNL A   1      44.971  33.747  27.483  1.00  0.00     0.000 A 
ENDBRANCH  58  71
ENDBRANCH  32  33
ENDBRANCH  25  27
ENDBRANCH  24  25
ENDBRANCH  23  24
ENDBRANCH   1  23
TORSDOF 13
ENDMDL
MODEL 2
REMARK VINA RESULT:     -12.3      3.200      8.333
REMARK SMILES Cc1ccc(Oc2cc(C(=O)OCCOC(=O)c3ccc(-c4c5nc(c(-c6ccccc6)c6ccc([nH]6)c(-c6ccccc6)c6nc(c(-c7ccccc7)c7ccc4[nH]7)C=C6)C=C5)cc3)nc3ccccc23)cc1
REMARK SMILES IDX 13 1 12 2 10 3 11 4 9 5 7 6 8 7 72 8 67 9 71 10 66 11 68 12
REMARK SMILES IDX 70 13 69 14 6 15 5 16 1 17 2 18 3 19 74 20 4 21 73 22 14 23
REMARK SMILES IDX 15 24 16 25 17 26 18 27 19 28 65 29 20 30 64 31 21 32 22 33
REMARK SMILES IDX 23 34 58 35 24 36 63 37 57 38 59 39 25 40 62 41 56 42 55 43
REMARK SMILES IDX 26 45 48 46 33 47 47 48 34 49 37 50 46 51 60 52 35 53 36 54
REMARK SMILES IDX 45 56 61 57 38 58 27 59 28 60 32 61 29 62 31 63 30 64 49 65
REMARK SMILES IDX 50 66 54 67 51 68 53 69 52 70 39 71 40 72 44 73 41 74 43 75
REMARK SMILES IDX 42 76
REMARK H PARENT 59 44 37 55
REMARK Flexibility Score: inf
ROOT
ATOM      1  C   UNL A   1      32.120  30.279  26.920  1.00  0.00     0.275 C 
ENDROOT
BRANCH   1   2
ATOM      2  O   UNL A   1      32.402  29.012  26.293  1.00  0.00    -0.457 OA
BRANCH   2   3
ATOM      3  C   UNL A   1      31.857  27.973  26.988  1.00  0.00     0.357 C 
ATOM      4  O   UNL A   1      31.144  28.097  27.977  1.00  0.00    -0.244 OA
BRANCH   3   5
ATOM      5  C   UNL A   1      32.273  26.617  26.534  1.00  0.00     0.152 A 
ATOM      6  C   UNL A   1      33.389  25.094  25.067  1.00  0.00     0.139 A 
ATOM      7  C   UNL A   1      33.337  26.354  25.686  1.00  0.00     0.084 A 
ATOM      8  C   UNL A   1      32.470  24.079  25.445  1.00  0.00     0.043 A 
ATOM      9  C   UNL A   1      31.444  24.471  26.326  1.00  0.00     0.075 A 
ATOM     10  C   UNL A   1      32.485  22.727  25.020  1.00  0.00     0.014 A 
ATOM     11  N   UNL A   1      31.339  25.690  26.841  1.00  0.00    -0.240 NA
ATOM     12  C   UNL A   1      30.449  23.583  26.681  1.00  0.00     0.029 A 
ATOM     13  C   UNL A   1      31.469  21.842  25.385  1.00  0.00     0.001 A 
ATOM     14  C   UNL A   1      30.439  22.276  26.206  1.00  0.00     0.002 A 
BRANCH   6  15
ATOM     15  O   UNL A   1      34.395  24.937  24.123  1.00  0.00    -0.457 OA
BRANCH  15  16
ATOM     16  C   UNL A   1      35.476  24.103  24.365  1.00  0.00     0.127 A 
ATOM     17  C   UNL A   1      38.632  21.428  25.641  1.00  0.00     0.044 C 
ATOM     18  C   UNL A   1      37.572  22.384  25.169  1.00  0.00    -0.051 A 
ATOM     19  C   UNL A   1      37.182  23.456  25.978  1.00  0.00     0.007 A 
ATOM     20  C   UNL A   1      36.956  22.227  23.923  1.00  0.00     0.007 A 
ATOM     21  C   UNL A   1      36.143  24.307  25.578  1.00  0.00     0.047 A 
ATOM     22  C   UNL A   1      35.932  23.095  23.510  1.00  0.00     0.047 A 
ENDBRANCH  15  16
ENDBRANCH   6  15
ENDBRANCH   3   5
ENDBRANCH   2   3
ENDBRANCH   1   2
BRANCH   1  23
ATOM     23  C   UNL A   1      33.363  31.115  27.256  1.00  0.00     0.275 C 
BRANCH  23  24
ATOM     24  O   UNL A   1      34.524  30.442  27.821  1.00  0.00    -0.458 OA
BRANCH  24  25
ATOM     25  C   UNL A   1      35.469  30.956  28.645  1.00  0.00     0.338 C 
ATOM     26  O   UNL A   1      35.285  31.983  29.293  1.00  0.00    -0.246 OA
BRANCH  25  27
ATOM     27  C   UNL A   1      36.722  30.206  28.784  1.00  0.00     0.060 A 
ATOM     28  C   UNL A   1      36.848  29.261  29.814  1.00  0.00     0.016 A 
ATOM     29  C   UNL A   1      37.715  30.368  27.827  1.00  0.00     0.016 A 
ATOM     30  C   UNL A   1      37.931  28.402  29.836  1.00  0.00     0.010 A 
ATOM     31  C   UNL A   1      38.684  29.410  27.731  1.00  0.00     0.010 A 
ATOM     32  C   UNL A   1      38.835  28.498  28.784  1.00  0.00    -0.014 A 
BRANCH  32  33
ATOM     33  C   UNL A   1      40.191  28.004  28.879  1.00  0.00     0.031 A 
ATOM     34  C   UNL A   1      40.510  26.643  28.446  1.00  0.00     0.074 A 
ATOM     35  C   UNL A   1      41.027  29.002  29.251  1.00  0.00     0.049 A 
ATOM     36  N   UNL A   1      41.496  25.956  28.895  1.00  0.00    -0.248 NA
ATOM     37  C   UNL A   1      39.683  25.890  27.502  1.00  0.00     0.031 C 
ATOM     38  C   UNL A   1      42.463  29.167  29.206  1.00  0.00     0.029 A 
ATOM     39  N   UNL A   1      40.594  30.152  29.932  1.00  0.00    -0.354 N 
ATOM     40  C   UNL A   1      41.676  24.922  27.998  1.00  0.00     0.074 A 
ATOM     41  C   UNL A   1      40.422  24.791  27.307  1.00  0.00     0.031 C 
ATOM     42  C   UNL A   1      42.804  30.131  30.092  1.00  0.00     0.029 A 
ATOM     43  C   UNL A   1      41.594  30.518  30.820  1.00  0.00     0.049 A 
ATOM     44  H   UNL A   1      39.734  30.615  29.804  1.00  0.00     0.167 HD
ATOM     45  C   UNL A   1      42.949  24.498  27.753  1.00  0.00     0.031 A 
ATOM     46  C   UNL A   1      41.338  30.292  32.144  1.00  0.00     0.031 A 
ATOM     47  C   UNL A   1      43.884  25.253  28.591  1.00  0.00     0.049 A 
ATOM     48  C   UNL A   1      42.202  29.155  32.638  1.00  0.00     0.074 A 
ATOM     49  C   UNL A   1      44.655  26.372  28.325  1.00  0.00     0.029 A 
ATOM     50  N   UNL A   1      43.768  25.168  29.973  1.00  0.00    -0.354 N 
ATOM     51  N   UNL A   1      42.584  28.143  31.901  1.00  0.00    -0.248 NA
ATOM     52  C   UNL A   1      42.785  29.138  33.972  1.00  0.00     0.031 C 
ATOM     53  C   UNL A   1      44.913  27.020  29.565  1.00  0.00     0.029 A 
ATOM     54  C   UNL A   1      44.295  26.297  30.572  1.00  0.00     0.049 A 
ATOM     55  H   UNL A   1      43.368  24.411  30.457  1.00  0.00     0.167 HD
ATOM     56  C   UNL A   1      43.542  27.436  32.576  1.00  0.00     0.074 A 
ATOM     57  C   UNL A   1      43.602  28.074  33.883  1.00  0.00     0.031 C 
ATOM     58  C   UNL A   1      44.264  26.417  32.022  1.00  0.00     0.031 A 
BRANCH  45  59
ATOM     59  C   UNL A   1      43.389  23.698  26.548  1.00  0.00    -0.014 A 
ATOM     60  C   UNL A   1      43.255  22.295  26.578  1.00  0.00     0.009 A 
ATOM     61  C   UNL A   1      43.959  24.232  25.380  1.00  0.00     0.009 A 
ATOM     62  C   UNL A   1      43.710  21.474  25.538  1.00  0.00     0.001 A 
ATOM     63  C   UNL A   1      44.430  23.415  24.338  1.00  0.00     0.001 A 
ATOM     64  C   UNL A   1      44.310  22.034  24.420  1.00  0.00     0.000 A 
ENDBRANCH  45  59
BRANCH  46  65
ATOM     65  C   UNL A   1      39.911  30.558  32.559  1.00  0.00    -0.014 A 
ATOM     66  C   UNL A   1      39.293  31.757  32.119  1.00  0.00     0.009 A 
ATOM     67  C   UNL A   1      39.079  29.584  33.128  1.00  0.00     0.009 A 
ATOM     68  C   UNL A   1      37.902  31.923  32.134  1.00  0.00     0.001 A 
ATOM     69  C   UNL A   1      37.684  29.769  33.179  1.00  0.00     0.001 A 
ATOM     70  C   UNL A   1      37.095  30.921  32.653  1.00  0.00     0.000 A 
ENDBRANCH  46  65
BRANCH  58  71
ATOM     71  C   UNL A   1      45.090  25.425  32.799  1.00  0.00    -0.014 A 
ATOM     72  C   UNL A   1      46.457  25.580  33.048  1.00  0.00     0.009 A 
ATOM     73  C   UNL A   1      44.433  24.370  33.474  1.00  0.00     0.009 A 
ATOM     74  C   UNL A   1      47.144  24.695  33.884  1.00  0.00     0.001 A 
ATOM     75  C   UNL A   1      45.098  23.533  34.365  1.00  0.00     0.001 A 
ATOM     76  C   UNL A   1      46.462  23.685  34.555  1.00  0.00     0.000 A 
ENDBRANCH  58  71
ENDBRANCH  32  33
ENDBRANCH  25  27
ENDBRANCH  24  25
ENDBRANCH  23  24
ENDBRANCH   1  23
TORSDOF 13
ENDMDL
MODEL 3
REMARK VINA RESULT:     -12.1      4.919     10.583
REMARK SMILES Cc1ccc(Oc2cc(C(=O)OCCOC(=O)c3ccc(-c4c5nc(c(-c6ccccc6)c6ccc([nH]6)c(-c6ccccc6)c6nc(c(-c7ccccc7)c7ccc4[nH]7)C=C6)C=C5)cc3)nc3ccccc23)cc1
REMARK SMILES IDX 13 1 12 2 10 3 11 4 9 5 7 6 8 7 72 8 67 9 71 10 66 11 68 12
REMARK SMILES IDX 70 13 69 14 6 15 5 16 1 17 2 18 3 19 74 20 4 21 73 22 14 23
REMARK SMILES IDX 15 24 16 25 17 26 18 27 19 28 65 29 20 30 64 31 21 32 22 33
REMARK SMILES IDX 23 34 58 35 24 36 63 37 57 38 59 39 25 40 62 41 56 42 55 43
REMARK SMILES IDX 26 45 48 46 33 47 47 48 34 49 37 50 46 51 60 52 35 53 36 54
REMARK SMILES IDX 45 56 61 57 38 58 27 59 28 60 32 61 29 62 31 63 30 64 49 65
REMARK SMILES IDX 50 66 54 67 51 68 53 69 52 70 39 71 40 72 44 73 41 74 43 75
REMARK SMILES IDX 42 76
REMARK H PARENT 59 44 37 55
REMARK Flexibility Score: inf
ROOT
ATOM      1  C   UNL A   1      32.649  31.160  26.961  1.00  0.00     0.275 C 
ENDROOT
BRANCH   1   2
ATOM      2  O   UNL A   1      32.043  29.871  27.188  1.00  0.00    -0.457 OA
BRANCH   2   3
ATOM      3  C   UNL A   1      32.899  28.853  26.894  1.00  0.00     0.357 C 
ATOM      4  O   UNL A   1      34.064  28.795  27.271  1.00  0.00    -0.244 OA
BRANCH   3   5
ATOM      5  C   UNL A   1      32.363  27.818  25.966  1.00  0.00     0.152 A 
ATOM      6  C   UNL A   1      30.645  26.796  24.654  1.00  0.00     0.139 A 
ATOM      7  C   UNL A   1      31.221  27.958  25.193  1.00  0.00     0.084 A 
ATOM      8  C   UNL A   1      31.322  25.552  24.762  1.00  0.00     0.043 A 
ATOM      9  C   UNL A   1      32.480  25.547  25.564  1.00  0.00     0.075 A 
ATOM     10  C   UNL A   1      30.944  24.330  24.153  1.00  0.00     0.014 A 
ATOM     11  N   UNL A   1      32.976  26.628  26.152  1.00  0.00    -0.240 NA
ATOM     12  C   UNL A   1      33.157  24.369  25.807  1.00  0.00     0.029 A 
ATOM     13  C   UNL A   1      31.637  23.146  24.413  1.00  0.00     0.001 A 
ATOM     14  C   UNL A   1      32.739  23.164  25.255  1.00  0.00     0.002 A 
BRANCH   6  15
ATOM     15  O   UNL A   1      29.430  26.980  24.009  1.00  0.00    -0.457 OA
BRANCH  15  16
ATOM     16  C   UNL A   1      29.212  28.084  23.199  1.00  0.00     0.127 A 
ATOM     17  C   UNL A   1      28.265  31.759  21.113  1.00  0.00     0.044 C 
ATOM     18  C   UNL A   1      28.587  30.456  21.792  1.00  0.00    -0.051 A 
ATOM     19  C   UNL A   1      27.599  29.773  22.508  1.00  0.00     0.007 A 
ATOM     20  C   UNL A   1      29.869  29.901  21.724  1.00  0.00     0.007 A 
ATOM     21  C   UNL A   1      27.910  28.597  23.205  1.00  0.00     0.047 A 
ATOM     22  C   UNL A   1      30.175  28.709  22.401  1.00  0.00     0.047 A 
ENDBRANCH  15  16
ENDBRANCH   6  15
ENDBRANCH   3   5
ENDBRANCH   2   3
ENDBRANCH   1   2
BRANCH   1  23
ATOM     23  C   UNL A   1      31.726  32.356  27.232  1.00  0.00     0.275 C 
BRANCH  23  24
ATOM     24  O   UNL A   1      32.322  33.678  27.370  1.00  0.00    -0.458 OA
BRANCH  24  25
ATOM     25  C   UNL A   1      32.972  34.193  28.441  1.00  0.00     0.338 C 
ATOM     26  O   UNL A   1      32.491  35.090  29.131  1.00  0.00    -0.246 OA
BRANCH  25  27
ATOM     27  C   UNL A   1      34.267  33.601  28.793  1.00  0.00     0.060 A 
ATOM     28  C   UNL A   1      34.331  32.648  29.821  1.00  0.00     0.016 A 
ATOM     29  C   UNL A   1      35.382  33.914  28.028  1.00  0.00     0.016 A 
ATOM     30  C   UNL A   1      35.495  31.929  30.027  1.00  0.00     0.010 A 
ATOM     31  C   UNL A   1      36.468  33.088  28.096  1.00  0.00     0.010 A 
ATOM     32  C   UNL A   1      36.548  32.169  29.152  1.00  0.00    -0.014 A 
BRANCH  32  33
ATOM     33  C   UNL A   1      37.919  31.845  29.481  1.00  0.00     0.031 A 
ATOM     34  C   UNL A   1      38.490  30.562  29.069  1.00  0.00     0.074 A 
ATOM     35  C   UNL A   1      38.533  32.917  30.034  1.00  0.00     0.049 A 
ATOM     36  N   UNL A   1      39.462  29.980  29.670  1.00  0.00    -0.248 NA
ATOM     37  C   UNL A   1      37.954  29.766  27.963  1.00  0.00     0.031 C 
ATOM     38  C   UNL A   1      39.918  33.263  30.262  1.00  0.00     0.029 A 
ATOM     39  N   UNL A   1      37.834  33.963  30.661  1.00  0.00    -0.354 N 
ATOM     40  C   UNL A   1      39.938  29.030  28.787  1.00  0.00     0.074 A 
ATOM     41  C   UNL A   1      38.857  28.783  27.872  1.00  0.00     0.031 C 
ATOM     42  C   UNL A   1      39.962  34.210  31.227  1.00  0.00     0.029 A 
ATOM     43  C   UNL A   1      38.601  34.400  31.730  1.00  0.00     0.049 A 
ATOM     44  H   UNL A   1      36.958  34.320  30.391  1.00  0.00     0.167 HD
ATOM     45  C   UNL A   1      41.279  28.784  28.769  1.00  0.00     0.031 A 
ATOM     46  C   UNL A   1      38.143  34.068  32.975  1.00  0.00     0.031 A 
ATOM     47  C   UNL A   1      41.938  29.601  29.791  1.00  0.00     0.049 A 
ATOM     48  C   UNL A   1      39.050  33.022  33.583  1.00  0.00     0.074 A 
ATOM     49  C   UNL A   1      42.588  30.822  29.710  1.00  0.00     0.029 A 
ATOM     50  N   UNL A   1      41.589  29.423  31.123  1.00  0.00    -0.354 N 
ATOM     51  N   UNL A   1      39.689  32.110  32.897  1.00  0.00    -0.248 NA
ATOM     52  C   UNL A   1      39.380  33.002  35.001  1.00  0.00     0.031 C 
ATOM     53  C   UNL A   1      42.529  31.425  30.998  1.00  0.00     0.029 A 
ATOM     54  C   UNL A   1      41.843  30.573  31.848  1.00  0.00     0.049 A 
ATOM     55  H   UNL A   1      41.213  28.595  31.499  1.00  0.00     0.167 HD
ATOM     56  C   UNL A   1      40.597  31.491  33.714  1.00  0.00     0.074 A 
ATOM     57  C   UNL A   1      40.334  32.056  35.030  1.00  0.00     0.031 C 
ATOM     58  C   UNL A   1      41.537  30.604  33.270  1.00  0.00     0.031 A 
BRANCH  45  59
ATOM     59  C   UNL A   1      42.032  28.116  27.640  1.00  0.00    -0.014 A 
ATOM     60  C   UNL A   1      41.766  28.518  26.316  1.00  0.00     0.009 A 
ATOM     61  C   UNL A   1      42.976  27.086  27.789  1.00  0.00     0.009 A 
ATOM     62  C   UNL A   1      42.359  27.898  25.208  1.00  0.00     0.001 A 
ATOM     63  C   UNL A   1      43.564  26.449  26.683  1.00  0.00     0.001 A 
ATOM     64  C   UNL A   1      43.251  26.852  25.392  1.00  0.00     0.000 A 
ENDBRANCH  45  59
BRANCH  46  65
ATOM     65  C   UNL A   1      36.642  34.128  33.127  1.00  0.00    -0.014 A 
ATOM     66  C   UNL A   1      35.959  35.265  32.622  1.00  0.00     0.009 A 
ATOM     67  C   UNL A   1      35.860  33.026  33.498  1.00  0.00     0.009 A 
ATOM     68  C   UNL A   1      34.578  35.254  32.384  1.00  0.00     0.001 A 
ATOM     69  C   UNL A   1      34.467  33.031  33.295  1.00  0.00     0.001 A 
ATOM     70  C   UNL A   1      33.832  34.130  32.709  1.00  0.00     0.000 A 
ENDBRANCH  46  65
BRANCH  58  71
ATOM     71  C   UNL A   1      42.335  29.682  34.153  1.00  0.00    -0.014 A 
ATOM     72  C   UNL A   1      41.773  28.634  34.890  1.00  0.00     0.009 A 
ATOM     73  C   UNL A   1      43.747  29.745  34.106  1.00  0.00     0.009 A 
ATOM     74  C   UNL A   1      42.579  27.730  35.588  1.00  0.00     0.001 A 
ATOM     75  C   UNL A   1      44.553  28.803  34.739  1.00  0.00     0.001 A 
ATOM     76  C   UNL A   1      43.966  27.803  35.498  1.00  0.00     0.000 A 
ENDBRANCH  58  71
ENDBRANCH  32  33
ENDBRANCH  25  27
ENDBRANCH  24  25
ENDBRANCH  23  24
ENDBRANCH   1  23
TORSDOF 13
ENDMDL
