MODEL 1
REMARK VINA RESULT:      -9.9      0.000      0.000
REMARK SMILES Cc1cc(Cl)cc2c1O[C@H](C(F)(F)F)C(C(=O)OCCOC(=O)c1ccc(-c3c4nc(c(-c5ccccc5)c5ccc([nH]5)c(-c5ccccc5)c5nc(c(-c6ccccc6)c6ccc3[nH]6)C=C5)C=C4)cc1)=C2
REMARK SMILES IDX 20 1 19 2 18 3 16 4 17 5 15 6 1 7 2 8 3 9 8 10 4 11 7 12
REMARK SMILES IDX 9 13 5 14 6 15 72 16 10 17 11 18 12 19 13 20 14 21 21 22
REMARK SMILES IDX 22 23 23 24 24 25 25 26 71 27 26 28 70 29 27 30 28 31 29 32
REMARK SMILES IDX 64 33 30 34 69 35 63 36 65 37 31 38 68 39 62 40 61 41 32 43
REMARK SMILES IDX 54 44 39 45 53 46 40 47 43 48 52 49 66 50 41 51 42 52 51 54
REMARK SMILES IDX 67 55 44 56 33 57 34 58 38 59 35 60 37 61 36 62 55 63 56 64
REMARK SMILES IDX 60 65 57 66 59 67 58 68 45 69 46 70 50 71 47 72 49 73 48 74
REMARK H PARENT 65 42 43 53
REMARK Flexibility Score: inf
ROOT
ATOM      1  C   UNL A   1      40.857  20.061  26.243  1.00  0.00     0.275 C 
ENDROOT
BRANCH   1   2
ATOM      2  C   UNL A   1      42.264  19.874  26.810  1.00  0.00     0.275 C 
BRANCH   2   3
ATOM      3  O   UNL A   1      43.267  20.384  25.904  1.00  0.00    -0.459 OA
BRANCH   3   4
ATOM      4  C   UNL A   1      43.216  21.716  25.672  1.00  0.00     0.338 C 
ATOM      5  O   UNL A   1      42.370  22.312  25.023  1.00  0.00    -0.246 OA
BRANCH   4   6
ATOM      6  C   UNL A   1      44.335  22.405  26.340  1.00  0.00     0.087 C 
ATOM      7  C   UNL A   1      48.743  24.849  27.364  1.00  0.00     0.048 C 
ATOM      8  C   UNL A   1      47.358  24.813  27.943  1.00  0.00    -0.007 A 
ATOM      9  C   UNL A   1      47.055  25.634  29.044  1.00  0.00     0.027 A 
ATOM     10  C   UNL A   1      46.372  23.951  27.439  1.00  0.00     0.131 A 
ATOM     11  C   UNL A   1      45.786  25.607  29.617  1.00  0.00     0.042 A 
ATOM     12  C   UNL A   1      45.099  23.945  28.011  1.00  0.00     0.019 A 
ATOM     13  O   UNL A   1      46.721  23.125  26.404  1.00  0.00    -0.475 OA
ATOM     14  Cl  UNL A   1      45.425  26.624  30.957  1.00  0.00    -0.084 Cl
ATOM     15  C   UNL A   1      44.805  24.767  29.106  1.00  0.00     0.032 A 
ATOM     16  C   UNL A   1      44.058  23.114  27.439  1.00  0.00     0.027 C 
ATOM     17  C   UNL A   1      45.680  22.411  25.679  1.00  0.00     0.316 C 
BRANCH  17  18
ATOM     18  C   UNL A   1      45.597  22.969  24.249  1.00  0.00     0.430 C 
ATOM     19  F   UNL A   1      45.061  22.065  23.396  1.00  0.00    -0.167 F 
ATOM     20  F   UNL A   1      44.808  24.070  24.191  1.00  0.00    -0.167 F 
ATOM     21  F   UNL A   1      46.810  23.316  23.765  1.00  0.00    -0.167 F 
ENDBRANCH  17  18
ENDBRANCH   4   6
ENDBRANCH   3   4
ENDBRANCH   2   3
ENDBRANCH   1   2
BRANCH   1  22
ATOM     22  O   UNL A   1      40.082  20.918  27.102  1.00  0.00    -0.458 OA
BRANCH  22  23
ATOM     23  C   UNL A   1      39.364  21.872  26.468  1.00  0.00     0.338 C 
ATOM     24  O   UNL A   1      38.482  21.713  25.641  1.00  0.00    -0.246 OA
BRANCH  23  25
ATOM     25  C   UNL A   1      39.724  23.204  26.979  1.00  0.00     0.060 A 
ATOM     26  C   UNL A   1      39.325  24.321  26.257  1.00  0.00     0.016 A 
ATOM     27  C   UNL A   1      40.631  23.339  28.027  1.00  0.00     0.016 A 
ATOM     28  C   UNL A   1      39.967  25.539  26.453  1.00  0.00     0.010 A 
ATOM     29  C   UNL A   1      41.149  24.605  28.329  1.00  0.00     0.010 A 
ATOM     30  C   UNL A   1      40.874  25.713  27.507  1.00  0.00    -0.014 A 
BRANCH  30  31
ATOM     31  C   UNL A   1      41.546  27.031  27.716  1.00  0.00     0.031 A 
ATOM     32  C   UNL A   1      42.884  27.320  27.073  1.00  0.00     0.074 A 
ATOM     33  C   UNL A   1      40.952  27.994  28.451  1.00  0.00     0.049 A 
ATOM     34  N   UNL A   1      43.699  28.326  27.277  1.00  0.00    -0.248 NA
ATOM     35  C   UNL A   1      43.377  26.348  26.083  1.00  0.00     0.031 C 
ATOM     36  C   UNL A   1      39.633  27.895  29.082  1.00  0.00     0.029 A 
ATOM     37  N   UNL A   1      41.371  29.264  28.775  1.00  0.00    -0.354 N 
ATOM     38  C   UNL A   1      44.819  28.076  26.491  1.00  0.00     0.074 A 
ATOM     39  C   UNL A   1      44.587  26.819  25.814  1.00  0.00     0.031 C 
ATOM     40  C   UNL A   1      39.320  29.070  29.644  1.00  0.00     0.029 A 
ATOM     41  C   UNL A   1      40.461  29.967  29.529  1.00  0.00     0.049 A 
ATOM     42  H   UNL A   1      42.239  29.633  28.493  1.00  0.00     0.167 HD
ATOM     43  C   UNL A   1      45.938  28.827  26.346  1.00  0.00     0.031 A 
ATOM     44  C   UNL A   1      40.544  31.177  30.114  1.00  0.00     0.031 A 
ATOM     45  C   UNL A   1      46.146  30.101  26.980  1.00  0.00     0.049 A 
ATOM     46  C   UNL A   1      41.821  31.955  30.000  1.00  0.00     0.074 A 
ATOM     47  C   UNL A   1      47.247  30.937  26.894  1.00  0.00     0.029 A 
ATOM     48  N   UNL A   1      45.226  30.735  27.800  1.00  0.00    -0.354 N 
ATOM     49  N   UNL A   1      42.903  31.667  29.318  1.00  0.00    -0.248 NA
ATOM     50  C   UNL A   1      41.901  33.210  30.761  1.00  0.00     0.031 C 
ATOM     51  C   UNL A   1      47.012  32.054  27.701  1.00  0.00     0.029 A 
ATOM     52  C   UNL A   1      45.744  31.940  28.245  1.00  0.00     0.049 A 
ATOM     53  H   UNL A   1      44.336  30.381  28.032  1.00  0.00     0.167 HD
ATOM     54  C   UNL A   1      43.790  32.706  29.563  1.00  0.00     0.074 A 
ATOM     55  C   UNL A   1      43.110  33.644  30.433  1.00  0.00     0.031 C 
ATOM     56  C   UNL A   1      45.058  32.861  29.114  1.00  0.00     0.031 A 
BRANCH  43  57
ATOM     57  C   UNL A   1      47.047  28.279  25.488  1.00  0.00    -0.014 A 
ATOM     58  C   UNL A   1      46.863  28.023  24.121  1.00  0.00     0.009 A 
ATOM     59  C   UNL A   1      48.320  28.081  26.049  1.00  0.00     0.009 A 
ATOM     60  C   UNL A   1      47.924  27.555  23.340  1.00  0.00     0.001 A 
ATOM     61  C   UNL A   1      49.385  27.640  25.260  1.00  0.00     0.001 A 
ATOM     62  C   UNL A   1      49.183  27.372  23.908  1.00  0.00     0.000 A 
ENDBRANCH  43  57
BRANCH  44  63
ATOM     63  C   UNL A   1      39.398  31.697  30.908  1.00  0.00    -0.014 A 
ATOM     64  C   UNL A   1      39.320  31.454  32.287  1.00  0.00     0.009 A 
ATOM     65  C   UNL A   1      38.390  32.462  30.296  1.00  0.00     0.009 A 
ATOM     66  C   UNL A   1      38.254  31.963  33.035  1.00  0.00     0.001 A 
ATOM     67  C   UNL A   1      37.346  32.998  31.052  1.00  0.00     0.001 A 
ATOM     68  C   UNL A   1      37.276  32.743  32.420  1.00  0.00     0.000 A 
ENDBRANCH  44  63
BRANCH  56  69
ATOM     69  C   UNL A   1      45.793  34.097  29.541  1.00  0.00    -0.014 A 
ATOM     70  C   UNL A   1      45.744  35.269  28.771  1.00  0.00     0.009 A 
ATOM     71  C   UNL A   1      46.488  34.111  30.761  1.00  0.00     0.009 A 
ATOM     72  C   UNL A   1      46.395  36.425  29.205  1.00  0.00     0.001 A 
ATOM     73  C   UNL A   1      47.114  35.275  31.206  1.00  0.00     0.001 A 
ATOM     74  C   UNL A   1      47.073  36.430  30.424  1.00  0.00     0.000 A 
ENDBRANCH  56  69
ENDBRANCH  30  31
ENDBRANCH  23  25
ENDBRANCH  22  23
ENDBRANCH   1  22
TORSDOF 12
ENDMDL
MODEL 2
REMARK VINA RESULT:      -9.8      4.780      9.386
REMARK SMILES Cc1cc(Cl)cc2c1O[C@H](C(F)(F)F)C(C(=O)OCCOC(=O)c1ccc(-c3c4nc(c(-c5ccccc5)c5ccc([nH]5)c(-c5ccccc5)c5nc(c(-c6ccccc6)c6ccc3[nH]6)C=C5)C=C4)cc1)=C2
REMARK SMILES IDX 20 1 19 2 18 3 16 4 17 5 15 6 1 7 2 8 3 9 8 10 4 11 7 12
REMARK SMILES IDX 9 13 5 14 6 15 72 16 10 17 11 18 12 19 13 20 14 21 21 22
REMARK SMILES IDX 22 23 23 24 24 25 25 26 71 27 26 28 70 29 27 30 28 31 29 32
REMARK SMILES IDX 64 33 30 34 69 35 63 36 65 37 31 38 68 39 62 40 61 41 32 43
REMARK SMILES IDX 54 44 39 45 53 46 40 47 43 48 52 49 66 50 41 51 42 52 51 54
REMARK SMILES IDX 67 55 44 56 33 57 34 58 38 59 35 60 37 61 36 62 55 63 56 64
REMARK SMILES IDX 60 65 57 66 59 67 58 68 45 69 46 70 50 71 47 72 49 73 48 74
REMARK H PARENT 65 42 43 53
REMARK Flexibility Score: inf
ROOT
ATOM      1  C   UNL A   1      35.948  20.590  25.040  1.00  0.00     0.275 C 
ENDROOT
BRANCH   1   2
ATOM      2  C   UNL A   1      34.677  21.393  24.765  1.00  0.00     0.275 C 
BRANCH   2   3
ATOM      3  O   UNL A   1      34.946  22.812  24.746  1.00  0.00    -0.459 OA
BRANCH   3   4
ATOM      4  C   UNL A   1      34.782  23.417  23.548  1.00  0.00     0.338 C 
ATOM      5  O   UNL A   1      35.263  23.067  22.481  1.00  0.00    -0.246 OA
BRANCH   4   6
ATOM      6  C   UNL A   1      33.898  24.590  23.673  1.00  0.00     0.087 C 
ATOM      7  C   UNL A   1      29.832  27.739  23.780  1.00  0.00     0.048 C 
ATOM      8  C   UNL A   1      31.165  27.658  24.467  1.00  0.00    -0.007 A 
ATOM      9  C   UNL A   1      31.499  28.627  25.431  1.00  0.00     0.027 A 
ATOM     10  C   UNL A   1      32.100  26.663  24.143  1.00  0.00     0.131 A 
ATOM     11  C   UNL A   1      32.736  28.591  26.069  1.00  0.00     0.042 A 
ATOM     12  C   UNL A   1      33.331  26.627  24.802  1.00  0.00     0.019 A 
ATOM     13  O   UNL A   1      31.763  25.771  23.160  1.00  0.00    -0.475 OA
ATOM     14  Cl  UNL A   1      33.128  29.776  27.252  1.00  0.00    -0.084 Cl
ATOM     15  C   UNL A   1      33.654  27.595  25.760  1.00  0.00     0.032 A 
ATOM     16  C   UNL A   1      34.263  25.554  24.525  1.00  0.00     0.027 C 
ATOM     17  C   UNL A   1      32.573  24.577  22.971  1.00  0.00     0.316 C 
BRANCH  17  18
ATOM     18  C   UNL A   1      31.744  23.344  23.366  1.00  0.00     0.430 C 
ATOM     19  F   UNL A   1      31.860  23.074  24.688  1.00  0.00    -0.167 F 
ATOM     20  F   UNL A   1      30.424  23.538  23.126  1.00  0.00    -0.167 F 
ATOM     21  F   UNL A   1      32.121  22.237  22.688  1.00  0.00    -0.167 F 
ENDBRANCH  17  18
ENDBRANCH   4   6
ENDBRANCH   3   4
ENDBRANCH   2   3
ENDBRANCH   1   2
BRANCH   1  22
ATOM     22  O   UNL A   1      37.114  21.388  24.762  1.00  0.00    -0.458 OA
BRANCH  22  23
ATOM     23  C   UNL A   1      38.239  21.008  25.406  1.00  0.00     0.338 C 
ATOM     24  O   UNL A   1      38.780  19.915  25.379  1.00  0.00    -0.246 OA
BRANCH  23  25
ATOM     25  C   UNL A   1      38.828  22.151  26.121  1.00  0.00     0.060 A 
ATOM     26  C   UNL A   1      38.278  23.410  25.926  1.00  0.00     0.016 A 
ATOM     27  C   UNL A   1      40.041  22.017  26.793  1.00  0.00     0.016 A 
ATOM     28  C   UNL A   1      39.019  24.547  26.231  1.00  0.00     0.010 A 
ATOM     29  C   UNL A   1      40.705  23.163  27.249  1.00  0.00     0.010 A 
ATOM     30  C   UNL A   1      40.236  24.448  26.920  1.00  0.00    -0.014 A 
BRANCH  30  31
ATOM     31  C   UNL A   1      41.017  25.677  27.254  1.00  0.00     0.031 A 
ATOM     32  C   UNL A   1      40.477  26.682  28.246  1.00  0.00     0.074 A 
ATOM     33  C   UNL A   1      42.231  25.889  26.703  1.00  0.00     0.049 A 
ATOM     34  N   UNL A   1      40.920  27.883  28.530  1.00  0.00    -0.248 NA
ATOM     35  C   UNL A   1      39.279  26.296  29.009  1.00  0.00     0.031 C 
ATOM     36  C   UNL A   1      42.919  24.982  25.780  1.00  0.00     0.029 A 
ATOM     37  N   UNL A   1      43.118  26.928  26.858  1.00  0.00    -0.354 N 
ATOM     38  C   UNL A   1      40.024  28.412  29.453  1.00  0.00     0.074 A 
ATOM     39  C   UNL A   1      39.005  27.410  29.674  1.00  0.00     0.031 C 
ATOM     40  C   UNL A   1      44.142  25.462  25.515  1.00  0.00     0.029 A 
ATOM     41  C   UNL A   1      44.282  26.769  26.141  1.00  0.00     0.049 A 
ATOM     42  H   UNL A   1      42.937  27.710  27.426  1.00  0.00     0.167 HD
ATOM     43  C   UNL A   1      40.049  29.623  30.061  1.00  0.00     0.031 A 
ATOM     44  C   UNL A   1      45.328  27.595  25.959  1.00  0.00     0.031 A 
ATOM     45  C   UNL A   1      41.089  30.600  29.878  1.00  0.00     0.049 A 
ATOM     46  C   UNL A   1      45.297  28.959  26.581  1.00  0.00     0.074 A 
ATOM     47  C   UNL A   1      41.204  31.856  30.452  1.00  0.00     0.029 A 
ATOM     48  N   UNL A   1      42.208  30.422  29.079  1.00  0.00    -0.354 N 
ATOM     49  N   UNL A   1      44.401  29.476  27.387  1.00  0.00    -0.248 NA
ATOM     50  C   UNL A   1      46.404  29.865  26.246  1.00  0.00     0.031 C 
ATOM     51  C   UNL A   1      42.366  32.457  29.960  1.00  0.00     0.029 A 
ATOM     52  C   UNL A   1      43.005  31.554  29.127  1.00  0.00     0.049 A 
ATOM     53  H   UNL A   1      42.407  29.612  28.556  1.00  0.00     0.167 HD
ATOM     54  C   UNL A   1      44.839  30.764  27.660  1.00  0.00     0.074 A 
ATOM     55  C   UNL A   1      46.093  30.941  26.956  1.00  0.00     0.031 C 
ATOM     56  C   UNL A   1      44.247  31.718  28.418  1.00  0.00     0.031 A 
BRANCH  43  57
ATOM     57  C   UNL A   1      38.899  29.982  30.964  1.00  0.00    -0.014 A 
ATOM     58  C   UNL A   1      37.733  30.582  30.467  1.00  0.00     0.009 A 
ATOM     59  C   UNL A   1      38.962  29.651  32.328  1.00  0.00     0.009 A 
ATOM     60  C   UNL A   1      36.663  30.864  31.323  1.00  0.00     0.001 A 
ATOM     61  C   UNL A   1      37.882  29.908  33.174  1.00  0.00     0.001 A 
ATOM     62  C   UNL A   1      36.736  30.521  32.672  1.00  0.00     0.000 A 
ENDBRANCH  43  57
BRANCH  44  63
ATOM     63  C   UNL A   1      46.466  27.171  25.098  1.00  0.00    -0.014 A 
ATOM     64  C   UNL A   1      46.732  27.835  23.891  1.00  0.00     0.009 A 
ATOM     65  C   UNL A   1      47.310  26.120  25.493  1.00  0.00     0.009 A 
ATOM     66  C   UNL A   1      47.815  27.450  23.096  1.00  0.00     0.001 A 
ATOM     67  C   UNL A   1      48.412  25.761  24.715  1.00  0.00     0.001 A 
ATOM     68  C   UNL A   1      48.660  26.422  23.514  1.00  0.00     0.000 A 
ENDBRANCH  44  63
BRANCH  56  69
ATOM     69  C   UNL A   1      44.953  33.036  28.540  1.00  0.00    -0.014 A 
ATOM     70  C   UNL A   1      45.931  33.243  29.524  1.00  0.00     0.009 A 
ATOM     71  C   UNL A   1      44.685  34.061  27.619  1.00  0.00     0.009 A 
ATOM     72  C   UNL A   1      46.612  34.459  29.597  1.00  0.00     0.001 A 
ATOM     73  C   UNL A   1      45.386  35.265  27.676  1.00  0.00     0.001 A 
ATOM     74  C   UNL A   1      46.345  35.466  28.669  1.00  0.00     0.000 A 
ENDBRANCH  56  69
ENDBRANCH  30  31
ENDBRANCH  23  25
ENDBRANCH  22  23
ENDBRANCH   1  22
TORSDOF 12
ENDMDL
MODEL 3
REMARK VINA RESULT:      -9.7      5.884      9.346
REMARK SMILES Cc1cc(Cl)cc2c1O[C@H](C(F)(F)F)C(C(=O)OCCOC(=O)c1ccc(-c3c4nc(c(-c5ccccc5)c5ccc([nH]5)c(-c5ccccc5)c5nc(c(-c6ccccc6)c6ccc3[nH]6)C=C5)C=C4)cc1)=C2
REMARK SMILES IDX 20 1 19 2 18 3 16 4 17 5 15 6 1 7 2 8 3 9 8 10 4 11 7 12
REMARK SMILES IDX 9 13 5 14 6 15 72 16 10 17 11 18 12 19 13 20 14 21 21 22
REMARK SMILES IDX 22 23 23 24 24 25 25 26 71 27 26 28 70 29 27 30 28 31 29 32
REMARK SMILES IDX 64 33 30 34 69 35 63 36 65 37 31 38 68 39 62 40 61 41 32 43
REMARK SMILES IDX 54 44 39 45 53 46 40 47 43 48 52 49 66 50 41 51 42 52 51 54
REMARK SMILES IDX 67 55 44 56 33 57 34 58 38 59 35 60 37 61 36 62 55 63 56 64
REMARK SMILES IDX 60 65 57 66 59 67 58 68 45 69 46 70 50 71 47 72 49 73 48 74
REMARK H PARENT 65 42 43 53
REMARK Flexibility Score: inf
ROOT
ATOM      1  C   UNL A   1      31.738  30.034  25.417  1.00  0.00     0.275 C 
ENDROOT
BRANCH   1   2
ATOM      2  C   UNL A   1      31.811  28.638  24.800  1.00  0.00     0.275 C 
BRANCH   2   3
ATOM      3  O   UNL A   1      32.469  27.705  25.686  1.00  0.00    -0.459 OA
BRANCH   3   4
ATOM      4  C   UNL A   1      31.668  26.762  26.233  1.00  0.00     0.338 C 
ATOM      5  O   UNL A   1      30.654  26.954  26.887  1.00  0.00    -0.246 OA
BRANCH   4   6
ATOM      6  C   UNL A   1      32.164  25.410  25.919  1.00  0.00     0.087 C 
ATOM      7  C   UNL A   1      32.853  20.734  23.889  1.00  0.00     0.048 C 
ATOM      8  C   UNL A   1      33.718  21.782  24.529  1.00  0.00    -0.007 A 
ATOM      9  C   UNL A   1      35.101  21.552  24.642  1.00  0.00     0.027 A 
ATOM     10  C   UNL A   1      33.175  22.965  25.053  1.00  0.00     0.131 A 
ATOM     11  C   UNL A   1      35.926  22.494  25.249  1.00  0.00     0.042 A 
ATOM     12  C   UNL A   1      34.014  23.911  25.644  1.00  0.00     0.019 A 
ATOM     13  O   UNL A   1      31.817  23.129  24.975  1.00  0.00    -0.475 OA
ATOM     14  Cl  UNL A   1      37.617  22.206  25.373  1.00  0.00    -0.084 Cl
ATOM     15  C   UNL A   1      35.390  23.674  25.751  1.00  0.00     0.032 A 
ATOM     16  C   UNL A   1      33.465  25.167  26.111  1.00  0.00     0.027 C 
ATOM     17  C   UNL A   1      31.238  24.434  25.258  1.00  0.00     0.316 C 
BRANCH  17  18
ATOM     18  C   UNL A   1      30.652  25.011  23.960  1.00  0.00     0.430 C 
ATOM     19  F   UNL A   1      31.574  25.728  23.276  1.00  0.00    -0.167 F 
ATOM     20  F   UNL A   1      30.232  24.027  23.126  1.00  0.00    -0.167 F 
ATOM     21  F   UNL A   1      29.596  25.821  24.193  1.00  0.00    -0.167 F 
ENDBRANCH  17  18
ENDBRANCH   4   6
ENDBRANCH   3   4
ENDBRANCH   2   3
ENDBRANCH   1   2
BRANCH   1  22
ATOM     22  O   UNL A   1      32.323  30.030  26.733  1.00  0.00    -0.458 OA
BRANCH  22  23
ATOM     23  C   UNL A   1      32.920  31.185  27.102  1.00  0.00     0.338 C 
ATOM     24  O   UNL A   1      32.413  32.292  27.183  1.00  0.00    -0.246 OA
BRANCH  23  25
ATOM     25  C   UNL A   1      34.313  30.934  27.502  1.00  0.00     0.060 A 
ATOM     26  C   UNL A   1      34.738  29.618  27.635  1.00  0.00     0.016 A 
ATOM     27  C   UNL A   1      35.117  31.975  27.957  1.00  0.00     0.016 A 
ATOM     28  C   UNL A   1      35.872  29.328  28.385  1.00  0.00     0.010 A 
ATOM     29  C   UNL A   1      36.345  31.681  28.565  1.00  0.00     0.010 A 
ATOM     30  C   UNL A   1      36.711  30.352  28.846  1.00  0.00    -0.014 A 
BRANCH  30  31
ATOM     31  C   UNL A   1      37.935  30.027  29.639  1.00  0.00     0.031 A 
ATOM     32  C   UNL A   1      39.060  29.229  29.022  1.00  0.00     0.074 A 
ATOM     33  C   UNL A   1      38.068  30.472  30.907  1.00  0.00     0.049 A 
ATOM     34  N   UNL A   1      40.112  28.701  29.598  1.00  0.00    -0.248 NA
ATOM     35  C   UNL A   1      38.990  28.980  27.572  1.00  0.00     0.031 C 
ATOM     36  C   UNL A   1      37.101  31.309  31.623  1.00  0.00     0.029 A 
ATOM     37  N   UNL A   1      39.085  30.303  31.816  1.00  0.00    -0.354 N 
ATOM     38  C   UNL A   1      40.790  28.012  28.598  1.00  0.00     0.074 A 
ATOM     39  C   UNL A   1      40.028  28.176  27.380  1.00  0.00     0.031 C 
ATOM     40  C   UNL A   1      37.603  31.643  32.820  1.00  0.00     0.029 A 
ATOM     41  C   UNL A   1      38.866  30.944  33.013  1.00  0.00     0.049 A 
ATOM     42  H   UNL A   1      39.894  29.774  31.627  1.00  0.00     0.167 HD
ATOM     43  C   UNL A   1      41.945  27.307  28.686  1.00  0.00     0.031 A 
ATOM     44  C   UNL A   1      39.566  30.935  34.162  1.00  0.00     0.031 A 
ATOM     45  C   UNL A   1      42.729  27.185  29.886  1.00  0.00     0.049 A 
ATOM     46  C   UNL A   1      40.800  30.088  34.258  1.00  0.00     0.074 A 
ATOM     47  C   UNL A   1      43.914  26.493  30.075  1.00  0.00     0.029 A 
ATOM     48  N   UNL A   1      42.422  27.789  31.095  1.00  0.00    -0.354 N 
ATOM     49  N   UNL A   1      41.384  29.376  33.325  1.00  0.00    -0.248 NA
ATOM     50  C   UNL A   1      41.454  30.017  35.572  1.00  0.00     0.031 C 
ATOM     51  C   UNL A   1      44.297  26.637  31.411  1.00  0.00     0.029 A 
ATOM     52  C   UNL A   1      43.382  27.465  32.040  1.00  0.00     0.049 A 
ATOM     53  H   UNL A   1      41.638  28.362  31.259  1.00  0.00     0.167 HD
ATOM     54  C   UNL A   1      42.476  28.777  33.937  1.00  0.00     0.074 A 
ATOM     55  C   UNL A   1      42.489  29.231  35.313  1.00  0.00     0.031 C 
ATOM     56  C   UNL A   1      43.380  27.919  33.406  1.00  0.00     0.031 A 
BRANCH  43  57
ATOM     57  C   UNL A   1      42.422  26.580  27.458  1.00  0.00    -0.014 A 
ATOM     58  C   UNL A   1      43.316  27.172  26.553  1.00  0.00     0.009 A 
ATOM     59  C   UNL A   1      42.018  25.252  27.240  1.00  0.00     0.009 A 
ATOM     60  C   UNL A   1      43.776  26.456  25.443  1.00  0.00     0.001 A 
ATOM     61  C   UNL A   1      42.501  24.531  26.147  1.00  0.00     0.001 A 
ATOM     62  C   UNL A   1      43.374  25.136  25.246  1.00  0.00     0.000 A 
ENDBRANCH  43  57
BRANCH  44  63
ATOM     63  C   UNL A   1      39.079  31.715  35.333  1.00  0.00    -0.014 A 
ATOM     64  C   UNL A   1      38.215  31.128  36.269  1.00  0.00     0.009 A 
ATOM     65  C   UNL A   1      39.499  33.040  35.536  1.00  0.00     0.009 A 
ATOM     66  C   UNL A   1      37.776  31.854  37.379  1.00  0.00     0.001 A 
ATOM     67  C   UNL A   1      39.088  33.751  36.665  1.00  0.00     0.001 A 
ATOM     68  C   UNL A   1      38.222  33.160  37.583  1.00  0.00     0.000 A 
ENDBRANCH  44  63
BRANCH  56  69
ATOM     69  C   UNL A   1      44.471  27.424  34.309  1.00  0.00    -0.014 A 
ATOM     70  C   UNL A   1      44.329  26.225  35.023  1.00  0.00     0.009 A 
ATOM     71  C   UNL A   1      45.681  28.131  34.395  1.00  0.00     0.009 A 
ATOM     72  C   UNL A   1      45.371  25.754  35.823  1.00  0.00     0.001 A 
ATOM     73  C   UNL A   1      46.731  27.644  35.174  1.00  0.00     0.001 A 
ATOM     74  C   UNL A   1      46.573  26.459  35.893  1.00  0.00     0.000 A 
ENDBRANCH  56  69
ENDBRANCH  30  31
ENDBRANCH  23  25
ENDBRANCH  22  23
ENDBRANCH   1  22
TORSDOF 12
ENDMDL
