MODEL 1
REMARK VINA RESULT:     -12.0      0.000      0.000
REMARK SMILES O=C(C[C@H](NC(=O)[C@]12C[C@H]3C[C@H](C[C@H](C3)C1)C2)c1cccc([N+](=O)[O-])c1)OCCOC(=O)c1ccc(-c2c3nc(c(-c4ccccc4)c4ccc([nH]4)c(-c4ccccc4)c4nc(c(-c5ccccc5)c5ccc2[nH]5)C=C4)C=C3)cc1
REMARK SMILES IDX 28 1 27 2 2 3 1 4 3 5 4 6 18 7 19 8 26 9 20 10 22 11 21 12
REMARK SMILES IDX 23 13 24 14 25 15 5 16 6 17 7 19 8 20 9 21 16 22 17 23 10 24
REMARK SMILES IDX 14 25 12 26 11 27 15 28 13 29 29 30 30 31 31 32 32 33 33 34
REMARK SMILES IDX 34 35 80 36 35 37 79 38 36 39 37 40 38 41 73 42 39 43 78 44
REMARK SMILES IDX 72 45 74 46 40 47 77 48 71 49 70 50 41 52 63 53 48 54 62 55
REMARK SMILES IDX 49 56 52 57 61 58 75 59 50 60 51 61 60 63 76 64 53 65 42 66
REMARK SMILES IDX 43 67 47 68 44 69 46 70 45 71 64 72 65 73 69 74 66 75 68 76
REMARK SMILES IDX 67 77 54 78 55 79 59 80 56 81 58 82 57 83
REMARK H PARENT 5 18 74 51 52 62
REMARK Flexibility Score: inf
ROOT
ATOM      1  C   UNL A   1      31.797  31.009  26.539  1.00  0.00     0.274 C 
ENDROOT
BRANCH   1   2
ATOM      2  O   UNL A   1      33.198  30.675  26.451  1.00  0.00    -0.462 OA
BRANCH   2   3
ATOM      3  C   UNL A   1      33.471  29.402  26.057  1.00  0.00     0.308 C 
ATOM      4  O   UNL A   1      34.184  28.640  26.692  1.00  0.00    -0.252 OA
BRANCH   3   5
ATOM      5  C   UNL A   1      32.981  29.133  24.664  1.00  0.00     0.152 C 
BRANCH   5   6
ATOM      6  C   UNL A   1      32.558  27.690  24.423  1.00  0.00     0.123 C 
BRANCH   6   7
ATOM      7  C   UNL A   1      31.035  27.696  24.173  1.00  0.00    -0.018 A 
ATOM      8  C   UNL A   1      30.276  26.561  24.516  1.00  0.00     0.006 A 
ATOM      9  C   UNL A   1      30.396  28.736  23.483  1.00  0.00     0.091 A 
ATOM     10  C   UNL A   1      28.947  26.413  24.111  1.00  0.00     0.007 A 
ATOM     11  C   UNL A   1      29.046  28.594  23.101  1.00  0.00     0.269 A 
ATOM     12  C   UNL A   1      28.328  27.425  23.389  1.00  0.00     0.085 A 
BRANCH  11  13
ATOM     13  N   UNL A   1      28.376  29.669  22.363  1.00  0.00     0.062 N 
ATOM     14  O   UNL A   1      27.308  30.100  22.820  1.00  0.00    -0.258 OA
ATOM     15  O   UNL A   1      28.923  30.083  21.332  1.00  0.00    -0.258 OA
ENDBRANCH  11  13
ENDBRANCH   6   7
BRANCH   6  16
ATOM     16  N   UNL A   1      33.201  26.967  23.295  1.00  0.00    -0.348 N 
ATOM     17  C   UNL A   1      33.571  25.718  22.915  1.00  0.00     0.226 C 
ATOM     18  H   UNL A   1      33.437  27.610  22.588  1.00  0.00     0.164 HD
ATOM     19  O   UNL A   1      33.737  25.606  21.692  1.00  0.00    -0.274 OA
BRANCH  17  20
ATOM     20  C   UNL A   1      33.838  24.507  23.833  1.00  0.00     0.050 C 
ATOM     21  C   UNL A   1      32.566  23.675  24.078  1.00  0.00     0.020 C 
ATOM     22  C   UNL A   1      34.553  24.933  25.124  1.00  0.00     0.020 C 
ATOM     23  C   UNL A   1      34.859  23.521  23.154  1.00  0.00     0.020 C 
ATOM     24  C   UNL A   1      32.860  22.505  25.035  1.00  0.00    -0.010 C 
ATOM     25  C   UNL A   1      34.787  23.756  26.075  1.00  0.00    -0.010 C 
ATOM     26  C   UNL A   1      35.175  22.314  24.071  1.00  0.00    -0.010 C 
ATOM     27  C   UNL A   1      33.875  21.557  24.374  1.00  0.00     0.007 C 
ATOM     28  C   UNL A   1      33.452  23.045  26.347  1.00  0.00     0.007 C 
ATOM     29  C   UNL A   1      35.771  22.796  25.402  1.00  0.00     0.007 C 
ENDBRANCH  17  20
ENDBRANCH   6  16
ENDBRANCH   5   6
ENDBRANCH   3   5
ENDBRANCH   2   3
ENDBRANCH   1   2
BRANCH   1  30
ATOM     30  C   UNL A   1      31.584  32.449  27.026  1.00  0.00     0.275 C 
BRANCH  30  31
ATOM     31  O   UNL A   1      32.783  33.251  26.879  1.00  0.00    -0.458 OA
BRANCH  31  32
ATOM     32  C   UNL A   1      33.187  33.876  28.023  1.00  0.00     0.338 C 
ATOM     33  O   UNL A   1      32.568  34.729  28.624  1.00  0.00    -0.246 OA
BRANCH  32  34
ATOM     34  C   UNL A   1      34.460  33.296  28.541  1.00  0.00     0.060 A 
ATOM     35  C   UNL A   1      34.381  32.123  29.295  1.00  0.00     0.016 A 
ATOM     36  C   UNL A   1      35.716  33.866  28.310  1.00  0.00     0.016 A 
ATOM     37  C   UNL A   1      35.547  31.473  29.720  1.00  0.00     0.010 A 
ATOM     38  C   UNL A   1      36.890  33.222  28.747  1.00  0.00     0.010 A 
ATOM     39  C   UNL A   1      36.819  32.006  29.441  1.00  0.00    -0.014 A 
BRANCH  39  40
ATOM     40  C   UNL A   1      38.018  31.344  30.033  1.00  0.00     0.031 A 
ATOM     41  C   UNL A   1      38.349  31.645  31.469  1.00  0.00     0.074 A 
ATOM     42  C   UNL A   1      38.751  30.420  29.379  1.00  0.00     0.049 A 
ATOM     43  N   UNL A   1      39.189  31.044  32.271  1.00  0.00    -0.248 NA
ATOM     44  C   UNL A   1      37.599  32.749  32.089  1.00  0.00     0.031 C 
ATOM     45  C   UNL A   1      38.526  29.968  28.012  1.00  0.00     0.029 A 
ATOM     46  N   UNL A   1      39.819  29.660  29.805  1.00  0.00    -0.354 N 
ATOM     47  C   UNL A   1      39.018  31.652  33.507  1.00  0.00     0.074 A 
ATOM     48  C   UNL A   1      38.011  32.677  33.345  1.00  0.00     0.031 C 
ATOM     49  C   UNL A   1      39.399  28.985  27.720  1.00  0.00     0.029 A 
ATOM     50  C   UNL A   1      40.273  28.756  28.869  1.00  0.00     0.049 A 
ATOM     51  H   UNL A   1      40.222  29.754  30.699  1.00  0.00     0.167 HD
ATOM     52  C   UNL A   1      39.651  31.401  34.675  1.00  0.00     0.031 A 
ATOM     53  C   UNL A   1      41.275  27.854  28.933  1.00  0.00     0.031 A 
ATOM     54  C   UNL A   1      40.757  30.503  34.831  1.00  0.00     0.049 A 
ATOM     55  C   UNL A   1      42.096  27.739  30.197  1.00  0.00     0.074 A 
ATOM     56  C   UNL A   1      41.538  30.286  35.952  1.00  0.00     0.029 A 
ATOM     57  N   UNL A   1      41.271  29.707  33.821  1.00  0.00    -0.354 N 
ATOM     58  N   UNL A   1      41.899  28.295  31.368  1.00  0.00    -0.248 NA
ATOM     59  C   UNL A   1      43.290  26.878  30.140  1.00  0.00     0.031 C 
ATOM     60  C   UNL A   1      42.569  29.408  35.600  1.00  0.00     0.029 A 
ATOM     61  C   UNL A   1      42.390  29.035  34.277  1.00  0.00     0.049 A 
ATOM     62  H   UNL A   1      40.896  29.632  32.913  1.00  0.00     0.167 HD
ATOM     63  C   UNL A   1      42.928  27.836  32.185  1.00  0.00     0.074 A 
ATOM     64  C   UNL A   1      43.734  26.939  31.387  1.00  0.00     0.031 C 
ATOM     65  C   UNL A   1      43.186  28.142  33.479  1.00  0.00     0.031 A 
BRANCH  52  66
ATOM     66  C   UNL A   1      39.198  32.204  35.854  1.00  0.00    -0.014 A 
ATOM     67  C   UNL A   1      39.793  33.440  36.151  1.00  0.00     0.009 A 
ATOM     68  C   UNL A   1      38.200  31.699  36.698  1.00  0.00     0.009 A 
ATOM     69  C   UNL A   1      39.413  34.144  37.294  1.00  0.00     0.001 A 
ATOM     70  C   UNL A   1      37.813  32.411  37.833  1.00  0.00     0.001 A 
ATOM     71  C   UNL A   1      38.425  33.627  38.134  1.00  0.00     0.000 A 
ENDBRANCH  52  66
BRANCH  53  72
ATOM     72  C   UNL A   1      41.627  26.998  27.762  1.00  0.00    -0.014 A 
ATOM     73  C   UNL A   1      42.487  27.472  26.756  1.00  0.00     0.009 A 
ATOM     74  C   UNL A   1      41.013  25.748  27.586  1.00  0.00     0.009 A 
ATOM     75  C   UNL A   1      42.690  26.732  25.586  1.00  0.00     0.001 A 
ATOM     76  C   UNL A   1      41.243  24.997  26.429  1.00  0.00     0.001 A 
ATOM     77  C   UNL A   1      42.068  25.496  25.425  1.00  0.00     0.000 A 
ENDBRANCH  53  72
BRANCH  65  78
ATOM     78  C   UNL A   1      44.378  27.497  34.129  1.00  0.00    -0.014 A 
ATOM     79  C   UNL A   1      45.631  28.129  34.138  1.00  0.00     0.009 A 
ATOM     80  C   UNL A   1      44.228  26.277  34.808  1.00  0.00     0.009 A 
ATOM     81  C   UNL A   1      46.714  27.543  34.797  1.00  0.00     0.001 A 
ATOM     82  C   UNL A   1      45.305  25.706  35.489  1.00  0.00     0.001 A 
ATOM     83  C   UNL A   1      46.548  26.337  35.477  1.00  0.00     0.000 A 
ENDBRANCH  65  78
ENDBRANCH  39  40
ENDBRANCH  32  34
ENDBRANCH  31  32
ENDBRANCH  30  31
ENDBRANCH   1  30
TORSDOF 16
ENDMDL
MODEL 2
REMARK VINA RESULT:     -11.8      4.411      9.189
REMARK SMILES O=C(C[C@H](NC(=O)[C@]12C[C@H]3C[C@H](C[C@H](C3)C1)C2)c1cccc([N+](=O)[O-])c1)OCCOC(=O)c1ccc(-c2c3nc(c(-c4ccccc4)c4ccc([nH]4)c(-c4ccccc4)c4nc(c(-c5ccccc5)c5ccc2[nH]5)C=C4)C=C3)cc1
REMARK SMILES IDX 28 1 27 2 2 3 1 4 3 5 4 6 18 7 19 8 26 9 20 10 22 11 21 12
REMARK SMILES IDX 23 13 24 14 25 15 5 16 6 17 7 19 8 20 9 21 16 22 17 23 10 24
REMARK SMILES IDX 14 25 12 26 11 27 15 28 13 29 29 30 30 31 31 32 32 33 33 34
REMARK SMILES IDX 34 35 80 36 35 37 79 38 36 39 37 40 38 41 73 42 39 43 78 44
REMARK SMILES IDX 72 45 74 46 40 47 77 48 71 49 70 50 41 52 63 53 48 54 62 55
REMARK SMILES IDX 49 56 52 57 61 58 75 59 50 60 51 61 60 63 76 64 53 65 42 66
REMARK SMILES IDX 43 67 47 68 44 69 46 70 45 71 64 72 65 73 69 74 66 75 68 76
REMARK SMILES IDX 67 77 54 78 55 79 59 80 56 81 58 82 57 83
REMARK H PARENT 5 18 74 51 52 62
REMARK Flexibility Score: inf
ROOT
ATOM      1  C   UNL A   1      37.520  20.528  25.113  1.00  0.00     0.274 C 
ENDROOT
BRANCH   1   2
ATOM      2  O   UNL A   1      37.908  21.908  25.276  1.00  0.00    -0.462 OA
BRANCH   2   3
ATOM      3  C   UNL A   1      36.928  22.741  25.720  1.00  0.00     0.308 C 
ATOM      4  O   UNL A   1      37.136  23.889  26.084  1.00  0.00    -0.252 OA
BRANCH   3   5
ATOM      5  C   UNL A   1      35.628  22.018  25.917  1.00  0.00     0.152 C 
BRANCH   5   6
ATOM      6  C   UNL A   1      34.416  22.760  25.371  1.00  0.00     0.123 C 
BRANCH   6   7
ATOM      7  C   UNL A   1      33.716  21.818  24.370  1.00  0.00    -0.018 A 
ATOM      8  C   UNL A   1      33.105  22.359  23.224  1.00  0.00     0.006 A 
ATOM      9  C   UNL A   1      33.539  20.450  24.631  1.00  0.00     0.091 A 
ATOM     10  C   UNL A   1      32.267  21.599  22.405  1.00  0.00     0.007 A 
ATOM     11  C   UNL A   1      32.716  19.680  23.785  1.00  0.00     0.269 A 
ATOM     12  C   UNL A   1      32.057  20.256  22.689  1.00  0.00     0.085 A 
BRANCH  11  13
ATOM     13  N   UNL A   1      32.510  18.255  24.062  1.00  0.00     0.062 N 
ATOM     14  O   UNL A   1      32.857  17.446  23.190  1.00  0.00    -0.258 OA
ATOM     15  O   UNL A   1      32.008  17.950  25.151  1.00  0.00    -0.258 OA
ENDBRANCH  11  13
ENDBRANCH   6   7
BRANCH   6  16
ATOM     16  N   UNL A   1      33.398  23.222  26.349  1.00  0.00    -0.348 N 
ATOM     17  C   UNL A   1      32.487  24.211  26.539  1.00  0.00     0.226 C 
ATOM     18  H   UNL A   1      33.377  22.605  27.115  1.00  0.00     0.164 HD
ATOM     19  O   UNL A   1      31.612  23.921  27.367  1.00  0.00    -0.274 OA
BRANCH  17  20
ATOM     20  C   UNL A   1      32.482  25.609  25.885  1.00  0.00     0.050 C 
ATOM     21  C   UNL A   1      33.898  26.202  25.775  1.00  0.00     0.020 C 
ATOM     22  C   UNL A   1      31.475  26.542  26.574  1.00  0.00     0.020 C 
ATOM     23  C   UNL A   1      31.949  25.519  24.407  1.00  0.00     0.020 C 
ATOM     24  C   UNL A   1      33.848  27.614  25.164  1.00  0.00    -0.010 C 
ATOM     25  C   UNL A   1      31.484  27.951  25.975  1.00  0.00    -0.010 C 
ATOM     26  C   UNL A   1      31.897  26.914  23.738  1.00  0.00    -0.010 C 
ATOM     27  C   UNL A   1      33.306  27.521  23.726  1.00  0.00     0.007 C 
ATOM     28  C   UNL A   1      32.916  28.507  25.998  1.00  0.00     0.007 C 
ATOM     29  C   UNL A   1      30.977  27.853  24.534  1.00  0.00     0.007 C 
ENDBRANCH  17  20
ENDBRANCH   6  16
ENDBRANCH   5   6
ENDBRANCH   3   5
ENDBRANCH   2   3
ENDBRANCH   1   2
BRANCH   1  30
ATOM     30  C   UNL A   1      38.736  19.616  24.901  1.00  0.00     0.275 C 
BRANCH  30  31
ATOM     31  O   UNL A   1      39.447  19.367  26.140  1.00  0.00    -0.458 OA
BRANCH  31  32
ATOM     32  C   UNL A   1      40.794  19.575  26.069  1.00  0.00     0.338 C 
ATOM     33  O   UNL A   1      41.609  18.805  25.606  1.00  0.00    -0.246 OA
BRANCH  32  34
ATOM     34  C   UNL A   1      41.157  20.947  26.529  1.00  0.00     0.060 A 
ATOM     35  C   UNL A   1      41.021  21.235  27.888  1.00  0.00     0.016 A 
ATOM     36  C   UNL A   1      41.621  21.948  25.670  1.00  0.00     0.016 A 
ATOM     37  C   UNL A   1      41.444  22.470  28.397  1.00  0.00     0.010 A 
ATOM     38  C   UNL A   1      42.036  23.196  26.176  1.00  0.00     0.010 A 
ATOM     39  C   UNL A   1      41.969  23.463  27.551  1.00  0.00    -0.014 A 
BRANCH  39  40
ATOM     40  C   UNL A   1      42.277  24.805  28.127  1.00  0.00     0.031 A 
ATOM     41  C   UNL A   1      43.722  25.153  28.362  1.00  0.00     0.074 A 
ATOM     42  C   UNL A   1      41.339  25.748  28.347  1.00  0.00     0.049 A 
ATOM     43  N   UNL A   1      44.262  26.312  28.640  1.00  0.00    -0.248 NA
ATOM     44  C   UNL A   1      44.685  24.049  28.227  1.00  0.00     0.031 C 
ATOM     45  C   UNL A   1      39.909  25.597  28.112  1.00  0.00     0.029 A 
ATOM     46  N   UNL A   1      41.464  27.050  28.785  1.00  0.00    -0.354 N 
ATOM     47  C   UNL A   1      45.632  26.088  28.644  1.00  0.00     0.074 A 
ATOM     48  C   UNL A   1      45.839  24.685  28.360  1.00  0.00     0.031 C 
ATOM     49  C   UNL A   1      39.291  26.765  28.367  1.00  0.00     0.029 A 
ATOM     50  C   UNL A   1      40.276  27.745  28.821  1.00  0.00     0.049 A 
ATOM     51  H   UNL A   1      42.327  27.447  29.048  1.00  0.00     0.167 HD
ATOM     52  C   UNL A   1      46.637  26.960  28.880  1.00  0.00     0.031 A 
ATOM     53  C   UNL A   1      40.015  29.021  29.179  1.00  0.00     0.031 A 
ATOM     54  C   UNL A   1      46.461  28.315  29.314  1.00  0.00     0.049 A 
ATOM     55  C   UNL A   1      41.146  29.915  29.630  1.00  0.00     0.074 A 
ATOM     56  C   UNL A   1      47.427  29.228  29.699  1.00  0.00     0.029 A 
ATOM     57  N   UNL A   1      45.234  28.937  29.468  1.00  0.00    -0.354 N 
ATOM     58  N   UNL A   1      42.439  29.700  29.594  1.00  0.00    -0.248 NA
ATOM     59  C   UNL A   1      40.776  31.228  30.187  1.00  0.00     0.031 C 
ATOM     60  C   UNL A   1      46.778  30.381  30.152  1.00  0.00     0.029 A 
ATOM     61  C   UNL A   1      45.413  30.205  29.989  1.00  0.00     0.049 A 
ATOM     62  H   UNL A   1      44.364  28.536  29.240  1.00  0.00     0.167 HD
ATOM     63  C   UNL A   1      43.031  30.852  30.103  1.00  0.00     0.074 A 
ATOM     64  C   UNL A   1      41.962  31.773  30.418  1.00  0.00     0.031 C 
ATOM     65  C   UNL A   1      44.345  31.117  30.299  1.00  0.00     0.031 A 
BRANCH  52  66
ATOM     66  C   UNL A   1      48.026  26.413  28.758  1.00  0.00    -0.014 A 
ATOM     67  C   UNL A   1      48.692  26.421  27.523  1.00  0.00     0.009 A 
ATOM     68  C   UNL A   1      48.652  25.847  29.876  1.00  0.00     0.009 A 
ATOM     69  C   UNL A   1      49.956  25.842  27.406  1.00  0.00     0.001 A 
ATOM     70  C   UNL A   1      49.921  25.282  29.758  1.00  0.00     0.001 A 
ATOM     71  C   UNL A   1      50.567  25.272  28.523  1.00  0.00     0.000 A 
ENDBRANCH  52  66
BRANCH  53  72
ATOM     72  C   UNL A   1      38.622  29.557  29.187  1.00  0.00    -0.014 A 
ATOM     73  C   UNL A   1      37.807  29.427  30.325  1.00  0.00     0.009 A 
ATOM     74  C   UNL A   1      38.062  30.097  28.019  1.00  0.00     0.009 A 
ATOM     75  C   UNL A   1      36.457  29.788  30.279  1.00  0.00     0.001 A 
ATOM     76  C   UNL A   1      36.719  30.486  27.985  1.00  0.00     0.001 A 
ATOM     77  C   UNL A   1      35.915  30.317  29.109  1.00  0.00     0.000 A 
ENDBRANCH  53  72
BRANCH  65  78
ATOM     78  C   UNL A   1      44.714  32.458  30.870  1.00  0.00    -0.014 A 
ATOM     79  C   UNL A   1      44.917  33.570  30.039  1.00  0.00     0.009 A 
ATOM     80  C   UNL A   1      44.782  32.628  32.262  1.00  0.00     0.009 A 
ATOM     81  C   UNL A   1      45.201  34.822  30.590  1.00  0.00     0.001 A 
ATOM     82  C   UNL A   1      45.040  33.886  32.811  1.00  0.00     0.001 A 
ATOM     83  C   UNL A   1      45.255  34.980  31.974  1.00  0.00     0.000 A 
ENDBRANCH  65  78
ENDBRANCH  39  40
ENDBRANCH  32  34
ENDBRANCH  31  32
ENDBRANCH  30  31
ENDBRANCH   1  30
TORSDOF 16
ENDMDL
MODEL 3
REMARK VINA RESULT:     -11.7      1.779      5.715
REMARK SMILES O=C(C[C@H](NC(=O)[C@]12C[C@H]3C[C@H](C[C@H](C3)C1)C2)c1cccc([N+](=O)[O-])c1)OCCOC(=O)c1ccc(-c2c3nc(c(-c4ccccc4)c4ccc([nH]4)c(-c4ccccc4)c4nc(c(-c5ccccc5)c5ccc2[nH]5)C=C4)C=C3)cc1
REMARK SMILES IDX 28 1 27 2 2 3 1 4 3 5 4 6 18 7 19 8 26 9 20 10 22 11 21 12
REMARK SMILES IDX 23 13 24 14 25 15 5 16 6 17 7 19 8 20 9 21 16 22 17 23 10 24
REMARK SMILES IDX 14 25 12 26 11 27 15 28 13 29 29 30 30 31 31 32 32 33 33 34
REMARK SMILES IDX 34 35 80 36 35 37 79 38 36 39 37 40 38 41 73 42 39 43 78 44
REMARK SMILES IDX 72 45 74 46 40 47 77 48 71 49 70 50 41 52 63 53 48 54 62 55
REMARK SMILES IDX 49 56 52 57 61 58 75 59 50 60 51 61 60 63 76 64 53 65 42 66
REMARK SMILES IDX 43 67 47 68 44 69 46 70 45 71 64 72 65 73 69 74 66 75 68 76
REMARK SMILES IDX 67 77 54 78 55 79 59 80 56 81 58 82 57 83
REMARK H PARENT 5 18 74 51 52 62
REMARK Flexibility Score: inf
ROOT
ATOM      1  C   UNL A   1      31.938  30.806  26.792  1.00  0.00     0.274 C 
ENDROOT
BRANCH   1   2
ATOM      2  O   UNL A   1      33.316  30.517  26.478  1.00  0.00    -0.462 OA
BRANCH   2   3
ATOM      3  C   UNL A   1      33.565  29.246  26.060  1.00  0.00     0.308 C 
ATOM      4  O   UNL A   1      34.289  28.469  26.665  1.00  0.00    -0.252 OA
BRANCH   3   5
ATOM      5  C   UNL A   1      33.033  29.000  24.679  1.00  0.00     0.152 C 
BRANCH   5   6
ATOM      6  C   UNL A   1      32.601  27.562  24.427  1.00  0.00     0.123 C 
BRANCH   6   7
ATOM      7  C   UNL A   1      31.074  27.576  24.204  1.00  0.00    -0.018 A 
ATOM      8  C   UNL A   1      30.307  26.468  24.611  1.00  0.00     0.006 A 
ATOM      9  C   UNL A   1      30.435  28.593  23.478  1.00  0.00     0.091 A 
ATOM     10  C   UNL A   1      28.970  26.319  24.237  1.00  0.00     0.007 A 
ATOM     11  C   UNL A   1      29.077  28.452  23.128  1.00  0.00     0.269 A 
ATOM     12  C   UNL A   1      28.350  27.306  23.481  1.00  0.00     0.085 A 
BRANCH  11  13
ATOM     13  N   UNL A   1      28.408  29.501  22.353  1.00  0.00     0.062 N 
ATOM     14  O   UNL A   1      27.299  29.888  22.750  1.00  0.00    -0.258 OA
ATOM     15  O   UNL A   1      28.994  29.938  21.355  1.00  0.00    -0.258 OA
ENDBRANCH  11  13
ENDBRANCH   6   7
BRANCH   6  16
ATOM     16  N   UNL A   1      33.221  26.851  23.280  1.00  0.00    -0.348 N 
ATOM     17  C   UNL A   1      33.678  25.625  22.918  1.00  0.00     0.226 C 
ATOM     18  H   UNL A   1      33.341  27.479  22.532  1.00  0.00     0.164 HD
ATOM     19  O   UNL A   1      33.760  25.473  21.692  1.00  0.00    -0.274 OA
BRANCH  17  20
ATOM     20  C   UNL A   1      34.128  24.485  23.857  1.00  0.00     0.050 C 
ATOM     21  C   UNL A   1      34.860  25.017  25.103  1.00  0.00     0.020 C 
ATOM     22  C   UNL A   1      34.915  23.411  23.093  1.00  0.00     0.020 C 
ATOM     23  C   UNL A   1      32.878  23.704  24.407  1.00  0.00     0.020 C 
ATOM     24  C   UNL A   1      35.335  23.853  25.990  1.00  0.00    -0.010 C 
ATOM     25  C   UNL A   1      35.415  22.293  24.011  1.00  0.00    -0.010 C 
ATOM     26  C   UNL A   1      33.302  22.530  25.323  1.00  0.00    -0.010 C 
ATOM     27  C   UNL A   1      34.108  23.080  26.507  1.00  0.00     0.007 C 
ATOM     28  C   UNL A   1      36.221  22.903  25.168  1.00  0.00     0.007 C 
ATOM     29  C   UNL A   1      34.193  21.546  24.551  1.00  0.00     0.007 C 
ENDBRANCH  17  20
ENDBRANCH   6  16
ENDBRANCH   5   6
ENDBRANCH   3   5
ENDBRANCH   2   3
ENDBRANCH   1   2
BRANCH   1  30
ATOM     30  C   UNL A   1      31.683  32.316  26.898  1.00  0.00     0.275 C 
BRANCH  30  31
ATOM     31  O   UNL A   1      32.917  33.076  26.848  1.00  0.00    -0.458 OA
BRANCH  31  32
ATOM     32  C   UNL A   1      33.200  33.769  27.989  1.00  0.00     0.338 C 
ATOM     33  O   UNL A   1      32.507  34.631  28.488  1.00  0.00    -0.246 OA
BRANCH  32  34
ATOM     34  C   UNL A   1      34.435  33.253  28.646  1.00  0.00     0.060 A 
ATOM     35  C   UNL A   1      35.631  33.317  27.926  1.00  0.00     0.016 A 
ATOM     36  C   UNL A   1      34.453  32.711  29.935  1.00  0.00     0.016 A 
ATOM     37  C   UNL A   1      36.841  32.945  28.527  1.00  0.00     0.010 A 
ATOM     38  C   UNL A   1      35.667  32.325  30.538  1.00  0.00     0.010 A 
ATOM     39  C   UNL A   1      36.878  32.456  29.845  1.00  0.00    -0.014 A 
BRANCH  39  40
ATOM     40  C   UNL A   1      38.174  31.950  30.384  1.00  0.00     0.031 A 
ATOM     41  C   UNL A   1      38.659  30.609  29.905  1.00  0.00     0.074 A 
ATOM     42  C   UNL A   1      38.973  32.676  31.193  1.00  0.00     0.049 A 
ATOM     43  N   UNL A   1      39.833  30.051  30.045  1.00  0.00    -0.248 NA
ATOM     44  C   UNL A   1      37.695  29.811  29.131  1.00  0.00     0.031 C 
ATOM     45  C   UNL A   1      38.684  34.014  31.695  1.00  0.00     0.029 A 
ATOM     46  N   UNL A   1      40.223  32.397  31.702  1.00  0.00    -0.354 N 
ATOM     47  C   UNL A   1      39.770  28.871  29.319  1.00  0.00     0.074 A 
ATOM     48  C   UNL A   1      38.440  28.783  28.757  1.00  0.00     0.031 C 
ATOM     49  C   UNL A   1      39.738  34.457  32.406  1.00  0.00     0.029 A 
ATOM     50  C   UNL A   1      40.769  33.422  32.442  1.00  0.00     0.049 A 
ATOM     51  H   UNL A   1      40.685  31.540  31.548  1.00  0.00     0.167 HD
ATOM     52  C   UNL A   1      40.721  27.926  29.144  1.00  0.00     0.031 A 
ATOM     53  C   UNL A   1      41.958  33.512  33.076  1.00  0.00     0.031 A 
ATOM     54  C   UNL A   1      41.989  27.907  29.811  1.00  0.00     0.049 A 
ATOM     55  C   UNL A   1      42.921  32.348  33.023  1.00  0.00     0.074 A 
ATOM     56  C   UNL A   1      42.959  26.920  29.789  1.00  0.00     0.029 A 
ATOM     57  N   UNL A   1      42.445  28.901  30.660  1.00  0.00    -0.354 N 
ATOM     58  N   UNL A   1      42.862  31.254  32.303  1.00  0.00    -0.248 NA
ATOM     59  C   UNL A   1      44.112  32.430  33.886  1.00  0.00     0.031 C 
ATOM     60  C   UNL A   1      43.973  27.287  30.680  1.00  0.00     0.029 A 
ATOM     61  C   UNL A   1      43.659  28.530  31.207  1.00  0.00     0.049 A 
ATOM     62  H   UNL A   1      41.974  29.746  30.847  1.00  0.00     0.167 HD
ATOM     63  C   UNL A   1      44.011  30.532  32.612  1.00  0.00     0.074 A 
ATOM     64  C   UNL A   1      44.762  31.320  33.565  1.00  0.00     0.031 C 
ATOM     65  C   UNL A   1      44.402  29.320  32.153  1.00  0.00     0.031 A 
BRANCH  52  66
ATOM     66  C   UNL A   1      40.355  26.781  28.252  1.00  0.00    -0.014 A 
ATOM     67  C   UNL A   1      40.774  26.754  26.913  1.00  0.00     0.009 A 
ATOM     68  C   UNL A   1      39.548  25.745  28.743  1.00  0.00     0.009 A 
ATOM     69  C   UNL A   1      40.364  25.719  26.072  1.00  0.00     0.001 A 
ATOM     70  C   UNL A   1      39.153  24.705  27.903  1.00  0.00     0.001 A 
ATOM     71  C   UNL A   1      39.553  24.697  26.568  1.00  0.00     0.000 A 
ENDBRANCH  52  66
BRANCH  53  72
ATOM     72  C   UNL A   1      42.325  34.719  33.872  1.00  0.00    -0.014 A 
ATOM     73  C   UNL A   1      41.963  34.827  35.226  1.00  0.00     0.009 A 
ATOM     74  C   UNL A   1      42.939  35.819  33.253  1.00  0.00     0.009 A 
ATOM     75  C   UNL A   1      42.170  36.020  35.926  1.00  0.00     0.001 A 
ATOM     76  C   UNL A   1      43.172  37.000  33.964  1.00  0.00     0.001 A 
ATOM     77  C   UNL A   1      42.774  37.105  35.294  1.00  0.00     0.000 A 
ENDBRANCH  53  72
BRANCH  65  78
ATOM     78  C   UNL A   1      45.705  28.764  32.657  1.00  0.00    -0.014 A 
ATOM     79  C   UNL A   1      45.751  27.931  33.786  1.00  0.00     0.009 A 
ATOM     80  C   UNL A   1      46.891  29.015  31.949  1.00  0.00     0.009 A 
ATOM     81  C   UNL A   1      46.962  27.376  34.206  1.00  0.00     0.001 A 
ATOM     82  C   UNL A   1      48.096  28.438  32.355  1.00  0.00     0.001 A 
ATOM     83  C   UNL A   1      48.131  27.625  33.487  1.00  0.00     0.000 A 
ENDBRANCH  65  78
ENDBRANCH  39  40
ENDBRANCH  32  34
ENDBRANCH  31  32
ENDBRANCH  30  31
ENDBRANCH   1  30
TORSDOF 16
ENDMDL
