MODEL 1
REMARK VINA RESULT:     -10.6      0.000      0.000
REMARK SMILES O=C(CC1(CC(=O)OCCOC(=O)c2ccc(-c3c4nc(c(-c5ccccc5)c5ccc([nH]5)c(-c5ccccc5)c5nc(c(-c6ccccc6)c6ccc3[nH]6)C=C5)C=C4)cc2)CCCC1)NNc1ccc([N+](=O)[O-])cc1
REMARK SMILES IDX 6 1 7 2 5 3 4 4 62 5 65 6 63 7 64 8 3 9 2 10 1 11 66 12
REMARK SMILES IDX 67 14 68 16 69 17 76 18 70 19 75 20 71 21 72 22 73 23 74 24
REMARK SMILES IDX 8 25 9 26 10 27 11 28 12 29 13 30 14 31 15 32 61 33 16 34
REMARK SMILES IDX 60 35 17 36 18 37 19 38 54 39 20 40 59 41 53 42 55 43 21 44
REMARK SMILES IDX 58 45 52 46 51 47 22 49 44 50 29 51 43 52 30 53 33 54 42 55
REMARK SMILES IDX 56 56 31 57 32 58 41 60 57 61 34 62 23 63 24 64 28 65 25 66
REMARK SMILES IDX 27 67 26 68 45 69 46 70 50 71 47 72 49 73 48 74 35 75 36 76
REMARK SMILES IDX 40 77 37 78 39 79 38 80
REMARK H PARENT 66 13 67 15 55 48 33 59
REMARK Flexibility Score: inf
ROOT
ATOM      1  C   UNL A   1      35.398  23.099  25.270  1.00  0.00     0.306 C 
ATOM      2  O   UNL A   1      35.367  22.967  26.489  1.00  0.00    -0.252 OA
ENDROOT
BRANCH   1   3
ATOM      3  C   UNL A   1      35.140  24.444  24.625  1.00  0.00     0.130 C 
BRANCH   3   4
ATOM      4  C   UNL A   1      33.711  24.900  24.231  1.00  0.00    -0.010 C 
ATOM      5  C   UNL A   1      33.730  26.429  23.977  1.00  0.00     0.008 C 
ATOM      6  C   UNL A   1      32.707  24.870  25.414  1.00  0.00     0.008 C 
ATOM      7  C   UNL A   1      33.666  27.089  25.357  1.00  0.00     0.001 C 
ATOM      8  C   UNL A   1      33.085  26.046  26.303  1.00  0.00     0.001 C 
BRANCH   4   9
ATOM      9  C   UNL A   1      33.105  24.110  23.048  1.00  0.00     0.109 C 
BRANCH   9  10
ATOM     10  C   UNL A   1      32.261  22.852  23.222  1.00  0.00     0.238 C 
ATOM     11  O   UNL A   1      31.029  22.938  23.259  1.00  0.00    -0.273 OA
ATOM     12  N   UNL A   1      32.887  21.626  23.225  1.00  0.00    -0.270 N 
ATOM     13  H   UNL A   1      33.868  21.543  23.234  1.00  0.00     0.191 HD
BRANCH  12  14
ATOM     14  N   UNL A   1      32.055  20.507  23.213  1.00  0.00    -0.299 N 
ATOM     15  H   UNL A   1      31.122  20.594  22.913  1.00  0.00     0.188 HD
BRANCH  14  16
ATOM     16  C   UNL A   1      32.541  19.259  23.629  1.00  0.00     0.055 A 
ATOM     17  C   UNL A   1      32.572  18.988  25.009  1.00  0.00     0.034 A 
ATOM     18  C   UNL A   1      32.909  18.231  22.752  1.00  0.00     0.034 A 
ATOM     19  C   UNL A   1      33.006  17.755  25.510  1.00  0.00     0.088 A 
ATOM     20  C   UNL A   1      33.333  16.985  23.236  1.00  0.00     0.088 A 
ATOM     21  C   UNL A   1      33.383  16.754  24.616  1.00  0.00     0.269 A 
BRANCH  21  22
ATOM     22  N   UNL A   1      33.807  15.442  25.121  1.00  0.00     0.062 N 
ATOM     23  O   UNL A   1      35.013  15.263  25.340  1.00  0.00    -0.258 OA
ATOM     24  O   UNL A   1      32.927  14.589  25.313  1.00  0.00    -0.258 OA
ENDBRANCH  21  22
ENDBRANCH  14  16
ENDBRANCH  12  14
ENDBRANCH   9  10
ENDBRANCH   4   9
ENDBRANCH   3   4
ENDBRANCH   1   3
BRANCH   1  25
ATOM     25  O   UNL A   1      35.535  22.084  24.388  1.00  0.00    -0.462 OA
BRANCH  25  26
ATOM     26  C   UNL A   1      35.843  20.791  24.949  1.00  0.00     0.274 C 
BRANCH  26  27
ATOM     27  C   UNL A   1      37.339  20.515  24.880  1.00  0.00     0.275 C 
BRANCH  27  28
ATOM     28  O   UNL A   1      37.927  20.783  26.163  1.00  0.00    -0.458 OA
BRANCH  28  29
ATOM     29  C   UNL A   1      39.279  20.797  26.204  1.00  0.00     0.338 C 
ATOM     30  O   UNL A   1      40.028  19.874  25.934  1.00  0.00    -0.246 OA
BRANCH  29  31
ATOM     31  C   UNL A   1      39.744  22.123  26.664  1.00  0.00     0.060 A 
ATOM     32  C   UNL A   1      39.120  23.293  26.232  1.00  0.00     0.016 A 
ATOM     33  C   UNL A   1      40.881  22.197  27.470  1.00  0.00     0.016 A 
ATOM     34  C   UNL A   1      39.680  24.532  26.541  1.00  0.00     0.010 A 
ATOM     35  C   UNL A   1      41.393  23.444  27.845  1.00  0.00     0.010 A 
ATOM     36  C   UNL A   1      40.823  24.628  27.350  1.00  0.00    -0.014 A 
BRANCH  36  37
ATOM     37  C   UNL A   1      41.442  25.959  27.621  1.00  0.00     0.031 A 
ATOM     38  C   UNL A   1      42.735  26.355  26.950  1.00  0.00     0.074 A 
ATOM     39  C   UNL A   1      40.816  26.859  28.406  1.00  0.00     0.049 A 
ATOM     40  N   UNL A   1      43.453  27.439  27.122  1.00  0.00    -0.248 NA
ATOM     41  C   UNL A   1      43.284  25.430  25.944  1.00  0.00     0.031 C 
ATOM     42  C   UNL A   1      39.525  26.657  29.066  1.00  0.00     0.029 A 
ATOM     43  N   UNL A   1      41.162  28.145  28.744  1.00  0.00    -0.354 N 
ATOM     44  C   UNL A   1      44.567  27.294  26.303  1.00  0.00     0.074 A 
ATOM     45  C   UNL A   1      44.420  26.031  25.613  1.00  0.00     0.031 C 
ATOM     46  C   UNL A   1      39.146  27.805  29.649  1.00  0.00     0.029 A 
ATOM     47  C   UNL A   1      40.207  28.794  29.489  1.00  0.00     0.049 A 
ATOM     48  H   UNL A   1      42.013  28.562  28.478  1.00  0.00     0.167 HD
ATOM     49  C   UNL A   1      45.623  28.129  26.146  1.00  0.00     0.031 A 
ATOM     50  C   UNL A   1      40.187  30.036  30.008  1.00  0.00     0.031 A 
ATOM     51  C   UNL A   1      45.769  29.403  26.798  1.00  0.00     0.049 A 
ATOM     52  C   UNL A   1      41.384  30.926  29.847  1.00  0.00     0.074 A 
ATOM     53  C   UNL A   1      46.829  30.294  26.723  1.00  0.00     0.029 A 
ATOM     54  N   UNL A   1      44.824  29.981  27.627  1.00  0.00    -0.354 N 
ATOM     55  N   UNL A   1      42.484  30.718  29.165  1.00  0.00    -0.248 NA
ATOM     56  C   UNL A   1      41.354  32.208  30.569  1.00  0.00     0.031 C 
ATOM     57  C   UNL A   1      46.535  31.398  27.529  1.00  0.00     0.029 A 
ATOM     58  C   UNL A   1      45.275  31.211  28.073  1.00  0.00     0.049 A 
ATOM     59  H   UNL A   1      43.958  29.576  27.865  1.00  0.00     0.167 HD
ATOM     60  C   UNL A   1      43.278  31.836  29.386  1.00  0.00     0.074 A 
ATOM     61  C   UNL A   1      42.523  32.733  30.234  1.00  0.00     0.031 C 
ATOM     62  C   UNL A   1      44.531  32.086  28.938  1.00  0.00     0.031 A 
BRANCH  49  63
ATOM     63  C   UNL A   1      46.744  27.671  25.259  1.00  0.00    -0.014 A 
ATOM     64  C   UNL A   1      46.805  28.041  23.908  1.00  0.00     0.009 A 
ATOM     65  C   UNL A   1      47.792  26.917  25.810  1.00  0.00     0.009 A 
ATOM     66  C   UNL A   1      47.889  27.648  23.121  1.00  0.00     0.001 A 
ATOM     67  C   UNL A   1      48.884  26.542  25.026  1.00  0.00     0.001 A 
ATOM     68  C   UNL A   1      48.930  26.904  23.680  1.00  0.00     0.000 A 
ENDBRANCH  49  63
BRANCH  50  69
ATOM     69  C   UNL A   1      39.001  30.506  30.767  1.00  0.00    -0.014 A 
ATOM     70  C   UNL A   1      37.964  31.183  30.107  1.00  0.00     0.009 A 
ATOM     71  C   UNL A   1      38.900  30.291  32.150  1.00  0.00     0.009 A 
ATOM     72  C   UNL A   1      36.854  31.641  30.819  1.00  0.00     0.001 A 
ATOM     73  C   UNL A   1      37.777  30.727  32.855  1.00  0.00     0.001 A 
ATOM     74  C   UNL A   1      36.757  31.407  32.190  1.00  0.00     0.000 A 
ENDBRANCH  50  69
BRANCH  62  75
ATOM     75  C   UNL A   1      45.169  33.373  29.374  1.00  0.00    -0.014 A 
ATOM     76  C   UNL A   1      44.990  34.549  28.630  1.00  0.00     0.009 A 
ATOM     77  C   UNL A   1      45.935  33.416  30.548  1.00  0.00     0.009 A 
ATOM     78  C   UNL A   1      45.591  35.740  29.038  1.00  0.00     0.001 A 
ATOM     79  C   UNL A   1      46.518  34.614  30.965  1.00  0.00     0.001 A 
ATOM     80  C   UNL A   1      46.352  35.773  30.206  1.00  0.00     0.000 A 
ENDBRANCH  62  75
ENDBRANCH  36  37
ENDBRANCH  29  31
ENDBRANCH  28  29
ENDBRANCH  27  28
ENDBRANCH  26  27
ENDBRANCH  25  26
ENDBRANCH   1  25
TORSDOF 17
ENDMDL
MODEL 2
REMARK VINA RESULT:     -10.4      2.058      7.379
REMARK SMILES O=C(CC1(CC(=O)OCCOC(=O)c2ccc(-c3c4nc(c(-c5ccccc5)c5ccc([nH]5)c(-c5ccccc5)c5nc(c(-c6ccccc6)c6ccc3[nH]6)C=C5)C=C4)cc2)CCCC1)NNc1ccc([N+](=O)[O-])cc1
REMARK SMILES IDX 6 1 7 2 5 3 4 4 62 5 65 6 63 7 64 8 3 9 2 10 1 11 66 12
REMARK SMILES IDX 67 14 68 16 69 17 76 18 70 19 75 20 71 21 72 22 73 23 74 24
REMARK SMILES IDX 8 25 9 26 10 27 11 28 12 29 13 30 14 31 15 32 61 33 16 34
REMARK SMILES IDX 60 35 17 36 18 37 19 38 54 39 20 40 59 41 53 42 55 43 21 44
REMARK SMILES IDX 58 45 52 46 51 47 22 49 44 50 29 51 43 52 30 53 33 54 42 55
REMARK SMILES IDX 56 56 31 57 32 58 41 60 57 61 34 62 23 63 24 64 28 65 25 66
REMARK SMILES IDX 27 67 26 68 45 69 46 70 50 71 47 72 49 73 48 74 35 75 36 76
REMARK SMILES IDX 40 77 37 78 39 79 38 80
REMARK H PARENT 66 13 67 15 55 48 33 59
REMARK Flexibility Score: inf
ROOT
ATOM      1  C   UNL A   1      33.058  19.913  25.203  1.00  0.00     0.306 C 
ATOM      2  O   UNL A   1      32.264  19.065  25.599  1.00  0.00    -0.252 OA
ENDROOT
BRANCH   1   3
ATOM      3  C   UNL A   1      32.688  20.867  24.088  1.00  0.00     0.130 C 
BRANCH   3   4
ATOM      4  C   UNL A   1      32.197  22.311  24.378  1.00  0.00    -0.010 C 
ATOM      5  C   UNL A   1      31.866  23.003  23.030  1.00  0.00     0.008 C 
ATOM      6  C   UNL A   1      33.328  23.259  24.858  1.00  0.00     0.008 C 
ATOM      7  C   UNL A   1      33.205  23.468  22.452  1.00  0.00     0.001 C 
ATOM      8  C   UNL A   1      34.173  23.548  23.626  1.00  0.00     0.001 C 
BRANCH   4   9
ATOM      9  C   UNL A   1      31.028  22.385  25.385  1.00  0.00     0.109 C 
BRANCH   9  10
ATOM     10  C   UNL A   1      30.712  23.623  26.218  1.00  0.00     0.238 C 
ATOM     11  O   UNL A   1      30.814  23.578  27.448  1.00  0.00    -0.273 OA
ATOM     12  N   UNL A   1      30.422  24.803  25.572  1.00  0.00    -0.270 N 
ATOM     13  H   UNL A   1      30.299  24.845  24.596  1.00  0.00     0.191 HD
BRANCH  12  14
ATOM     14  N   UNL A   1      30.311  25.937  26.376  1.00  0.00    -0.299 N 
ATOM     15  H   UNL A   1      29.468  26.122  26.849  1.00  0.00     0.188 HD
BRANCH  14  16
ATOM     16  C   UNL A   1      31.396  26.815  26.515  1.00  0.00     0.055 A 
ATOM     17  C   UNL A   1      31.257  27.901  27.399  1.00  0.00     0.034 A 
ATOM     18  C   UNL A   1      32.640  26.627  25.900  1.00  0.00     0.034 A 
ATOM     19  C   UNL A   1      32.300  28.806  27.626  1.00  0.00     0.088 A 
ATOM     20  C   UNL A   1      33.701  27.515  26.128  1.00  0.00     0.088 A 
ATOM     21  C   UNL A   1      33.525  28.605  26.989  1.00  0.00     0.269 A 
BRANCH  21  22
ATOM     22  N   UNL A   1      34.642  29.523  27.243  1.00  0.00     0.062 N 
ATOM     23  O   UNL A   1      34.412  30.740  27.230  1.00  0.00    -0.258 OA
ATOM     24  O   UNL A   1      35.755  29.023  27.470  1.00  0.00    -0.258 OA
ENDBRANCH  21  22
ENDBRANCH  14  16
ENDBRANCH  12  14
ENDBRANCH   9  10
ENDBRANCH   4   9
ENDBRANCH   3   4
ENDBRANCH   1   3
BRANCH   1  25
ATOM     25  O   UNL A   1      34.344  20.013  25.608  1.00  0.00    -0.462 OA
BRANCH  25  26
ATOM     26  C   UNL A   1      35.312  20.307  24.579  1.00  0.00     0.274 C 
BRANCH  26  27
ATOM     27  C   UNL A   1      36.704  19.854  25.002  1.00  0.00     0.275 C 
BRANCH  27  28
ATOM     28  O   UNL A   1      37.536  21.008  25.194  1.00  0.00    -0.458 OA
BRANCH  28  29
ATOM     29  C   UNL A   1      38.763  20.773  25.714  1.00  0.00     0.338 C 
ATOM     30  O   UNL A   1      39.327  19.695  25.799  1.00  0.00    -0.246 OA
BRANCH  29  31
ATOM     31  C   UNL A   1      39.339  22.041  26.210  1.00  0.00     0.060 A 
ATOM     32  C   UNL A   1      38.647  23.244  26.078  1.00  0.00     0.016 A 
ATOM     33  C   UNL A   1      40.633  22.035  26.735  1.00  0.00     0.016 A 
ATOM     34  C   UNL A   1      39.279  24.446  26.396  1.00  0.00     0.010 A 
ATOM     35  C   UNL A   1      41.234  23.237  27.127  1.00  0.00     0.010 A 
ATOM     36  C   UNL A   1      40.579  24.462  26.924  1.00  0.00    -0.014 A 
BRANCH  36  37
ATOM     37  C   UNL A   1      41.262  25.760  27.202  1.00  0.00     0.031 A 
ATOM     38  C   UNL A   1      40.679  26.739  28.192  1.00  0.00     0.074 A 
ATOM     39  C   UNL A   1      42.451  26.044  26.632  1.00  0.00     0.049 A 
ATOM     40  N   UNL A   1      41.097  27.942  28.504  1.00  0.00    -0.248 NA
ATOM     41  C   UNL A   1      39.489  26.308  28.945  1.00  0.00     0.031 C 
ATOM     42  C   UNL A   1      43.182  25.171  25.712  1.00  0.00     0.029 A 
ATOM     43  N   UNL A   1      43.277  27.131  26.781  1.00  0.00    -0.354 N 
ATOM     44  C   UNL A   1      40.186  28.436  29.430  1.00  0.00     0.074 A 
ATOM     45  C   UNL A   1      39.207  27.393  29.654  1.00  0.00     0.031 C 
ATOM     46  C   UNL A   1      44.383  25.712  25.454  1.00  0.00     0.029 A 
ATOM     47  C   UNL A   1      44.470  27.012  26.110  1.00  0.00     0.049 A 
ATOM     48  H   UNL A   1      43.038  27.921  27.319  1.00  0.00     0.167 HD
ATOM     49  C   UNL A   1      40.158  29.649  30.034  1.00  0.00     0.031 A 
ATOM     50  C   UNL A   1      45.513  27.858  26.009  1.00  0.00     0.031 A 
ATOM     51  C   UNL A   1      41.140  30.684  29.849  1.00  0.00     0.049 A 
ATOM     52  C   UNL A   1      45.439  29.208  26.659  1.00  0.00     0.074 A 
ATOM     53  C   UNL A   1      41.163  31.958  30.395  1.00  0.00     0.029 A 
ATOM     54  N   UNL A   1      42.282  30.561  29.079  1.00  0.00    -0.354 N 
ATOM     55  N   UNL A   1      44.507  29.701  27.436  1.00  0.00    -0.248 NA
ATOM     56  C   UNL A   1      46.546  30.135  26.378  1.00  0.00     0.031 C 
ATOM     57  C   UNL A   1      42.307  32.615  29.931  1.00  0.00     0.029 A 
ATOM     58  C   UNL A   1      43.015  31.734  29.130  1.00  0.00     0.049 A 
ATOM     59  H   UNL A   1      42.536  29.757  28.569  1.00  0.00     0.167 HD
ATOM     60  C   UNL A   1      44.910  30.999  27.727  1.00  0.00     0.074 A 
ATOM     61  C   UNL A   1      46.185  31.204  27.073  1.00  0.00     0.031 C 
ATOM     62  C   UNL A   1      44.268  31.941  28.456  1.00  0.00     0.031 A 
BRANCH  49  63
ATOM     63  C   UNL A   1      38.990  29.952  30.928  1.00  0.00    -0.014 A 
ATOM     64  C   UNL A   1      37.824  30.549  30.431  1.00  0.00     0.009 A 
ATOM     65  C   UNL A   1      39.039  29.564  32.277  1.00  0.00     0.009 A 
ATOM     66  C   UNL A   1      36.732  30.767  31.274  1.00  0.00     0.001 A 
ATOM     67  C   UNL A   1      37.939  29.765  33.112  1.00  0.00     0.001 A 
ATOM     68  C   UNL A   1      36.788  30.371  32.611  1.00  0.00     0.000 A 
ENDBRANCH  49  63
BRANCH  50  69
ATOM     69  C   UNL A   1      46.713  27.469  25.224  1.00  0.00    -0.014 A 
ATOM     70  C   UNL A   1      47.745  26.739  25.832  1.00  0.00     0.009 A 
ATOM     71  C   UNL A   1      46.838  27.829  23.874  1.00  0.00     0.009 A 
ATOM     72  C   UNL A   1      48.883  26.384  25.104  1.00  0.00     0.001 A 
ATOM     73  C   UNL A   1      47.964  27.451  23.141  1.00  0.00     0.001 A 
ATOM     74  C   UNL A   1      48.988  26.733  23.758  1.00  0.00     0.000 A 
ENDBRANCH  50  69
BRANCH  62  75
ATOM     75  C   UNL A   1      44.927  33.284  28.570  1.00  0.00    -0.014 A 
ATOM     76  C   UNL A   1      44.681  34.285  27.618  1.00  0.00     0.009 A 
ATOM     77  C   UNL A   1      45.782  33.561  29.647  1.00  0.00     0.009 A 
ATOM     78  C   UNL A   1      45.302  35.531  27.726  1.00  0.00     0.001 A 
ATOM     79  C   UNL A   1      46.387  34.814  29.764  1.00  0.00     0.001 A 
ATOM     80  C   UNL A   1      46.152  35.795  28.800  1.00  0.00     0.000 A 
ENDBRANCH  62  75
ENDBRANCH  36  37
ENDBRANCH  29  31
ENDBRANCH  28  29
ENDBRANCH  27  28
ENDBRANCH  26  27
ENDBRANCH  25  26
ENDBRANCH   1  25
TORSDOF 17
ENDMDL
MODEL 3
REMARK VINA RESULT:     -10.3      0.573      5.883
REMARK SMILES O=C(CC1(CC(=O)OCCOC(=O)c2ccc(-c3c4nc(c(-c5ccccc5)c5ccc([nH]5)c(-c5ccccc5)c5nc(c(-c6ccccc6)c6ccc3[nH]6)C=C5)C=C4)cc2)CCCC1)NNc1ccc([N+](=O)[O-])cc1
REMARK SMILES IDX 6 1 7 2 5 3 4 4 62 5 65 6 63 7 64 8 3 9 2 10 1 11 66 12
REMARK SMILES IDX 67 14 68 16 69 17 76 18 70 19 75 20 71 21 72 22 73 23 74 24
REMARK SMILES IDX 8 25 9 26 10 27 11 28 12 29 13 30 14 31 15 32 61 33 16 34
REMARK SMILES IDX 60 35 17 36 18 37 19 38 54 39 20 40 59 41 53 42 55 43 21 44
REMARK SMILES IDX 58 45 52 46 51 47 22 49 44 50 29 51 43 52 30 53 33 54 42 55
REMARK SMILES IDX 56 56 31 57 32 58 41 60 57 61 34 62 23 63 24 64 28 65 25 66
REMARK SMILES IDX 27 67 26 68 45 69 46 70 50 71 47 72 49 73 48 74 35 75 36 76
REMARK SMILES IDX 40 77 37 78 39 79 38 80
REMARK H PARENT 66 13 67 15 55 48 33 59
REMARK Flexibility Score: inf
ROOT
ATOM      1  C   UNL A   1      34.769  22.688  25.821  1.00  0.00     0.306 C 
ATOM      2  O   UNL A   1      34.135  22.021  26.632  1.00  0.00    -0.252 OA
ENDROOT
BRANCH   1   3
ATOM      3  C   UNL A   1      34.579  24.187  25.726  1.00  0.00     0.130 C 
BRANCH   3   4
ATOM      4  C   UNL A   1      33.463  24.815  24.850  1.00  0.00    -0.010 C 
ATOM      5  C   UNL A   1      33.775  26.320  24.651  1.00  0.00     0.008 C 
ATOM      6  C   UNL A   1      32.105  24.951  25.589  1.00  0.00     0.008 C 
ATOM      7  C   UNL A   1      33.305  27.022  25.928  1.00  0.00     0.001 C 
ATOM      8  C   UNL A   1      32.288  26.092  26.578  1.00  0.00     0.001 C 
BRANCH   4   9
ATOM      9  C   UNL A   1      33.226  24.077  23.512  1.00  0.00     0.109 C 
BRANCH   9  10
ATOM     10  C   UNL A   1      32.361  22.827  23.382  1.00  0.00     0.238 C 
ATOM     11  O   UNL A   1      31.215  22.918  22.930  1.00  0.00    -0.273 OA
ATOM     12  N   UNL A   1      32.915  21.602  23.673  1.00  0.00    -0.270 N 
ATOM     13  H   UNL A   1      33.811  21.517  24.070  1.00  0.00     0.191 HD
BRANCH  12  14
ATOM     14  N   UNL A   1      32.136  20.485  23.373  1.00  0.00    -0.299 N 
ATOM     15  H   UNL A   1      31.329  20.585  22.818  1.00  0.00     0.188 HD
BRANCH  14  16
ATOM     16  C   UNL A   1      32.496  19.219  23.858  1.00  0.00     0.055 A 
ATOM     17  C   UNL A   1      32.908  18.247  22.927  1.00  0.00     0.034 A 
ATOM     18  C   UNL A   1      32.559  18.890  25.217  1.00  0.00     0.034 A 
ATOM     19  C   UNL A   1      33.319  16.970  23.325  1.00  0.00     0.088 A 
ATOM     20  C   UNL A   1      32.983  17.621  25.636  1.00  0.00     0.088 A 
ATOM     21  C   UNL A   1      33.358  16.663  24.685  1.00  0.00     0.269 A 
BRANCH  21  22
ATOM     22  N   UNL A   1      33.821  15.341  25.124  1.00  0.00     0.062 N 
ATOM     23  O   UNL A   1      35.041  15.159  25.242  1.00  0.00    -0.258 OA
ATOM     24  O   UNL A   1      32.959  14.482  25.364  1.00  0.00    -0.258 OA
ENDBRANCH  21  22
ENDBRANCH  14  16
ENDBRANCH  12  14
ENDBRANCH   9  10
ENDBRANCH   4   9
ENDBRANCH   3   4
ENDBRANCH   1   3
BRANCH   1  25
ATOM     25  O   UNL A   1      35.584  22.177  24.871  1.00  0.00    -0.462 OA
BRANCH  25  26
ATOM     26  C   UNL A   1      35.795  20.750  24.916  1.00  0.00     0.274 C 
BRANCH  26  27
ATOM     27  C   UNL A   1      37.281  20.427  25.014  1.00  0.00     0.275 C 
BRANCH  27  28
ATOM     28  O   UNL A   1      37.858  21.189  26.085  1.00  0.00    -0.458 OA
BRANCH  28  29
ATOM     29  C   UNL A   1      39.205  21.122  26.200  1.00  0.00     0.338 C 
ATOM     30  O   UNL A   1      39.907  20.143  26.010  1.00  0.00    -0.246 OA
BRANCH  29  31
ATOM     31  C   UNL A   1      39.729  22.435  26.632  1.00  0.00     0.060 A 
ATOM     32  C   UNL A   1      39.091  23.619  26.262  1.00  0.00     0.016 A 
ATOM     33  C   UNL A   1      40.929  22.482  27.344  1.00  0.00     0.016 A 
ATOM     34  C   UNL A   1      39.696  24.845  26.535  1.00  0.00     0.010 A 
ATOM     35  C   UNL A   1      41.491  23.718  27.686  1.00  0.00     0.010 A 
ATOM     36  C   UNL A   1      40.902  24.916  27.250  1.00  0.00    -0.014 A 
BRANCH  36  37
ATOM     37  C   UNL A   1      41.565  26.233  27.480  1.00  0.00     0.031 A 
ATOM     38  C   UNL A   1      40.990  27.220  28.467  1.00  0.00     0.074 A 
ATOM     39  C   UNL A   1      42.730  26.529  26.870  1.00  0.00     0.049 A 
ATOM     40  N   UNL A   1      41.391  28.438  28.740  1.00  0.00    -0.248 NA
ATOM     41  C   UNL A   1      39.832  26.781  29.263  1.00  0.00     0.031 C 
ATOM     42  C   UNL A   1      43.453  25.651  25.947  1.00  0.00     0.029 A 
ATOM     43  N   UNL A   1      43.537  27.636  26.972  1.00  0.00    -0.354 N 
ATOM     44  C   UNL A   1      40.497  28.933  29.683  1.00  0.00     0.074 A 
ATOM     45  C   UNL A   1      39.547  27.875  29.957  1.00  0.00     0.031 C 
ATOM     46  C   UNL A   1      44.634  26.212  25.643  1.00  0.00     0.029 A 
ATOM     47  C   UNL A   1      44.712  27.527  26.268  1.00  0.00     0.049 A 
ATOM     48  H   UNL A   1      43.297  28.432  27.499  1.00  0.00     0.167 HD
ATOM     49  C   UNL A   1      40.461  30.157  30.262  1.00  0.00     0.031 A 
ATOM     50  C   UNL A   1      45.733  28.392  26.118  1.00  0.00     0.031 A 
ATOM     51  C   UNL A   1      41.415  31.208  30.027  1.00  0.00     0.049 A 
ATOM     52  C   UNL A   1      45.650  29.754  26.742  1.00  0.00     0.074 A 
ATOM     53  C   UNL A   1      41.427  32.494  30.544  1.00  0.00     0.029 A 
ATOM     54  N   UNL A   1      42.537  31.092  29.226  1.00  0.00    -0.354 N 
ATOM     55  N   UNL A   1      44.730  30.244  27.537  1.00  0.00    -0.248 NA
ATOM     56  C   UNL A   1      46.729  30.698  26.410  1.00  0.00     0.031 C 
ATOM     57  C   UNL A   1      42.543  33.165  30.034  1.00  0.00     0.029 A 
ATOM     58  C   UNL A   1      43.245  32.282  29.231  1.00  0.00     0.049 A 
ATOM     59  H   UNL A   1      42.793  30.284  28.725  1.00  0.00     0.167 HD
ATOM     60  C   UNL A   1      45.114  31.556  27.788  1.00  0.00     0.074 A 
ATOM     61  C   UNL A   1      46.365  31.773  27.093  1.00  0.00     0.031 C 
ATOM     62  C   UNL A   1      44.474  32.500  28.516  1.00  0.00     0.031 A 
BRANCH  49  63
ATOM     63  C   UNL A   1      39.314  30.456  31.184  1.00  0.00    -0.014 A 
ATOM     64  C   UNL A   1      38.097  30.957  30.699  1.00  0.00     0.009 A 
ATOM     65  C   UNL A   1      39.436  30.158  32.551  1.00  0.00     0.009 A 
ATOM     66  C   UNL A   1      37.029  31.171  31.572  1.00  0.00     0.001 A 
ATOM     67  C   UNL A   1      38.360  30.355  33.417  1.00  0.00     0.001 A 
ATOM     68  C   UNL A   1      37.158  30.865  32.928  1.00  0.00     0.000 A 
ENDBRANCH  49  63
BRANCH  50  69
ATOM     69  C   UNL A   1      46.918  28.011  25.307  1.00  0.00    -0.014 A 
ATOM     70  C   UNL A   1      46.857  28.057  23.906  1.00  0.00     0.009 A 
ATOM     71  C   UNL A   1      48.108  27.593  25.923  1.00  0.00     0.009 A 
ATOM     72  C   UNL A   1      47.962  27.686  23.138  1.00  0.00     0.001 A 
ATOM     73  C   UNL A   1      49.220  27.247  25.153  1.00  0.00     0.001 A 
ATOM     74  C   UNL A   1      49.144  27.289  23.762  1.00  0.00     0.000 A 
ENDBRANCH  50  69
BRANCH  62  75
ATOM     75  C   UNL A   1      45.107  33.859  28.582  1.00  0.00    -0.014 A 
ATOM     76  C   UNL A   1      46.122  34.132  29.511  1.00  0.00     0.009 A 
ATOM     77  C   UNL A   1      44.703  34.868  27.694  1.00  0.00     0.009 A 
ATOM     78  C   UNL A   1      46.703  35.400  29.570  1.00  0.00     0.001 A 
ATOM     79  C   UNL A   1      45.300  36.129  27.742  1.00  0.00     0.001 A 
ATOM     80  C   UNL A   1      46.293  36.397  28.684  1.00  0.00     0.000 A 
ENDBRANCH  62  75
ENDBRANCH  36  37
ENDBRANCH  29  31
ENDBRANCH  28  29
ENDBRANCH  27  28
ENDBRANCH  26  27
ENDBRANCH  25  26
ENDBRANCH   1  25
TORSDOF 17
ENDMDL
