MODEL 1
REMARK VINA RESULT:     -10.4      0.000      0.000
REMARK SMILES CC(C)C[C@H](CNC(=O)[C@]1([NH3+])CCC[C@@H](C)C1)C(=O)OCCOC(=O)c1ccc(-c2c3nc(c(-c4ccccc4)c4ccc([nH]4)c(-c4ccccc4)c4nc(c(-c5ccccc5)c5ccc2[nH]5)C=C4)C=C3)cc1
REMARK SMILES IDX 21 1 20 2 18 3 19 4 5 5 4 6 2 7 1 8 3 9 6 10 7 11 8 12 9 14
REMARK SMILES IDX 10 15 12 16 17 17 13 18 15 19 14 20 16 21 11 22 22 26 23 27
REMARK SMILES IDX 24 28 25 29 26 30 27 31 73 32 28 33 72 34 29 35 30 36 31 37
REMARK SMILES IDX 66 38 32 39 71 40 65 41 67 42 33 43 70 44 64 45 63 46 34 48
REMARK SMILES IDX 56 49 41 50 55 51 42 52 45 53 54 54 68 55 43 56 44 57 53 59
REMARK SMILES IDX 69 60 46 61 35 62 36 63 40 64 37 65 39 66 38 67 57 68 58 69
REMARK SMILES IDX 62 70 59 71 61 72 60 73 47 74 48 75 52 76 49 77 51 78 50 79
REMARK H PARENT 7 13 11 23 11 24 11 25 67 47 45 58
REMARK Flexibility Score: inf
ROOT
ATOM      1  C   UNL A   1      32.019  28.424  26.195  1.00  0.00     0.274 C 
ENDROOT
BRANCH   1   2
ATOM      2  O   UNL A   1      31.329  29.113  25.131  1.00  0.00    -0.462 OA
BRANCH   2   3
ATOM      3  C   UNL A   1      31.933  29.072  23.916  1.00  0.00     0.310 C 
ATOM      4  O   UNL A   1      33.144  29.176  23.751  1.00  0.00    -0.252 OA
BRANCH   3   5
ATOM      5  C   UNL A   1      30.962  28.928  22.752  1.00  0.00     0.118 C 
BRANCH   5   6
ATOM      6  C   UNL A   1      29.742  29.852  22.938  1.00  0.00     0.020 C 
BRANCH   6   7
ATOM      7  C   UNL A   1      28.455  29.452  22.182  1.00  0.00    -0.017 C 
ATOM      8  C   UNL A   1      27.276  29.125  23.101  1.00  0.00     0.007 C 
ATOM      9  C   UNL A   1      28.050  30.583  21.231  1.00  0.00     0.007 C 
ENDBRANCH   6   7
ENDBRANCH   5   6
BRANCH   5  10
ATOM     10  C   UNL A   1      30.620  27.446  22.450  1.00  0.00     0.131 C 
BRANCH  10  11
ATOM     11  N   UNL A   1      31.565  26.803  21.547  1.00  0.00    -0.350 N 
ATOM     12  C   UNL A   1      32.538  25.874  21.695  1.00  0.00     0.281 C 
ATOM     13  H   UNL A   1      31.476  27.117  20.618  1.00  0.00     0.163 HD
ATOM     14  O   UNL A   1      33.215  25.656  20.679  1.00  0.00    -0.268 OA
BRANCH  12  15
ATOM     15  C   UNL A   1      32.806  25.060  23.006  1.00  0.00     0.174 C 
ATOM     16  C   UNL A   1      31.477  24.554  23.594  1.00  0.00     0.079 C 
ATOM     17  C   UNL A   1      33.639  25.829  24.051  1.00  0.00     0.082 C 
ATOM     18  C   UNL A   1      31.649  23.805  24.916  1.00  0.00     0.007 C 
ATOM     19  C   UNL A   1      33.772  25.136  25.427  1.00  0.00    -0.008 C 
ATOM     20  C   UNL A   1      32.409  24.646  25.939  1.00  0.00     0.004 C 
ATOM     21  C   UNL A   1      34.817  24.016  25.450  1.00  0.00     0.008 C 
BRANCH  15  22
ATOM     22  N   UNL A   1      33.597  23.861  22.593  1.00  0.00    -0.345 N 
ATOM     23  H   UNL A   1      34.592  24.070  22.666  1.00  0.00     0.345 HD
ATOM     24  H   UNL A   1      33.370  23.621  21.628  1.00  0.00     0.345 HD
ATOM     25  H   UNL A   1      33.367  23.076  23.202  1.00  0.00     0.345 HD
ENDBRANCH  15  22
ENDBRANCH  12  15
ENDBRANCH  10  11
ENDBRANCH   5  10
ENDBRANCH   3   5
ENDBRANCH   2   3
ENDBRANCH   1   2
BRANCH   1  26
ATOM     26  C   UNL A   1      32.511  29.375  27.297  1.00  0.00     0.275 C 
BRANCH  26  27
ATOM     27  O   UNL A   1      33.907  29.194  27.611  1.00  0.00    -0.458 OA
BRANCH  27  28
ATOM     28  C   UNL A   1      34.572  30.326  27.946  1.00  0.00     0.338 C 
ATOM     29  O   UNL A   1      34.095  31.444  28.067  1.00  0.00    -0.246 OA
BRANCH  28  30
ATOM     30  C   UNL A   1      35.962  30.019  28.338  1.00  0.00     0.060 A 
ATOM     31  C   UNL A   1      36.945  30.123  27.346  1.00  0.00     0.016 A 
ATOM     32  C   UNL A   1      36.300  29.575  29.616  1.00  0.00     0.016 A 
ATOM     33  C   UNL A   1      38.264  29.782  27.620  1.00  0.00     0.010 A 
ATOM     34  C   UNL A   1      37.626  29.214  29.888  1.00  0.00     0.010 A 
ATOM     35  C   UNL A   1      38.610  29.304  28.887  1.00  0.00    -0.014 A 
BRANCH  35  36
ATOM     36  C   UNL A   1      39.987  28.809  29.116  1.00  0.00     0.031 A 
ATOM     37  C   UNL A   1      40.980  29.689  29.819  1.00  0.00     0.074 A 
ATOM     38  C   UNL A   1      40.327  27.559  28.755  1.00  0.00     0.049 A 
ATOM     39  N   UNL A   1      42.239  29.461  30.093  1.00  0.00    -0.248 NA
ATOM     40  C   UNL A   1      40.487  30.997  30.281  1.00  0.00     0.031 C 
ATOM     41  C   UNL A   1      39.431  26.584  28.133  1.00  0.00     0.029 A 
ATOM     42  N   UNL A   1      41.521  26.894  28.871  1.00  0.00    -0.354 N 
ATOM     43  C   UNL A   1      42.693  30.599  30.745  1.00  0.00     0.074 A 
ATOM     44  C   UNL A   1      41.581  31.522  30.814  1.00  0.00     0.031 C 
ATOM     45  C   UNL A   1      40.109  25.443  27.923  1.00  0.00     0.029 A 
ATOM     46  C   UNL A   1      41.492  25.622  28.357  1.00  0.00     0.049 A 
ATOM     47  H   UNL A   1      42.322  27.292  29.283  1.00  0.00     0.167 HD
ATOM     48  C   UNL A   1      43.927  30.853  31.241  1.00  0.00     0.031 A 
ATOM     49  C   UNL A   1      42.478  24.712  28.230  1.00  0.00     0.031 A 
ATOM     50  C   UNL A   1      45.035  29.939  31.167  1.00  0.00     0.049 A 
ATOM     51  C   UNL A   1      43.860  25.051  28.715  1.00  0.00     0.074 A 
ATOM     52  C   UNL A   1      46.328  30.111  31.632  1.00  0.00     0.029 A 
ATOM     53  N   UNL A   1      44.981  28.682  30.588  1.00  0.00    -0.354 N 
ATOM     54  N   UNL A   1      44.282  26.137  29.315  1.00  0.00    -0.248 NA
ATOM     55  C   UNL A   1      44.901  24.036  28.503  1.00  0.00     0.031 C 
ATOM     56  C   UNL A   1      47.068  28.973  31.294  1.00  0.00     0.029 A 
ATOM     57  C   UNL A   1      46.222  28.073  30.665  1.00  0.00     0.049 A 
ATOM     58  H   UNL A   1      44.179  28.280  30.183  1.00  0.00     0.167 HD
ATOM     59  C   UNL A   1      45.632  25.929  29.571  1.00  0.00     0.074 A 
ATOM     60  C   UNL A   1      45.953  24.607  29.075  1.00  0.00     0.031 C 
ATOM     61  C   UNL A   1      46.525  26.758  30.163  1.00  0.00     0.031 A 
BRANCH  48  62
ATOM     62  C   UNL A   1      44.151  32.200  31.867  1.00  0.00    -0.014 A 
ATOM     63  C   UNL A   1      44.569  33.301  31.102  1.00  0.00     0.009 A 
ATOM     64  C   UNL A   1      43.919  32.373  33.240  1.00  0.00     0.009 A 
ATOM     65  C   UNL A   1      44.780  34.541  31.710  1.00  0.00     0.001 A 
ATOM     66  C   UNL A   1      44.108  33.619  33.839  1.00  0.00     0.001 A 
ATOM     67  C   UNL A   1      44.546  34.699  33.076  1.00  0.00     0.000 A 
ENDBRANCH  48  62
BRANCH  49  68
ATOM     68  C   UNL A   1      42.202  23.404  27.583  1.00  0.00    -0.014 A 
ATOM     69  C   UNL A   1      41.625  22.351  28.308  1.00  0.00     0.009 A 
ATOM     70  C   UNL A   1      42.534  23.198  26.234  1.00  0.00     0.009 A 
ATOM     71  C   UNL A   1      41.404  21.112  27.700  1.00  0.00     0.001 A 
ATOM     72  C   UNL A   1      42.289  21.966  25.623  1.00  0.00     0.001 A 
ATOM     73  C   UNL A   1      41.732  20.922  26.358  1.00  0.00     0.000 A 
ENDBRANCH  49  68
BRANCH  61  74
ATOM     74  C   UNL A   1      47.926  26.246  30.334  1.00  0.00    -0.014 A 
ATOM     75  C   UNL A   1      48.850  26.287  29.278  1.00  0.00     0.009 A 
ATOM     76  C   UNL A   1      48.337  25.748  31.580  1.00  0.00     0.009 A 
ATOM     77  C   UNL A   1      50.149  25.808  29.460  1.00  0.00     0.001 A 
ATOM     78  C   UNL A   1      49.643  25.295  31.767  1.00  0.00     0.001 A 
ATOM     79  C   UNL A   1      50.546  25.317  30.704  1.00  0.00     0.000 A 
ENDBRANCH  61  74
ENDBRANCH  35  36
ENDBRANCH  28  30
ENDBRANCH  27  28
ENDBRANCH  26  27
ENDBRANCH   1  26
TORSDOF 17
ENDMDL
MODEL 2
REMARK VINA RESULT:     -10.3      3.350      8.255
REMARK SMILES CC(C)C[C@H](CNC(=O)[C@]1([NH3+])CCC[C@@H](C)C1)C(=O)OCCOC(=O)c1ccc(-c2c3nc(c(-c4ccccc4)c4ccc([nH]4)c(-c4ccccc4)c4nc(c(-c5ccccc5)c5ccc2[nH]5)C=C4)C=C3)cc1
REMARK SMILES IDX 21 1 20 2 18 3 19 4 5 5 4 6 2 7 1 8 3 9 6 10 7 11 8 12 9 14
REMARK SMILES IDX 10 15 12 16 17 17 13 18 15 19 14 20 16 21 11 22 22 26 23 27
REMARK SMILES IDX 24 28 25 29 26 30 27 31 73 32 28 33 72 34 29 35 30 36 31 37
REMARK SMILES IDX 66 38 32 39 71 40 65 41 67 42 33 43 70 44 64 45 63 46 34 48
REMARK SMILES IDX 56 49 41 50 55 51 42 52 45 53 54 54 68 55 43 56 44 57 53 59
REMARK SMILES IDX 69 60 46 61 35 62 36 63 40 64 37 65 39 66 38 67 57 68 58 69
REMARK SMILES IDX 62 70 59 71 61 72 60 73 47 74 48 75 52 76 49 77 51 78 50 79
REMARK H PARENT 7 13 11 23 11 24 11 25 67 47 45 58
REMARK Flexibility Score: inf
ROOT
ATOM      1  C   UNL A   1      36.625  20.643  25.240  1.00  0.00     0.274 C 
ENDROOT
BRANCH   1   2
ATOM      2  O   UNL A   1      35.358  21.221  24.866  1.00  0.00    -0.462 OA
BRANCH   2   3
ATOM      3  C   UNL A   1      34.349  21.055  25.758  1.00  0.00     0.310 C 
ATOM      4  O   UNL A   1      34.413  21.401  26.934  1.00  0.00    -0.252 OA
BRANCH   3   5
ATOM      5  C   UNL A   1      33.128  20.353  25.181  1.00  0.00     0.118 C 
BRANCH   5   6
ATOM      6  C   UNL A   1      33.535  19.381  24.055  1.00  0.00     0.020 C 
BRANCH   6   7
ATOM      7  C   UNL A   1      33.161  17.896  24.262  1.00  0.00    -0.017 C 
ATOM      8  C   UNL A   1      34.302  16.923  23.954  1.00  0.00     0.007 C 
ATOM      9  C   UNL A   1      32.698  17.683  25.707  1.00  0.00     0.007 C 
ENDBRANCH   6   7
ENDBRANCH   5   6
BRANCH   5  10
ATOM     10  C   UNL A   1      31.997  21.347  24.810  1.00  0.00     0.131 C 
BRANCH  10  11
ATOM     11  N   UNL A   1      31.288  21.879  25.965  1.00  0.00    -0.350 N 
ATOM     12  C   UNL A   1      31.167  23.105  26.523  1.00  0.00     0.281 C 
ATOM     13  H   UNL A   1      30.781  21.189  26.451  1.00  0.00     0.163 HD
ATOM     14  O   UNL A   1      30.541  23.138  27.594  1.00  0.00    -0.268 OA
BRANCH  12  15
ATOM     15  C   UNL A   1      31.706  24.434  25.890  1.00  0.00     0.174 C 
ATOM     16  C   UNL A   1      31.169  24.591  24.457  1.00  0.00     0.079 C 
ATOM     17  C   UNL A   1      33.241  24.566  25.945  1.00  0.00     0.082 C 
ATOM     18  C   UNL A   1      31.706  25.833  23.746  1.00  0.00     0.007 C 
ATOM     19  C   UNL A   1      33.827  25.770  25.172  1.00  0.00    -0.008 C 
ATOM     20  C   UNL A   1      33.232  25.869  23.760  1.00  0.00     0.004 C 
ATOM     21  C   UNL A   1      33.708  27.098  25.927  1.00  0.00     0.008 C 
BRANCH  15  22
ATOM     22  N   UNL A   1      31.129  25.544  26.707  1.00  0.00    -0.345 N 
ATOM     23  H   UNL A   1      30.267  25.227  27.152  1.00  0.00     0.345 HD
ATOM     24  H   UNL A   1      30.926  26.340  26.103  1.00  0.00     0.345 HD
ATOM     25  H   UNL A   1      31.799  25.823  27.424  1.00  0.00     0.345 HD
ENDBRANCH  15  22
ENDBRANCH  12  15
ENDBRANCH  10  11
ENDBRANCH   5  10
ENDBRANCH   3   5
ENDBRANCH   2   3
ENDBRANCH   1   2
BRANCH   1  26
ATOM     26  C   UNL A   1      37.811  21.582  24.967  1.00  0.00     0.275 C 
BRANCH  26  27
ATOM     27  O   UNL A   1      38.026  22.535  26.027  1.00  0.00    -0.458 OA
BRANCH  27  28
ATOM     28  C   UNL A   1      39.325  22.766  26.338  1.00  0.00     0.338 C 
ATOM     29  O   UNL A   1      40.280  22.060  26.052  1.00  0.00    -0.246 OA
BRANCH  28  30
ATOM     30  C   UNL A   1      39.491  24.107  26.932  1.00  0.00     0.060 A 
ATOM     31  C   UNL A   1      40.159  25.069  26.164  1.00  0.00     0.016 A 
ATOM     32  C   UNL A   1      39.072  24.410  28.227  1.00  0.00     0.016 A 
ATOM     33  C   UNL A   1      40.416  26.332  26.683  1.00  0.00     0.010 A 
ATOM     34  C   UNL A   1      39.346  25.678  28.758  1.00  0.00     0.010 A 
ATOM     35  C   UNL A   1      40.030  26.638  27.992  1.00  0.00    -0.014 A 
BRANCH  35  36
ATOM     36  C   UNL A   1      40.442  27.936  28.576  1.00  0.00     0.031 A 
ATOM     37  C   UNL A   1      41.880  28.153  28.950  1.00  0.00     0.074 A 
ATOM     38  C   UNL A   1      39.550  28.933  28.709  1.00  0.00     0.049 A 
ATOM     39  N   UNL A   1      42.442  29.200  29.499  1.00  0.00    -0.248 NA
ATOM     40  C   UNL A   1      42.808  27.048  28.663  1.00  0.00     0.031 C 
ATOM     41  C   UNL A   1      38.143  28.869  28.312  1.00  0.00     0.029 A 
ATOM     42  N   UNL A   1      39.702  30.201  29.210  1.00  0.00    -0.354 N 
ATOM     43  C   UNL A   1      43.785  28.875  29.636  1.00  0.00     0.074 A 
ATOM     44  C   UNL A   1      43.952  27.531  29.127  1.00  0.00     0.031 C 
ATOM     45  C   UNL A   1      37.561  30.050  28.583  1.00  0.00     0.029 A 
ATOM     46  C   UNL A   1      38.541  30.934  29.209  1.00  0.00     0.049 A 
ATOM     47  H   UNL A   1      40.561  30.552  29.537  1.00  0.00     0.167 HD
ATOM     48  C   UNL A   1      44.790  29.629  30.142  1.00  0.00     0.031 A 
ATOM     49  C   UNL A   1      38.293  32.170  29.683  1.00  0.00     0.031 A 
ATOM     50  C   UNL A   1      44.624  30.962  30.655  1.00  0.00     0.049 A 
ATOM     51  C   UNL A   1      39.408  32.955  30.315  1.00  0.00     0.074 A 
ATOM     52  C   UNL A   1      45.581  31.803  31.198  1.00  0.00     0.029 A 
ATOM     53  N   UNL A   1      43.421  31.648  30.689  1.00  0.00    -0.354 N 
ATOM     54  N   UNL A   1      40.670  32.631  30.455  1.00  0.00    -0.248 NA
ATOM     55  C   UNL A   1      39.061  34.276  30.857  1.00  0.00     0.031 C 
ATOM     56  C   UNL A   1      44.945  32.982  31.603  1.00  0.00     0.029 A 
ATOM     57  C   UNL A   1      43.605  32.895  31.264  1.00  0.00     0.049 A 
ATOM     58  H   UNL A   1      42.562  31.302  30.355  1.00  0.00     0.167 HD
ATOM     59  C   UNL A   1      41.273  33.715  31.080  1.00  0.00     0.074 A 
ATOM     60  C   UNL A   1      40.241  34.712  31.279  1.00  0.00     0.031 C 
ATOM     61  C   UNL A   1      42.565  33.872  31.457  1.00  0.00     0.031 A 
BRANCH  48  62
ATOM     62  C   UNL A   1      46.152  29.002  30.207  1.00  0.00    -0.014 A 
ATOM     63  C   UNL A   1      47.072  29.140  29.155  1.00  0.00     0.009 A 
ATOM     64  C   UNL A   1      46.529  28.279  31.350  1.00  0.00     0.009 A 
ATOM     65  C   UNL A   1      48.330  28.538  29.236  1.00  0.00     0.001 A 
ATOM     66  C   UNL A   1      47.795  27.699  31.437  1.00  0.00     0.001 A 
ATOM     67  C   UNL A   1      48.691  27.822  30.377  1.00  0.00     0.000 A 
ENDBRANCH  48  62
BRANCH  49  68
ATOM     68  C   UNL A   1      36.919  32.731  29.611  1.00  0.00    -0.014 A 
ATOM     69  C   UNL A   1      36.001  32.520  30.651  1.00  0.00     0.009 A 
ATOM     70  C   UNL A   1      36.514  33.469  28.488  1.00  0.00     0.009 A 
ATOM     71  C   UNL A   1      34.700  33.019  30.557  1.00  0.00     0.001 A 
ATOM     72  C   UNL A   1      35.220  33.990  28.409  1.00  0.00     0.001 A 
ATOM     73  C   UNL A   1      34.312  33.758  29.440  1.00  0.00     0.000 A 
ENDBRANCH  49  68
BRANCH  61  74
ATOM     74  C   UNL A   1      42.940  35.181  32.092  1.00  0.00    -0.014 A 
ATOM     75  C   UNL A   1      42.735  35.409  33.462  1.00  0.00     0.009 A 
ATOM     76  C   UNL A   1      43.538  36.184  31.315  1.00  0.00     0.009 A 
ATOM     77  C   UNL A   1      43.093  36.632  34.033  1.00  0.00     0.001 A 
ATOM     78  C   UNL A   1      43.920  37.395  31.894  1.00  0.00     0.001 A 
ATOM     79  C   UNL A   1      43.689  37.622  33.251  1.00  0.00     0.000 A 
ENDBRANCH  61  74
ENDBRANCH  35  36
ENDBRANCH  28  30
ENDBRANCH  27  28
ENDBRANCH  26  27
ENDBRANCH   1  26
TORSDOF 17
ENDMDL
MODEL 3
REMARK VINA RESULT:     -10.3      2.354      4.747
REMARK SMILES CC(C)C[C@H](CNC(=O)[C@]1([NH3+])CCC[C@@H](C)C1)C(=O)OCCOC(=O)c1ccc(-c2c3nc(c(-c4ccccc4)c4ccc([nH]4)c(-c4ccccc4)c4nc(c(-c5ccccc5)c5ccc2[nH]5)C=C4)C=C3)cc1
REMARK SMILES IDX 21 1 20 2 18 3 19 4 5 5 4 6 2 7 1 8 3 9 6 10 7 11 8 12 9 14
REMARK SMILES IDX 10 15 12 16 17 17 13 18 15 19 14 20 16 21 11 22 22 26 23 27
REMARK SMILES IDX 24 28 25 29 26 30 27 31 73 32 28 33 72 34 29 35 30 36 31 37
REMARK SMILES IDX 66 38 32 39 71 40 65 41 67 42 33 43 70 44 64 45 63 46 34 48
REMARK SMILES IDX 56 49 41 50 55 51 42 52 45 53 54 54 68 55 43 56 44 57 53 59
REMARK SMILES IDX 69 60 46 61 35 62 36 63 40 64 37 65 39 66 38 67 57 68 58 69
REMARK SMILES IDX 62 70 59 71 61 72 60 73 47 74 48 75 52 76 49 77 51 78 50 79
REMARK H PARENT 7 13 11 23 11 24 11 25 67 47 45 58
REMARK Flexibility Score: inf
ROOT
ATOM      1  C   UNL A   1      33.285  31.349  27.259  1.00  0.00     0.274 C 
ENDROOT
BRANCH   1   2
ATOM      2  O   UNL A   1      32.582  30.104  27.071  1.00  0.00    -0.462 OA
BRANCH   2   3
ATOM      3  C   UNL A   1      33.361  28.997  26.975  1.00  0.00     0.310 C 
ATOM      4  O   UNL A   1      34.472  28.897  27.485  1.00  0.00    -0.252 OA
BRANCH   3   5
ATOM      5  C   UNL A   1      32.748  27.887  26.132  1.00  0.00     0.118 C 
BRANCH   5   6
ATOM      6  C   UNL A   1      33.819  27.213  25.251  1.00  0.00     0.020 C 
BRANCH   6   7
ATOM      7  C   UNL A   1      33.975  25.684  25.409  1.00  0.00    -0.017 C 
ATOM      8  C   UNL A   1      32.794  25.012  26.113  1.00  0.00     0.007 C 
ATOM      9  C   UNL A   1      34.163  25.045  24.029  1.00  0.00     0.007 C 
ENDBRANCH   6   7
ENDBRANCH   5   6
BRANCH   5  10
ATOM     10  C   UNL A   1      31.477  28.354  25.376  1.00  0.00     0.131 C 
BRANCH  10  11
ATOM     11  N   UNL A   1      31.345  27.774  24.046  1.00  0.00    -0.350 N 
ATOM     12  C   UNL A   1      30.683  28.124  22.919  1.00  0.00     0.281 C 
ATOM     13  H   UNL A   1      31.853  26.937  23.945  1.00  0.00     0.163 HD
ATOM     14  O   UNL A   1      30.736  27.294  21.999  1.00  0.00    -0.268 OA
BRANCH  12  15
ATOM     15  C   UNL A   1      29.932  29.482  22.707  1.00  0.00     0.174 C 
ATOM     16  C   UNL A   1      29.964  30.310  24.004  1.00  0.00     0.079 C 
ATOM     17  C   UNL A   1      28.497  29.318  22.168  1.00  0.00     0.082 C 
ATOM     18  C   UNL A   1      29.191  31.625  23.898  1.00  0.00     0.007 C 
ATOM     19  C   UNL A   1      27.659  30.616  22.117  1.00  0.00    -0.008 C 
ATOM     20  C   UNL A   1      27.754  31.393  23.439  1.00  0.00     0.004 C 
ATOM     21  C   UNL A   1      27.985  31.508  20.915  1.00  0.00     0.008 C 
BRANCH  15  22
ATOM     22  N   UNL A   1      30.717  30.232  21.680  1.00  0.00    -0.345 N 
ATOM     23  H   UNL A   1      31.151  29.571  21.035  1.00  0.00     0.345 HD
ATOM     24  H   UNL A   1      31.440  30.783  22.140  1.00  0.00     0.345 HD
ATOM     25  H   UNL A   1      30.094  30.852  21.163  1.00  0.00     0.345 HD
ENDBRANCH  15  22
ENDBRANCH  12  15
ENDBRANCH  10  11
ENDBRANCH   5  10
ENDBRANCH   3   5
ENDBRANCH   2   3
ENDBRANCH   1   2
BRANCH   1  26
ATOM     26  C   UNL A   1      32.349  32.512  27.624  1.00  0.00     0.275 C 
BRANCH  26  27
ATOM     27  O   UNL A   1      33.011  33.793  27.601  1.00  0.00    -0.458 OA
BRANCH  27  28
ATOM     28  C   UNL A   1      33.277  34.325  28.818  1.00  0.00     0.338 C 
ATOM     29  O   UNL A   1      32.531  35.022  29.489  1.00  0.00    -0.246 OA
BRANCH  28  30
ATOM     30  C   UNL A   1      34.553  33.805  29.348  1.00  0.00     0.060 A 
ATOM     31  C   UNL A   1      35.718  34.123  28.639  1.00  0.00     0.016 A 
ATOM     32  C   UNL A   1      34.617  32.973  30.466  1.00  0.00     0.016 A 
ATOM     33  C   UNL A   1      36.948  33.612  29.036  1.00  0.00     0.010 A 
ATOM     34  C   UNL A   1      35.854  32.443  30.857  1.00  0.00     0.010 A 
ATOM     35  C   UNL A   1      37.021  32.750  30.135  1.00  0.00    -0.014 A 
BRANCH  35  36
ATOM     36  C   UNL A   1      38.314  32.101  30.452  1.00  0.00     0.031 A 
ATOM     37  C   UNL A   1      39.242  32.750  31.439  1.00  0.00     0.074 A 
ATOM     38  C   UNL A   1      38.626  30.911  29.912  1.00  0.00     0.049 A 
ATOM     39  N   UNL A   1      40.429  32.365  31.835  1.00  0.00    -0.248 NA
ATOM     40  C   UNL A   1      38.768  33.993  32.068  1.00  0.00     0.031 C 
ATOM     41  C   UNL A   1      37.776  30.146  29.000  1.00  0.00     0.029 A 
ATOM     42  N   UNL A   1      39.746  30.131  30.062  1.00  0.00    -0.354 N 
ATOM     43  C   UNL A   1      40.849  33.323  32.747  1.00  0.00     0.074 A 
ATOM     44  C   UNL A   1      39.798  34.315  32.836  1.00  0.00     0.031 C 
ATOM     45  C   UNL A   1      38.405  29.004  28.673  1.00  0.00     0.029 A 
ATOM     46  C   UNL A   1      39.715  28.979  29.318  1.00  0.00     0.049 A 
ATOM     47  H   UNL A   1      40.498  30.376  30.648  1.00  0.00     0.167 HD
ATOM     48  C   UNL A   1      42.007  33.374  33.447  1.00  0.00     0.031 A 
ATOM     49  C   UNL A   1      40.650  28.022  29.158  1.00  0.00     0.031 A 
ATOM     50  C   UNL A   1      43.054  32.393  33.354  1.00  0.00     0.049 A 
ATOM     51  C   UNL A   1      41.962  28.144  29.884  1.00  0.00     0.074 A 
ATOM     52  C   UNL A   1      44.269  32.363  34.016  1.00  0.00     0.029 A 
ATOM     53  N   UNL A   1      43.010  31.269  32.546  1.00  0.00    -0.354 N 
ATOM     54  N   UNL A   1      42.355  29.064  30.730  1.00  0.00    -0.248 NA
ATOM     55  C   UNL A   1      42.958  27.095  29.628  1.00  0.00     0.031 C 
ATOM     56  C   UNL A   1      44.980  31.242  33.573  1.00  0.00     0.029 A 
ATOM     57  C   UNL A   1      44.185  30.548  32.675  1.00  0.00     0.049 A 
ATOM     58  H   UNL A   1      42.255  31.018  31.966  1.00  0.00     0.167 HD
ATOM     59  C   UNL A   1      43.634  28.694  31.125  1.00  0.00     0.074 A 
ATOM     60  C   UNL A   1      43.945  27.458  30.436  1.00  0.00     0.031 C 
ATOM     61  C   UNL A   1      44.478  29.322  31.980  1.00  0.00     0.031 A 
BRANCH  48  62
ATOM     62  C   UNL A   1      42.217  34.562  34.341  1.00  0.00    -0.014 A 
ATOM     63  C   UNL A   1      42.797  35.746  33.859  1.00  0.00     0.009 A 
ATOM     64  C   UNL A   1      41.808  34.501  35.682  1.00  0.00     0.009 A 
ATOM     65  C   UNL A   1      42.991  36.834  34.713  1.00  0.00     0.001 A 
ATOM     66  C   UNL A   1      41.981  35.599  36.527  1.00  0.00     0.001 A 
ATOM     67  C   UNL A   1      42.580  36.760  36.044  1.00  0.00     0.000 A 
ENDBRANCH  48  62
BRANCH  49  68
ATOM     68  C   UNL A   1      40.395  26.880  28.243  1.00  0.00    -0.014 A 
ATOM     69  C   UNL A   1      40.889  26.887  26.930  1.00  0.00     0.009 A 
ATOM     70  C   UNL A   1      39.639  25.780  28.678  1.00  0.00     0.009 A 
ATOM     71  C   UNL A   1      40.612  25.826  26.065  1.00  0.00     0.001 A 
ATOM     72  C   UNL A   1      39.386  24.708  27.819  1.00  0.00     0.001 A 
ATOM     73  C   UNL A   1      39.866  24.735  26.511  1.00  0.00     0.000 A 
ENDBRANCH  49  68
BRANCH  61  74
ATOM     74  C   UNL A   1      45.802  28.664  32.242  1.00  0.00    -0.014 A 
ATOM     75  C   UNL A   1      46.935  28.976  31.473  1.00  0.00     0.009 A 
ATOM     76  C   UNL A   1      45.926  27.745  33.296  1.00  0.00     0.009 A 
ATOM     77  C   UNL A   1      48.157  28.355  31.736  1.00  0.00     0.001 A 
ATOM     78  C   UNL A   1      47.155  27.146  33.573  1.00  0.00     0.001 A 
ATOM     79  C   UNL A   1      48.268  27.445  32.787  1.00  0.00     0.000 A 
ENDBRANCH  61  74
ENDBRANCH  35  36
ENDBRANCH  28  30
ENDBRANCH  27  28
ENDBRANCH  26  27
ENDBRANCH   1  26
TORSDOF 17
ENDMDL
