MODEL 1
REMARK VINA RESULT:     -11.1      0.000      0.000
REMARK SMILES O=C(OCCOC(=O)[C@H]1CC[C@H]2CCCC[C@@H]2[N@H+]1C[C@@H]1CCCCO1)c1ccc(-c2c3nc(c(-c4ccccc4)c4ccc([nH]4)c(-c4ccccc4)c4nc(c(-c5ccccc5)c5ccc2[nH]5)C=C4)C=C3)cc1
REMARK SMILES IDX 4 1 3 2 2 3 1 4 26 5 27 6 73 7 28 8 72 9 29 10 30 11 31 12
REMARK SMILES IDX 66 13 32 14 71 15 65 16 67 17 33 18 70 19 64 20 63 21 34 23
REMARK SMILES IDX 56 24 41 25 55 26 42 27 45 28 54 29 68 30 43 31 44 32 53 34
REMARK SMILES IDX 69 35 46 36 35 37 36 38 40 39 37 40 39 41 38 42 57 43 58 44
REMARK SMILES IDX 62 45 59 46 61 47 60 48 47 49 48 50 52 51 49 52 51 53 50 54
REMARK SMILES IDX 5 55 6 56 7 57 8 58 9 59 10 60 18 61 11 62 17 63 12 65 16 66
REMARK SMILES IDX 13 67 15 68 14 69 19 70 20 71 21 72 25 73 22 74 24 75 23 76
REMARK H PARENT 67 22 45 33 18 64
REMARK Flexibility Score: inf
ROOT
ATOM      1  C   UNL A   1      31.711  32.550  27.201  1.00  0.00     0.275 C 
ENDROOT
BRANCH   1   2
ATOM      2  O   UNL A   1      32.350  33.827  27.386  1.00  0.00    -0.458 OA
BRANCH   2   3
ATOM      3  C   UNL A   1      33.196  34.260  28.349  1.00  0.00     0.338 C 
ATOM      4  O   UNL A   1      33.001  35.367  28.850  1.00  0.00    -0.246 OA
BRANCH   3   5
ATOM      5  C   UNL A   1      34.438  33.535  28.768  1.00  0.00     0.060 A 
ATOM      6  C   UNL A   1      35.720  33.698  28.227  1.00  0.00     0.016 A 
ATOM      7  C   UNL A   1      34.279  32.593  29.801  1.00  0.00     0.016 A 
ATOM      8  C   UNL A   1      36.834  33.026  28.766  1.00  0.00     0.010 A 
ATOM      9  C   UNL A   1      35.383  31.917  30.337  1.00  0.00     0.010 A 
ATOM     10  C   UNL A   1      36.680  32.144  29.839  1.00  0.00    -0.014 A 
BRANCH  10  11
ATOM     11  C   UNL A   1      37.815  31.347  30.375  1.00  0.00     0.031 A 
ATOM     12  C   UNL A   1      38.305  31.689  31.748  1.00  0.00     0.074 A 
ATOM     13  C   UNL A   1      38.435  30.366  29.685  1.00  0.00     0.049 A 
ATOM     14  N   UNL A   1      39.275  31.143  32.432  1.00  0.00    -0.248 NA
ATOM     15  C   UNL A   1      37.583  32.758  32.460  1.00  0.00     0.031 C 
ATOM     16  C   UNL A   1      38.028  29.838  28.385  1.00  0.00     0.029 A 
ATOM     17  N   UNL A   1      39.587  29.665  29.967  1.00  0.00    -0.354 N 
ATOM     18  C   UNL A   1      39.213  31.736  33.681  1.00  0.00     0.074 A 
ATOM     19  C   UNL A   1      38.222  32.785  33.617  1.00  0.00     0.031 C 
ATOM     20  C   UNL A   1      38.972  28.989  27.936  1.00  0.00     0.029 A 
ATOM     21  C   UNL A   1      40.041  28.898  28.917  1.00  0.00     0.049 A 
ATOM     22  H   UNL A   1      40.043  29.708  30.839  1.00  0.00     0.167 HD
ATOM     23  C   UNL A   1      39.855  31.375  34.813  1.00  0.00     0.031 A 
ATOM     24  C   UNL A   1      41.191  28.210  28.759  1.00  0.00     0.031 A 
ATOM     25  C   UNL A   1      40.871  30.370  34.873  1.00  0.00     0.049 A 
ATOM     26  C   UNL A   1      42.091  28.039  29.949  1.00  0.00     0.074 A 
ATOM     27  C   UNL A   1      41.568  29.911  35.975  1.00  0.00     0.029 A 
ATOM     28  N   UNL A   1      41.360  29.689  33.770  1.00  0.00    -0.354 N 
ATOM     29  N   UNL A   1      41.944  28.517  31.160  1.00  0.00    -0.248 NA
ATOM     30  C   UNL A   1      43.260  27.165  29.781  1.00  0.00     0.031 C 
ATOM     31  C   UNL A   1      42.526  28.994  35.526  1.00  0.00     0.029 A 
ATOM     32  C   UNL A   1      42.385  28.844  34.155  1.00  0.00     0.049 A 
ATOM     33  H   UNL A   1      41.028  29.792  32.849  1.00  0.00     0.167 HD
ATOM     34  C   UNL A   1      42.933  27.914  31.924  1.00  0.00     0.074 A 
ATOM     35  C   UNL A   1      43.705  27.079  31.026  1.00  0.00     0.031 C 
ATOM     36  C   UNL A   1      43.140  28.007  33.259  1.00  0.00     0.031 A 
BRANCH  23  37
ATOM     37  C   UNL A   1      39.415  32.078  36.060  1.00  0.00    -0.014 A 
ATOM     38  C   UNL A   1      38.271  31.640  36.751  1.00  0.00     0.009 A 
ATOM     39  C   UNL A   1      40.091  33.220  36.505  1.00  0.00     0.009 A 
ATOM     40  C   UNL A   1      37.784  32.363  37.839  1.00  0.00     0.001 A 
ATOM     41  C   UNL A   1      39.615  33.927  37.609  1.00  0.00     0.001 A 
ATOM     42  C   UNL A   1      38.458  33.506  38.266  1.00  0.00     0.000 A 
ENDBRANCH  23  37
BRANCH  24  43
ATOM     43  C   UNL A   1      41.559  27.592  27.455  1.00  0.00    -0.014 A 
ATOM     44  C   UNL A   1      41.233  26.259  27.161  1.00  0.00     0.009 A 
ATOM     45  C   UNL A   1      42.322  28.317  26.526  1.00  0.00     0.009 A 
ATOM     46  C   UNL A   1      41.684  25.660  25.979  1.00  0.00     0.001 A 
ATOM     47  C   UNL A   1      42.754  27.724  25.335  1.00  0.00     0.001 A 
ATOM     48  C   UNL A   1      42.442  26.393  25.066  1.00  0.00     0.000 A 
ENDBRANCH  24  43
BRANCH  36  49
ATOM     49  C   UNL A   1      44.188  27.114  33.855  1.00  0.00    -0.014 A 
ATOM     50  C   UNL A   1      45.501  27.553  34.062  1.00  0.00     0.009 A 
ATOM     51  C   UNL A   1      43.826  25.819  34.261  1.00  0.00     0.009 A 
ATOM     52  C   UNL A   1      46.442  26.701  34.644  1.00  0.00     0.001 A 
ATOM     53  C   UNL A   1      44.759  24.982  34.871  1.00  0.00     0.001 A 
ATOM     54  C   UNL A   1      46.068  25.421  35.055  1.00  0.00     0.000 A 
ENDBRANCH  36  49
ENDBRANCH  10  11
ENDBRANCH   3   5
ENDBRANCH   2   3
ENDBRANCH   1   2
BRANCH   1  55
ATOM     55  C   UNL A   1      32.630  31.455  26.664  1.00  0.00     0.274 C 
BRANCH  55  56
ATOM     56  O   UNL A   1      32.468  30.222  27.376  1.00  0.00    -0.458 OA
BRANCH  56  57
ATOM     57  C   UNL A   1      33.511  29.337  27.337  1.00  0.00     0.365 C 
ATOM     58  O   UNL A   1      34.651  29.610  27.720  1.00  0.00    -0.245 OA
BRANCH  57  59
ATOM     59  C   UNL A   1      33.034  27.950  26.857  1.00  0.00     0.295 C 
ATOM     60  C   UNL A   1      31.519  27.830  26.797  1.00  0.00     0.078 C 
ATOM     61  N   UNL A   1      33.630  27.469  25.605  1.00  0.00    -0.318 N 
ATOM     62  C   UNL A   1      30.993  26.535  26.177  1.00  0.00     0.016 C 
ATOM     63  C   UNL A   1      33.309  26.073  25.283  1.00  0.00     0.187 C 
ATOM     64  H   UNL A   1      34.617  27.472  25.866  1.00  0.00     0.349 HD
ATOM     65  C   UNL A   1      32.099  25.508  26.067  1.00  0.00     0.048 C 
ATOM     66  C   UNL A   1      34.473  25.108  25.584  1.00  0.00     0.065 C 
ATOM     67  C   UNL A   1      31.647  24.204  25.410  1.00  0.00     0.010 C 
ATOM     68  C   UNL A   1      34.139  23.696  25.068  1.00  0.00     0.006 C 
ATOM     69  C   UNL A   1      32.764  23.165  25.498  1.00  0.00     0.001 C 
BRANCH  61  70
ATOM     70  C   UNL A   1      33.758  28.387  24.458  1.00  0.00     0.295 C 
BRANCH  70  71
ATOM     71  C   UNL A   1      33.127  28.301  23.016  1.00  0.00     0.173 C 
ATOM     72  C   UNL A   1      31.612  28.355  22.791  1.00  0.00     0.038 C 
ATOM     73  O   UNL A   1      33.816  27.435  22.113  1.00  0.00    -0.372 OA
ATOM     74  C   UNL A   1      30.944  27.078  22.300  1.00  0.00     0.005 C 
ATOM     75  C   UNL A   1      33.280  26.137  21.960  1.00  0.00     0.161 C 
ATOM     76  C   UNL A   1      31.834  26.139  21.510  1.00  0.00     0.029 C 
ENDBRANCH  70  71
ENDBRANCH  61  70
ENDBRANCH  57  59
ENDBRANCH  56  57
ENDBRANCH  55  56
ENDBRANCH   1  55
TORSDOF 13
ENDMDL
MODEL 2
REMARK VINA RESULT:     -11.0      4.898      8.827
REMARK SMILES O=C(OCCOC(=O)[C@H]1CC[C@H]2CCCC[C@@H]2[N@H+]1C[C@@H]1CCCCO1)c1ccc(-c2c3nc(c(-c4ccccc4)c4ccc([nH]4)c(-c4ccccc4)c4nc(c(-c5ccccc5)c5ccc2[nH]5)C=C4)C=C3)cc1
REMARK SMILES IDX 4 1 3 2 2 3 1 4 26 5 27 6 73 7 28 8 72 9 29 10 30 11 31 12
REMARK SMILES IDX 66 13 32 14 71 15 65 16 67 17 33 18 70 19 64 20 63 21 34 23
REMARK SMILES IDX 56 24 41 25 55 26 42 27 45 28 54 29 68 30 43 31 44 32 53 34
REMARK SMILES IDX 69 35 46 36 35 37 36 38 40 39 37 40 39 41 38 42 57 43 58 44
REMARK SMILES IDX 62 45 59 46 61 47 60 48 47 49 48 50 52 51 49 52 51 53 50 54
REMARK SMILES IDX 5 55 6 56 7 57 8 58 9 59 10 60 18 61 11 62 17 63 12 65 16 66
REMARK SMILES IDX 13 67 15 68 14 69 19 70 20 71 21 72 25 73 22 74 24 75 23 76
REMARK H PARENT 67 22 45 33 18 64
REMARK Flexibility Score: inf
ROOT
ATOM      1  C   UNL A   1      38.729  19.867  25.125  1.00  0.00     0.275 C 
ENDROOT
BRANCH   1   2
ATOM      2  O   UNL A   1      39.775  19.099  25.750  1.00  0.00    -0.458 OA
BRANCH   2   3
ATOM      3  C   UNL A   1      41.084  19.381  25.939  1.00  0.00     0.338 C 
ATOM      4  O   UNL A   1      41.906  18.475  25.804  1.00  0.00    -0.246 OA
BRANCH   3   5
ATOM      5  C   UNL A   1      41.602  20.699  26.426  1.00  0.00     0.060 A 
ATOM      6  C   UNL A   1      41.612  21.153  27.750  1.00  0.00     0.016 A 
ATOM      7  C   UNL A   1      42.115  21.559  25.437  1.00  0.00     0.016 A 
ATOM      8  C   UNL A   1      42.210  22.378  28.102  1.00  0.00     0.010 A 
ATOM      9  C   UNL A   1      42.706  22.782  25.780  1.00  0.00     0.010 A 
ATOM     10  C   UNL A   1      42.782  23.195  27.123  1.00  0.00    -0.014 A 
BRANCH  10  11
ATOM     11  C   UNL A   1      43.341  24.536  27.442  1.00  0.00     0.031 A 
ATOM     12  C   UNL A   1      42.366  25.656  27.639  1.00  0.00     0.074 A 
ATOM     13  C   UNL A   1      44.662  24.796  27.530  1.00  0.00     0.049 A 
ATOM     14  N   UNL A   1      42.603  26.909  27.923  1.00  0.00    -0.248 NA
ATOM     15  C   UNL A   1      40.937  25.312  27.544  1.00  0.00     0.031 C 
ATOM     16  C   UNL A   1      45.740  23.812  27.467  1.00  0.00     0.029 A 
ATOM     17  N   UNL A   1      45.332  25.995  27.645  1.00  0.00    -0.354 N 
ATOM     18  C   UNL A   1      41.356  27.472  28.133  1.00  0.00     0.074 A 
ATOM     19  C   UNL A   1      40.366  26.477  27.795  1.00  0.00     0.031 C 
ATOM     20  C   UNL A   1      46.924  24.453  27.426  1.00  0.00     0.029 A 
ATOM     21  C   UNL A   1      46.694  25.888  27.477  1.00  0.00     0.049 A 
ATOM     22  H   UNL A   1      44.878  26.849  27.830  1.00  0.00     0.167 HD
ATOM     23  C   UNL A   1      41.061  28.681  28.655  1.00  0.00     0.031 A 
ATOM     24  C   UNL A   1      47.648  26.836  27.366  1.00  0.00     0.031 A 
ATOM     25  C   UNL A   1      42.034  29.689  28.947  1.00  0.00     0.049 A 
ATOM     26  C   UNL A   1      47.275  28.262  27.657  1.00  0.00     0.074 A 
ATOM     27  C   UNL A   1      41.843  30.941  29.501  1.00  0.00     0.029 A 
ATOM     28  N   UNL A   1      43.387  29.568  28.674  1.00  0.00    -0.354 N 
ATOM     29  N   UNL A   1      46.101  28.752  27.973  1.00  0.00    -0.248 NA
ATOM     30  C   UNL A   1      48.365  29.247  27.668  1.00  0.00     0.031 C 
ATOM     31  C   UNL A   1      43.076  31.603  29.504  1.00  0.00     0.029 A 
ATOM     32  C   UNL A   1      44.040  30.742  29.004  1.00  0.00     0.049 A 
ATOM     33  H   UNL A   1      43.819  28.767  28.299  1.00  0.00     0.167 HD
ATOM     34  C   UNL A   1      46.330  30.073  28.329  1.00  0.00     0.074 A 
ATOM     35  C   UNL A   1      47.744  30.320  28.138  1.00  0.00     0.031 C 
ATOM     36  C   UNL A   1      45.450  30.976  28.823  1.00  0.00     0.031 A 
BRANCH  23  37
ATOM     37  C   UNL A   1      39.614  28.920  28.960  1.00  0.00    -0.014 A 
ATOM     38  C   UNL A   1      38.781  29.527  28.004  1.00  0.00     0.009 A 
ATOM     39  C   UNL A   1      39.098  28.610  30.223  1.00  0.00     0.009 A 
ATOM     40  C   UNL A   1      37.467  29.865  28.325  1.00  0.00     0.001 A 
ATOM     41  C   UNL A   1      37.775  28.928  30.533  1.00  0.00     0.001 A 
ATOM     42  C   UNL A   1      36.967  29.565  29.590  1.00  0.00     0.000 A 
ENDBRANCH  23  37
BRANCH  24  43
ATOM     43  C   UNL A   1      49.051  26.495  27.004  1.00  0.00    -0.014 A 
ATOM     44  C   UNL A   1      50.017  26.236  27.989  1.00  0.00     0.009 A 
ATOM     45  C   UNL A   1      49.453  26.514  25.658  1.00  0.00     0.009 A 
ATOM     46  C   UNL A   1      51.355  26.028  27.636  1.00  0.00     0.001 A 
ATOM     47  C   UNL A   1      50.787  26.285  25.306  1.00  0.00     0.001 A 
ATOM     48  C   UNL A   1      51.739  26.051  26.295  1.00  0.00     0.000 A 
ENDBRANCH  24  43
BRANCH  36  49
ATOM     49  C   UNL A   1      46.002  32.293  29.282  1.00  0.00    -0.014 A 
ATOM     50  C   UNL A   1      46.503  32.472  30.577  1.00  0.00     0.009 A 
ATOM     51  C   UNL A   1      46.061  33.360  28.370  1.00  0.00     0.009 A 
ATOM     52  C   UNL A   1      47.033  33.706  30.960  1.00  0.00     0.001 A 
ATOM     53  C   UNL A   1      46.620  34.580  28.745  1.00  0.00     0.001 A 
ATOM     54  C   UNL A   1      47.098  34.755  30.041  1.00  0.00     0.000 A 
ENDBRANCH  36  49
ENDBRANCH  10  11
ENDBRANCH   3   5
ENDBRANCH   2   3
ENDBRANCH   1   2
BRANCH   1  55
ATOM     55  C   UNL A   1      38.490  21.239  25.752  1.00  0.00     0.274 C 
BRANCH  55  56
ATOM     56  O   UNL A   1      37.777  22.116  24.869  1.00  0.00    -0.458 OA
BRANCH  56  57
ATOM     57  C   UNL A   1      37.392  23.328  25.372  1.00  0.00     0.365 C 
ATOM     58  O   UNL A   1      38.047  23.960  26.205  1.00  0.00    -0.245 OA
BRANCH  57  59
ATOM     59  C   UNL A   1      36.106  23.825  24.677  1.00  0.00     0.295 C 
ATOM     60  C   UNL A   1      35.612  22.879  23.593  1.00  0.00     0.078 C 
ATOM     61  N   UNL A   1      35.001  24.193  25.571  1.00  0.00    -0.318 N 
ATOM     62  C   UNL A   1      34.257  23.240  22.984  1.00  0.00     0.016 C 
ATOM     63  C   UNL A   1      33.873  24.845  24.894  1.00  0.00     0.187 C 
ATOM     64  H   UNL A   1      35.454  24.924  26.120  1.00  0.00     0.349 HD
ATOM     65  C   UNL A   1      33.862  24.651  23.359  1.00  0.00     0.048 C 
ATOM     66  C   UNL A   1      33.848  26.371  25.111  1.00  0.00     0.065 C 
ATOM     67  C   UNL A   1      32.491  25.056  22.817  1.00  0.00     0.010 C 
ATOM     68  C   UNL A   1      32.556  26.970  24.526  1.00  0.00     0.006 C 
ATOM     69  C   UNL A   1      32.246  26.541  23.084  1.00  0.00     0.001 C 
BRANCH  61  70
ATOM     70  C   UNL A   1      34.659  23.317  26.707  1.00  0.00     0.295 C 
BRANCH  70  71
ATOM     71  C   UNL A   1      33.416  22.370  26.918  1.00  0.00     0.173 C 
ATOM     72  C   UNL A   1      32.987  21.349  25.859  1.00  0.00     0.038 C 
ATOM     73  O   UNL A   1      32.327  22.962  27.626  1.00  0.00    -0.372 OA
ATOM     74  C   UNL A   1      31.669  21.611  25.145  1.00  0.00     0.005 C 
ATOM     75  C   UNL A   1      31.269  23.466  26.837  1.00  0.00     0.161 C 
ATOM     76  C   UNL A   1      30.654  22.422  25.928  1.00  0.00     0.029 C 
ENDBRANCH  70  71
ENDBRANCH  61  70
ENDBRANCH  57  59
ENDBRANCH  56  57
ENDBRANCH  55  56
ENDBRANCH   1  55
TORSDOF 13
ENDMDL
MODEL 3
REMARK VINA RESULT:     -10.9      1.321      5.980
REMARK SMILES O=C(OCCOC(=O)[C@H]1CC[C@H]2CCCC[C@@H]2[N@H+]1C[C@@H]1CCCCO1)c1ccc(-c2c3nc(c(-c4ccccc4)c4ccc([nH]4)c(-c4ccccc4)c4nc(c(-c5ccccc5)c5ccc2[nH]5)C=C4)C=C3)cc1
REMARK SMILES IDX 4 1 3 2 2 3 1 4 26 5 27 6 73 7 28 8 72 9 29 10 30 11 31 12
REMARK SMILES IDX 66 13 32 14 71 15 65 16 67 17 33 18 70 19 64 20 63 21 34 23
REMARK SMILES IDX 56 24 41 25 55 26 42 27 45 28 54 29 68 30 43 31 44 32 53 34
REMARK SMILES IDX 69 35 46 36 35 37 36 38 40 39 37 40 39 41 38 42 57 43 58 44
REMARK SMILES IDX 62 45 59 46 61 47 60 48 47 49 48 50 52 51 49 52 51 53 50 54
REMARK SMILES IDX 5 55 6 56 7 57 8 58 9 59 10 60 18 61 11 62 17 63 12 65 16 66
REMARK SMILES IDX 13 67 15 68 14 69 19 70 20 71 21 72 25 73 22 74 24 75 23 76
REMARK H PARENT 67 22 45 33 18 64
REMARK Flexibility Score: inf
ROOT
ATOM      1  C   UNL A   1      32.078  32.592  27.279  1.00  0.00     0.275 C 
ENDROOT
BRANCH   1   2
ATOM      2  O   UNL A   1      32.418  33.973  27.510  1.00  0.00    -0.458 OA
BRANCH   2   3
ATOM      3  C   UNL A   1      33.017  34.570  28.565  1.00  0.00     0.338 C 
ATOM      4  O   UNL A   1      32.650  35.699  28.888  1.00  0.00    -0.246 OA
BRANCH   3   5
ATOM      5  C   UNL A   1      34.191  34.002  29.300  1.00  0.00     0.060 A 
ATOM      6  C   UNL A   1      34.160  33.337  30.532  1.00  0.00     0.016 A 
ATOM      7  C   UNL A   1      35.444  34.173  28.681  1.00  0.00     0.016 A 
ATOM      8  C   UNL A   1      35.322  32.764  31.085  1.00  0.00     0.010 A 
ATOM      9  C   UNL A   1      36.603  33.609  29.230  1.00  0.00     0.010 A 
ATOM     10  C   UNL A   1      36.550  32.876  30.430  1.00  0.00    -0.014 A 
BRANCH  10  11
ATOM     11  C   UNL A   1      37.813  32.364  31.026  1.00  0.00     0.031 A 
ATOM     12  C   UNL A   1      38.314  31.040  30.540  1.00  0.00     0.074 A 
ATOM     13  C   UNL A   1      38.503  33.011  31.990  1.00  0.00     0.049 A 
ATOM     14  N   UNL A   1      39.384  30.384  30.902  1.00  0.00    -0.248 NA
ATOM     15  C   UNL A   1      37.528  30.386  29.478  1.00  0.00     0.031 C 
ATOM     16  C   UNL A   1      38.217  34.347  32.505  1.00  0.00     0.029 A 
ATOM     17  N   UNL A   1      39.575  32.597  32.752  1.00  0.00    -0.354 N 
ATOM     18  C   UNL A   1      39.447  29.297  30.047  1.00  0.00     0.074 A 
ATOM     19  C   UNL A   1      38.237  29.292  29.258  1.00  0.00     0.031 C 
ATOM     20  C   UNL A   1      39.010  34.592  33.566  1.00  0.00     0.029 A 
ATOM     21  C   UNL A   1      39.870  33.443  33.798  1.00  0.00     0.049 A 
ATOM     22  H   UNL A   1      40.082  31.774  32.565  1.00  0.00     0.167 HD
ATOM     23  C   UNL A   1      40.467  28.432  29.865  1.00  0.00     0.031 A 
ATOM     24  C   UNL A   1      40.726  33.304  34.831  1.00  0.00     0.031 A 
ATOM     25  C   UNL A   1      41.647  28.401  30.674  1.00  0.00     0.049 A 
ATOM     26  C   UNL A   1      41.697  32.157  34.805  1.00  0.00     0.074 A 
ATOM     27  C   UNL A   1      42.753  27.581  30.559  1.00  0.00     0.029 A 
ATOM     28  N   UNL A   1      41.858  29.214  31.777  1.00  0.00    -0.354 N 
ATOM     29  N   UNL A   1      41.812  31.203  33.913  1.00  0.00    -0.248 NA
ATOM     30  C   UNL A   1      42.710  32.117  35.869  1.00  0.00     0.031 C 
ATOM     31  C   UNL A   1      43.607  27.856  31.634  1.00  0.00     0.029 A 
ATOM     32  C   UNL A   1      43.056  28.884  32.383  1.00  0.00     0.049 A 
ATOM     33  H   UNL A   1      41.245  29.921  32.084  1.00  0.00     0.167 HD
ATOM     34  C   UNL A   1      42.972  30.519  34.244  1.00  0.00     0.074 A 
ATOM     35  C   UNL A   1      43.494  31.134  35.448  1.00  0.00     0.031 C 
ATOM     36  C   UNL A   1      43.575  29.509  33.572  1.00  0.00     0.031 A 
BRANCH  23  37
ATOM     37  C   UNL A   1      40.320  27.489  28.711  1.00  0.00    -0.014 A 
ATOM     38  C   UNL A   1      39.697  26.242  28.893  1.00  0.00     0.009 A 
ATOM     39  C   UNL A   1      40.867  27.808  27.463  1.00  0.00     0.009 A 
ATOM     40  C   UNL A   1      39.667  25.310  27.856  1.00  0.00     0.001 A 
ATOM     41  C   UNL A   1      40.814  26.882  26.421  1.00  0.00     0.001 A 
ATOM     42  C   UNL A   1      40.227  25.633  26.622  1.00  0.00     0.000 A 
ENDBRANCH  23  37
BRANCH  24  43
ATOM     43  C   UNL A   1      40.754  34.274  35.960  1.00  0.00    -0.014 A 
ATOM     44  C   UNL A   1      39.963  34.087  37.103  1.00  0.00     0.009 A 
ATOM     45  C   UNL A   1      41.516  35.449  35.855  1.00  0.00     0.009 A 
ATOM     46  C   UNL A   1      39.916  35.065  38.104  1.00  0.00     0.001 A 
ATOM     47  C   UNL A   1      41.485  36.416  36.866  1.00  0.00     0.001 A 
ATOM     48  C   UNL A   1      40.678  36.227  37.986  1.00  0.00     0.000 A 
ENDBRANCH  24  43
BRANCH  36  49
ATOM     49  C   UNL A   1      44.917  29.059  34.067  1.00  0.00    -0.014 A 
ATOM     50  C   UNL A   1      46.103  29.673  33.645  1.00  0.00     0.009 A 
ATOM     51  C   UNL A   1      44.980  28.026  35.017  1.00  0.00     0.009 A 
ATOM     52  C   UNL A   1      47.333  29.243  34.148  1.00  0.00     0.001 A 
ATOM     53  C   UNL A   1      46.207  27.621  35.541  1.00  0.00     0.001 A 
ATOM     54  C   UNL A   1      47.382  28.225  35.101  1.00  0.00     0.000 A 
ENDBRANCH  36  49
ENDBRANCH  10  11
ENDBRANCH   3   5
ENDBRANCH   2   3
ENDBRANCH   1   2
BRANCH   1  55
ATOM     55  C   UNL A   1      33.267  31.634  27.307  1.00  0.00     0.274 C 
BRANCH  55  56
ATOM     56  O   UNL A   1      32.851  30.263  27.344  1.00  0.00    -0.458 OA
BRANCH  56  57
ATOM     57  C   UNL A   1      33.821  29.313  27.177  1.00  0.00     0.365 C 
ATOM     58  O   UNL A   1      35.016  29.510  27.409  1.00  0.00    -0.245 OA
BRANCH  57  59
ATOM     59  C   UNL A   1      33.197  27.961  26.772  1.00  0.00     0.295 C 
ATOM     60  C   UNL A   1      31.676  27.992  26.743  1.00  0.00     0.078 C 
ATOM     61  N   UNL A   1      33.715  27.365  25.534  1.00  0.00    -0.318 N 
ATOM     62  C   UNL A   1      31.011  26.729  26.195  1.00  0.00     0.016 C 
ATOM     63  C   UNL A   1      33.248  25.996  25.284  1.00  0.00     0.187 C 
ATOM     64  H   UNL A   1      34.702  27.281  25.777  1.00  0.00     0.349 HD
ATOM     65  C   UNL A   1      32.006  25.592  26.114  1.00  0.00     0.048 C 
ATOM     66  C   UNL A   1      34.316  24.933  25.610  1.00  0.00     0.065 C 
ATOM     67  C   UNL A   1      31.411  24.312  25.528  1.00  0.00     0.010 C 
ATOM     68  C   UNL A   1      33.832  23.540  25.167  1.00  0.00     0.006 C 
ATOM     69  C   UNL A   1      32.420  23.170  25.646  1.00  0.00     0.001 C 
BRANCH  61  70
ATOM     70  C   UNL A   1      33.908  28.213  24.343  1.00  0.00     0.295 C 
BRANCH  70  71
ATOM     71  C   UNL A   1      33.183  28.176  22.943  1.00  0.00     0.173 C 
ATOM     72  C   UNL A   1      31.657  28.253  22.820  1.00  0.00     0.038 C 
ATOM     73  O   UNL A   1      33.800  27.329  21.973  1.00  0.00    -0.372 OA
ATOM     74  C   UNL A   1      30.941  26.999  22.339  1.00  0.00     0.005 C 
ATOM     75  C   UNL A   1      33.238  26.041  21.820  1.00  0.00     0.161 C 
ATOM     76  C   UNL A   1      31.765  26.072  21.466  1.00  0.00     0.029 C 
ENDBRANCH  70  71
ENDBRANCH  61  70
ENDBRANCH  57  59
ENDBRANCH  56  57
ENDBRANCH  55  56
ENDBRANCH   1  55
TORSDOF 13
ENDMDL
