MODEL 1
REMARK VINA RESULT:     -12.2      0.000      0.000
REMARK SMILES NS(=O)(=O)c1ccc(-n2nc(C(F)(F)F)cc2-c2ccc(CC(=O)OCCOC(=O)c3ccc(-c4c5nc(c(-c6ccccc6)c6ccc([nH]6)c(-c6ccccc6)c6nc(c(-c7ccccc7)c7ccc4[nH]7)C=C6)C=C5)cc3)cc2)cc1
REMARK SMILES IDX 25 1 23 2 24 3 22 4 21 5 18 6 19 7 80 8 20 9 79 10 17 11
REMARK SMILES IDX 9 12 10 13 11 14 16 15 8 16 5 17 6 18 82 19 7 20 81 21 2 22
REMARK SMILES IDX 3 23 4 24 1 25 12 28 13 29 14 30 15 31 26 32 27 33 28 34
REMARK SMILES IDX 29 35 30 36 31 37 32 38 78 39 33 40 77 41 34 42 35 43 36 44
REMARK SMILES IDX 71 45 37 46 76 47 70 48 72 49 38 50 75 51 69 52 68 53 39 55
REMARK SMILES IDX 61 56 46 57 60 58 47 59 50 60 59 61 73 62 48 63 49 64 58 66
REMARK SMILES IDX 74 67 51 68 40 69 41 70 45 71 42 72 44 73 43 74 62 75 63 76
REMARK SMILES IDX 67 77 64 78 66 79 65 80 52 81 53 82 57 83 54 84 56 85 55 86
REMARK H PARENT 1 26 1 27 72 54 50 65
REMARK Flexibility Score: inf
ROOT
ATOM      1  O   UNL A   1      34.117  33.069  28.295  1.00  0.00    -0.462 OA
ENDROOT
BRANCH   1   2
ATOM      2  C   UNL A   1      33.501  31.999  27.722  1.00  0.00     0.310 C 
ATOM      3  O   UNL A   1      32.433  32.064  27.118  1.00  0.00    -0.252 OA
BRANCH   2   4
ATOM      4  C   UNL A   1      34.185  30.674  27.980  1.00  0.00     0.158 C 
BRANCH   4   5
ATOM      5  C   UNL A   1      33.683  29.454  27.243  1.00  0.00    -0.037 A 
ATOM      6  C   UNL A   1      32.795  27.151  25.877  1.00  0.00     0.000 A 
ATOM      7  C   UNL A   1      33.974  27.792  25.490  1.00  0.00     0.010 A 
ATOM      8  C   UNL A   1      32.034  27.697  26.915  1.00  0.00     0.010 A 
ATOM      9  C   UNL A   1      34.396  28.944  26.154  1.00  0.00     0.005 A 
ATOM     10  C   UNL A   1      32.484  28.830  27.604  1.00  0.00     0.005 A 
BRANCH   6  11
ATOM     11  C   UNL A   1      32.383  25.920  25.209  1.00  0.00     0.075 A 
ATOM     12  N   UNL A   1      31.313  25.812  24.327  1.00  0.00    -0.233 N 
ATOM     13  N   UNL A   1      30.986  24.515  24.084  1.00  0.00    -0.163 NA
ATOM     14  C   UNL A   1      31.966  23.795  24.666  1.00  0.00     0.167 A 
ATOM     15  C   UNL A   1      32.836  24.633  25.406  1.00  0.00     0.064 A 
BRANCH  12  16
ATOM     16  C   UNL A   1      30.579  26.867  23.722  1.00  0.00     0.065 A 
ATOM     17  C   UNL A   1      29.148  29.034  22.713  1.00  0.00     0.082 A 
ATOM     18  C   UNL A   1      30.538  28.999  22.572  1.00  0.00     0.024 A 
ATOM     19  C   UNL A   1      28.468  27.981  23.336  1.00  0.00     0.024 A 
ATOM     20  C   UNL A   1      31.254  27.917  23.083  1.00  0.00     0.030 A 
ATOM     21  C   UNL A   1      29.182  26.879  23.816  1.00  0.00     0.030 A 
BRANCH  17  22
ATOM     22  S   UNL A   1      28.282  30.445  22.097  1.00  0.00     0.238 S 
ATOM     23  O   UNL A   1      27.305  30.846  23.088  1.00  0.00    -0.207 OA
ATOM     24  O   UNL A   1      27.939  30.227  20.714  1.00  0.00    -0.207 OA
BRANCH  22  25
ATOM     25  N   UNL A   1      29.434  31.669  22.069  1.00  0.00    -0.225 NA
ATOM     26  H   UNL A   1      30.325  31.305  22.407  1.00  0.00     0.137 HD
ATOM     27  H   UNL A   1      29.130  32.435  22.670  1.00  0.00     0.137 HD
ENDBRANCH  22  25
ENDBRANCH  17  22
ENDBRANCH  12  16
BRANCH  14  28
ATOM     28  C   UNL A   1      32.078  22.297  24.547  1.00  0.00     0.435 C 
ATOM     29  F   UNL A   1      31.799  21.834  23.301  1.00  0.00    -0.164 F 
ATOM     30  F   UNL A   1      33.324  21.854  24.870  1.00  0.00    -0.164 F 
ATOM     31  F   UNL A   1      31.220  21.663  25.395  1.00  0.00    -0.164 F 
ENDBRANCH  14  28
ENDBRANCH   6  11
ENDBRANCH   4   5
ENDBRANCH   2   4
ENDBRANCH   1   2
BRANCH   1  32
ATOM     32  C   UNL A   1      33.336  34.282  28.365  1.00  0.00     0.274 C 
BRANCH  32  33
ATOM     33  C   UNL A   1      33.635  35.124  29.603  1.00  0.00     0.275 C 
BRANCH  33  34
ATOM     34  O   UNL A   1      33.072  34.575  30.796  1.00  0.00    -0.458 OA
BRANCH  34  35
ATOM     35  C   UNL A   1      33.724  34.968  31.910  1.00  0.00     0.338 C 
ATOM     36  O   UNL A   1      33.582  36.018  32.512  1.00  0.00    -0.246 OA
BRANCH  35  37
ATOM     37  C   UNL A   1      34.842  34.078  32.211  1.00  0.00     0.060 A 
ATOM     38  C   UNL A   1      36.093  34.659  32.438  1.00  0.00     0.016 A 
ATOM     39  C   UNL A   1      34.700  32.716  31.926  1.00  0.00     0.016 A 
ATOM     40  C   UNL A   1      37.224  33.901  32.218  1.00  0.00     0.010 A 
ATOM     41  C   UNL A   1      35.830  31.962  31.706  1.00  0.00     0.010 A 
ATOM     42  C   UNL A   1      37.078  32.579  31.783  1.00  0.00    -0.014 A 
BRANCH  42  43
ATOM     43  C   UNL A   1      38.276  31.784  31.591  1.00  0.00     0.031 A 
ATOM     44  C   UNL A   1      38.959  31.516  32.876  1.00  0.00     0.074 A 
ATOM     45  C   UNL A   1      38.641  31.249  30.408  1.00  0.00     0.049 A 
ATOM     46  N   UNL A   1      40.084  32.006  33.272  1.00  0.00    -0.248 NA
ATOM     47  C   UNL A   1      38.219  30.786  33.922  1.00  0.00     0.031 C 
ATOM     48  C   UNL A   1      37.879  31.250  29.155  1.00  0.00     0.029 A 
ATOM     49  N   UNL A   1      39.729  30.487  30.097  1.00  0.00    -0.354 N 
ATOM     50  C   UNL A   1      40.309  31.446  34.524  1.00  0.00     0.074 A 
ATOM     51  C   UNL A   1      39.056  30.887  34.955  1.00  0.00     0.031 C 
ATOM     52  C   UNL A   1      38.394  30.321  28.315  1.00  0.00     0.029 A 
ATOM     53  C   UNL A   1      39.607  29.778  28.905  1.00  0.00     0.049 A 
ATOM     54  H   UNL A   1      40.530  30.444  30.666  1.00  0.00     0.167 HD
ATOM     55  C   UNL A   1      41.579  31.183  34.934  1.00  0.00     0.031 A 
ATOM     56  C   UNL A   1      40.429  28.795  28.460  1.00  0.00     0.031 A 
ATOM     57  C   UNL A   1      42.540  31.845  34.091  1.00  0.00     0.049 A 
ATOM     58  C   UNL A   1      41.722  28.951  29.155  1.00  0.00     0.074 A 
ATOM     59  C   UNL A   1      43.019  33.124  33.914  1.00  0.00     0.029 A 
ATOM     60  N   UNL A   1      42.842  31.131  32.962  1.00  0.00    -0.354 N 
ATOM     61  N   UNL A   1      42.516  29.961  28.952  1.00  0.00    -0.248 NA
ATOM     62  C   UNL A   1      41.990  28.171  30.357  1.00  0.00     0.031 C 
ATOM     63  C   UNL A   1      43.470  33.189  32.560  1.00  0.00     0.029 A 
ATOM     64  C   UNL A   1      43.310  31.938  31.967  1.00  0.00     0.049 A 
ATOM     65  H   UNL A   1      42.734  30.155  32.878  1.00  0.00     0.167 HD
ATOM     66  C   UNL A   1      43.061  30.214  30.196  1.00  0.00     0.074 A 
ATOM     67  C   UNL A   1      42.856  28.990  30.962  1.00  0.00     0.031 C 
ATOM     68  C   UNL A   1      43.325  31.492  30.590  1.00  0.00     0.031 A 
BRANCH  55  69
ATOM     69  C   UNL A   1      41.961  29.914  35.665  1.00  0.00    -0.014 A 
ATOM     70  C   UNL A   1      43.067  29.953  36.534  1.00  0.00     0.009 A 
ATOM     71  C   UNL A   1      41.493  28.636  35.299  1.00  0.00     0.009 A 
ATOM     72  C   UNL A   1      43.702  28.780  36.961  1.00  0.00     0.001 A 
ATOM     73  C   UNL A   1      42.104  27.463  35.751  1.00  0.00     0.001 A 
ATOM     74  C   UNL A   1      43.223  27.536  36.564  1.00  0.00     0.000 A 
ENDBRANCH  55  69
BRANCH  56  75
ATOM     75  C   UNL A   1      40.146  27.593  27.643  1.00  0.00    -0.014 A 
ATOM     76  C   UNL A   1      40.895  27.316  26.486  1.00  0.00     0.009 A 
ATOM     77  C   UNL A   1      39.360  26.556  28.176  1.00  0.00     0.009 A 
ATOM     78  C   UNL A   1      40.897  26.035  25.915  1.00  0.00     0.001 A 
ATOM     79  C   UNL A   1      39.364  25.277  27.606  1.00  0.00     0.001 A 
ATOM     80  C   UNL A   1      40.147  25.011  26.487  1.00  0.00     0.000 A 
ENDBRANCH  56  75
BRANCH  68  81
ATOM     81  C   UNL A   1      43.489  32.531  29.520  1.00  0.00    -0.014 A 
ATOM     82  C   UNL A   1      42.650  33.646  29.367  1.00  0.00     0.009 A 
ATOM     83  C   UNL A   1      44.602  32.405  28.676  1.00  0.00     0.009 A 
ATOM     84  C   UNL A   1      42.911  34.597  28.374  1.00  0.00     0.001 A 
ATOM     85  C   UNL A   1      44.874  33.365  27.702  1.00  0.00     0.001 A 
ATOM     86  C   UNL A   1      44.025  34.458  27.547  1.00  0.00     0.000 A 
ENDBRANCH  68  81
ENDBRANCH  42  43
ENDBRANCH  35  37
ENDBRANCH  34  35
ENDBRANCH  33  34
ENDBRANCH  32  33
ENDBRANCH   1  32
TORSDOF 17
ENDMDL
MODEL 2
REMARK VINA RESULT:     -12.0      2.494      3.638
REMARK SMILES NS(=O)(=O)c1ccc(-n2nc(C(F)(F)F)cc2-c2ccc(CC(=O)OCCOC(=O)c3ccc(-c4c5nc(c(-c6ccccc6)c6ccc([nH]6)c(-c6ccccc6)c6nc(c(-c7ccccc7)c7ccc4[nH]7)C=C6)C=C5)cc3)cc2)cc1
REMARK SMILES IDX 25 1 23 2 24 3 22 4 21 5 18 6 19 7 80 8 20 9 79 10 17 11
REMARK SMILES IDX 9 12 10 13 11 14 16 15 8 16 5 17 6 18 82 19 7 20 81 21 2 22
REMARK SMILES IDX 3 23 4 24 1 25 12 28 13 29 14 30 15 31 26 32 27 33 28 34
REMARK SMILES IDX 29 35 30 36 31 37 32 38 78 39 33 40 77 41 34 42 35 43 36 44
REMARK SMILES IDX 71 45 37 46 76 47 70 48 72 49 38 50 75 51 69 52 68 53 39 55
REMARK SMILES IDX 61 56 46 57 60 58 47 59 50 60 59 61 73 62 48 63 49 64 58 66
REMARK SMILES IDX 74 67 51 68 40 69 41 70 45 71 42 72 44 73 43 74 62 75 63 76
REMARK SMILES IDX 67 77 64 78 66 79 65 80 52 81 53 82 57 83 54 84 56 85 55 86
REMARK H PARENT 1 26 1 27 72 54 50 65
REMARK Flexibility Score: inf
ROOT
ATOM      1  O   UNL A   1      34.892  32.092  27.629  1.00  0.00    -0.462 OA
ENDROOT
BRANCH   1   2
ATOM      2  C   UNL A   1      33.836  31.236  27.547  1.00  0.00     0.310 C 
ATOM      3  O   UNL A   1      32.702  31.574  27.213  1.00  0.00    -0.252 OA
BRANCH   2   4
ATOM      4  C   UNL A   1      34.138  29.828  28.013  1.00  0.00     0.158 C 
BRANCH   4   5
ATOM      5  C   UNL A   1      33.672  28.676  27.155  1.00  0.00    -0.037 A 
ATOM      6  C   UNL A   1      32.853  26.498  25.559  1.00  0.00     0.000 A 
ATOM      7  C   UNL A   1      34.016  27.207  25.246  1.00  0.00     0.010 A 
ATOM      8  C   UNL A   1      32.073  26.916  26.641  1.00  0.00     0.010 A 
ATOM      9  C   UNL A   1      34.403  28.297  26.024  1.00  0.00     0.005 A 
ATOM     10  C   UNL A   1      32.490  27.986  27.443  1.00  0.00     0.005 A 
BRANCH   6  11
ATOM     11  C   UNL A   1      32.478  25.330  24.769  1.00  0.00     0.075 A 
ATOM     12  N   UNL A   1      31.379  25.261  23.920  1.00  0.00    -0.233 N 
ATOM     13  N   UNL A   1      31.110  23.984  23.540  1.00  0.00    -0.163 NA
ATOM     14  C   UNL A   1      32.151  23.260  23.998  1.00  0.00     0.167 A 
ATOM     15  C   UNL A   1      33.006  24.057  24.797  1.00  0.00     0.064 A 
BRANCH  12  16
ATOM     16  C   UNL A   1      30.565  26.335  23.469  1.00  0.00     0.065 A 
ATOM     17  C   UNL A   1      29.020  28.540  22.754  1.00  0.00     0.082 A 
ATOM     18  C   UNL A   1      30.340  28.448  22.305  1.00  0.00     0.024 A 
ATOM     19  C   UNL A   1      28.460  27.526  23.539  1.00  0.00     0.024 A 
ATOM     20  C   UNL A   1      31.114  27.347  22.669  1.00  0.00     0.030 A 
ATOM     21  C   UNL A   1      29.226  26.404  23.873  1.00  0.00     0.030 A 
BRANCH  17  22
ATOM     22  S   UNL A   1      28.087  29.974  22.313  1.00  0.00     0.238 S 
ATOM     23  O   UNL A   1      26.904  30.019  23.146  1.00  0.00    -0.207 OA
ATOM     24  O   UNL A   1      28.028  30.081  20.877  1.00  0.00    -0.207 OA
BRANCH  22  25
ATOM     25  N   UNL A   1      29.042  31.267  22.805  1.00  0.00    -0.225 NA
ATOM     26  H   UNL A   1      28.759  32.109  22.303  1.00  0.00     0.137 HD
ATOM     27  H   UNL A   1      30.020  31.063  22.602  1.00  0.00     0.137 HD
ENDBRANCH  22  25
ENDBRANCH  17  22
ENDBRANCH  12  16
BRANCH  14  28
ATOM     28  C   UNL A   1      32.337  21.794  23.701  1.00  0.00     0.435 C 
ATOM     29  F   UNL A   1      31.778  21.408  22.526  1.00  0.00    -0.164 F 
ATOM     30  F   UNL A   1      33.652  21.448  23.654  1.00  0.00    -0.164 F 
ATOM     31  F   UNL A   1      31.776  21.014  24.668  1.00  0.00    -0.164 F 
ENDBRANCH  14  28
ENDBRANCH   6  11
ENDBRANCH   4   5
ENDBRANCH   2   4
ENDBRANCH   1   2
BRANCH   1  32
ATOM     32  C   UNL A   1      34.624  33.363  28.261  1.00  0.00     0.274 C 
BRANCH  32  33
ATOM     33  C   UNL A   1      34.592  33.286  29.785  1.00  0.00     0.275 C 
BRANCH  33  34
ATOM     34  O   UNL A   1      35.336  32.179  30.300  1.00  0.00    -0.458 OA
BRANCH  34  35
ATOM     35  C   UNL A   1      36.619  32.495  30.571  1.00  0.00     0.338 C 
ATOM     36  O   UNL A   1      37.042  33.558  30.990  1.00  0.00    -0.246 OA
BRANCH  35  37
ATOM     37  C   UNL A   1      37.533  31.472  30.069  1.00  0.00     0.060 A 
ATOM     38  C   UNL A   1      37.117  30.138  30.136  1.00  0.00     0.016 A 
ATOM     39  C   UNL A   1      38.874  31.819  29.874  1.00  0.00     0.016 A 
ATOM     40  C   UNL A   1      38.075  29.147  30.169  1.00  0.00     0.010 A 
ATOM     41  C   UNL A   1      39.829  30.828  29.910  1.00  0.00     0.010 A 
ATOM     42  C   UNL A   1      39.426  29.511  30.129  1.00  0.00    -0.014 A 
BRANCH  42  43
ATOM     43  C   UNL A   1      40.421  28.456  30.129  1.00  0.00     0.031 A 
ATOM     44  C   UNL A   1      40.967  28.226  31.485  1.00  0.00     0.074 A 
ATOM     45  C   UNL A   1      40.709  27.696  29.052  1.00  0.00     0.049 A 
ATOM     46  N   UNL A   1      42.155  28.510  31.899  1.00  0.00    -0.248 NA
ATOM     47  C   UNL A   1      40.035  27.828  32.555  1.00  0.00     0.031 C 
ATOM     48  C   UNL A   1      40.024  27.689  27.756  1.00  0.00     0.029 A 
ATOM     49  N   UNL A   1      41.609  26.680  28.921  1.00  0.00    -0.354 N 
ATOM     50  C   UNL A   1      42.191  28.092  33.225  1.00  0.00     0.074 A 
ATOM     51  C   UNL A   1      40.826  27.886  33.627  1.00  0.00     0.031 C 
ATOM     52  C   UNL A   1      40.353  26.563  27.079  1.00  0.00     0.029 A 
ATOM     53  C   UNL A   1      41.384  25.856  27.822  1.00  0.00     0.049 A 
ATOM     54  H   UNL A   1      42.354  26.542  29.550  1.00  0.00     0.167 HD
ATOM     55  C   UNL A   1      43.349  27.618  33.758  1.00  0.00     0.031 A 
ATOM     56  C   UNL A   1      41.982  24.665  27.565  1.00  0.00     0.031 A 
ATOM     57  C   UNL A   1      44.472  27.932  32.914  1.00  0.00     0.049 A 
ATOM     58  C   UNL A   1      43.244  24.631  28.331  1.00  0.00     0.074 A 
ATOM     59  C   UNL A   1      45.234  29.038  32.614  1.00  0.00     0.029 A 
ATOM     60  N   UNL A   1      44.655  27.020  31.908  1.00  0.00    -0.354 N 
ATOM     61  N   UNL A   1      44.254  25.406  28.064  1.00  0.00    -0.248 NA
ATOM     62  C   UNL A   1      43.275  23.985  29.638  1.00  0.00     0.031 C 
ATOM     63  C   UNL A   1      45.749  28.816  31.301  1.00  0.00     0.029 A 
ATOM     64  C   UNL A   1      45.338  27.560  30.858  1.00  0.00     0.049 A 
ATOM     65  H   UNL A   1      44.333  26.089  31.939  1.00  0.00     0.167 HD
ATOM     66  C   UNL A   1      44.785  25.703  29.303  1.00  0.00     0.074 A 
ATOM     67  C   UNL A   1      44.275  24.671  30.198  1.00  0.00     0.031 C 
ATOM     68  C   UNL A   1      45.314  26.935  29.553  1.00  0.00     0.031 A 
BRANCH  55  69
ATOM     69  C   UNL A   1      43.401  26.410  34.669  1.00  0.00    -0.014 A 
ATOM     70  C   UNL A   1      44.003  26.555  35.933  1.00  0.00     0.009 A 
ATOM     71  C   UNL A   1      43.181  25.092  34.223  1.00  0.00     0.009 A 
ATOM     72  C   UNL A   1      44.413  25.441  36.677  1.00  0.00     0.001 A 
ATOM     73  C   UNL A   1      43.560  23.979  34.979  1.00  0.00     0.001 A 
ATOM     74  C   UNL A   1      44.197  24.154  36.197  1.00  0.00     0.000 A 
ENDBRANCH  55  69
BRANCH  56  75
ATOM     75  C   UNL A   1      41.472  23.453  26.887  1.00  0.00    -0.014 A 
ATOM     76  C   UNL A   1      42.354  22.459  26.429  1.00  0.00     0.009 A 
ATOM     77  C   UNL A   1      40.108  23.124  26.977  1.00  0.00     0.009 A 
ATOM     78  C   UNL A   1      41.897  21.169  26.123  1.00  0.00     0.001 A 
ATOM     79  C   UNL A   1      39.652  21.835  26.674  1.00  0.00     0.001 A 
ATOM     80  C   UNL A   1      40.548  20.852  26.265  1.00  0.00     0.000 A 
ENDBRANCH  56  75
BRANCH  68  81
ATOM     81  C   UNL A   1      45.756  27.754  28.377  1.00  0.00    -0.014 A 
ATOM     82  C   UNL A   1      44.959  28.720  27.742  1.00  0.00     0.009 A 
ATOM     83  C   UNL A   1      47.080  27.586  27.945  1.00  0.00     0.009 A 
ATOM     84  C   UNL A   1      45.474  29.480  26.686  1.00  0.00     0.001 A 
ATOM     85  C   UNL A   1      47.599  28.359  26.908  1.00  0.00     0.001 A 
ATOM     86  C   UNL A   1      46.794  29.302  26.274  1.00  0.00     0.000 A 
ENDBRANCH  68  81
ENDBRANCH  42  43
ENDBRANCH  35  37
ENDBRANCH  34  35
ENDBRANCH  33  34
ENDBRANCH  32  33
ENDBRANCH   1  32
TORSDOF 17
ENDMDL
MODEL 3
REMARK VINA RESULT:     -12.0      3.165      4.869
REMARK SMILES NS(=O)(=O)c1ccc(-n2nc(C(F)(F)F)cc2-c2ccc(CC(=O)OCCOC(=O)c3ccc(-c4c5nc(c(-c6ccccc6)c6ccc([nH]6)c(-c6ccccc6)c6nc(c(-c7ccccc7)c7ccc4[nH]7)C=C6)C=C5)cc3)cc2)cc1
REMARK SMILES IDX 25 1 23 2 24 3 22 4 21 5 18 6 19 7 80 8 20 9 79 10 17 11
REMARK SMILES IDX 9 12 10 13 11 14 16 15 8 16 5 17 6 18 82 19 7 20 81 21 2 22
REMARK SMILES IDX 3 23 4 24 1 25 12 28 13 29 14 30 15 31 26 32 27 33 28 34
REMARK SMILES IDX 29 35 30 36 31 37 32 38 78 39 33 40 77 41 34 42 35 43 36 44
REMARK SMILES IDX 71 45 37 46 76 47 70 48 72 49 38 50 75 51 69 52 68 53 39 55
REMARK SMILES IDX 61 56 46 57 60 58 47 59 50 60 59 61 73 62 48 63 49 64 58 66
REMARK SMILES IDX 74 67 51 68 40 69 41 70 45 71 42 72 44 73 43 74 62 75 63 76
REMARK SMILES IDX 67 77 64 78 66 79 65 80 52 81 53 82 57 83 54 84 56 85 55 86
REMARK H PARENT 1 26 1 27 72 54 50 65
REMARK Flexibility Score: inf
ROOT
ATOM      1  O   UNL A   1      35.942  32.491  28.026  1.00  0.00    -0.462 OA
ENDROOT
BRANCH   1   2
ATOM      2  C   UNL A   1      35.523  31.274  28.468  1.00  0.00     0.310 C 
ATOM      3  O   UNL A   1      36.247  30.467  29.048  1.00  0.00    -0.252 OA
BRANCH   2   4
ATOM      4  C   UNL A   1      34.099  30.929  28.089  1.00  0.00     0.158 C 
BRANCH   4   5
ATOM      5  C   UNL A   1      33.857  29.674  27.285  1.00  0.00    -0.037 A 
ATOM      6  C   UNL A   1      33.460  27.315  25.788  1.00  0.00     0.000 A 
ATOM      7  C   UNL A   1      34.430  28.244  25.401  1.00  0.00     0.010 A 
ATOM      8  C   UNL A   1      32.654  27.596  26.895  1.00  0.00     0.010 A 
ATOM      9  C   UNL A   1      34.605  29.419  26.131  1.00  0.00     0.005 A 
ATOM     10  C   UNL A   1      32.863  28.758  27.647  1.00  0.00     0.005 A 
BRANCH   6  11
ATOM     11  C   UNL A   1      33.312  26.066  25.048  1.00  0.00     0.075 A 
ATOM     12  N   UNL A   1      32.233  25.745  24.231  1.00  0.00    -0.233 N 
ATOM     13  N   UNL A   1      32.220  24.427  23.902  1.00  0.00    -0.163 NA
ATOM     14  C   UNL A   1      33.393  23.944  24.357  1.00  0.00     0.167 A 
ATOM     15  C   UNL A   1      34.086  24.926  25.106  1.00  0.00     0.064 A 
BRANCH  12  16
ATOM     16  C   UNL A   1      31.212  26.617  23.766  1.00  0.00     0.065 A 
ATOM     17  C   UNL A   1      29.222  28.422  23.030  1.00  0.00     0.082 A 
ATOM     18  C   UNL A   1      30.550  28.678  22.678  1.00  0.00     0.024 A 
ATOM     19  C   UNL A   1      28.880  27.259  23.728  1.00  0.00     0.024 A 
ATOM     20  C   UNL A   1      31.546  27.776  23.053  1.00  0.00     0.030 A 
ATOM     21  C   UNL A   1      29.874  26.337  24.071  1.00  0.00     0.030 A 
BRANCH  17  22
ATOM     22  S   UNL A   1      27.997  29.613  22.581  1.00  0.00     0.238 S 
ATOM     23  O   UNL A   1      28.086  29.841  21.155  1.00  0.00    -0.207 OA
ATOM     24  O   UNL A   1      28.005  30.689  23.541  1.00  0.00    -0.207 OA
BRANCH  22  25
ATOM     25  N   UNL A   1      26.532  28.825  22.827  1.00  0.00    -0.225 NA
ATOM     26  H   UNL A   1      26.083  28.655  21.927  1.00  0.00     0.137 HD
ATOM     27  H   UNL A   1      25.926  29.407  23.405  1.00  0.00     0.137 HD
ENDBRANCH  22  25
ENDBRANCH  17  22
ENDBRANCH  12  16
BRANCH  14  28
ATOM     28  C   UNL A   1      33.865  22.535  24.105  1.00  0.00     0.435 C 
ATOM     29  F   UNL A   1      32.864  21.618  24.143  1.00  0.00    -0.164 F 
ATOM     30  F   UNL A   1      34.476  22.412  22.896  1.00  0.00    -0.164 F 
ATOM     31  F   UNL A   1      34.782  22.142  25.034  1.00  0.00    -0.164 F 
ENDBRANCH  14  28
ENDBRANCH   6  11
ENDBRANCH   4   5
ENDBRANCH   2   4
ENDBRANCH   1   2
BRANCH   1  32
ATOM     32  C   UNL A   1      36.243  33.464  29.052  1.00  0.00     0.274 C 
BRANCH  32  33
ATOM     33  C   UNL A   1      37.722  33.833  29.120  1.00  0.00     0.275 C 
BRANCH  33  34
ATOM     34  O   UNL A   1      38.326  33.476  30.365  1.00  0.00    -0.458 OA
BRANCH  34  35
ATOM     35  C   UNL A   1      39.673  33.526  30.325  1.00  0.00     0.338 C 
ATOM     36  O   UNL A   1      40.362  34.433  29.889  1.00  0.00    -0.246 OA
BRANCH  35  37
ATOM     37  C   UNL A   1      40.262  32.230  30.652  1.00  0.00     0.060 A 
ATOM     38  C   UNL A   1      41.611  32.031  30.341  1.00  0.00     0.016 A 
ATOM     39  C   UNL A   1      39.402  31.163  30.930  1.00  0.00     0.016 A 
ATOM     40  C   UNL A   1      42.062  30.742  30.148  1.00  0.00     0.010 A 
ATOM     41  C   UNL A   1      39.854  29.878  30.735  1.00  0.00     0.010 A 
ATOM     42  C   UNL A   1      41.156  29.683  30.277  1.00  0.00    -0.014 A 
BRANCH  42  43
ATOM     43  C   UNL A   1      41.654  28.331  30.107  1.00  0.00     0.031 A 
ATOM     44  C   UNL A   1      42.394  27.872  31.304  1.00  0.00     0.074 A 
ATOM     45  C   UNL A   1      41.363  27.551  29.046  1.00  0.00     0.049 A 
ATOM     46  N   UNL A   1      43.664  27.676  31.400  1.00  0.00    -0.248 NA
ATOM     47  C   UNL A   1      41.677  27.822  32.591  1.00  0.00     0.031 C 
ATOM     48  C   UNL A   1      40.425  27.841  27.956  1.00  0.00     0.029 A 
ATOM     49  N   UNL A   1      41.758  26.275  28.770  1.00  0.00    -0.354 N 
ATOM     50  C   UNL A   1      43.871  27.236  32.703  1.00  0.00     0.074 A 
ATOM     51  C   UNL A   1      42.672  27.546  33.435  1.00  0.00     0.031 C 
ATOM     52  C   UNL A   1      40.134  26.694  27.296  1.00  0.00     0.029 A 
ATOM     53  C   UNL A   1      40.978  25.630  27.814  1.00  0.00     0.049 A 
ATOM     54  H   UNL A   1      42.529  25.849  29.208  1.00  0.00     0.167 HD
ATOM     55  C   UNL A   1      44.863  26.346  32.972  1.00  0.00     0.031 A 
ATOM     56  C   UNL A   1      41.008  24.310  27.501  1.00  0.00     0.031 A 
ATOM     57  C   UNL A   1      45.775  26.239  31.863  1.00  0.00     0.049 A 
ATOM     58  C   UNL A   1      42.313  23.781  27.941  1.00  0.00     0.074 A 
ATOM     59  C   UNL A   1      46.793  26.986  31.316  1.00  0.00     0.029 A 
ATOM     60  N   UNL A   1      45.351  25.356  30.906  1.00  0.00    -0.354 N 
ATOM     61  N   UNL A   1      43.439  24.127  27.387  1.00  0.00    -0.248 NA
ATOM     62  C   UNL A   1      42.426  23.132  29.242  1.00  0.00     0.031 C 
ATOM     63  C   UNL A   1      46.846  26.626  29.935  1.00  0.00     0.029 A 
ATOM     64  C   UNL A   1      45.902  25.631  29.689  1.00  0.00     0.049 A 
ATOM     65  H   UNL A   1      44.725  24.614  31.076  1.00  0.00     0.167 HD
ATOM     66  C   UNL A   1      44.332  24.165  28.439  1.00  0.00     0.074 A 
ATOM     67  C   UNL A   1      43.715  23.374  29.498  1.00  0.00     0.031 C 
ATOM     68  C   UNL A   1      45.324  25.100  28.472  1.00  0.00     0.031 A 
BRANCH  55  69
ATOM     69  C   UNL A   1      44.687  25.181  33.922  1.00  0.00    -0.014 A 
ATOM     70  C   UNL A   1      45.662  24.978  34.916  1.00  0.00     0.009 A 
ATOM     71  C   UNL A   1      43.800  24.112  33.683  1.00  0.00     0.009 A 
ATOM     72  C   UNL A   1      45.777  23.754  35.587  1.00  0.00     0.001 A 
ATOM     73  C   UNL A   1      43.891  22.901  34.376  1.00  0.00     0.001 A 
ATOM     74  C   UNL A   1      44.895  22.714  35.312  1.00  0.00     0.000 A 
ENDBRANCH  55  69
BRANCH  56  75
ATOM     75  C   UNL A   1      39.932  23.399  27.048  1.00  0.00    -0.014 A 
ATOM     76  C   UNL A   1      38.701  23.908  26.599  1.00  0.00     0.009 A 
ATOM     77  C   UNL A   1      40.230  22.057  26.756  1.00  0.00     0.009 A 
ATOM     78  C   UNL A   1      37.825  23.117  25.840  1.00  0.00     0.001 A 
ATOM     79  C   UNL A   1      39.357  21.269  25.996  1.00  0.00     0.001 A 
ATOM     80  C   UNL A   1      38.163  21.804  25.522  1.00  0.00     0.000 A 
ENDBRANCH  56  75
BRANCH  68  81
ATOM     81  C   UNL A   1      45.733  25.727  27.172  1.00  0.00    -0.014 A 
ATOM     82  C   UNL A   1      46.700  25.192  26.307  1.00  0.00     0.009 A 
ATOM     83  C   UNL A   1      45.039  26.880  26.775  1.00  0.00     0.009 A 
ATOM     84  C   UNL A   1      46.979  25.814  25.085  1.00  0.00     0.001 A 
ATOM     85  C   UNL A   1      45.302  27.486  25.548  1.00  0.00     0.001 A 
ATOM     86  C   UNL A   1      46.276  26.957  24.706  1.00  0.00     0.000 A 
ENDBRANCH  68  81
ENDBRANCH  42  43
ENDBRANCH  35  37
ENDBRANCH  34  35
ENDBRANCH  33  34
ENDBRANCH  32  33
ENDBRANCH   1  32
TORSDOF 17
ENDMDL
