MODEL 1
REMARK VINA RESULT:     -10.6      0.000      0.000
REMARK SMILES N#Cc1ccccc1S(=O)(=O)N1CCC(C(=O)OCCOC(=O)c2ccc(-c3c4nc(c(-c5ccccc5)c5ccc([nH]5)c(-c5ccccc5)c5nc(c(-c6ccccc6)c6ccc3[nH]6)C=C5)C=C4)cc2)CC1
REMARK SMILES IDX 19 1 18 2 16 3 17 4 15 5 12 6 13 7 73 8 14 9 72 10 9 11
REMARK SMILES IDX 10 12 11 13 8 14 3 15 4 16 5 17 7 18 6 19 2 20 1 21 20 22
REMARK SMILES IDX 21 23 22 24 23 25 24 26 25 27 71 28 26 29 70 30 27 31 28 32
REMARK SMILES IDX 29 33 64 34 30 35 69 36 63 37 65 38 31 39 68 40 62 41 61 42
REMARK SMILES IDX 32 44 54 45 39 46 53 47 40 48 43 49 52 50 66 51 41 52 42 53
REMARK SMILES IDX 51 55 67 56 44 57 33 58 34 59 38 60 35 61 37 62 36 63 55 64
REMARK SMILES IDX 56 65 60 66 57 67 59 68 58 69 45 70 46 71 50 72 47 73 49 74
REMARK SMILES IDX 48 75
REMARK H PARENT 65 43 43 54
REMARK Flexibility Score: inf
ROOT
ATOM      1  C   UNL A   1      38.145  21.318  25.443  1.00  0.00     0.274 C 
ENDROOT
BRANCH   1   2
ATOM      2  O   UNL A   1      37.184  21.482  24.384  1.00  0.00    -0.462 OA
BRANCH   2   3
ATOM      3  C   UNL A   1      35.922  21.068  24.659  1.00  0.00     0.309 C 
ATOM      4  O   UNL A   1      35.625  19.952  25.072  1.00  0.00    -0.252 OA
BRANCH   3   5
ATOM      5  C   UNL A   1      34.880  22.136  24.424  1.00  0.00     0.102 C 
ATOM      6  N   UNL A   1      32.832  23.878  23.444  1.00  0.00    -0.198 NA
ATOM      7  C   UNL A   1      34.230  24.370  23.453  1.00  0.00     0.103 C 
ATOM      8  C   UNL A   1      32.468  22.574  24.035  1.00  0.00     0.103 C 
ATOM      9  C   UNL A   1      35.281  23.268  23.493  1.00  0.00     0.032 C 
ATOM     10  C   UNL A   1      33.578  21.541  23.921  1.00  0.00     0.032 C 
BRANCH   6  11
ATOM     11  S   UNL A   1      31.604  25.004  23.163  1.00  0.00     0.244 S 
ATOM     12  O   UNL A   1      30.353  24.296  23.355  1.00  0.00    -0.207 OA
ATOM     13  O   UNL A   1      31.890  25.670  21.910  1.00  0.00    -0.207 OA
BRANCH  11  14
ATOM     14  C   UNL A   1      31.583  26.306  24.386  1.00  0.00     0.100 A 
ATOM     15  C   UNL A   1      31.525  26.186  25.773  1.00  0.00     0.072 A 
ATOM     16  C   UNL A   1      31.523  27.355  26.567  1.00  0.00     0.021 A 
ATOM     17  C   UNL A   1      31.589  28.623  25.997  1.00  0.00     0.001 A 
ATOM     18  C   UNL A   1      31.652  27.600  23.821  1.00  0.00     0.023 A 
ATOM     19  C   UNL A   1      31.657  28.747  24.617  1.00  0.00     0.001 A 
BRANCH  15  20
ATOM     20  C   UNL A   1      31.475  24.970  26.515  1.00  0.00     0.101 C 
ATOM     21  N   UNL A   1      31.348  24.028  27.176  1.00  0.00    -0.192 NA
ENDBRANCH  15  20
ENDBRANCH  11  14
ENDBRANCH   6  11
ENDBRANCH   3   5
ENDBRANCH   2   3
ENDBRANCH   1   2
BRANCH   1  22
ATOM     22  C   UNL A   1      38.964  20.042  25.243  1.00  0.00     0.275 C 
BRANCH  22  23
ATOM     23  O   UNL A   1      39.893  19.829  26.325  1.00  0.00    -0.458 OA
BRANCH  23  24
ATOM     24  C   UNL A   1      41.199  19.926  25.989  1.00  0.00     0.338 C 
ATOM     25  O   UNL A   1      41.848  19.162  25.294  1.00  0.00    -0.246 OA
BRANCH  24  26
ATOM     26  C   UNL A   1      41.765  21.170  26.529  1.00  0.00     0.060 A 
ATOM     27  C   UNL A   1      41.757  21.356  27.910  1.00  0.00     0.016 A 
ATOM     28  C   UNL A   1      42.175  22.199  25.682  1.00  0.00     0.016 A 
ATOM     29  C   UNL A   1      42.126  22.581  28.458  1.00  0.00     0.010 A 
ATOM     30  C   UNL A   1      42.578  23.421  26.234  1.00  0.00     0.010 A 
ATOM     31  C   UNL A   1      42.538  23.628  27.625  1.00  0.00    -0.014 A 
BRANCH  31  32
ATOM     32  C   UNL A   1      42.892  24.947  28.211  1.00  0.00     0.031 A 
ATOM     33  C   UNL A   1      41.825  25.975  28.462  1.00  0.00     0.074 A 
ATOM     34  C   UNL A   1      44.172  25.219  28.527  1.00  0.00     0.049 A 
ATOM     35  N   UNL A   1      41.949  27.214  28.866  1.00  0.00    -0.248 NA
ATOM     36  C   UNL A   1      40.435  25.554  28.224  1.00  0.00     0.031 C 
ATOM     37  C   UNL A   1      45.296  24.292  28.387  1.00  0.00     0.029 A 
ATOM     38  N   UNL A   1      44.743  26.362  29.031  1.00  0.00    -0.354 N 
ATOM     39  C   UNL A   1      40.659  27.732  28.899  1.00  0.00     0.074 A 
ATOM     40  C   UNL A   1      39.771  26.677  28.460  1.00  0.00     0.031 C 
ATOM     41  C   UNL A   1      46.419  24.899  28.800  1.00  0.00     0.029 A 
ATOM     42  C   UNL A   1      46.106  26.274  29.175  1.00  0.00     0.049 A 
ATOM     43  H   UNL A   1      44.226  27.166  29.264  1.00  0.00     0.167 HD
ATOM     44  C   UNL A   1      40.253  28.972  29.263  1.00  0.00     0.031 A 
ATOM     45  C   UNL A   1      47.010  27.205  29.537  1.00  0.00     0.031 A 
ATOM     46  C   UNL A   1      41.138  30.020  29.704  1.00  0.00     0.049 A 
ATOM     47  C   UNL A   1      46.543  28.596  29.860  1.00  0.00     0.074 A 
ATOM     48  C   UNL A   1      40.820  31.304  30.109  1.00  0.00     0.029 A 
ATOM     49  N   UNL A   1      42.517  29.903  29.795  1.00  0.00    -0.354 N 
ATOM     50  N   UNL A   1      45.322  29.073  29.885  1.00  0.00    -0.248 NA
ATOM     51  C   UNL A   1      47.581  29.579  30.202  1.00  0.00     0.031 C 
ATOM     52  C   UNL A   1      42.011  31.982  30.392  1.00  0.00     0.029 A 
ATOM     53  C   UNL A   1      43.066  31.101  30.221  1.00  0.00     0.049 A 
ATOM     54  H   UNL A   1      43.030  29.089  29.585  1.00  0.00     0.167 HD
ATOM     55  C   UNL A   1      45.443  30.404  30.266  1.00  0.00     0.074 A 
ATOM     56  C   UNL A   1      46.855  30.651  30.479  1.00  0.00     0.031 C 
ATOM     57  C   UNL A   1      44.473  31.336  30.426  1.00  0.00     0.031 A 
BRANCH  44  58
ATOM     58  C   UNL A   1      38.785  29.282  29.155  1.00  0.00    -0.014 A 
ATOM     59  C   UNL A   1      37.923  29.150  30.255  1.00  0.00     0.009 A 
ATOM     60  C   UNL A   1      38.263  29.743  27.935  1.00  0.00     0.009 A 
ATOM     61  C   UNL A   1      36.562  29.440  30.125  1.00  0.00     0.001 A 
ATOM     62  C   UNL A   1      36.908  30.059  27.817  1.00  0.00     0.001 A 
ATOM     63  C   UNL A   1      36.058  29.898  28.909  1.00  0.00     0.000 A 
ENDBRANCH  44  58
BRANCH  45  64
ATOM     64  C   UNL A   1      48.455  26.861  29.576  1.00  0.00    -0.014 A 
ATOM     65  C   UNL A   1      49.034  26.338  30.741  1.00  0.00     0.009 A 
ATOM     66  C   UNL A   1      49.265  27.059  28.446  1.00  0.00     0.009 A 
ATOM     67  C   UNL A   1      50.399  26.038  30.779  1.00  0.00     0.001 A 
ATOM     68  C   UNL A   1      50.620  26.730  28.477  1.00  0.00     0.001 A 
ATOM     69  C   UNL A   1      51.188  26.229  29.646  1.00  0.00     0.000 A 
ENDBRANCH  45  64
BRANCH  57  70
ATOM     70  C   UNL A   1      44.901  32.701  30.886  1.00  0.00    -0.014 A 
ATOM     71  C   UNL A   1      45.010  33.011  32.251  1.00  0.00     0.009 A 
ATOM     72  C   UNL A   1      45.232  33.682  29.938  1.00  0.00     0.009 A 
ATOM     73  C   UNL A   1      45.409  34.287  32.655  1.00  0.00     0.001 A 
ATOM     74  C   UNL A   1      45.659  34.946  30.345  1.00  0.00     0.001 A 
ATOM     75  C   UNL A   1      45.737  35.250  31.703  1.00  0.00     0.000 A 
ENDBRANCH  57  70
ENDBRANCH  31  32
ENDBRANCH  24  26
ENDBRANCH  23  24
ENDBRANCH  22  23
ENDBRANCH   1  22
TORSDOF 14
ENDMDL
MODEL 2
REMARK VINA RESULT:     -10.5      0.874      6.064
REMARK SMILES N#Cc1ccccc1S(=O)(=O)N1CCC(C(=O)OCCOC(=O)c2ccc(-c3c4nc(c(-c5ccccc5)c5ccc([nH]5)c(-c5ccccc5)c5nc(c(-c6ccccc6)c6ccc3[nH]6)C=C5)C=C4)cc2)CC1
REMARK SMILES IDX 19 1 18 2 16 3 17 4 15 5 12 6 13 7 73 8 14 9 72 10 9 11
REMARK SMILES IDX 10 12 11 13 8 14 3 15 4 16 5 17 7 18 6 19 2 20 1 21 20 22
REMARK SMILES IDX 21 23 22 24 23 25 24 26 25 27 71 28 26 29 70 30 27 31 28 32
REMARK SMILES IDX 29 33 64 34 30 35 69 36 63 37 65 38 31 39 68 40 62 41 61 42
REMARK SMILES IDX 32 44 54 45 39 46 53 47 40 48 43 49 52 50 66 51 41 52 42 53
REMARK SMILES IDX 51 55 67 56 44 57 33 58 34 59 38 60 35 61 37 62 36 63 55 64
REMARK SMILES IDX 56 65 60 66 57 67 59 68 58 69 45 70 46 71 50 72 47 73 49 74
REMARK SMILES IDX 48 75
REMARK H PARENT 65 43 43 54
REMARK Flexibility Score: inf
ROOT
ATOM      1  C   UNL A   1      37.935  20.993  24.989  1.00  0.00     0.274 C 
ENDROOT
BRANCH   1   2
ATOM      2  O   UNL A   1      36.701  20.973  25.730  1.00  0.00    -0.462 OA
BRANCH   2   3
ATOM      3  C   UNL A   1      35.574  20.791  24.999  1.00  0.00     0.309 C 
ATOM      4  O   UNL A   1      35.070  19.702  24.746  1.00  0.00    -0.252 OA
BRANCH   3   5
ATOM      5  C   UNL A   1      34.958  22.087  24.522  1.00  0.00     0.102 C 
ATOM      6  N   UNL A   1      33.509  24.527  24.156  1.00  0.00    -0.198 NA
ATOM      7  C   UNL A   1      33.050  23.319  23.429  1.00  0.00     0.103 C 
ATOM      8  C   UNL A   1      34.750  24.522  24.957  1.00  0.00     0.103 C 
ATOM      9  C   UNL A   1      33.520  22.005  24.038  1.00  0.00     0.032 C 
ATOM     10  C   UNL A   1      35.046  23.168  25.583  1.00  0.00     0.032 C 
BRANCH   6  11
ATOM     11  S   UNL A   1      32.852  26.015  23.703  1.00  0.00     0.244 S 
ATOM     12  O   UNL A   1      31.520  25.736  23.203  1.00  0.00    -0.207 OA
ATOM     13  O   UNL A   1      33.825  26.694  22.873  1.00  0.00    -0.207 OA
BRANCH  11  14
ATOM     14  C   UNL A   1      32.597  27.100  25.099  1.00  0.00     0.100 A 
ATOM     15  C   UNL A   1      32.000  26.804  26.323  1.00  0.00     0.072 A 
ATOM     16  C   UNL A   1      31.901  27.816  27.304  1.00  0.00     0.021 A 
ATOM     17  C   UNL A   1      32.395  29.098  27.081  1.00  0.00     0.001 A 
ATOM     18  C   UNL A   1      33.096  28.406  24.888  1.00  0.00     0.023 A 
ATOM     19  C   UNL A   1      32.999  29.394  25.869  1.00  0.00     0.001 A 
BRANCH  15  20
ATOM     20  C   UNL A   1      31.464  25.545  26.720  1.00  0.00     0.101 C 
ATOM     21  N   UNL A   1      31.117  24.473  26.989  1.00  0.00    -0.192 NA
ENDBRANCH  15  20
ENDBRANCH  11  14
ENDBRANCH   6  11
ENDBRANCH   3   5
ENDBRANCH   2   3
ENDBRANCH   1   2
BRANCH   1  22
ATOM     22  C   UNL A   1      38.687  19.670  25.145  1.00  0.00     0.275 C 
BRANCH  22  23
ATOM     23  O   UNL A   1      39.465  19.639  26.359  1.00  0.00    -0.458 OA
BRANCH  23  24
ATOM     24  C   UNL A   1      40.806  19.667  26.184  1.00  0.00     0.338 C 
ATOM     25  O   UNL A   1      41.506  18.814  25.665  1.00  0.00    -0.246 OA
BRANCH  24  26
ATOM     26  C   UNL A   1      41.347  20.950  26.654  1.00  0.00     0.060 A 
ATOM     27  C   UNL A   1      41.201  21.276  28.000  1.00  0.00     0.016 A 
ATOM     28  C   UNL A   1      41.869  21.880  25.756  1.00  0.00     0.016 A 
ATOM     29  C   UNL A   1      41.545  22.544  28.459  1.00  0.00     0.010 A 
ATOM     30  C   UNL A   1      42.246  23.145  26.222  1.00  0.00     0.010 A 
ATOM     31  C   UNL A   1      42.069  23.494  27.574  1.00  0.00    -0.014 A 
BRANCH  31  32
ATOM     32  C   UNL A   1      42.396  24.859  28.059  1.00  0.00     0.031 A 
ATOM     33  C   UNL A   1      43.808  25.209  28.441  1.00  0.00     0.074 A 
ATOM     34  C   UNL A   1      41.428  25.790  28.149  1.00  0.00     0.049 A 
ATOM     35  N   UNL A   1      44.271  26.308  28.982  1.00  0.00    -0.248 NA
ATOM     36  C   UNL A   1      44.833  24.186  28.183  1.00  0.00     0.031 C 
ATOM     37  C   UNL A   1      40.030  25.600  27.759  1.00  0.00     0.029 A 
ATOM     38  N   UNL A   1      41.475  27.086  28.602  1.00  0.00    -0.354 N 
ATOM     39  C   UNL A   1      45.633  26.097  29.160  1.00  0.00     0.074 A 
ATOM     40  C   UNL A   1      45.918  24.761  28.683  1.00  0.00     0.031 C 
ATOM     41  C   UNL A   1      39.354  26.738  27.982  1.00  0.00     0.029 A 
ATOM     42  C   UNL A   1      40.254  27.714  28.587  1.00  0.00     0.049 A 
ATOM     43  H   UNL A   1      42.303  27.521  28.908  1.00  0.00     0.167 HD
ATOM     44  C   UNL A   1      46.561  26.941  29.673  1.00  0.00     0.031 A 
ATOM     45  C   UNL A   1      39.890  28.929  29.041  1.00  0.00     0.031 A 
ATOM     46  C   UNL A   1      46.276  28.273  30.144  1.00  0.00     0.049 A 
ATOM     47  C   UNL A   1      40.922  29.816  29.678  1.00  0.00     0.074 A 
ATOM     48  C   UNL A   1      47.151  29.209  30.665  1.00  0.00     0.029 A 
ATOM     49  N   UNL A   1      45.017  28.855  30.151  1.00  0.00    -0.354 N 
ATOM     50  N   UNL A   1      42.205  29.605  29.842  1.00  0.00    -0.248 NA
ATOM     51  C   UNL A   1      40.453  31.109  30.195  1.00  0.00     0.031 C 
ATOM     52  C   UNL A   1      46.414  30.337  31.040  1.00  0.00     0.029 A 
ATOM     53  C   UNL A   1      45.088  30.127  30.696  1.00  0.00     0.049 A 
ATOM     54  H   UNL A   1      44.194  28.427  29.820  1.00  0.00     0.167 HD
ATOM     55  C   UNL A   1      42.701  30.746  30.460  1.00  0.00     0.074 A 
ATOM     56  C   UNL A   1      41.582  31.652  30.625  1.00  0.00     0.031 C 
ATOM     57  C   UNL A   1      43.968  31.018  30.857  1.00  0.00     0.031 A 
BRANCH  44  58
ATOM     58  C   UNL A   1      47.970  26.431  29.797  1.00  0.00    -0.014 A 
ATOM     59  C   UNL A   1      48.413  25.768  30.952  1.00  0.00     0.009 A 
ATOM     60  C   UNL A   1      48.860  26.590  28.722  1.00  0.00     0.009 A 
ATOM     61  C   UNL A   1      49.730  25.308  31.043  1.00  0.00     0.001 A 
ATOM     62  C   UNL A   1      50.167  26.104  28.804  1.00  0.00     0.001 A 
ATOM     63  C   UNL A   1      50.603  25.473  29.968  1.00  0.00     0.000 A 
ENDBRANCH  44  58
BRANCH  45  64
ATOM     64  C   UNL A   1      38.472  29.363  28.943  1.00  0.00    -0.014 A 
ATOM     65  C   UNL A   1      37.609  29.242  30.041  1.00  0.00     0.009 A 
ATOM     66  C   UNL A   1      37.974  29.900  27.744  1.00  0.00     0.009 A 
ATOM     67  C   UNL A   1      36.270  29.630  29.935  1.00  0.00     0.001 A 
ATOM     68  C   UNL A   1      36.645  30.315  27.651  1.00  0.00     0.001 A 
ATOM     69  C   UNL A   1      35.792  30.172  28.743  1.00  0.00     0.000 A 
ENDBRANCH  45  64
BRANCH  57  70
ATOM     70  C   UNL A   1      44.219  32.365  31.474  1.00  0.00    -0.014 A 
ATOM     71  C   UNL A   1      44.611  33.465  30.694  1.00  0.00     0.009 A 
ATOM     72  C   UNL A   1      44.029  32.544  32.854  1.00  0.00     0.009 A 
ATOM     73  C   UNL A   1      44.841  34.707  31.290  1.00  0.00     0.001 A 
ATOM     74  C   UNL A   1      44.231  33.793  33.441  1.00  0.00     0.001 A 
ATOM     75  C   UNL A   1      44.646  34.870  32.660  1.00  0.00     0.000 A 
ENDBRANCH  57  70
ENDBRANCH  31  32
ENDBRANCH  24  26
ENDBRANCH  23  24
ENDBRANCH  22  23
ENDBRANCH   1  22
TORSDOF 14
ENDMDL
MODEL 3
REMARK VINA RESULT:     -10.5      2.027      7.679
REMARK SMILES N#Cc1ccccc1S(=O)(=O)N1CCC(C(=O)OCCOC(=O)c2ccc(-c3c4nc(c(-c5ccccc5)c5ccc([nH]5)c(-c5ccccc5)c5nc(c(-c6ccccc6)c6ccc3[nH]6)C=C5)C=C4)cc2)CC1
REMARK SMILES IDX 19 1 18 2 16 3 17 4 15 5 12 6 13 7 73 8 14 9 72 10 9 11
REMARK SMILES IDX 10 12 11 13 8 14 3 15 4 16 5 17 7 18 6 19 2 20 1 21 20 22
REMARK SMILES IDX 21 23 22 24 23 25 24 26 25 27 71 28 26 29 70 30 27 31 28 32
REMARK SMILES IDX 29 33 64 34 30 35 69 36 63 37 65 38 31 39 68 40 62 41 61 42
REMARK SMILES IDX 32 44 54 45 39 46 53 47 40 48 43 49 52 50 66 51 41 52 42 53
REMARK SMILES IDX 51 55 67 56 44 57 33 58 34 59 38 60 35 61 37 62 36 63 55 64
REMARK SMILES IDX 56 65 60 66 57 67 59 68 58 69 45 70 46 71 50 72 47 73 49 74
REMARK SMILES IDX 48 75
REMARK H PARENT 65 43 43 54
REMARK Flexibility Score: inf
ROOT
ATOM      1  C   UNL A   1      32.064  29.768  25.863  1.00  0.00     0.274 C 
ENDROOT
BRANCH   1   2
ATOM      2  O   UNL A   1      31.470  28.467  25.702  1.00  0.00    -0.462 OA
BRANCH   2   3
ATOM      3  C   UNL A   1      31.348  27.728  26.832  1.00  0.00     0.309 C 
ATOM      4  O   UNL A   1      30.965  28.158  27.914  1.00  0.00    -0.252 OA
BRANCH   3   5
ATOM      5  C   UNL A   1      31.717  26.275  26.635  1.00  0.00     0.102 C 
ATOM      6  N   UNL A   1      32.536  23.700  25.694  1.00  0.00    -0.198 NA
ATOM      7  C   UNL A   1      31.089  23.947  25.900  1.00  0.00     0.103 C 
ATOM      8  C   UNL A   1      33.554  24.702  26.076  1.00  0.00     0.103 C 
ATOM      9  C   UNL A   1      30.700  25.420  25.900  1.00  0.00     0.032 C 
ATOM     10  C   UNL A   1      33.057  26.132  25.938  1.00  0.00     0.032 C 
BRANCH   6  11
ATOM     11  S   UNL A   1      33.034  22.106  25.443  1.00  0.00     0.244 S 
ATOM     12  O   UNL A   1      32.237  21.600  24.342  1.00  0.00    -0.207 OA
ATOM     13  O   UNL A   1      33.033  21.433  26.725  1.00  0.00    -0.207 OA
BRANCH  11  14
ATOM     14  C   UNL A   1      34.722  22.003  24.868  1.00  0.00     0.100 A 
ATOM     15  C   UNL A   1      35.309  22.668  23.793  1.00  0.00     0.072 A 
ATOM     16  C   UNL A   1      36.675  22.447  23.508  1.00  0.00     0.021 A 
ATOM     17  C   UNL A   1      37.452  21.589  24.283  1.00  0.00     0.001 A 
ATOM     18  C   UNL A   1      35.524  21.137  25.647  1.00  0.00     0.023 A 
ATOM     19  C   UNL A   1      36.874  20.934  25.359  1.00  0.00     0.001 A 
BRANCH  15  20
ATOM     20  C   UNL A   1      34.667  23.590  22.916  1.00  0.00     0.101 C 
ATOM     21  N   UNL A   1      34.069  24.355  22.286  1.00  0.00    -0.192 NA
ENDBRANCH  15  20
ENDBRANCH  11  14
ENDBRANCH   6  11
ENDBRANCH   3   5
ENDBRANCH   2   3
ENDBRANCH   1   2
BRANCH   1  22
ATOM     22  C   UNL A   1      33.588  29.664  25.955  1.00  0.00     0.275 C 
BRANCH  22  23
ATOM     23  O   UNL A   1      34.026  29.442  27.311  1.00  0.00    -0.458 OA
BRANCH  23  24
ATOM     24  C   UNL A   1      34.589  30.513  27.916  1.00  0.00     0.338 C 
ATOM     25  O   UNL A   1      34.065  31.584  28.173  1.00  0.00    -0.246 OA
BRANCH  24  26
ATOM     26  C   UNL A   1      35.966  30.195  28.318  1.00  0.00     0.060 A 
ATOM     27  C   UNL A   1      36.970  30.266  27.356  1.00  0.00     0.016 A 
ATOM     28  C   UNL A   1      36.245  29.701  29.592  1.00  0.00     0.016 A 
ATOM     29  C   UNL A   1      38.255  29.816  27.643  1.00  0.00     0.010 A 
ATOM     30  C   UNL A   1      37.546  29.278  29.893  1.00  0.00     0.010 A 
ATOM     31  C   UNL A   1      38.556  29.314  28.915  1.00  0.00    -0.014 A 
BRANCH  31  32
ATOM     32  C   UNL A   1      39.918  28.797  29.205  1.00  0.00     0.031 A 
ATOM     33  C   UNL A   1      40.925  29.666  29.906  1.00  0.00     0.074 A 
ATOM     34  C   UNL A   1      40.251  27.542  28.847  1.00  0.00     0.049 A 
ATOM     35  N   UNL A   1      42.190  29.433  30.153  1.00  0.00    -0.248 NA
ATOM     36  C   UNL A   1      40.446  30.970  30.391  1.00  0.00     0.031 C 
ATOM     37  C   UNL A   1      39.353  26.576  28.212  1.00  0.00     0.029 A 
ATOM     38  N   UNL A   1      41.439  26.865  28.967  1.00  0.00    -0.354 N 
ATOM     39  C   UNL A   1      42.666  30.573  30.791  1.00  0.00     0.074 A 
ATOM     40  C   UNL A   1      41.559  31.500  30.879  1.00  0.00     0.031 C 
ATOM     41  C   UNL A   1      40.020  25.431  28.003  1.00  0.00     0.029 A 
ATOM     42  C   UNL A   1      41.404  25.601  28.432  1.00  0.00     0.049 A 
ATOM     43  H   UNL A   1      42.239  27.250  29.393  1.00  0.00     0.167 HD
ATOM     44  C   UNL A   1      43.913  30.822  31.260  1.00  0.00     0.031 A 
ATOM     45  C   UNL A   1      42.384  24.691  28.273  1.00  0.00     0.031 A 
ATOM     46  C   UNL A   1      45.013  29.896  31.175  1.00  0.00     0.049 A 
ATOM     47  C   UNL A   1      43.777  25.022  28.731  1.00  0.00     0.074 A 
ATOM     48  C   UNL A   1      46.309  30.051  31.636  1.00  0.00     0.029 A 
ATOM     49  N   UNL A   1      44.946  28.642  30.587  1.00  0.00    -0.354 N 
ATOM     50  N   UNL A   1      44.215  26.102  29.330  1.00  0.00    -0.248 NA
ATOM     51  C   UNL A   1      44.811  24.006  28.488  1.00  0.00     0.031 C 
ATOM     52  C   UNL A   1      47.040  28.914  31.278  1.00  0.00     0.029 A 
ATOM     53  C   UNL A   1      46.185  28.024  30.648  1.00  0.00     0.049 A 
ATOM     54  H   UNL A   1      44.138  28.249  30.184  1.00  0.00     0.167 HD
ATOM     55  C   UNL A   1      45.569  25.888  29.555  1.00  0.00     0.074 A 
ATOM     56  C   UNL A   1      45.874  24.567  29.044  1.00  0.00     0.031 C 
ATOM     57  C   UNL A   1      46.477  26.711  30.132  1.00  0.00     0.031 A 
BRANCH  44  58
ATOM     58  C   UNL A   1      44.168  32.173  31.869  1.00  0.00    -0.014 A 
ATOM     59  C   UNL A   1      44.581  33.265  31.090  1.00  0.00     0.009 A 
ATOM     60  C   UNL A   1      43.959  32.362  33.245  1.00  0.00     0.009 A 
ATOM     61  C   UNL A   1      44.816  34.509  31.683  1.00  0.00     0.001 A 
ATOM     62  C   UNL A   1      44.166  33.614  33.830  1.00  0.00     0.001 A 
ATOM     63  C   UNL A   1      44.604  34.682  33.050  1.00  0.00     0.000 A 
ENDBRANCH  44  58
BRANCH  45  64
ATOM     64  C   UNL A   1      42.090  23.391  27.616  1.00  0.00    -0.014 A 
ATOM     65  C   UNL A   1      42.369  23.197  26.255  1.00  0.00     0.009 A 
ATOM     66  C   UNL A   1      41.523  22.335  28.349  1.00  0.00     0.009 A 
ATOM     67  C   UNL A   1      42.068  21.981  25.637  1.00  0.00     0.001 A 
ATOM     68  C   UNL A   1      41.252  21.111  27.736  1.00  0.00     0.001 A 
ATOM     69  C   UNL A   1      41.516  20.937  26.380  1.00  0.00     0.000 A 
ENDBRANCH  45  64
BRANCH  57  70
ATOM     70  C   UNL A   1      47.880  26.192  30.275  1.00  0.00    -0.014 A 
ATOM     71  C   UNL A   1      48.788  26.235  29.205  1.00  0.00     0.009 A 
ATOM     72  C   UNL A   1      48.310  25.682  31.511  1.00  0.00     0.009 A 
ATOM     73  C   UNL A   1      50.087  25.745  29.361  1.00  0.00     0.001 A 
ATOM     74  C   UNL A   1      49.617  25.221  31.671  1.00  0.00     0.001 A 
ATOM     75  C   UNL A   1      50.500  25.244  30.594  1.00  0.00     0.000 A 
ENDBRANCH  57  70
ENDBRANCH  31  32
ENDBRANCH  24  26
ENDBRANCH  23  24
ENDBRANCH  22  23
ENDBRANCH   1  22
TORSDOF 14
ENDMDL
