MODEL 1
REMARK VINA RESULT:     -12.0      0.000      0.000
REMARK SMILES O=C(OCCOC(=O)[C@@H]1CC=CC[C@H]1C(=O)N1CC[NH+](Cc2ccc3c(c2)OCO3)CC1)c1ccc(-c2c3nc(c(-c4ccccc4)c4ccc([nH]4)c(-c4ccccc4)c4nc(c(-c5ccccc5)c5ccc2[nH]5)C=C4)C=C3)cc1
REMARK SMILES IDX 5 1 4 2 3 3 2 4 1 5 33 6 34 7 80 8 35 9 79 10 36 11 37 12
REMARK SMILES IDX 38 13 73 14 39 15 78 16 72 17 74 18 40 19 77 20 71 21 70 22
REMARK SMILES IDX 41 24 63 25 48 26 62 27 49 28 52 29 61 30 75 31 50 32 51 33
REMARK SMILES IDX 60 35 76 36 53 37 42 38 43 39 47 40 44 41 46 42 45 43 64 44
REMARK SMILES IDX 65 45 69 46 66 47 68 48 67 49 54 50 55 51 59 52 56 53 58 54
REMARK SMILES IDX 57 55 6 56 7 57 8 58 9 59 10 60 14 61 11 62 13 63 12 64
REMARK SMILES IDX 15 65 16 66 17 67 18 68 32 69 19 70 31 71 20 72 21 74 22 75
REMARK SMILES IDX 23 76 27 77 24 78 26 79 25 80 28 81 30 82 29 83
REMARK H PARENT 74 23 52 34 20 73
REMARK Flexibility Score: inf
ROOT
ATOM      1  C   UNL A   1      37.825  20.869  25.244  1.00  0.00     0.274 C 
ENDROOT
BRANCH   1   2
ATOM      2  C   UNL A   1      38.635  19.607  24.959  1.00  0.00     0.275 C 
BRANCH   2   3
ATOM      3  O   UNL A   1      39.571  19.240  25.988  1.00  0.00    -0.458 OA
BRANCH   3   4
ATOM      4  C   UNL A   1      40.896  19.512  26.042  1.00  0.00     0.338 C 
ATOM      5  O   UNL A   1      41.719  18.642  25.749  1.00  0.00    -0.246 OA
BRANCH   4   6
ATOM      6  C   UNL A   1      41.399  20.825  26.525  1.00  0.00     0.060 A 
ATOM      7  C   UNL A   1      41.336  21.253  27.854  1.00  0.00     0.016 A 
ATOM      8  C   UNL A   1      41.937  21.690  25.566  1.00  0.00     0.016 A 
ATOM      9  C   UNL A   1      41.935  22.456  28.248  1.00  0.00     0.010 A 
ATOM     10  C   UNL A   1      42.545  22.887  25.955  1.00  0.00     0.010 A 
ATOM     11  C   UNL A   1      42.561  23.275  27.306  1.00  0.00    -0.014 A 
BRANCH  11  12
ATOM     12  C   UNL A   1      43.097  24.607  27.680  1.00  0.00     0.031 A 
ATOM     13  C   UNL A   1      42.117  25.731  27.856  1.00  0.00     0.074 A 
ATOM     14  C   UNL A   1      44.417  24.840  27.832  1.00  0.00     0.049 A 
ATOM     15  N   UNL A   1      42.346  26.964  28.219  1.00  0.00    -0.248 NA
ATOM     16  C   UNL A   1      40.693  25.418  27.643  1.00  0.00     0.031 C 
ATOM     17  C   UNL A   1      45.484  23.844  27.775  1.00  0.00     0.029 A 
ATOM     18  N   UNL A   1      45.098  26.023  27.997  1.00  0.00    -0.354 N 
ATOM     19  C   UNL A   1      41.094  27.543  28.361  1.00  0.00     0.074 A 
ATOM     20  C   UNL A   1      40.116  26.574  27.927  1.00  0.00     0.031 C 
ATOM     21  C   UNL A   1      46.676  24.465  27.724  1.00  0.00     0.029 A 
ATOM     22  C   UNL A   1      46.460  25.900  27.842  1.00  0.00     0.049 A 
ATOM     23  H   UNL A   1      44.653  26.876  28.207  1.00  0.00     0.167 HD
ATOM     24  C   UNL A   1      40.784  28.749  28.887  1.00  0.00     0.031 A 
ATOM     25  C   UNL A   1      47.422  26.843  27.805  1.00  0.00     0.031 A 
ATOM     26  C   UNL A   1      41.761  29.717  29.287  1.00  0.00     0.049 A 
ATOM     27  C   UNL A   1      47.049  28.252  28.175  1.00  0.00     0.074 A 
ATOM     28  C   UNL A   1      41.567  30.941  29.901  1.00  0.00     0.029 A 
ATOM     29  N   UNL A   1      43.124  29.578  29.080  1.00  0.00    -0.354 N 
ATOM     30  N   UNL A   1      45.870  28.733  28.483  1.00  0.00    -0.248 NA
ATOM     31  C   UNL A   1      48.145  29.224  28.282  1.00  0.00     0.031 C 
ATOM     32  C   UNL A   1      42.813  31.568  30.009  1.00  0.00     0.029 A 
ATOM     33  C   UNL A   1      43.782  30.717  29.500  1.00  0.00     0.049 A 
ATOM     34  H   UNL A   1      43.558  28.785  28.690  1.00  0.00     0.167 HD
ATOM     35  C   UNL A   1      46.093  30.036  28.902  1.00  0.00     0.074 A 
ATOM     36  C   UNL A   1      47.515  30.280  28.779  1.00  0.00     0.031 C 
ATOM     37  C   UNL A   1      45.200  30.937  29.379  1.00  0.00     0.031 A 
BRANCH  24  38
ATOM     38  C   UNL A   1      39.329  29.039  29.081  1.00  0.00    -0.014 A 
ATOM     39  C   UNL A   1      38.577  29.624  28.047  1.00  0.00     0.009 A 
ATOM     40  C   UNL A   1      38.705  28.754  30.303  1.00  0.00     0.009 A 
ATOM     41  C   UNL A   1      37.238  29.954  28.247  1.00  0.00     0.001 A 
ATOM     42  C   UNL A   1      37.359  29.066  30.492  1.00  0.00     0.001 A 
ATOM     43  C   UNL A   1      36.629  29.674  29.469  1.00  0.00     0.000 A 
ENDBRANCH  24  38
BRANCH  25  44
ATOM     44  C   UNL A   1      48.828  26.500  27.465  1.00  0.00    -0.014 A 
ATOM     45  C   UNL A   1      49.274  26.508  26.135  1.00  0.00     0.009 A 
ATOM     46  C   UNL A   1      49.714  26.087  28.473  1.00  0.00     0.009 A 
ATOM     47  C   UNL A   1      50.563  26.069  25.816  1.00  0.00     0.001 A 
ATOM     48  C   UNL A   1      51.008  25.663  28.153  1.00  0.00     0.001 A 
ATOM     49  C   UNL A   1      51.426  25.642  26.824  1.00  0.00     0.000 A 
ENDBRANCH  25  44
BRANCH  37  50
ATOM     50  C   UNL A   1      45.740  32.253  29.852  1.00  0.00    -0.014 A 
ATOM     51  C   UNL A   1      45.789  33.365  29.000  1.00  0.00     0.009 A 
ATOM     52  C   UNL A   1      46.147  32.392  31.188  1.00  0.00     0.009 A 
ATOM     53  C   UNL A   1      46.253  34.591  29.475  1.00  0.00     0.001 A 
ATOM     54  C   UNL A   1      46.582  33.626  31.668  1.00  0.00     0.001 A 
ATOM     55  C   UNL A   1      46.640  34.724  30.809  1.00  0.00     0.000 A 
ENDBRANCH  37  50
ENDBRANCH  11  12
ENDBRANCH   4   6
ENDBRANCH   3   4
ENDBRANCH   2   3
ENDBRANCH   1   2
BRANCH   1  56
ATOM     56  O   UNL A   1      36.543  20.909  24.592  1.00  0.00    -0.462 OA
BRANCH  56  57
ATOM     57  C   UNL A   1      35.509  20.836  25.475  1.00  0.00     0.310 C 
ATOM     58  O   UNL A   1      35.459  21.488  26.515  1.00  0.00    -0.252 OA
BRANCH  57  59
ATOM     59  C   UNL A   1      34.444  19.806  25.125  1.00  0.00     0.115 C 
ATOM     60  C   UNL A   1      35.150  18.605  24.509  1.00  0.00     0.043 C 
ATOM     61  C   UNL A   1      33.297  20.285  24.236  1.00  0.00     0.097 C 
ATOM     62  C   UNL A   1      34.208  17.563  23.987  1.00  0.00    -0.030 C 
ATOM     63  C   UNL A   1      32.287  19.146  23.969  1.00  0.00     0.041 C 
ATOM     64  C   UNL A   1      32.914  17.805  23.754  1.00  0.00    -0.030 C 
BRANCH  61  65
ATOM     65  C   UNL A   1      32.447  21.497  24.599  1.00  0.00     0.227 C 
ATOM     66  O   UNL A   1      31.341  21.308  25.116  1.00  0.00    -0.275 OA
ATOM     67  N   UNL A   1      33.043  22.742  24.615  1.00  0.00    -0.331 N 
ATOM     68  C   UNL A   1      32.520  23.727  25.561  1.00  0.00     0.181 C 
ATOM     69  C   UNL A   1      33.637  23.332  23.431  1.00  0.00     0.181 C 
ATOM     70  C   UNL A   1      33.485  24.914  25.797  1.00  0.00     0.284 C 
ATOM     71  C   UNL A   1      34.686  24.389  23.763  1.00  0.00     0.284 C 
ATOM     72  N   UNL A   1      34.192  25.462  24.627  1.00  0.00    -0.328 N 
ATOM     73  H   UNL A   1      34.999  25.949  25.015  1.00  0.00     0.348 HD
BRANCH  72  74
ATOM     74  C   UNL A   1      33.538  26.567  23.911  1.00  0.00     0.299 C 
BRANCH  74  75
ATOM     75  C   UNL A   1      33.019  27.725  24.738  1.00  0.00     0.010 A 
ATOM     76  C   UNL A   1      31.720  28.230  24.507  1.00  0.00     0.013 A 
ATOM     77  C   UNL A   1      33.849  28.365  25.680  1.00  0.00     0.060 A 
ATOM     78  C   UNL A   1      31.283  29.408  25.121  1.00  0.00     0.051 A 
ATOM     79  C   UNL A   1      33.392  29.530  26.265  1.00  0.00     0.166 A 
ATOM     80  C   UNL A   1      32.150  30.042  25.981  1.00  0.00     0.165 A 
ATOM     81  O   UNL A   1      34.098  30.326  27.113  1.00  0.00    -0.454 OA
ATOM     82  O   UNL A   1      31.914  31.220  26.617  1.00  0.00    -0.454 OA
ATOM     83  C   UNL A   1      33.164  31.409  27.310  1.00  0.00     0.468 C 
ENDBRANCH  74  75
ENDBRANCH  72  74
ENDBRANCH  61  65
ENDBRANCH  57  59
ENDBRANCH  56  57
ENDBRANCH   1  56
TORSDOF 14
ENDMDL
MODEL 2
REMARK VINA RESULT:     -12.0      3.856      9.324
REMARK SMILES O=C(OCCOC(=O)[C@@H]1CC=CC[C@H]1C(=O)N1CC[NH+](Cc2ccc3c(c2)OCO3)CC1)c1ccc(-c2c3nc(c(-c4ccccc4)c4ccc([nH]4)c(-c4ccccc4)c4nc(c(-c5ccccc5)c5ccc2[nH]5)C=C4)C=C3)cc1
REMARK SMILES IDX 5 1 4 2 3 3 2 4 1 5 33 6 34 7 80 8 35 9 79 10 36 11 37 12
REMARK SMILES IDX 38 13 73 14 39 15 78 16 72 17 74 18 40 19 77 20 71 21 70 22
REMARK SMILES IDX 41 24 63 25 48 26 62 27 49 28 52 29 61 30 75 31 50 32 51 33
REMARK SMILES IDX 60 35 76 36 53 37 42 38 43 39 47 40 44 41 46 42 45 43 64 44
REMARK SMILES IDX 65 45 69 46 66 47 68 48 67 49 54 50 55 51 59 52 56 53 58 54
REMARK SMILES IDX 57 55 6 56 7 57 8 58 9 59 10 60 14 61 11 62 13 63 12 64
REMARK SMILES IDX 15 65 16 66 17 67 18 68 32 69 19 70 31 71 20 72 21 74 22 75
REMARK SMILES IDX 23 76 27 77 24 78 26 79 25 80 28 81 30 82 29 83
REMARK H PARENT 74 23 52 34 20 73
REMARK Flexibility Score: inf
ROOT
ATOM      1  C   UNL A   1      32.235  31.082  26.710  1.00  0.00     0.274 C 
ENDROOT
BRANCH   1   2
ATOM      2  C   UNL A   1      31.438  32.292  27.190  1.00  0.00     0.275 C 
BRANCH   2   3
ATOM      3  O   UNL A   1      32.162  33.535  27.191  1.00  0.00    -0.458 OA
BRANCH   3   4
ATOM      4  C   UNL A   1      32.889  34.074  28.199  1.00  0.00     0.338 C 
ATOM      5  O   UNL A   1      32.535  35.134  28.719  1.00  0.00    -0.246 OA
BRANCH   4   6
ATOM      6  C   UNL A   1      34.161  33.456  28.654  1.00  0.00     0.060 A 
ATOM      7  C   UNL A   1      35.380  33.573  27.980  1.00  0.00     0.016 A 
ATOM      8  C   UNL A   1      34.110  32.681  29.817  1.00  0.00     0.016 A 
ATOM      9  C   UNL A   1      36.558  33.057  28.534  1.00  0.00     0.010 A 
ATOM     10  C   UNL A   1      35.284  32.172  30.380  1.00  0.00     0.010 A 
ATOM     11  C   UNL A   1      36.524  32.367  29.748  1.00  0.00    -0.014 A 
BRANCH  11  12
ATOM     12  C   UNL A   1      37.737  31.710  30.293  1.00  0.00     0.031 A 
ATOM     13  C   UNL A   1      38.529  32.454  31.329  1.00  0.00     0.074 A 
ATOM     14  C   UNL A   1      38.157  30.499  29.871  1.00  0.00     0.049 A 
ATOM     15  N   UNL A   1      39.595  32.066  31.976  1.00  0.00    -0.248 NA
ATOM     16  C   UNL A   1      38.034  33.785  31.723  1.00  0.00     0.031 C 
ATOM     17  C   UNL A   1      37.461  29.618  28.937  1.00  0.00     0.029 A 
ATOM     18  N   UNL A   1      39.329  29.826  30.126  1.00  0.00    -0.354 N 
ATOM     19  C   UNL A   1      39.841  33.063  32.907  1.00  0.00     0.074 A 
ATOM     20  C   UNL A   1      38.899  34.129  32.663  1.00  0.00     0.031 C 
ATOM     21  C   UNL A   1      38.283  28.621  28.562  1.00  0.00     0.029 A 
ATOM     22  C   UNL A   1      39.529  28.740  29.305  1.00  0.00     0.049 A 
ATOM     23  H   UNL A   1      39.963  30.096  30.829  1.00  0.00     0.167 HD
ATOM     24  C   UNL A   1      40.725  33.053  33.930  1.00  0.00     0.031 A 
ATOM     25  C   UNL A   1      40.599  27.932  29.174  1.00  0.00     0.031 A 
ATOM     26  C   UNL A   1      41.678  32.006  34.149  1.00  0.00     0.049 A 
ATOM     27  C   UNL A   1      41.708  28.054  30.181  1.00  0.00     0.074 A 
ATOM     28  C   UNL A   1      42.571  31.850  35.192  1.00  0.00     0.029 A 
ATOM     29  N   UNL A   1      41.880  30.946  33.279  1.00  0.00    -0.354 N 
ATOM     30  N   UNL A   1      41.825  28.904  31.172  1.00  0.00    -0.248 NA
ATOM     31  C   UNL A   1      42.784  27.057  30.111  1.00  0.00     0.031 C 
ATOM     32  C   UNL A   1      43.356  30.725  34.921  1.00  0.00     0.029 A 
ATOM     33  C   UNL A   1      42.924  30.160  33.731  1.00  0.00     0.049 A 
ATOM     34  H   UNL A   1      41.358  30.778  32.461  1.00  0.00     0.167 HD
ATOM     35  C   UNL A   1      42.936  28.492  31.893  1.00  0.00     0.074 A 
ATOM     36  C   UNL A   1      43.476  27.336  31.208  1.00  0.00     0.031 C 
ATOM     37  C   UNL A   1      43.440  29.008  33.040  1.00  0.00     0.031 A 
BRANCH  24  38
ATOM     38  C   UNL A   1      40.649  34.198  34.891  1.00  0.00    -0.014 A 
ATOM     39  C   UNL A   1      39.822  34.119  36.026  1.00  0.00     0.009 A 
ATOM     40  C   UNL A   1      41.381  35.369  34.659  1.00  0.00     0.009 A 
ATOM     41  C   UNL A   1      39.701  35.207  36.888  1.00  0.00     0.001 A 
ATOM     42  C   UNL A   1      41.272  36.449  35.535  1.00  0.00     0.001 A 
ATOM     43  C   UNL A   1      40.426  36.371  36.643  1.00  0.00     0.000 A 
ENDBRANCH  24  38
BRANCH  25  44
ATOM     44  C   UNL A   1      40.665  26.904  28.102  1.00  0.00    -0.014 A 
ATOM     45  C   UNL A   1      40.222  25.593  28.327  1.00  0.00     0.009 A 
ATOM     46  C   UNL A   1      41.248  27.217  26.863  1.00  0.00     0.009 A 
ATOM     47  C   UNL A   1      40.400  24.606  27.353  1.00  0.00     0.001 A 
ATOM     48  C   UNL A   1      41.410  26.232  25.884  1.00  0.00     0.001 A 
ATOM     49  C   UNL A   1      40.998  24.925  26.135  1.00  0.00     0.000 A 
ENDBRANCH  25  44
BRANCH  37  50
ATOM     50  C   UNL A   1      44.607  28.296  33.656  1.00  0.00    -0.014 A 
ATOM     51  C   UNL A   1      45.923  28.694  33.388  1.00  0.00     0.009 A 
ATOM     52  C   UNL A   1      44.376  27.252  34.567  1.00  0.00     0.009 A 
ATOM     53  C   UNL A   1      46.992  28.047  34.009  1.00  0.00     0.001 A 
ATOM     54  C   UNL A   1      45.444  26.627  35.207  1.00  0.00     0.001 A 
ATOM     55  C   UNL A   1      46.751  27.021  34.924  1.00  0.00     0.000 A 
ENDBRANCH  37  50
ENDBRANCH  11  12
ENDBRANCH   4   6
ENDBRANCH   3   4
ENDBRANCH   2   3
ENDBRANCH   1   2
BRANCH   1  56
ATOM     56  O   UNL A   1      31.438  30.049  26.104  1.00  0.00    -0.462 OA
BRANCH  56  57
ATOM     57  C   UNL A   1      31.803  29.799  24.816  1.00  0.00     0.310 C 
ATOM     58  O   UNL A   1      32.967  29.625  24.465  1.00  0.00    -0.252 OA
BRANCH  57  59
ATOM     59  C   UNL A   1      30.661  29.841  23.811  1.00  0.00     0.115 C 
ATOM     60  C   UNL A   1      29.675  30.904  24.277  1.00  0.00     0.043 C 
ATOM     61  C   UNL A   1      29.951  28.517  23.529  1.00  0.00     0.097 C 
ATOM     62  C   UNL A   1      28.426  30.961  23.453  1.00  0.00    -0.030 C 
ATOM     63  C   UNL A   1      28.824  28.702  22.487  1.00  0.00     0.041 C 
ATOM     64  C   UNL A   1      28.048  29.972  22.637  1.00  0.00    -0.030 C 
BRANCH  61  65
ATOM     65  C   UNL A   1      30.709  27.273  23.084  1.00  0.00     0.227 C 
ATOM     66  O   UNL A   1      30.660  26.948  21.893  1.00  0.00    -0.275 OA
ATOM     67  N   UNL A   1      31.647  26.728  23.938  1.00  0.00    -0.331 N 
ATOM     68  C   UNL A   1      32.795  26.051  23.336  1.00  0.00     0.181 C 
ATOM     69  C   UNL A   1      31.296  26.222  25.252  1.00  0.00     0.181 C 
ATOM     70  C   UNL A   1      33.967  25.846  24.327  1.00  0.00     0.284 C 
ATOM     71  C   UNL A   1      32.485  26.194  26.208  1.00  0.00     0.284 C 
ATOM     72  N   UNL A   1      33.633  25.440  25.703  1.00  0.00    -0.328 N 
ATOM     73  H   UNL A   1      34.448  25.703  26.257  1.00  0.00     0.348 HD
BRANCH  72  74
ATOM     74  C   UNL A   1      33.583  23.998  25.979  1.00  0.00     0.299 C 
BRANCH  74  75
ATOM     75  C   UNL A   1      34.886  23.228  25.913  1.00  0.00     0.010 A 
ATOM     76  C   UNL A   1      36.116  23.909  26.048  1.00  0.00     0.013 A 
ATOM     77  C   UNL A   1      34.892  21.847  25.631  1.00  0.00     0.060 A 
ATOM     78  C   UNL A   1      37.332  23.262  25.810  1.00  0.00     0.051 A 
ATOM     79  C   UNL A   1      36.108  21.237  25.393  1.00  0.00     0.166 A 
ATOM     80  C   UNL A   1      37.291  21.929  25.467  1.00  0.00     0.165 A 
ATOM     81  O   UNL A   1      36.289  19.944  25.010  1.00  0.00    -0.454 OA
ATOM     82  O   UNL A   1      38.366  21.162  25.146  1.00  0.00    -0.454 OA
ATOM     83  C   UNL A   1      37.721  19.913  24.830  1.00  0.00     0.468 C 
ENDBRANCH  74  75
ENDBRANCH  72  74
ENDBRANCH  61  65
ENDBRANCH  57  59
ENDBRANCH  56  57
ENDBRANCH   1  56
TORSDOF 14
ENDMDL
MODEL 3
REMARK VINA RESULT:     -12.0      4.126      9.528
REMARK SMILES O=C(OCCOC(=O)[C@@H]1CC=CC[C@H]1C(=O)N1CC[NH+](Cc2ccc3c(c2)OCO3)CC1)c1ccc(-c2c3nc(c(-c4ccccc4)c4ccc([nH]4)c(-c4ccccc4)c4nc(c(-c5ccccc5)c5ccc2[nH]5)C=C4)C=C3)cc1
REMARK SMILES IDX 5 1 4 2 3 3 2 4 1 5 33 6 34 7 80 8 35 9 79 10 36 11 37 12
REMARK SMILES IDX 38 13 73 14 39 15 78 16 72 17 74 18 40 19 77 20 71 21 70 22
REMARK SMILES IDX 41 24 63 25 48 26 62 27 49 28 52 29 61 30 75 31 50 32 51 33
REMARK SMILES IDX 60 35 76 36 53 37 42 38 43 39 47 40 44 41 46 42 45 43 64 44
REMARK SMILES IDX 65 45 69 46 66 47 68 48 67 49 54 50 55 51 59 52 56 53 58 54
REMARK SMILES IDX 57 55 6 56 7 57 8 58 9 59 10 60 14 61 11 62 13 63 12 64
REMARK SMILES IDX 15 65 16 66 17 67 18 68 32 69 19 70 31 71 20 72 21 74 22 75
REMARK SMILES IDX 23 76 27 77 24 78 26 79 25 80 28 81 30 82 29 83
REMARK H PARENT 74 23 52 34 20 73
REMARK Flexibility Score: inf
ROOT
ATOM      1  C   UNL A   1      31.946  31.688  26.889  1.00  0.00     0.274 C 
ENDROOT
BRANCH   1   2
ATOM      2  C   UNL A   1      31.979  33.207  26.746  1.00  0.00     0.275 C 
BRANCH   2   3
ATOM      3  O   UNL A   1      32.159  33.930  27.976  1.00  0.00    -0.458 OA
BRANCH   3   4
ATOM      4  C   UNL A   1      33.278  34.552  28.419  1.00  0.00     0.338 C 
ATOM      5  O   UNL A   1      33.358  35.782  28.380  1.00  0.00    -0.246 OA
BRANCH   4   6
ATOM      6  C   UNL A   1      34.459  33.783  28.888  1.00  0.00     0.060 A 
ATOM      7  C   UNL A   1      35.784  34.104  28.576  1.00  0.00     0.016 A 
ATOM      8  C   UNL A   1      34.210  32.646  29.665  1.00  0.00     0.016 A 
ATOM      9  C   UNL A   1      36.847  33.397  29.150  1.00  0.00     0.010 A 
ATOM     10  C   UNL A   1      35.267  31.943  30.249  1.00  0.00     0.010 A 
ATOM     11  C   UNL A   1      36.599  32.321  30.006  1.00  0.00    -0.014 A 
BRANCH  11  12
ATOM     12  C   UNL A   1      37.706  31.484  30.531  1.00  0.00     0.031 A 
ATOM     13  C   UNL A   1      38.195  31.765  31.923  1.00  0.00     0.074 A 
ATOM     14  C   UNL A   1      38.296  30.519  29.796  1.00  0.00     0.049 A 
ATOM     15  N   UNL A   1      39.117  31.141  32.605  1.00  0.00    -0.248 NA
ATOM     16  C   UNL A   1      37.530  32.855  32.660  1.00  0.00     0.031 C 
ATOM     17  C   UNL A   1      37.888  30.072  28.467  1.00  0.00     0.029 A 
ATOM     18  N   UNL A   1      39.428  29.779  30.045  1.00  0.00    -0.354 N 
ATOM     19  C   UNL A   1      39.079  31.704  33.872  1.00  0.00     0.074 A 
ATOM     20  C   UNL A   1      38.139  32.799  33.833  1.00  0.00     0.031 C 
ATOM     21  C   UNL A   1      38.842  29.278  27.948  1.00  0.00     0.029 A 
ATOM     22  C   UNL A   1      39.883  29.084  28.947  1.00  0.00     0.049 A 
ATOM     23  H   UNL A   1      39.870  29.750  30.924  1.00  0.00     0.167 HD
ATOM     24  C   UNL A   1      39.713  31.290  34.991  1.00  0.00     0.031 A 
ATOM     25  C   UNL A   1      41.010  28.368  28.775  1.00  0.00     0.031 A 
ATOM     26  C   UNL A   1      40.668  30.222  35.016  1.00  0.00     0.049 A 
ATOM     27  C   UNL A   1      41.859  28.078  29.982  1.00  0.00     0.074 A 
ATOM     28  C   UNL A   1      41.318  29.666  36.102  1.00  0.00     0.029 A 
ATOM     29  N   UNL A   1      41.133  29.569  33.886  1.00  0.00    -0.354 N 
ATOM     30  N   UNL A   1      41.692  28.485  31.217  1.00  0.00    -0.248 NA
ATOM     31  C   UNL A   1      42.993  27.163  29.795  1.00  0.00     0.031 C 
ATOM     32  C   UNL A   1      42.223  28.715  35.619  1.00  0.00     0.029 A 
ATOM     33  C   UNL A   1      42.105  28.653  34.239  1.00  0.00     0.049 A 
ATOM     34  H   UNL A   1      40.818  29.735  32.968  1.00  0.00     0.167 HD
ATOM     35  C   UNL A   1      42.643  27.810  31.967  1.00  0.00     0.074 A 
ATOM     36  C   UNL A   1      43.403  26.992  31.045  1.00  0.00     0.031 C 
ATOM     37  C   UNL A   1      42.844  27.842  33.307  1.00  0.00     0.031 A 
BRANCH  24  38
ATOM     38  C   UNL A   1      39.344  31.984  36.265  1.00  0.00    -0.014 A 
ATOM     39  C   UNL A   1      38.165  31.637  36.947  1.00  0.00     0.009 A 
ATOM     40  C   UNL A   1      40.156  33.004  36.778  1.00  0.00     0.009 A 
ATOM     41  C   UNL A   1      37.787  32.324  38.099  1.00  0.00     0.001 A 
ATOM     42  C   UNL A   1      39.785  33.676  37.943  1.00  0.00     0.001 A 
ATOM     43  C   UNL A   1      38.597  33.343  38.597  1.00  0.00     0.000 A 
ENDBRANCH  24  38
BRANCH  25  44
ATOM     44  C   UNL A   1      41.385  27.824  27.443  1.00  0.00    -0.014 A 
ATOM     45  C   UNL A   1      41.002  26.533  27.053  1.00  0.00     0.009 A 
ATOM     46  C   UNL A   1      42.201  28.576  26.581  1.00  0.00     0.009 A 
ATOM     47  C   UNL A   1      41.462  25.988  25.850  1.00  0.00     0.001 A 
ATOM     48  C   UNL A   1      42.646  28.035  25.371  1.00  0.00     0.001 A 
ATOM     49  C   UNL A   1      42.286  26.738  25.013  1.00  0.00     0.000 A 
ENDBRANCH  25  44
BRANCH  37  50
ATOM     50  C   UNL A   1      43.894  26.928  33.864  1.00  0.00    -0.014 A 
ATOM     51  C   UNL A   1      45.188  27.392  34.137  1.00  0.00     0.009 A 
ATOM     52  C   UNL A   1      43.559  25.601  34.177  1.00  0.00     0.009 A 
ATOM     53  C   UNL A   1      46.135  26.537  34.698  1.00  0.00     0.001 A 
ATOM     54  C   UNL A   1      44.500  24.757  34.765  1.00  0.00     0.001 A 
ATOM     55  C   UNL A   1      45.789  25.224  35.020  1.00  0.00     0.000 A 
ENDBRANCH  37  50
ENDBRANCH  11  12
ENDBRANCH   4   6
ENDBRANCH   3   4
ENDBRANCH   2   3
ENDBRANCH   1   2
BRANCH   1  56
ATOM     56  O   UNL A   1      31.403  30.997  25.750  1.00  0.00    -0.462 OA
BRANCH  56  57
ATOM     57  C   UNL A   1      32.086  29.855  25.461  1.00  0.00     0.310 C 
ATOM     58  O   UNL A   1      33.243  29.649  25.819  1.00  0.00    -0.252 OA
BRANCH  57  59
ATOM     59  C   UNL A   1      31.337  28.872  24.573  1.00  0.00     0.115 C 
ATOM     60  C   UNL A   1      30.354  29.672  23.728  1.00  0.00     0.043 C 
ATOM     61  C   UNL A   1      30.638  27.710  25.277  1.00  0.00     0.097 C 
ATOM     62  C   UNL A   1      29.446  28.816  22.898  1.00  0.00    -0.030 C 
ATOM     63  C   UNL A   1      29.928  26.788  24.259  1.00  0.00     0.041 C 
ATOM     64  C   UNL A   1      29.263  27.512  23.132  1.00  0.00    -0.030 C 
BRANCH  61  65
ATOM     65  C   UNL A   1      31.384  26.770  26.216  1.00  0.00     0.227 C 
ATOM     66  O   UNL A   1      31.469  27.076  27.410  1.00  0.00    -0.275 OA
ATOM     67  N   UNL A   1      31.676  25.493  25.781  1.00  0.00    -0.331 N 
ATOM     68  C   UNL A   1      31.729  24.433  26.787  1.00  0.00     0.181 C 
ATOM     69  C   UNL A   1      32.519  25.242  24.627  1.00  0.00     0.181 C 
ATOM     70  C   UNL A   1      31.651  23.012  26.177  1.00  0.00     0.284 C 
ATOM     71  C   UNL A   1      32.267  23.874  24.001  1.00  0.00     0.284 C 
ATOM     72  N   UNL A   1      32.408  22.759  24.939  1.00  0.00    -0.328 N 
ATOM     73  H   UNL A   1      31.961  21.942  24.523  1.00  0.00     0.348 HD
BRANCH  72  74
ATOM     74  C   UNL A   1      33.781  22.259  25.089  1.00  0.00     0.299 C 
BRANCH  74  75
ATOM     75  C   UNL A   1      33.986  20.759  25.059  1.00  0.00     0.010 A 
ATOM     76  C   UNL A   1      35.276  20.227  24.838  1.00  0.00     0.013 A 
ATOM     77  C   UNL A   1      32.889  19.881  25.165  1.00  0.00     0.060 A 
ATOM     78  C   UNL A   1      35.467  18.859  24.622  1.00  0.00     0.051 A 
ATOM     79  C   UNL A   1      33.108  18.535  24.940  1.00  0.00     0.166 A 
ATOM     80  C   UNL A   1      34.359  18.043  24.663  1.00  0.00     0.165 A 
ATOM     81  O   UNL A   1      32.151  17.569  24.901  1.00  0.00    -0.454 OA
ATOM     82  O   UNL A   1      34.351  16.705  24.420  1.00  0.00    -0.454 OA
ATOM     83  C   UNL A   1      32.945  16.416  24.544  1.00  0.00     0.468 C 
ENDBRANCH  74  75
ENDBRANCH  72  74
ENDBRANCH  61  65
ENDBRANCH  57  59
ENDBRANCH  56  57
ENDBRANCH   1  56
TORSDOF 14
ENDMDL
