MODEL 1
REMARK VINA RESULT:     -10.9      0.000      0.000
REMARK SMILES COc1cc(NS(=O)(=O)c2cc(C)c(C(=O)OCCOC(=O)c3ccc(-c4c5nc(c(-c6ccccc6)c6ccc([nH]6)c(-c6ccccc6)c6nc(c(-c7ccccc7)c7ccc4[nH]7)C=C6)C=C5)cc3)s2)cc(OC)c1
REMARK SMILES IDX 18 1 17 2 15 3 16 4 14 5 10 6 11 7 71 8 12 9 13 10 7 11 8 12
REMARK SMILES IDX 9 13 6 14 5 16 3 17 4 18 76 19 73 20 72 21 2 22 1 23 74 24
REMARK SMILES IDX 75 25 19 26 20 27 21 28 22 29 23 30 24 31 70 32 25 33 69 34
REMARK SMILES IDX 26 35 27 36 28 37 63 38 29 39 68 40 62 41 64 42 30 43 67 44
REMARK SMILES IDX 61 45 60 46 31 48 53 49 38 50 52 51 39 52 42 53 51 54 65 55
REMARK SMILES IDX 40 56 41 57 50 59 66 60 43 61 32 62 33 63 37 64 34 65 36 66
REMARK SMILES IDX 35 67 54 68 55 69 59 70 56 71 58 72 57 73 44 74 45 75 49 76
REMARK SMILES IDX 46 77 48 78 47 79
REMARK H PARENT 6 15 64 47 42 58
REMARK Flexibility Score: inf
ROOT
ATOM      1  C   UNL A   1      37.669  20.449  24.814  1.00  0.00     0.275 C 
ENDROOT
BRANCH   1   2
ATOM      2  O   UNL A   1      36.495  20.965  25.478  1.00  0.00    -0.458 OA
BRANCH   2   3
ATOM      3  C   UNL A   1      35.690  21.807  24.767  1.00  0.00     0.348 C 
ATOM      4  O   UNL A   1      36.078  22.453  23.799  1.00  0.00    -0.245 OA
BRANCH   3   5
ATOM      5  C   UNL A   1      34.312  21.755  25.253  1.00  0.00     0.116 A 
ATOM      6  C   UNL A   1      32.164  22.637  26.120  1.00  0.00     0.141 A 
ATOM      7  C   UNL A   1      32.028  21.380  25.571  1.00  0.00     0.038 A 
ATOM      8  S   UNL A   1      33.809  23.017  26.330  1.00  0.00    -0.115 S 
ATOM      9  C   UNL A   1      33.257  20.877  25.008  1.00  0.00    -0.024 A 
ATOM     10  C   UNL A   1      33.274  19.607  24.219  1.00  0.00     0.046 C 
BRANCH   6  11
ATOM     11  S   UNL A   1      30.957  23.882  26.520  1.00  0.00     0.271 S 
ATOM     12  O   UNL A   1      31.687  25.060  26.935  1.00  0.00    -0.200 OA
ATOM     13  O   UNL A   1      30.030  23.230  27.421  1.00  0.00    -0.200 OA
BRANCH  11  14
ATOM     14  N   UNL A   1      30.085  24.315  25.111  1.00  0.00    -0.279 N 
ATOM     15  H   UNL A   1      29.150  24.030  24.989  1.00  0.00     0.180 HD
BRANCH  14  16
ATOM     16  C   UNL A   1      30.749  25.106  24.108  1.00  0.00     0.056 A 
ATOM     17  C   UNL A   1      32.399  25.295  22.346  1.00  0.00     0.124 A 
ATOM     18  C   UNL A   1      31.768  24.553  23.340  1.00  0.00     0.073 A 
ATOM     19  C   UNL A   1      32.085  26.635  22.169  1.00  0.00     0.093 A 
ATOM     20  C   UNL A   1      31.137  27.234  22.999  1.00  0.00     0.124 A 
ATOM     21  C   UNL A   1      30.443  26.459  23.945  1.00  0.00     0.073 A 
BRANCH  17  22
ATOM     22  O   UNL A   1      33.250  24.612  21.522  1.00  0.00    -0.497 OA
ATOM     23  C   UNL A   1      33.317  23.220  21.812  1.00  0.00     0.278 C 
ENDBRANCH  17  22
BRANCH  20  24
ATOM     24  O   UNL A   1      30.797  28.561  22.957  1.00  0.00    -0.497 OA
ATOM     25  C   UNL A   1      29.455  28.849  22.566  1.00  0.00     0.278 C 
ENDBRANCH  20  24
ENDBRANCH  14  16
ENDBRANCH  11  14
ENDBRANCH   6  11
ENDBRANCH   3   5
ENDBRANCH   2   3
ENDBRANCH   1   2
BRANCH   1  26
ATOM     26  C   UNL A   1      38.933  20.610  25.666  1.00  0.00     0.275 C 
BRANCH  26  27
ATOM     27  O   UNL A   1      39.686  19.384  25.747  1.00  0.00    -0.458 OA
BRANCH  27  28
ATOM     28  C   UNL A   1      41.002  19.558  25.997  1.00  0.00     0.338 C 
ATOM     29  O   UNL A   1      41.910  18.810  25.683  1.00  0.00    -0.246 OA
BRANCH  28  30
ATOM     30  C   UNL A   1      41.262  20.879  26.581  1.00  0.00     0.060 A 
ATOM     31  C   UNL A   1      41.759  21.851  25.715  1.00  0.00     0.016 A 
ATOM     32  C   UNL A   1      41.129  21.144  27.943  1.00  0.00     0.016 A 
ATOM     33  C   UNL A   1      42.119  23.104  26.190  1.00  0.00     0.010 A 
ATOM     34  C   UNL A   1      41.487  22.410  28.427  1.00  0.00     0.010 A 
ATOM     35  C   UNL A   1      41.982  23.394  27.552  1.00  0.00    -0.014 A 
BRANCH  35  36
ATOM     36  C   UNL A   1      42.365  24.740  28.033  1.00  0.00     0.031 A 
ATOM     37  C   UNL A   1      43.804  25.080  28.277  1.00  0.00     0.074 A 
ATOM     38  C   UNL A   1      41.408  25.674  28.192  1.00  0.00     0.049 A 
ATOM     39  N   UNL A   1      44.324  26.200  28.712  1.00  0.00    -0.248 NA
ATOM     40  C   UNL A   1      44.791  24.027  27.993  1.00  0.00     0.031 C 
ATOM     41  C   UNL A   1      39.982  25.474  27.927  1.00  0.00     0.029 A 
ATOM     42  N   UNL A   1      41.493  26.981  28.598  1.00  0.00    -0.354 N 
ATOM     43  C   UNL A   1      45.694  25.982  28.771  1.00  0.00     0.074 A 
ATOM     44  C   UNL A   1      45.924  24.619  28.343  1.00  0.00     0.031 C 
ATOM     45  C   UNL A   1      39.329  26.624  28.158  1.00  0.00     0.029 A 
ATOM     46  C   UNL A   1      40.281  27.623  28.633  1.00  0.00     0.049 A 
ATOM     47  H   UNL A   1      42.343  27.416  28.840  1.00  0.00     0.167 HD
ATOM     48  C   UNL A   1      46.669  26.843  29.151  1.00  0.00     0.031 A 
ATOM     49  C   UNL A   1      39.967  28.871  29.024  1.00  0.00     0.031 A 
ATOM     50  C   UNL A   1      46.433  28.198  29.577  1.00  0.00     0.049 A 
ATOM     51  C   UNL A   1      41.060  29.784  29.500  1.00  0.00     0.074 A 
ATOM     52  C   UNL A   1      47.355  29.149  29.979  1.00  0.00     0.029 A 
ATOM     53  N   UNL A   1      45.184  28.795  29.653  1.00  0.00    -0.354 N 
ATOM     54  N   UNL A   1      42.351  29.561  29.564  1.00  0.00    -0.248 NA
ATOM     55  C   UNL A   1      40.653  31.118  29.961  1.00  0.00     0.031 C 
ATOM     56  C   UNL A   1      46.659  30.306  30.345  1.00  0.00     0.029 A 
ATOM     57  C   UNL A   1      45.308  30.093  30.120  1.00  0.00     0.049 A 
ATOM     58  H   UNL A   1      44.335  28.361  29.411  1.00  0.00     0.167 HD
ATOM     59  C   UNL A   1      42.913  30.731  30.056  1.00  0.00     0.074 A 
ATOM     60  C   UNL A   1      41.824  31.667  30.255  1.00  0.00     0.031 C 
ATOM     61  C   UNL A   1      44.213  31.006  30.320  1.00  0.00     0.031 A 
BRANCH  48  62
ATOM     62  C   UNL A   1      48.079  26.326  29.165  1.00  0.00    -0.014 A 
ATOM     63  C   UNL A   1      48.630  25.730  30.310  1.00  0.00     0.009 A 
ATOM     64  C   UNL A   1      48.859  26.408  28.001  1.00  0.00     0.009 A 
ATOM     65  C   UNL A   1      49.944  25.254  30.297  1.00  0.00     0.001 A 
ATOM     66  C   UNL A   1      50.162  25.909  27.982  1.00  0.00     0.001 A 
ATOM     67  C   UNL A   1      50.706  25.340  29.132  1.00  0.00     0.000 A 
ENDBRANCH  48  62
BRANCH  49  68
ATOM     68  C   UNL A   1      38.550  29.318  29.009  1.00  0.00    -0.014 A 
ATOM     69  C   UNL A   1      37.999  29.916  27.867  1.00  0.00     0.009 A 
ATOM     70  C   UNL A   1      37.740  29.143  30.143  1.00  0.00     0.009 A 
ATOM     71  C   UNL A   1      36.670  30.346  27.867  1.00  0.00     0.001 A 
ATOM     72  C   UNL A   1      36.405  29.548  30.130  1.00  0.00     0.001 A 
ATOM     73  C   UNL A   1      35.873  30.156  28.996  1.00  0.00     0.000 A 
ENDBRANCH  49  68
BRANCH  61  74
ATOM     74  C   UNL A   1      44.527  32.383  30.830  1.00  0.00    -0.014 A 
ATOM     75  C   UNL A   1      44.785  33.443  29.948  1.00  0.00     0.009 A 
ATOM     76  C   UNL A   1      44.532  32.628  32.212  1.00  0.00     0.009 A 
ATOM     77  C   UNL A   1      45.076  34.716  30.442  1.00  0.00     0.001 A 
ATOM     78  C   UNL A   1      44.798  33.907  32.702  1.00  0.00     0.001 A 
ATOM     79  C   UNL A   1      45.077  34.948  31.817  1.00  0.00     0.000 A 
ENDBRANCH  61  74
ENDBRANCH  35  36
ENDBRANCH  28  30
ENDBRANCH  27  28
ENDBRANCH  26  27
ENDBRANCH   1  26
TORSDOF 16
ENDMDL
MODEL 2
REMARK VINA RESULT:     -10.8      3.320      8.718
REMARK SMILES COc1cc(NS(=O)(=O)c2cc(C)c(C(=O)OCCOC(=O)c3ccc(-c4c5nc(c(-c6ccccc6)c6ccc([nH]6)c(-c6ccccc6)c6nc(c(-c7ccccc7)c7ccc4[nH]7)C=C6)C=C5)cc3)s2)cc(OC)c1
REMARK SMILES IDX 18 1 17 2 15 3 16 4 14 5 10 6 11 7 71 8 12 9 13 10 7 11 8 12
REMARK SMILES IDX 9 13 6 14 5 16 3 17 4 18 76 19 73 20 72 21 2 22 1 23 74 24
REMARK SMILES IDX 75 25 19 26 20 27 21 28 22 29 23 30 24 31 70 32 25 33 69 34
REMARK SMILES IDX 26 35 27 36 28 37 63 38 29 39 68 40 62 41 64 42 30 43 67 44
REMARK SMILES IDX 61 45 60 46 31 48 53 49 38 50 52 51 39 52 42 53 51 54 65 55
REMARK SMILES IDX 40 56 41 57 50 59 66 60 43 61 32 62 33 63 37 64 34 65 36 66
REMARK SMILES IDX 35 67 54 68 55 69 59 70 56 71 58 72 57 73 44 74 45 75 49 76
REMARK SMILES IDX 46 77 48 78 47 79
REMARK H PARENT 6 15 64 47 42 58
REMARK Flexibility Score: inf
ROOT
ATOM      1  C   UNL A   1      32.447  31.009  26.930  1.00  0.00     0.275 C 
ENDROOT
BRANCH   1   2
ATOM      2  O   UNL A   1      31.553  30.036  26.350  1.00  0.00    -0.458 OA
BRANCH   2   3
ATOM      3  C   UNL A   1      31.646  28.750  26.800  1.00  0.00     0.348 C 
ATOM      4  O   UNL A   1      31.136  28.363  27.846  1.00  0.00    -0.245 OA
BRANCH   3   5
ATOM      5  C   UNL A   1      32.339  27.902  25.831  1.00  0.00     0.116 A 
ATOM      6  C   UNL A   1      32.670  26.662  23.710  1.00  0.00     0.141 A 
ATOM      7  C   UNL A   1      33.859  26.899  24.366  1.00  0.00     0.038 A 
ATOM      8  S   UNL A   1      31.352  26.991  24.735  1.00  0.00    -0.115 S 
ATOM      9  C   UNL A   1      33.690  27.672  25.572  1.00  0.00    -0.024 A 
ATOM     10  C   UNL A   1      34.876  28.175  26.331  1.00  0.00     0.046 C 
BRANCH   6  11
ATOM     11  S   UNL A   1      32.329  26.191  22.028  1.00  0.00     0.271 S 
ATOM     12  O   UNL A   1      33.561  26.353  21.287  1.00  0.00    -0.200 OA
ATOM     13  O   UNL A   1      31.142  26.935  21.663  1.00  0.00    -0.200 OA
BRANCH  11  14
ATOM     14  N   UNL A   1      31.931  24.526  21.963  1.00  0.00    -0.279 N 
ATOM     15  H   UNL A   1      31.411  24.162  21.210  1.00  0.00     0.180 HD
BRANCH  14  16
ATOM     16  C   UNL A   1      32.376  23.672  23.033  1.00  0.00     0.056 A 
ATOM     17  C   UNL A   1      34.128  22.371  24.081  1.00  0.00     0.124 A 
ATOM     18  C   UNL A   1      33.674  23.173  23.038  1.00  0.00     0.073 A 
ATOM     19  C   UNL A   1      33.259  21.977  25.089  1.00  0.00     0.093 A 
ATOM     20  C   UNL A   1      31.926  22.386  25.045  1.00  0.00     0.124 A 
ATOM     21  C   UNL A   1      31.494  23.263  24.035  1.00  0.00     0.073 A 
BRANCH  17  22
ATOM     22  O   UNL A   1      35.466  22.088  24.096  1.00  0.00    -0.497 OA
ATOM     23  C   UNL A   1      36.237  22.973  23.290  1.00  0.00     0.278 C 
ENDBRANCH  17  22
BRANCH  20  24
ATOM     24  O   UNL A   1      30.967  22.005  25.949  1.00  0.00    -0.497 OA
ATOM     25  C   UNL A   1      30.333  23.063  26.667  1.00  0.00     0.278 C 
ENDBRANCH  20  24
ENDBRANCH  14  16
ENDBRANCH  11  14
ENDBRANCH   6  11
ENDBRANCH   3   5
ENDBRANCH   2   3
ENDBRANCH   1   2
BRANCH   1  26
ATOM     26  C   UNL A   1      31.721  32.305  27.312  1.00  0.00     0.275 C 
BRANCH  26  27
ATOM     27  O   UNL A   1      32.545  33.467  27.089  1.00  0.00    -0.458 OA
BRANCH  27  28
ATOM     28  C   UNL A   1      33.036  34.021  28.219  1.00  0.00     0.338 C 
ATOM     29  O   UNL A   1      32.467  34.811  28.951  1.00  0.00    -0.246 OA
BRANCH  28  30
ATOM     30  C   UNL A   1      34.331  33.434  28.581  1.00  0.00     0.060 A 
ATOM     31  C   UNL A   1      34.352  32.640  29.727  1.00  0.00     0.016 A 
ATOM     32  C   UNL A   1      35.511  33.722  27.897  1.00  0.00     0.016 A 
ATOM     33  C   UNL A   1      35.545  32.113  30.199  1.00  0.00     0.010 A 
ATOM     34  C   UNL A   1      36.718  33.188  28.368  1.00  0.00     0.010 A 
ATOM     35  C   UNL A   1      36.739  32.381  29.520  1.00  0.00    -0.014 A 
BRANCH  35  36
ATOM     36  C   UNL A   1      37.997  31.800  30.040  1.00  0.00     0.031 A 
ATOM     37  C   UNL A   1      38.733  32.463  31.165  1.00  0.00     0.074 A 
ATOM     38  C   UNL A   1      38.440  30.637  29.528  1.00  0.00     0.049 A 
ATOM     39  N   UNL A   1      39.855  32.108  31.738  1.00  0.00    -0.248 NA
ATOM     40  C   UNL A   1      38.130  33.683  31.722  1.00  0.00     0.031 C 
ATOM     41  C   UNL A   1      37.773  29.871  28.473  1.00  0.00     0.029 A 
ATOM     42  N   UNL A   1      39.545  29.887  29.838  1.00  0.00    -0.354 N 
ATOM     43  C   UNL A   1      40.103  33.068  32.710  1.00  0.00     0.074 A 
ATOM     44  C   UNL A   1      39.023  34.029  32.640  1.00  0.00     0.031 C 
ATOM     45  C   UNL A   1      38.472  28.750  28.237  1.00  0.00     0.029 A 
ATOM     46  C   UNL A   1      39.658  28.743  29.088  1.00  0.00     0.049 A 
ATOM     47  H   UNL A   1      40.194  30.144  30.533  1.00  0.00     0.167 HD
ATOM     48  C   UNL A   1      41.140  33.138  33.579  1.00  0.00     0.031 A 
ATOM     49  C   UNL A   1      40.621  27.804  29.072  1.00  0.00     0.031 A 
ATOM     50  C   UNL A   1      42.211  32.179  33.644  1.00  0.00     0.049 A 
ATOM     51  C   UNL A   1      41.791  27.941  30.003  1.00  0.00     0.074 A 
ATOM     52  C   UNL A   1      43.305  32.162  34.492  1.00  0.00     0.029 A 
ATOM     53  N   UNL A   1      42.321  31.062  32.828  1.00  0.00    -0.354 N 
ATOM     54  N   UNL A   1      42.020  28.861  30.909  1.00  0.00    -0.248 NA
ATOM     55  C   UNL A   1      42.836  26.913  29.907  1.00  0.00     0.031 C 
ATOM     56  C   UNL A   1      44.102  31.063  34.156  1.00  0.00     0.029 A 
ATOM     57  C   UNL A   1      43.477  30.365  33.135  1.00  0.00     0.049 A 
ATOM     58  H   UNL A   1      41.673  30.805  32.134  1.00  0.00     0.167 HD
ATOM     59  C   UNL A   1      43.226  28.514  31.503  1.00  0.00     0.074 A 
ATOM     60  C   UNL A   1      43.669  27.289  30.867  1.00  0.00     0.031 C 
ATOM     61  C   UNL A   1      43.905  29.153  32.485  1.00  0.00     0.031 A 
BRANCH  48  62
ATOM     62  C   UNL A   1      41.186  34.322  34.503  1.00  0.00    -0.014 A 
ATOM     63  C   UNL A   1      41.828  35.514  34.135  1.00  0.00     0.009 A 
ATOM     64  C   UNL A   1      40.546  34.252  35.750  1.00  0.00     0.009 A 
ATOM     65  C   UNL A   1      41.855  36.603  35.012  1.00  0.00     0.001 A 
ATOM     66  C   UNL A   1      40.552  35.349  36.614  1.00  0.00     0.001 A 
ATOM     67  C   UNL A   1      41.213  36.520  36.247  1.00  0.00     0.000 A 
ENDBRANCH  48  62
BRANCH  49  68
ATOM     68  C   UNL A   1      40.531  26.667  28.119  1.00  0.00    -0.014 A 
ATOM     69  C   UNL A   1      41.127  26.744  26.852  1.00  0.00     0.009 A 
ATOM     70  C   UNL A   1      39.849  25.493  28.480  1.00  0.00     0.009 A 
ATOM     71  C   UNL A   1      41.025  25.676  25.958  1.00  0.00     0.001 A 
ATOM     72  C   UNL A   1      39.774  24.417  27.595  1.00  0.00     0.001 A 
ATOM     73  C   UNL A   1      40.354  24.512  26.332  1.00  0.00     0.000 A 
ENDBRANCH  49  68
BRANCH  61  74
ATOM     74  C   UNL A   1      45.188  28.522  32.946  1.00  0.00    -0.014 A 
ATOM     75  C   UNL A   1      45.198  27.562  33.969  1.00  0.00     0.009 A 
ATOM     76  C   UNL A   1      46.397  28.871  32.326  1.00  0.00     0.009 A 
ATOM     77  C   UNL A   1      46.400  26.987  34.384  1.00  0.00     0.001 A 
ATOM     78  C   UNL A   1      47.594  28.276  32.725  1.00  0.00     0.001 A 
ATOM     79  C   UNL A   1      47.595  27.341  33.760  1.00  0.00     0.000 A 
ENDBRANCH  61  74
ENDBRANCH  35  36
ENDBRANCH  28  30
ENDBRANCH  27  28
ENDBRANCH  26  27
ENDBRANCH   1  26
TORSDOF 16
ENDMDL
MODEL 3
REMARK VINA RESULT:     -10.7      0.608      5.963
REMARK SMILES COc1cc(NS(=O)(=O)c2cc(C)c(C(=O)OCCOC(=O)c3ccc(-c4c5nc(c(-c6ccccc6)c6ccc([nH]6)c(-c6ccccc6)c6nc(c(-c7ccccc7)c7ccc4[nH]7)C=C6)C=C5)cc3)s2)cc(OC)c1
REMARK SMILES IDX 18 1 17 2 15 3 16 4 14 5 10 6 11 7 71 8 12 9 13 10 7 11 8 12
REMARK SMILES IDX 9 13 6 14 5 16 3 17 4 18 76 19 73 20 72 21 2 22 1 23 74 24
REMARK SMILES IDX 75 25 19 26 20 27 21 28 22 29 23 30 24 31 70 32 25 33 69 34
REMARK SMILES IDX 26 35 27 36 28 37 63 38 29 39 68 40 62 41 64 42 30 43 67 44
REMARK SMILES IDX 61 45 60 46 31 48 53 49 38 50 52 51 39 52 42 53 51 54 65 55
REMARK SMILES IDX 40 56 41 57 50 59 66 60 43 61 32 62 33 63 37 64 34 65 36 66
REMARK SMILES IDX 35 67 54 68 55 69 59 70 56 71 58 72 57 73 44 74 45 75 49 76
REMARK SMILES IDX 46 77 48 78 47 79
REMARK H PARENT 6 15 64 47 42 58
REMARK Flexibility Score: inf
ROOT
ATOM      1  C   UNL A   1      37.949  20.817  24.997  1.00  0.00     0.275 C 
ENDROOT
BRANCH   1   2
ATOM      2  O   UNL A   1      36.823  21.381  25.703  1.00  0.00    -0.458 OA
BRANCH   2   3
ATOM      3  C   UNL A   1      36.008  22.229  25.010  1.00  0.00     0.348 C 
ATOM      4  O   UNL A   1      36.400  22.937  24.088  1.00  0.00    -0.245 OA
BRANCH   3   5
ATOM      5  C   UNL A   1      34.619  22.102  25.449  1.00  0.00     0.116 A 
ATOM      6  C   UNL A   1      32.381  22.869  26.189  1.00  0.00     0.141 A 
ATOM      7  C   UNL A   1      32.356  21.577  25.707  1.00  0.00     0.038 A 
ATOM      8  S   UNL A   1      33.985  23.379  26.435  1.00  0.00    -0.115 S 
ATOM      9  C   UNL A   1      33.639  21.136  25.217  1.00  0.00    -0.024 A 
ATOM     10  C   UNL A   1      33.778  19.831  24.503  1.00  0.00     0.046 C 
BRANCH   6  11
ATOM     11  S   UNL A   1      31.073  24.042  26.475  1.00  0.00     0.271 S 
ATOM     12  O   UNL A   1      31.701  25.322  26.722  1.00  0.00    -0.200 OA
ATOM     13  O   UNL A   1      30.228  23.425  27.475  1.00  0.00    -0.200 OA
BRANCH  11  14
ATOM     14  N   UNL A   1      30.136  24.221  25.051  1.00  0.00    -0.279 N 
ATOM     15  H   UNL A   1      29.231  23.839  24.993  1.00  0.00     0.180 HD
BRANCH  14  16
ATOM     16  C   UNL A   1      30.704  24.944  23.943  1.00  0.00     0.056 A 
ATOM     17  C   UNL A   1      32.372  25.126  22.198  1.00  0.00     0.124 A 
ATOM     18  C   UNL A   1      31.831  24.455  23.290  1.00  0.00     0.073 A 
ATOM     19  C   UNL A   1      31.851  26.349  21.800  1.00  0.00     0.093 A 
ATOM     20  C   UNL A   1      30.784  26.903  22.507  1.00  0.00     0.124 A 
ATOM     21  C   UNL A   1      30.188  26.183  23.557  1.00  0.00     0.073 A 
BRANCH  17  22
ATOM     22  O   UNL A   1      33.356  24.474  21.508  1.00  0.00    -0.497 OA
ATOM     23  C   UNL A   1      33.602  23.156  21.989  1.00  0.00     0.278 C 
ENDBRANCH  17  22
BRANCH  20  24
ATOM     24  O   UNL A   1      30.233  28.131  22.244  1.00  0.00    -0.497 OA
ATOM     25  C   UNL A   1      30.180  29.039  23.343  1.00  0.00     0.278 C 
ENDBRANCH  20  24
ENDBRANCH  14  16
ENDBRANCH  11  14
ENDBRANCH   6  11
ENDBRANCH   3   5
ENDBRANCH   2   3
ENDBRANCH   1   2
BRANCH   1  26
ATOM     26  C   UNL A   1      39.265  21.009  25.760  1.00  0.00     0.275 C 
BRANCH  26  27
ATOM     27  O   UNL A   1      39.925  19.753  26.017  1.00  0.00    -0.458 OA
BRANCH  27  28
ATOM     28  C   UNL A   1      41.273  19.829  26.023  1.00  0.00     0.338 C 
ATOM     29  O   UNL A   1      42.052  19.004  25.580  1.00  0.00    -0.246 OA
BRANCH  28  30
ATOM     30  C   UNL A   1      41.731  21.138  26.502  1.00  0.00     0.060 A 
ATOM     31  C   UNL A   1      41.628  21.366  27.873  1.00  0.00     0.016 A 
ATOM     32  C   UNL A   1      42.149  22.154  25.644  1.00  0.00     0.016 A 
ATOM     33  C   UNL A   1      41.952  22.602  28.410  1.00  0.00     0.010 A 
ATOM     34  C   UNL A   1      42.482  23.404  26.183  1.00  0.00     0.010 A 
ATOM     35  C   UNL A   1      42.385  23.632  27.568  1.00  0.00    -0.014 A 
BRANCH  35  36
ATOM     36  C   UNL A   1      42.733  24.940  28.167  1.00  0.00     0.031 A 
ATOM     37  C   UNL A   1      41.677  25.981  28.388  1.00  0.00     0.074 A 
ATOM     38  C   UNL A   1      44.000  25.161  28.564  1.00  0.00     0.049 A 
ATOM     39  N   UNL A   1      41.798  27.186  28.884  1.00  0.00    -0.248 NA
ATOM     40  C   UNL A   1      40.303  25.621  28.005  1.00  0.00     0.031 C 
ATOM     41  C   UNL A   1      45.099  24.199  28.454  1.00  0.00     0.029 A 
ATOM     42  N   UNL A   1      44.573  26.257  29.156  1.00  0.00    -0.354 N 
ATOM     43  C   UNL A   1      40.523  27.735  28.857  1.00  0.00     0.074 A 
ATOM     44  C   UNL A   1      39.645  26.739  28.282  1.00  0.00     0.031 C 
ATOM     45  C   UNL A   1      46.209  24.740  28.980  1.00  0.00     0.029 A 
ATOM     46  C   UNL A   1      45.912  26.100  29.417  1.00  0.00     0.049 A 
ATOM     47  H   UNL A   1      44.073  27.077  29.372  1.00  0.00     0.167 HD
ATOM     48  C   UNL A   1      40.125  28.962  29.274  1.00  0.00     0.031 A 
ATOM     49  C   UNL A   1      46.806  26.964  29.933  1.00  0.00     0.031 A 
ATOM     50  C   UNL A   1      41.004  29.949  29.846  1.00  0.00     0.049 A 
ATOM     51  C   UNL A   1      46.349  28.339  30.328  1.00  0.00     0.074 A 
ATOM     52  C   UNL A   1      40.695  31.219  30.300  1.00  0.00     0.029 A 
ATOM     53  N   UNL A   1      42.366  29.774  30.043  1.00  0.00    -0.354 N 
ATOM     54  N   UNL A   1      45.142  28.851  30.285  1.00  0.00    -0.248 NA
ATOM     55  C   UNL A   1      47.377  29.255  30.839  1.00  0.00     0.031 C 
ATOM     56  C   UNL A   1      41.879  31.831  30.727  1.00  0.00     0.029 A 
ATOM     57  C   UNL A   1      42.916  30.922  30.588  1.00  0.00     0.049 A 
ATOM     58  H   UNL A   1      42.867  28.955  29.826  1.00  0.00     0.167 HD
ATOM     59  C   UNL A   1      45.262  30.143  30.779  1.00  0.00     0.074 A 
ATOM     60  C   UNL A   1      46.656  30.328  31.133  1.00  0.00     0.031 C 
ATOM     61  C   UNL A   1      44.305  31.090  30.925  1.00  0.00     0.031 A 
BRANCH  48  62
ATOM     62  C   UNL A   1      38.679  29.319  29.084  1.00  0.00    -0.014 A 
ATOM     63  C   UNL A   1      38.197  29.796  27.856  1.00  0.00     0.009 A 
ATOM     64  C   UNL A   1      37.777  29.143  30.145  1.00  0.00     0.009 A 
ATOM     65  C   UNL A   1      36.846  30.119  27.703  1.00  0.00     0.001 A 
ATOM     66  C   UNL A   1      36.423  29.442  29.983  1.00  0.00     0.001 A 
ATOM     67  C   UNL A   1      35.960  29.938  28.765  1.00  0.00     0.000 A 
ENDBRANCH  48  62
BRANCH  49  68
ATOM     68  C   UNL A   1      48.228  26.560  30.076  1.00  0.00    -0.014 A 
ATOM     69  C   UNL A   1      48.680  25.925  31.242  1.00  0.00     0.009 A 
ATOM     70  C   UNL A   1      49.142  26.807  29.038  1.00  0.00     0.009 A 
ATOM     71  C   UNL A   1      50.022  25.562  31.372  1.00  0.00     0.001 A 
ATOM     72  C   UNL A   1      50.476  26.417  29.161  1.00  0.00     0.001 A 
ATOM     73  C   UNL A   1      50.917  25.803  30.330  1.00  0.00     0.000 A 
ENDBRANCH  49  68
BRANCH  61  74
ATOM     74  C   UNL A   1      44.734  32.403  31.515  1.00  0.00    -0.014 A 
ATOM     75  C   UNL A   1      44.731  32.612  32.902  1.00  0.00     0.009 A 
ATOM     76  C   UNL A   1      45.176  33.434  30.671  1.00  0.00     0.009 A 
ATOM     77  C   UNL A   1      45.131  33.840  33.431  1.00  0.00     0.001 A 
ATOM     78  C   UNL A   1      45.600  34.651  31.204  1.00  0.00     0.001 A 
ATOM     79  C   UNL A   1      45.569  34.856  32.583  1.00  0.00     0.000 A 
ENDBRANCH  61  74
ENDBRANCH  35  36
ENDBRANCH  28  30
ENDBRANCH  27  28
ENDBRANCH  26  27
ENDBRANCH   1  26
TORSDOF 16
ENDMDL
