MODEL 1
REMARK VINA RESULT:     -12.7      0.000      0.000
REMARK SMILES O=C(OCCOC(=O)c1ccn(-c2cc(-c3ccncc3)nc(-c3ccccc3F)n2)n1)c1ccc(-c2c3nc(c(-c4ccccc4)c4ccc([nH]4)c(-c4ccccc4)c4nc(c(-c5ccccc5)c5ccc2[nH]5)C=C4)C=C3)cc1
REMARK SMILES IDX 4 1 3 2 2 3 1 4 33 5 34 6 80 7 35 8 79 9 36 10 37 11 38 12
REMARK SMILES IDX 73 13 39 14 78 15 72 16 74 17 40 18 77 19 71 20 70 21 41 23
REMARK SMILES IDX 63 24 48 25 62 26 49 27 52 28 61 29 75 30 50 31 51 32 60 34
REMARK SMILES IDX 76 35 53 36 42 37 43 38 47 39 44 40 46 41 45 42 64 43 65 44
REMARK SMILES IDX 69 45 66 46 68 47 67 48 54 49 55 50 59 51 56 52 58 53 57 54
REMARK SMILES IDX 5 55 6 56 7 57 8 58 9 59 10 60 32 61 11 62 12 63 13 64 14 65
REMARK SMILES IDX 31 66 15 67 23 68 22 69 16 70 17 71 21 72 18 73 20 74 19 75
REMARK SMILES IDX 24 76 25 77 29 78 26 79 28 80 30 81 27 82
REMARK H PARENT 74 22 52 33
REMARK Flexibility Score: inf
ROOT
ATOM      1  C   UNL A   1      42.763  23.036  29.169  1.00  0.00     0.275 C 
ENDROOT
BRANCH   1   2
ATOM      2  O   UNL A   1      43.719  23.600  30.089  1.00  0.00    -0.458 OA
BRANCH   2   3
ATOM      3  C   UNL A   1      44.477  24.661  29.737  1.00  0.00     0.338 C 
ATOM      4  O   UNL A   1      45.619  24.550  29.315  1.00  0.00    -0.246 OA
BRANCH   3   5
ATOM      5  C   UNL A   1      43.725  25.938  29.629  1.00  0.00     0.060 A 
ATOM      6  C   UNL A   1      43.145  26.414  28.446  1.00  0.00     0.016 A 
ATOM      7  C   UNL A   1      43.581  26.675  30.809  1.00  0.00     0.016 A 
ATOM      8  C   UNL A   1      42.492  27.642  28.425  1.00  0.00     0.010 A 
ATOM      9  C   UNL A   1      42.907  27.886  30.795  1.00  0.00     0.010 A 
ATOM     10  C   UNL A   1      42.386  28.389  29.600  1.00  0.00    -0.014 A 
BRANCH  10  11
ATOM     11  C   UNL A   1      41.605  29.633  29.593  1.00  0.00     0.031 A 
ATOM     12  C   UNL A   1      42.388  30.901  29.384  1.00  0.00     0.074 A 
ATOM     13  C   UNL A   1      40.248  29.594  29.607  1.00  0.00     0.049 A 
ATOM     14  N   UNL A   1      42.140  32.072  29.866  1.00  0.00    -0.248 NA
ATOM     15  C   UNL A   1      43.607  30.892  28.550  1.00  0.00     0.031 C 
ATOM     16  C   UNL A   1      39.406  28.385  29.595  1.00  0.00     0.029 A 
ATOM     17  N   UNL A   1      39.319  30.596  29.518  1.00  0.00    -0.354 N 
ATOM     18  C   UNL A   1      43.055  32.963  29.294  1.00  0.00     0.074 A 
ATOM     19  C   UNL A   1      43.928  32.186  28.463  1.00  0.00     0.031 C 
ATOM     20  C   UNL A   1      38.140  28.710  29.256  1.00  0.00     0.029 A 
ATOM     21  C   UNL A   1      38.032  30.155  29.206  1.00  0.00     0.049 A 
ATOM     22  H   UNL A   1      39.540  31.545  29.663  1.00  0.00     0.167 HD
ATOM     23  C   UNL A   1      42.927  34.303  29.487  1.00  0.00     0.031 A 
ATOM     24  C   UNL A   1      36.929  30.898  28.938  1.00  0.00     0.031 A 
ATOM     25  C   UNL A   1      42.223  34.558  30.713  1.00  0.00     0.049 A 
ATOM     26  C   UNL A   1      37.115  32.216  29.577  1.00  0.00     0.074 A 
ATOM     27  C   UNL A   1      42.592  34.548  32.039  1.00  0.00     0.029 A 
ATOM     28  N   UNL A   1      40.858  34.441  30.653  1.00  0.00    -0.354 N 
ATOM     29  N   UNL A   1      37.247  32.365  30.864  1.00  0.00    -0.248 NA
ATOM     30  C   UNL A   1      37.467  33.382  28.780  1.00  0.00     0.031 C 
ATOM     31  C   UNL A   1      41.424  34.184  32.765  1.00  0.00     0.029 A 
ATOM     32  C   UNL A   1      40.356  34.069  31.877  1.00  0.00     0.049 A 
ATOM     33  H   UNL A   1      40.314  34.601  29.847  1.00  0.00     0.167 HD
ATOM     34  C   UNL A   1      38.142  33.408  30.986  1.00  0.00     0.074 A 
ATOM     35  C   UNL A   1      38.104  34.103  29.707  1.00  0.00     0.031 C 
ATOM     36  C   UNL A   1      39.062  33.428  31.989  1.00  0.00     0.031 A 
BRANCH  23  37
ATOM     37  C   UNL A   1      43.073  35.365  28.423  1.00  0.00    -0.014 A 
ATOM     38  C   UNL A   1      44.244  36.151  28.429  1.00  0.00     0.009 A 
ATOM     39  C   UNL A   1      42.003  35.846  27.652  1.00  0.00     0.009 A 
ATOM     40  C   UNL A   1      44.288  37.414  27.826  1.00  0.00     0.001 A 
ATOM     41  C   UNL A   1      42.034  37.119  27.063  1.00  0.00     0.001 A 
ATOM     42  C   UNL A   1      43.166  37.916  27.179  1.00  0.00     0.000 A 
ENDBRANCH  23  37
BRANCH  24  43
ATOM     43  C   UNL A   1      35.780  30.603  28.047  1.00  0.00    -0.014 A 
ATOM     44  C   UNL A   1      35.644  29.346  27.434  1.00  0.00     0.009 A 
ATOM     45  C   UNL A   1      34.665  31.459  28.022  1.00  0.00     0.009 A 
ATOM     46  C   UNL A   1      34.419  28.935  26.887  1.00  0.00     0.001 A 
ATOM     47  C   UNL A   1      33.440  31.048  27.481  1.00  0.00     0.001 A 
ATOM     48  C   UNL A   1      33.312  29.778  26.932  1.00  0.00     0.000 A 
ENDBRANCH  24  43
BRANCH  36  49
ATOM     49  C   UNL A   1      38.764  32.616  33.219  1.00  0.00    -0.014 A 
ATOM     50  C   UNL A   1      38.014  33.078  34.314  1.00  0.00     0.009 A 
ATOM     51  C   UNL A   1      39.246  31.299  33.252  1.00  0.00     0.009 A 
ATOM     52  C   UNL A   1      37.793  32.255  35.425  1.00  0.00     0.001 A 
ATOM     53  C   UNL A   1      39.003  30.469  34.346  1.00  0.00     0.001 A 
ATOM     54  C   UNL A   1      38.287  30.952  35.438  1.00  0.00     0.000 A 
ENDBRANCH  36  49
ENDBRANCH  10  11
ENDBRANCH   3   5
ENDBRANCH   2   3
ENDBRANCH   1   2
BRANCH   1  55
ATOM     55  C   UNL A   1      43.308  22.457  27.863  1.00  0.00     0.275 C 
BRANCH  55  56
ATOM     56  O   UNL A   1      42.522  22.892  26.736  1.00  0.00    -0.457 OA
BRANCH  56  57
ATOM     57  C   UNL A   1      41.564  22.010  26.301  1.00  0.00     0.358 C 
ATOM     58  O   UNL A   1      41.798  20.949  25.754  1.00  0.00    -0.244 OA
BRANCH  57  59
ATOM     59  C   UNL A   1      40.207  22.557  26.426  1.00  0.00     0.170 A 
ATOM     60  C   UNL A   1      39.933  23.869  26.875  1.00  0.00     0.058 A 
ATOM     61  N   UNL A   1      39.069  21.905  26.088  1.00  0.00    -0.159 NA
ATOM     62  C   UNL A   1      38.601  24.055  26.626  1.00  0.00     0.118 A 
ATOM     63  N   UNL A   1      38.116  22.881  26.087  1.00  0.00    -0.222 N 
BRANCH  63  64
ATOM     64  C   UNL A   1      36.765  22.707  25.646  1.00  0.00     0.158 A 
ATOM     65  C   UNL A   1      36.356  21.532  25.036  1.00  0.00     0.078 A 
ATOM     66  N   UNL A   1      35.904  23.701  25.970  1.00  0.00    -0.209 NA
ATOM     67  C   UNL A   1      34.986  21.354  24.952  1.00  0.00     0.077 A 
ATOM     68  C   UNL A   1      34.616  23.487  25.690  1.00  0.00     0.165 A 
ATOM     69  N   UNL A   1      34.119  22.337  25.236  1.00  0.00    -0.228 NA
BRANCH  67  70
ATOM     70  C   UNL A   1      34.291  20.072  24.799  1.00  0.00     0.003 A 
ATOM     71  C   UNL A   1      35.061  18.934  24.536  1.00  0.00     0.030 A 
ATOM     72  C   UNL A   1      32.965  19.870  25.166  1.00  0.00     0.030 A 
ATOM     73  C   UNL A   1      34.510  17.672  24.629  1.00  0.00     0.111 A 
ATOM     74  C   UNL A   1      32.499  18.564  25.259  1.00  0.00     0.111 A 
ATOM     75  N   UNL A   1      33.236  17.463  24.991  1.00  0.00    -0.265 NA
ENDBRANCH  67  70
BRANCH  68  76
ATOM     76  C   UNL A   1      33.728  24.623  25.588  1.00  0.00     0.055 A 
ATOM     77  C   UNL A   1      33.968  25.595  24.602  1.00  0.00     0.015 A 
ATOM     78  C   UNL A   1      32.556  24.709  26.341  1.00  0.00     0.134 A 
ATOM     79  C   UNL A   1      33.042  26.607  24.360  1.00  0.00     0.001 A 
ATOM     80  C   UNL A   1      31.632  25.725  26.112  1.00  0.00     0.040 A 
ATOM     81  F   UNL A   1      32.290  23.797  27.289  1.00  0.00    -0.206 F 
ATOM     82  C   UNL A   1      31.872  26.669  25.113  1.00  0.00     0.003 A 
ENDBRANCH  68  76
ENDBRANCH  63  64
ENDBRANCH  57  59
ENDBRANCH  56  57
ENDBRANCH  55  56
ENDBRANCH   1  55
TORSDOF 14
ENDMDL
MODEL 2
REMARK VINA RESULT:     -12.7      4.247      9.531
REMARK SMILES O=C(OCCOC(=O)c1ccn(-c2cc(-c3ccncc3)nc(-c3ccccc3F)n2)n1)c1ccc(-c2c3nc(c(-c4ccccc4)c4ccc([nH]4)c(-c4ccccc4)c4nc(c(-c5ccccc5)c5ccc2[nH]5)C=C4)C=C3)cc1
REMARK SMILES IDX 4 1 3 2 2 3 1 4 33 5 34 6 80 7 35 8 79 9 36 10 37 11 38 12
REMARK SMILES IDX 73 13 39 14 78 15 72 16 74 17 40 18 77 19 71 20 70 21 41 23
REMARK SMILES IDX 63 24 48 25 62 26 49 27 52 28 61 29 75 30 50 31 51 32 60 34
REMARK SMILES IDX 76 35 53 36 42 37 43 38 47 39 44 40 46 41 45 42 64 43 65 44
REMARK SMILES IDX 69 45 66 46 68 47 67 48 54 49 55 50 59 51 56 52 58 53 57 54
REMARK SMILES IDX 5 55 6 56 7 57 8 58 9 59 10 60 32 61 11 62 12 63 13 64 14 65
REMARK SMILES IDX 31 66 15 67 23 68 22 69 16 70 17 71 21 72 18 73 20 74 19 75
REMARK SMILES IDX 24 76 25 77 29 78 26 79 28 80 30 81 27 82
REMARK H PARENT 74 22 52 33
REMARK Flexibility Score: inf
ROOT
ATOM      1  C   UNL A   1      37.348  33.559  29.102  1.00  0.00     0.275 C 
ENDROOT
BRANCH   1   2
ATOM      2  O   UNL A   1      38.697  33.956  29.421  1.00  0.00    -0.458 OA
BRANCH   2   3
ATOM      3  C   UNL A   1      39.299  33.525  30.550  1.00  0.00     0.338 C 
ATOM      4  O   UNL A   1      39.220  34.123  31.614  1.00  0.00    -0.246 OA
BRANCH   3   5
ATOM      5  C   UNL A   1      39.815  32.133  30.473  1.00  0.00     0.060 A 
ATOM      6  C   UNL A   1      39.047  30.991  30.732  1.00  0.00     0.016 A 
ATOM      7  C   UNL A   1      41.151  31.989  30.086  1.00  0.00     0.016 A 
ATOM      8  C   UNL A   1      39.623  29.727  30.675  1.00  0.00     0.010 A 
ATOM      9  C   UNL A   1      41.719  30.727  30.003  1.00  0.00     0.010 A 
ATOM     10  C   UNL A   1      40.968  29.594  30.325  1.00  0.00    -0.014 A 
BRANCH  10  11
ATOM     11  C   UNL A   1      41.540  28.251  30.165  1.00  0.00     0.031 A 
ATOM     12  C   UNL A   1      42.367  27.745  31.317  1.00  0.00     0.074 A 
ATOM     13  C   UNL A   1      41.189  27.474  29.109  1.00  0.00     0.049 A 
ATOM     14  N   UNL A   1      43.390  26.960  31.272  1.00  0.00    -0.248 NA
ATOM     15  C   UNL A   1      42.044  28.156  32.699  1.00  0.00     0.031 C 
ATOM     16  C   UNL A   1      40.221  27.817  28.052  1.00  0.00     0.029 A 
ATOM     17  N   UNL A   1      41.513  26.181  28.796  1.00  0.00    -0.354 N 
ATOM     18  C   UNL A   1      43.745  26.658  32.591  1.00  0.00     0.074 A 
ATOM     19  C   UNL A   1      42.862  27.404  33.441  1.00  0.00     0.031 C 
ATOM     20  C   UNL A   1      39.855  26.702  27.384  1.00  0.00     0.029 A 
ATOM     21  C   UNL A   1      40.688  25.602  27.831  1.00  0.00     0.049 A 
ATOM     22  H   UNL A   1      42.265  25.701  29.215  1.00  0.00     0.167 HD
ATOM     23  C   UNL A   1      44.688  25.715  32.854  1.00  0.00     0.031 A 
ATOM     24  C   UNL A   1      40.675  24.318  27.394  1.00  0.00     0.031 A 
ATOM     25  C   UNL A   1      45.583  25.589  31.737  1.00  0.00     0.049 A 
ATOM     26  C   UNL A   1      42.014  23.749  27.645  1.00  0.00     0.074 A 
ATOM     27  C   UNL A   1      46.655  26.330  31.292  1.00  0.00     0.029 A 
ATOM     28  N   UNL A   1      45.126  24.835  30.687  1.00  0.00    -0.354 N 
ATOM     29  N   UNL A   1      43.097  24.222  27.096  1.00  0.00    -0.248 NA
ATOM     30  C   UNL A   1      42.232  22.832  28.753  1.00  0.00     0.031 C 
ATOM     31  C   UNL A   1      46.678  26.170  29.879  1.00  0.00     0.029 A 
ATOM     32  C   UNL A   1      45.680  25.271  29.508  1.00  0.00     0.049 A 
ATOM     33  H   UNL A   1      44.491  24.085  30.767  1.00  0.00     0.167 HD
ATOM     34  C   UNL A   1      44.057  24.070  28.075  1.00  0.00     0.074 A 
ATOM     35  C   UNL A   1      43.527  23.064  28.984  1.00  0.00     0.031 C 
ATOM     36  C   UNL A   1      45.045  24.993  28.237  1.00  0.00     0.031 A 
BRANCH  23  37
ATOM     37  C   UNL A   1      44.592  24.643  33.914  1.00  0.00    -0.014 A 
ATOM     38  C   UNL A   1      45.548  24.651  34.950  1.00  0.00     0.009 A 
ATOM     39  C   UNL A   1      43.845  23.464  33.763  1.00  0.00     0.009 A 
ATOM     40  C   UNL A   1      45.844  23.498  35.690  1.00  0.00     0.001 A 
ATOM     41  C   UNL A   1      44.151  22.302  34.486  1.00  0.00     0.001 A 
ATOM     42  C   UNL A   1      45.173  22.311  35.427  1.00  0.00     0.000 A 
ENDBRANCH  23  37
BRANCH  24  43
ATOM     43  C   UNL A   1      39.543  23.496  26.900  1.00  0.00    -0.014 A 
ATOM     44  C   UNL A   1      38.331  24.091  26.512  1.00  0.00     0.009 A 
ATOM     45  C   UNL A   1      39.748  22.152  26.539  1.00  0.00     0.009 A 
ATOM     46  C   UNL A   1      37.398  23.392  25.731  1.00  0.00     0.001 A 
ATOM     47  C   UNL A   1      38.820  21.456  25.755  1.00  0.00     0.001 A 
ATOM     48  C   UNL A   1      37.654  22.083  25.334  1.00  0.00     0.000 A 
ENDBRANCH  24  43
BRANCH  36  49
ATOM     49  C   UNL A   1      45.381  25.862  27.057  1.00  0.00    -0.014 A 
ATOM     50  C   UNL A   1      46.324  25.531  26.069  1.00  0.00     0.009 A 
ATOM     51  C   UNL A   1      44.679  27.069  26.927  1.00  0.00     0.009 A 
ATOM     52  C   UNL A   1      46.582  26.406  25.008  1.00  0.00     0.001 A 
ATOM     53  C   UNL A   1      44.915  27.929  25.855  1.00  0.00     0.001 A 
ATOM     54  C   UNL A   1      45.877  27.603  24.902  1.00  0.00     0.000 A 
ENDBRANCH  36  49
ENDBRANCH  10  11
ENDBRANCH   3   5
ENDBRANCH   2   3
ENDBRANCH   1   2
BRANCH   1  55
ATOM     55  C   UNL A   1      36.381  33.373  30.272  1.00  0.00     0.275 C 
BRANCH  55  56
ATOM     56  O   UNL A   1      35.443  32.312  30.005  1.00  0.00    -0.457 OA
BRANCH  56  57
ATOM     57  C   UNL A   1      34.702  32.447  28.856  1.00  0.00     0.358 C 
ATOM     58  O   UNL A   1      33.976  33.391  28.607  1.00  0.00    -0.244 OA
BRANCH  57  59
ATOM     59  C   UNL A   1      34.758  31.244  28.015  1.00  0.00     0.170 A 
ATOM     60  C   UNL A   1      35.863  30.364  27.984  1.00  0.00     0.058 A 
ATOM     61  N   UNL A   1      33.758  30.807  27.212  1.00  0.00    -0.159 NA
ATOM     62  C   UNL A   1      35.429  29.279  27.275  1.00  0.00     0.118 A 
ATOM     63  N   UNL A   1      34.133  29.539  26.878  1.00  0.00    -0.222 N 
BRANCH  63  64
ATOM     64  C   UNL A   1      33.322  28.608  26.154  1.00  0.00     0.158 A 
ATOM     65  C   UNL A   1      32.041  28.943  25.741  1.00  0.00     0.078 A 
ATOM     66  N   UNL A   1      33.922  27.447  25.800  1.00  0.00    -0.209 NA
ATOM     67  C   UNL A   1      31.487  28.106  24.789  1.00  0.00     0.077 A 
ATOM     68  C   UNL A   1      33.224  26.634  25.005  1.00  0.00     0.165 A 
ATOM     69  N   UNL A   1      32.052  26.937  24.450  1.00  0.00    -0.228 NA
BRANCH  67  70
ATOM     70  C   UNL A   1      30.404  28.450  23.863  1.00  0.00     0.003 A 
ATOM     71  C   UNL A   1      29.313  27.578  23.776  1.00  0.00     0.030 A 
ATOM     72  C   UNL A   1      30.261  29.704  23.281  1.00  0.00     0.030 A 
ATOM     73  C   UNL A   1      28.156  27.957  23.125  1.00  0.00     0.111 A 
ATOM     74  C   UNL A   1      29.053  30.012  22.667  1.00  0.00     0.111 A 
ATOM     75  N   UNL A   1      28.003  29.166  22.567  1.00  0.00    -0.265 NA
ENDBRANCH  67  70
BRANCH  68  76
ATOM     76  C   UNL A   1      33.587  25.235  24.949  1.00  0.00     0.055 A 
ATOM     77  C   UNL A   1      33.451  24.445  26.103  1.00  0.00     0.015 A 
ATOM     78  C   UNL A   1      33.928  24.612  23.748  1.00  0.00     0.134 A 
ATOM     79  C   UNL A   1      33.624  23.064  26.045  1.00  0.00     0.001 A 
ATOM     80  C   UNL A   1      34.114  23.234  23.685  1.00  0.00     0.040 A 
ATOM     81  F   UNL A   1      34.063  25.333  22.624  1.00  0.00    -0.206 F 
ATOM     82  C   UNL A   1      33.951  22.458  24.833  1.00  0.00     0.003 A 
ENDBRANCH  68  76
ENDBRANCH  63  64
ENDBRANCH  57  59
ENDBRANCH  56  57
ENDBRANCH  55  56
ENDBRANCH   1  55
TORSDOF 14
ENDMDL
MODEL 3
REMARK VINA RESULT:     -12.5      4.052      8.501
REMARK SMILES O=C(OCCOC(=O)c1ccn(-c2cc(-c3ccncc3)nc(-c3ccccc3F)n2)n1)c1ccc(-c2c3nc(c(-c4ccccc4)c4ccc([nH]4)c(-c4ccccc4)c4nc(c(-c5ccccc5)c5ccc2[nH]5)C=C4)C=C3)cc1
REMARK SMILES IDX 4 1 3 2 2 3 1 4 33 5 34 6 80 7 35 8 79 9 36 10 37 11 38 12
REMARK SMILES IDX 73 13 39 14 78 15 72 16 74 17 40 18 77 19 71 20 70 21 41 23
REMARK SMILES IDX 63 24 48 25 62 26 49 27 52 28 61 29 75 30 50 31 51 32 60 34
REMARK SMILES IDX 76 35 53 36 42 37 43 38 47 39 44 40 46 41 45 42 64 43 65 44
REMARK SMILES IDX 69 45 66 46 68 47 67 48 54 49 55 50 59 51 56 52 58 53 57 54
REMARK SMILES IDX 5 55 6 56 7 57 8 58 9 59 10 60 32 61 11 62 12 63 13 64 14 65
REMARK SMILES IDX 31 66 15 67 23 68 22 69 16 70 17 71 21 72 18 73 20 74 19 75
REMARK SMILES IDX 24 76 25 77 29 78 26 79 28 80 30 81 27 82
REMARK H PARENT 74 22 52 33
REMARK Flexibility Score: inf
ROOT
ATOM      1  C   UNL A   1      33.071  30.296  27.274  1.00  0.00     0.275 C 
ENDROOT
BRANCH   1   2
ATOM      2  O   UNL A   1      34.362  30.932  27.184  1.00  0.00    -0.458 OA
BRANCH   2   3
ATOM      3  C   UNL A   1      34.965  31.438  28.282  1.00  0.00     0.338 C 
ATOM      4  O   UNL A   1      34.390  32.166  29.078  1.00  0.00    -0.246 OA
BRANCH   3   5
ATOM      5  C   UNL A   1      36.276  30.814  28.599  1.00  0.00     0.060 A 
ATOM      6  C   UNL A   1      37.445  31.533  28.877  1.00  0.00     0.016 A 
ATOM      7  C   UNL A   1      36.304  29.417  28.643  1.00  0.00     0.016 A 
ATOM      8  C   UNL A   1      38.641  30.868  29.125  1.00  0.00     0.010 A 
ATOM      9  C   UNL A   1      37.489  28.753  28.917  1.00  0.00     0.010 A 
ATOM     10  C   UNL A   1      38.667  29.472  29.129  1.00  0.00    -0.014 A 
BRANCH  10  11
ATOM     11  C   UNL A   1      39.909  28.778  29.495  1.00  0.00     0.031 A 
ATOM     12  C   UNL A   1      40.236  28.743  30.964  1.00  0.00     0.074 A 
ATOM     13  C   UNL A   1      40.607  28.079  28.565  1.00  0.00     0.049 A 
ATOM     14  N   UNL A   1      41.402  28.748  31.516  1.00  0.00    -0.248 NA
ATOM     15  C   UNL A   1      39.150  28.709  31.965  1.00  0.00     0.031 C 
ATOM     16  C   UNL A   1      40.237  27.889  27.151  1.00  0.00     0.029 A 
ATOM     17  N   UNL A   1      41.722  27.293  28.680  1.00  0.00    -0.354 N 
ATOM     18  C   UNL A   1      41.217  28.568  32.891  1.00  0.00     0.074 A 
ATOM     19  C   UNL A   1      39.801  28.522  33.117  1.00  0.00     0.031 C 
ATOM     20  C   UNL A   1      40.946  26.869  26.623  1.00  0.00     0.029 A 
ATOM     21  C   UNL A   1      41.944  26.452  27.589  1.00  0.00     0.049 A 
ATOM     22  H   UNL A   1      42.316  27.319  29.466  1.00  0.00     0.167 HD
ATOM     23  C   UNL A   1      42.282  28.364  33.710  1.00  0.00     0.031 A 
ATOM     24  C   UNL A   1      42.884  25.484  27.448  1.00  0.00     0.031 A 
ATOM     25  C   UNL A   1      43.465  28.937  33.132  1.00  0.00     0.049 A 
ATOM     26  C   UNL A   1      44.002  25.815  28.354  1.00  0.00     0.074 A 
ATOM     27  C   UNL A   1      43.956  30.221  33.052  1.00  0.00     0.029 A 
ATOM     28  N   UNL A   1      44.076  28.190  32.158  1.00  0.00    -0.354 N 
ATOM     29  N   UNL A   1      44.704  26.906  28.240  1.00  0.00    -0.248 NA
ATOM     30  C   UNL A   1      44.180  25.093  29.604  1.00  0.00     0.031 C 
ATOM     31  C   UNL A   1      44.708  30.276  31.847  1.00  0.00     0.029 A 
ATOM     32  C   UNL A   1      44.732  29.008  31.269  1.00  0.00     0.049 A 
ATOM     33  H   UNL A   1      44.050  27.207  32.103  1.00  0.00     0.167 HD
ATOM     34  C   UNL A   1      44.993  27.251  29.545  1.00  0.00     0.074 A 
ATOM     35  C   UNL A   1      44.811  26.030  30.317  1.00  0.00     0.031 C 
ATOM     36  C   UNL A   1      45.045  28.555  29.930  1.00  0.00     0.031 A 
BRANCH  23  37
ATOM     37  C   UNL A   1      42.360  27.335  34.815  1.00  0.00    -0.014 A 
ATOM     38  C   UNL A   1      42.570  25.989  34.450  1.00  0.00     0.009 A 
ATOM     39  C   UNL A   1      41.911  27.565  36.125  1.00  0.00     0.009 A 
ATOM     40  C   UNL A   1      42.207  24.932  35.294  1.00  0.00     0.001 A 
ATOM     41  C   UNL A   1      41.527  26.509  36.966  1.00  0.00     0.001 A 
ATOM     42  C   UNL A   1      41.645  25.194  36.537  1.00  0.00     0.000 A 
ENDBRANCH  23  37
BRANCH  24  43
ATOM     43  C   UNL A   1      42.828  24.210  26.689  1.00  0.00    -0.014 A 
ATOM     44  C   UNL A   1      43.113  24.174  25.314  1.00  0.00     0.009 A 
ATOM     45  C   UNL A   1      42.771  22.982  27.371  1.00  0.00     0.009 A 
ATOM     46  C   UNL A   1      43.405  22.964  24.666  1.00  0.00     0.001 A 
ATOM     47  C   UNL A   1      43.067  21.774  26.726  1.00  0.00     0.001 A 
ATOM     48  C   UNL A   1      43.405  21.768  25.378  1.00  0.00     0.000 A 
ENDBRANCH  24  43
BRANCH  36  49
ATOM     49  C   UNL A   1      45.301  29.583  28.862  1.00  0.00    -0.014 A 
ATOM     50  C   UNL A   1      46.578  29.973  28.425  1.00  0.00     0.009 A 
ATOM     51  C   UNL A   1      44.182  30.164  28.247  1.00  0.00     0.009 A 
ATOM     52  C   UNL A   1      46.724  30.947  27.430  1.00  0.00     0.001 A 
ATOM     53  C   UNL A   1      44.326  31.114  27.237  1.00  0.00     0.001 A 
ATOM     54  C   UNL A   1      45.597  31.515  26.837  1.00  0.00     0.000 A 
ENDBRANCH  36  49
ENDBRANCH  10  11
ENDBRANCH   3   5
ENDBRANCH   2   3
ENDBRANCH   1   2
BRANCH   1  55
ATOM     55  C   UNL A   1      32.208  30.288  26.012  1.00  0.00     0.275 C 
BRANCH  55  56
ATOM     56  O   UNL A   1      32.786  29.447  24.995  1.00  0.00    -0.457 OA
BRANCH  56  57
ATOM     57  C   UNL A   1      31.896  28.705  24.259  1.00  0.00     0.358 C 
ATOM     58  O   UNL A   1      30.731  29.004  24.074  1.00  0.00    -0.244 OA
BRANCH  57  59
ATOM     59  C   UNL A   1      32.461  27.416  23.838  1.00  0.00     0.170 A 
ATOM     60  C   UNL A   1      33.061  27.201  22.577  1.00  0.00     0.058 A 
ATOM     61  N   UNL A   1      32.522  26.302  24.608  1.00  0.00    -0.159 NA
ATOM     62  C   UNL A   1      33.652  25.972  22.673  1.00  0.00     0.118 A 
ATOM     63  N   UNL A   1      33.372  25.479  23.931  1.00  0.00    -0.222 N 
BRANCH  63  64
ATOM     64  C   UNL A   1      33.869  24.229  24.424  1.00  0.00     0.158 A 
ATOM     65  C   UNL A   1      33.008  23.186  24.727  1.00  0.00     0.078 A 
ATOM     66  N   UNL A   1      35.216  24.098  24.455  1.00  0.00    -0.209 NA
ATOM     67  C   UNL A   1      33.608  21.948  24.878  1.00  0.00     0.077 A 
ATOM     68  C   UNL A   1      35.689  22.892  24.777  1.00  0.00     0.165 A 
ATOM     69  N   UNL A   1      34.940  21.803  24.945  1.00  0.00    -0.228 NA
BRANCH  67  70
ATOM     70  C   UNL A   1      32.948  20.647  24.739  1.00  0.00     0.003 A 
ATOM     71  C   UNL A   1      32.548  20.246  23.459  1.00  0.00     0.030 A 
ATOM     72  C   UNL A   1      32.942  19.679  25.737  1.00  0.00     0.030 A 
ATOM     73  C   UNL A   1      32.155  18.945  23.217  1.00  0.00     0.111 A 
ATOM     74  C   UNL A   1      32.555  18.387  25.400  1.00  0.00     0.111 A 
ATOM     75  N   UNL A   1      32.153  18.000  24.169  1.00  0.00    -0.265 NA
ENDBRANCH  67  70
BRANCH  68  76
ATOM     76  C   UNL A   1      37.049  22.783  25.257  1.00  0.00     0.055 A 
ATOM     77  C   UNL A   1      37.608  23.851  25.981  1.00  0.00     0.015 A 
ATOM     78  C   UNL A   1      37.771  21.594  25.153  1.00  0.00     0.134 A 
ATOM     79  C   UNL A   1      38.845  23.716  26.606  1.00  0.00     0.001 A 
ATOM     80  C   UNL A   1      39.014  21.456  25.765  1.00  0.00     0.040 A 
ATOM     81  F   UNL A   1      37.269  20.551  24.473  1.00  0.00    -0.206 F 
ATOM     82  C   UNL A   1      39.546  22.516  26.501  1.00  0.00     0.003 A 
ENDBRANCH  68  76
ENDBRANCH  63  64
ENDBRANCH  57  59
ENDBRANCH  56  57
ENDBRANCH  55  56
ENDBRANCH   1  55
TORSDOF 14
ENDMDL
