MODEL 1
REMARK VINA RESULT:      -9.3      0.000      0.000
REMARK SMILES COc1cc2c(c(OC)c1)[C@H](C)C[C@H](CC(=O)OCCOC(=O)c1ccc(-c3c4nc(c(-c5ccccc5)c5ccc([nH]5)c(-c5ccccc5)c5nc(c(-c6ccccc6)c6ccc3[nH]6)C=C5)C=C4)cc1)C2
REMARK SMILES IDX 19 1 18 2 16 3 17 4 15 5 14 6 3 7 4 8 10 9 5 10 7 11 6 12
REMARK SMILES IDX 72 13 11 14 12 15 13 16 2 17 1 18 8 19 9 20 20 21 21 22
REMARK SMILES IDX 22 23 23 24 24 25 25 26 71 27 26 28 70 29 27 30 28 31 29 32
REMARK SMILES IDX 64 33 30 34 69 35 63 36 65 37 31 38 68 39 62 40 61 41 32 43
REMARK SMILES IDX 54 44 39 45 53 46 40 47 43 48 52 49 66 50 41 51 42 52 51 54
REMARK SMILES IDX 67 55 44 56 33 57 34 58 38 59 35 60 37 61 36 62 55 63 56 64
REMARK SMILES IDX 60 65 57 66 59 67 58 68 45 69 46 70 50 71 47 72 49 73 48 74
REMARK H PARENT 65 42 43 53
REMARK Flexibility Score: inf
ROOT
ATOM      1  C   UNL A   1      33.453  36.423  31.042  1.00  0.00     0.274 C 
ENDROOT
BRANCH   1   2
ATOM      2  O   UNL A   1      34.347  35.487  31.674  1.00  0.00    -0.462 OA
BRANCH   2   3
ATOM      3  C   UNL A   1      33.908  34.885  32.805  1.00  0.00     0.306 C 
ATOM      4  O   UNL A   1      32.846  34.283  32.911  1.00  0.00    -0.252 OA
BRANCH   3   5
ATOM      5  C   UNL A   1      34.846  35.079  33.979  1.00  0.00     0.126 C 
BRANCH   5   6
ATOM      6  C   UNL A   1      36.088  34.169  34.005  1.00  0.00     0.005 C 
ATOM      7  C   UNL A   1      37.767  29.615  32.977  1.00  0.00     0.122 A 
ATOM      8  C   UNL A   1      36.786  30.598  32.877  1.00  0.00     0.050 A 
ATOM      9  C   UNL A   1      38.860  29.833  33.805  1.00  0.00     0.093 A 
ATOM     10  C   UNL A   1      36.845  31.770  33.655  1.00  0.00    -0.037 A 
ATOM     11  C   UNL A   1      38.943  31.005  34.566  1.00  0.00     0.126 A 
ATOM     12  C   UNL A   1      37.903  31.959  34.569  1.00  0.00     0.000 A 
ATOM     13  C   UNL A   1      35.719  32.764  33.511  1.00  0.00     0.040 C 
ATOM     14  C   UNL A   1      37.923  33.176  35.485  1.00  0.00     0.020 C 
ATOM     15  C   UNL A   1      38.132  32.824  36.966  1.00  0.00     0.013 C 
ATOM     16  C   UNL A   1      36.643  34.035  35.423  1.00  0.00     0.012 C 
BRANCH   7  17
ATOM     17  O   UNL A   1      37.580  28.507  32.196  1.00  0.00    -0.497 OA
ATOM     18  C   UNL A   1      38.615  27.533  32.283  1.00  0.00     0.278 C 
ENDBRANCH   7  17
BRANCH  11  19
ATOM     19  O   UNL A   1      40.069  31.106  35.343  1.00  0.00    -0.496 OA
ATOM     20  C   UNL A   1      40.795  29.878  35.418  1.00  0.00     0.278 C 
ENDBRANCH  11  19
ENDBRANCH   5   6
ENDBRANCH   3   5
ENDBRANCH   2   3
ENDBRANCH   1   2
BRANCH   1  21
ATOM     21  C   UNL A   1      32.496  35.710  30.086  1.00  0.00     0.275 C 
BRANCH  21  22
ATOM     22  O   UNL A   1      33.093  35.548  28.787  1.00  0.00    -0.458 OA
BRANCH  22  23
ATOM     23  C   UNL A   1      33.247  34.270  28.376  1.00  0.00     0.338 C 
ATOM     24  O   UNL A   1      32.536  33.642  27.609  1.00  0.00    -0.246 OA
BRANCH  23  25
ATOM     25  C   UNL A   1      34.520  33.752  28.897  1.00  0.00     0.060 A 
ATOM     26  C   UNL A   1      35.704  34.377  28.497  1.00  0.00     0.016 A 
ATOM     27  C   UNL A   1      34.549  32.634  29.731  1.00  0.00     0.016 A 
ATOM     28  C   UNL A   1      36.931  33.889  28.938  1.00  0.00     0.010 A 
ATOM     29  C   UNL A   1      35.781  32.142  30.168  1.00  0.00     0.010 A 
ATOM     30  C   UNL A   1      36.978  32.763  29.770  1.00  0.00    -0.014 A 
BRANCH  30  31
ATOM     31  C   UNL A   1      38.284  32.204  30.186  1.00  0.00     0.031 A 
ATOM     32  C   UNL A   1      38.747  30.892  29.623  1.00  0.00     0.074 A 
ATOM     33  C   UNL A   1      39.049  32.872  31.069  1.00  0.00     0.049 A 
ATOM     34  N   UNL A   1      39.814  30.197  29.921  1.00  0.00    -0.248 NA
ATOM     35  C   UNL A   1      37.893  30.280  28.593  1.00  0.00     0.031 C 
ATOM     36  C   UNL A   1      38.722  34.170  31.661  1.00  0.00     0.029 A 
ATOM     37  N   UNL A   1      40.255  32.539  31.631  1.00  0.00    -0.354 N 
ATOM     38  C   UNL A   1      39.752  29.056  29.132  1.00  0.00     0.074 A 
ATOM     39  C   UNL A   1      38.537  29.146  28.351  1.00  0.00     0.031 C 
ATOM     40  C   UNL A   1      39.702  34.521  32.509  1.00  0.00     0.029 A 
ATOM     41  C   UNL A   1      40.702  33.457  32.550  1.00  0.00     0.049 A 
ATOM     42  H   UNL A   1      40.752  31.723  31.398  1.00  0.00     0.167 HD
ATOM     43  C   UNL A   1      40.628  28.026  29.068  1.00  0.00     0.031 A 
ATOM     44  C   UNL A   1      41.780  33.428  33.355  1.00  0.00     0.031 A 
ATOM     45  C   UNL A   1      41.838  27.939  29.841  1.00  0.00     0.049 A 
ATOM     46  C   UNL A   1      42.713  32.250  33.295  1.00  0.00     0.074 A 
ATOM     47  C   UNL A   1      42.802  26.946  29.825  1.00  0.00     0.029 A 
ATOM     48  N   UNL A   1      42.249  28.883  30.769  1.00  0.00    -0.354 N 
ATOM     49  N   UNL A   1      42.652  31.186  32.533  1.00  0.00    -0.248 NA
ATOM     50  C   UNL A   1      43.866  32.271  34.208  1.00  0.00     0.031 C 
ATOM     51  C   UNL A   1      43.775  27.267  30.777  1.00  0.00     0.029 A 
ATOM     52  C   UNL A   1      43.440  28.483  31.350  1.00  0.00     0.049 A 
ATOM     53  H   UNL A   1      41.766  29.713  30.983  1.00  0.00     0.167 HD
ATOM     54  C   UNL A   1      43.766  30.422  32.858  1.00  0.00     0.074 A 
ATOM     55  C   UNL A   1      44.493  31.153  33.876  1.00  0.00     0.031 C 
ATOM     56  C   UNL A   1      44.151  29.223  32.359  1.00  0.00     0.031 A 
BRANCH  43  57
ATOM     57  C   UNL A   1      40.290  26.886  28.152  1.00  0.00    -0.014 A 
ATOM     58  C   UNL A   1      40.810  26.816  26.851  1.00  0.00     0.009 A 
ATOM     59  C   UNL A   1      39.474  25.842  28.618  1.00  0.00     0.009 A 
ATOM     60  C   UNL A   1      40.498  25.733  26.025  1.00  0.00     0.001 A 
ATOM     61  C   UNL A   1      39.183  24.751  27.799  1.00  0.00     0.001 A 
ATOM     62  C   UNL A   1      39.690  24.700  26.501  1.00  0.00     0.000 A 
ENDBRANCH  43  57
BRANCH  44  63
ATOM     63  C   UNL A   1      42.021  34.535  34.316  1.00  0.00    -0.014 A 
ATOM     64  C   UNL A   1      41.546  34.456  35.634  1.00  0.00     0.009 A 
ATOM     65  C   UNL A   1      42.713  35.687  33.910  1.00  0.00     0.009 A 
ATOM     66  C   UNL A   1      41.741  35.519  36.519  1.00  0.00     0.001 A 
ATOM     67  C   UNL A   1      42.929  36.737  34.804  1.00  0.00     0.001 A 
ATOM     68  C   UNL A   1      42.434  36.656  36.106  1.00  0.00     0.000 A 
ENDBRANCH  44  63
BRANCH  56  69
ATOM     69  C   UNL A   1      45.431  28.642  32.885  1.00  0.00    -0.014 A 
ATOM     70  C   UNL A   1      45.436  27.775  33.988  1.00  0.00     0.009 A 
ATOM     71  C   UNL A   1      46.644  28.936  32.240  1.00  0.00     0.009 A 
ATOM     72  C   UNL A   1      46.638  27.236  34.454  1.00  0.00     0.001 A 
ATOM     73  C   UNL A   1      47.839  28.376  32.693  1.00  0.00     0.001 A 
ATOM     74  C   UNL A   1      47.835  27.533  33.804  1.00  0.00     0.000 A 
ENDBRANCH  56  69
ENDBRANCH  30  31
ENDBRANCH  23  25
ENDBRANCH  22  23
ENDBRANCH  21  22
ENDBRANCH   1  21
TORSDOF 14
ENDMDL
MODEL 2
REMARK VINA RESULT:      -8.7      0.710      6.079
REMARK SMILES COc1cc2c(c(OC)c1)[C@H](C)C[C@H](CC(=O)OCCOC(=O)c1ccc(-c3c4nc(c(-c5ccccc5)c5ccc([nH]5)c(-c5ccccc5)c5nc(c(-c6ccccc6)c6ccc3[nH]6)C=C5)C=C4)cc1)C2
REMARK SMILES IDX 19 1 18 2 16 3 17 4 15 5 14 6 3 7 4 8 10 9 5 10 7 11 6 12
REMARK SMILES IDX 72 13 11 14 12 15 13 16 2 17 1 18 8 19 9 20 20 21 21 22
REMARK SMILES IDX 22 23 23 24 24 25 25 26 71 27 26 28 70 29 27 30 28 31 29 32
REMARK SMILES IDX 64 33 30 34 69 35 63 36 65 37 31 38 68 39 62 40 61 41 32 43
REMARK SMILES IDX 54 44 39 45 53 46 40 47 43 48 52 49 66 50 41 51 42 52 51 54
REMARK SMILES IDX 67 55 44 56 33 57 34 58 38 59 35 60 37 61 36 62 55 63 56 64
REMARK SMILES IDX 60 65 57 66 59 67 58 68 45 69 46 70 50 71 47 72 49 73 48 74
REMARK H PARENT 65 42 43 53
REMARK Flexibility Score: inf
ROOT
ATOM      1  C   UNL A   1      33.425  36.687  31.455  1.00  0.00     0.274 C 
ENDROOT
BRANCH   1   2
ATOM      2  O   UNL A   1      34.478  35.938  32.094  1.00  0.00    -0.462 OA
BRANCH   2   3
ATOM      3  C   UNL A   1      34.105  35.007  33.005  1.00  0.00     0.306 C 
ATOM      4  O   UNL A   1      33.092  34.322  32.931  1.00  0.00    -0.252 OA
BRANCH   3   5
ATOM      5  C   UNL A   1      35.047  34.930  34.189  1.00  0.00     0.126 C 
BRANCH   5   6
ATOM      6  C   UNL A   1      36.300  34.058  33.995  1.00  0.00     0.005 C 
ATOM      7  C   UNL A   1      37.902  29.496  32.884  1.00  0.00     0.122 A 
ATOM      8  C   UNL A   1      36.884  30.443  32.946  1.00  0.00     0.050 A 
ATOM      9  C   UNL A   1      39.139  29.796  33.439  1.00  0.00     0.093 A 
ATOM     10  C   UNL A   1      37.062  31.663  33.625  1.00  0.00    -0.037 A 
ATOM     11  C   UNL A   1      39.336  31.017  34.096  1.00  0.00     0.126 A 
ATOM     12  C   UNL A   1      38.284  31.940  34.273  1.00  0.00     0.000 A 
ATOM     13  C   UNL A   1      35.891  32.615  33.674  1.00  0.00     0.040 C 
ATOM     14  C   UNL A   1      38.452  33.214  35.091  1.00  0.00     0.020 C 
ATOM     15  C   UNL A   1      38.991  32.963  36.508  1.00  0.00     0.013 C 
ATOM     16  C   UNL A   1      37.155  34.031  35.261  1.00  0.00     0.012 C 
BRANCH   7  17
ATOM     17  O   UNL A   1      37.597  28.335  32.227  1.00  0.00    -0.497 OA
ATOM     18  C   UNL A   1      38.629  27.354  32.233  1.00  0.00     0.278 C 
ENDBRANCH   7  17
BRANCH  11  19
ATOM     19  O   UNL A   1      40.599  31.199  34.601  1.00  0.00    -0.496 OA
ATOM     20  C   UNL A   1      40.931  30.241  35.607  1.00  0.00     0.278 C 
ENDBRANCH  11  19
ENDBRANCH   5   6
ENDBRANCH   3   5
ENDBRANCH   2   3
ENDBRANCH   1   2
BRANCH   1  21
ATOM     21  C   UNL A   1      32.585  35.789  30.547  1.00  0.00     0.275 C 
BRANCH  21  22
ATOM     22  O   UNL A   1      33.111  35.779  29.207  1.00  0.00    -0.458 OA
BRANCH  22  23
ATOM     23  C   UNL A   1      33.235  34.557  28.643  1.00  0.00     0.338 C 
ATOM     24  O   UNL A   1      32.498  34.035  27.822  1.00  0.00    -0.246 OA
BRANCH  23  25
ATOM     25  C   UNL A   1      34.509  33.962  29.070  1.00  0.00     0.060 A 
ATOM     26  C   UNL A   1      35.691  34.451  28.508  1.00  0.00     0.016 A 
ATOM     27  C   UNL A   1      34.535  32.903  29.979  1.00  0.00     0.016 A 
ATOM     28  C   UNL A   1      36.914  33.886  28.859  1.00  0.00     0.010 A 
ATOM     29  C   UNL A   1      35.762  32.332  30.325  1.00  0.00     0.010 A 
ATOM     30  C   UNL A   1      36.957  32.817  29.763  1.00  0.00    -0.014 A 
BRANCH  30  31
ATOM     31  C   UNL A   1      38.250  32.172  30.087  1.00  0.00     0.031 A 
ATOM     32  C   UNL A   1      39.259  32.905  30.922  1.00  0.00     0.074 A 
ATOM     33  C   UNL A   1      38.515  30.935  29.630  1.00  0.00     0.049 A 
ATOM     34  N   UNL A   1      40.475  32.549  31.246  1.00  0.00    -0.248 NA
ATOM     35  C   UNL A   1      38.846  34.211  31.459  1.00  0.00     0.031 C 
ATOM     36  C   UNL A   1      37.602  30.110  28.838  1.00  0.00     0.029 A 
ATOM     37  N   UNL A   1      39.641  30.162  29.759  1.00  0.00    -0.354 N 
ATOM     38  C   UNL A   1      40.982  33.595  32.006  1.00  0.00     0.074 A 
ATOM     39  C   UNL A   1      39.947  34.603  32.086  1.00  0.00     0.031 C 
ATOM     40  C   UNL A   1      38.208  28.948  28.544  1.00  0.00     0.029 A 
ATOM     41  C   UNL A   1      39.561  28.964  29.092  1.00  0.00     0.049 A 
ATOM     42  H   UNL A   1      40.430  30.440  30.278  1.00  0.00     0.167 HD
ATOM     43  C   UNL A   1      42.203  33.704  32.583  1.00  0.00     0.031 A 
ATOM     44  C   UNL A   1      40.486  28.002  28.920  1.00  0.00     0.031 A 
ATOM     45  C   UNL A   1      43.230  32.701  32.507  1.00  0.00     0.049 A 
ATOM     46  C   UNL A   1      41.849  28.170  29.533  1.00  0.00     0.074 A 
ATOM     47  C   UNL A   1      44.489  32.711  33.080  1.00  0.00     0.029 A 
ATOM     48  N   UNL A   1      43.114  31.507  31.813  1.00  0.00    -0.354 N 
ATOM     49  N   UNL A   1      42.310  29.155  30.264  1.00  0.00    -0.248 NA
ATOM     50  C   UNL A   1      42.819  27.090  29.298  1.00  0.00     0.031 C 
ATOM     51  C   UNL A   1      45.154  31.542  32.696  1.00  0.00     0.029 A 
ATOM     52  C   UNL A   1      44.290  30.783  31.923  1.00  0.00     0.049 A 
ATOM     53  H   UNL A   1      42.316  31.216  31.316  1.00  0.00     0.167 HD
ATOM     54  C   UNL A   1      43.613  28.805  30.593  1.00  0.00     0.074 A 
ATOM     55  C   UNL A   1      43.864  27.510  29.994  1.00  0.00     0.031 C 
ATOM     56  C   UNL A   1      44.521  29.496  31.324  1.00  0.00     0.031 A 
BRANCH  43  57
ATOM     57  C   UNL A   1      42.508  34.976  33.319  1.00  0.00    -0.014 A 
ATOM     58  C   UNL A   1      42.183  35.130  34.675  1.00  0.00     0.009 A 
ATOM     59  C   UNL A   1      43.175  36.018  32.654  1.00  0.00     0.009 A 
ATOM     60  C   UNL A   1      42.499  36.315  35.344  1.00  0.00     0.001 A 
ATOM     61  C   UNL A   1      43.508  37.191  33.331  1.00  0.00     0.001 A 
ATOM     62  C   UNL A   1      43.164  37.342  34.674  1.00  0.00     0.000 A 
ENDBRANCH  43  57
BRANCH  44  63
ATOM     63  C   UNL A   1      40.169  26.805  28.099  1.00  0.00    -0.014 A 
ATOM     64  C   UNL A   1      39.410  25.751  28.631  1.00  0.00     0.009 A 
ATOM     65  C   UNL A   1      40.641  26.704  26.781  1.00  0.00     0.009 A 
ATOM     66  C   UNL A   1      39.151  24.612  27.866  1.00  0.00     0.001 A 
ATOM     67  C   UNL A   1      40.359  25.575  26.010  1.00  0.00     0.001 A 
ATOM     68  C   UNL A   1      39.622  24.525  26.557  1.00  0.00     0.000 A 
ENDBRANCH  44  63
BRANCH  56  69
ATOM     69  C   UNL A   1      45.858  28.849  31.542  1.00  0.00    -0.014 A 
ATOM     70  C   UNL A   1      46.927  29.077  30.663  1.00  0.00     0.009 A 
ATOM     71  C   UNL A   1      46.060  28.034  32.668  1.00  0.00     0.009 A 
ATOM     72  C   UNL A   1      48.167  28.475  30.891  1.00  0.00     0.001 A 
ATOM     73  C   UNL A   1      47.306  27.454  32.906  1.00  0.00     0.001 A 
ATOM     74  C   UNL A   1      48.356  27.669  32.014  1.00  0.00     0.000 A 
ENDBRANCH  56  69
ENDBRANCH  30  31
ENDBRANCH  23  25
ENDBRANCH  22  23
ENDBRANCH  21  22
ENDBRANCH   1  21
TORSDOF 14
ENDMDL
MODEL 3
REMARK VINA RESULT:      -8.0      3.542      6.261
REMARK SMILES COc1cc2c(c(OC)c1)[C@H](C)C[C@H](CC(=O)OCCOC(=O)c1ccc(-c3c4nc(c(-c5ccccc5)c5ccc([nH]5)c(-c5ccccc5)c5nc(c(-c6ccccc6)c6ccc3[nH]6)C=C5)C=C4)cc1)C2
REMARK SMILES IDX 19 1 18 2 16 3 17 4 15 5 14 6 3 7 4 8 10 9 5 10 7 11 6 12
REMARK SMILES IDX 72 13 11 14 12 15 13 16 2 17 1 18 8 19 9 20 20 21 21 22
REMARK SMILES IDX 22 23 23 24 24 25 25 26 71 27 26 28 70 29 27 30 28 31 29 32
REMARK SMILES IDX 64 33 30 34 69 35 63 36 65 37 31 38 68 39 62 40 61 41 32 43
REMARK SMILES IDX 54 44 39 45 53 46 40 47 43 48 52 49 66 50 41 51 42 52 51 54
REMARK SMILES IDX 67 55 44 56 33 57 34 58 38 59 35 60 37 61 36 62 55 63 56 64
REMARK SMILES IDX 60 65 57 66 59 67 58 68 45 69 46 70 50 71 47 72 49 73 48 74
REMARK H PARENT 65 42 43 53
REMARK Flexibility Score: inf
ROOT
ATOM      1  C   UNL A   1      32.233  31.706  26.920  1.00  0.00     0.274 C 
ENDROOT
BRANCH   1   2
ATOM      2  O   UNL A   1      33.530  31.251  27.354  1.00  0.00    -0.462 OA
BRANCH   2   3
ATOM      3  C   UNL A   1      33.721  29.911  27.422  1.00  0.00     0.306 C 
ATOM      4  O   UNL A   1      34.795  29.368  27.651  1.00  0.00    -0.252 OA
BRANCH   3   5
ATOM      5  C   UNL A   1      32.464  29.121  27.122  1.00  0.00     0.126 C 
BRANCH   5   6
ATOM      6  C   UNL A   1      32.540  28.170  25.913  1.00  0.00     0.005 C 
ATOM      7  C   UNL A   1      34.242  23.783  24.340  1.00  0.00     0.122 A 
ATOM      8  C   UNL A   1      33.958  24.676  25.370  1.00  0.00     0.050 A 
ATOM      9  C   UNL A   1      34.103  24.202  23.024  1.00  0.00     0.093 A 
ATOM     10  C   UNL A   1      33.607  26.013  25.100  1.00  0.00    -0.037 A 
ATOM     11  C   UNL A   1      33.731  25.523  22.743  1.00  0.00     0.126 A 
ATOM     12  C   UNL A   1      33.554  26.476  23.769  1.00  0.00     0.000 A 
ATOM     13  C   UNL A   1      33.354  26.921  26.279  1.00  0.00     0.040 C 
ATOM     14  C   UNL A   1      33.272  27.943  23.473  1.00  0.00     0.020 C 
ATOM     15  C   UNL A   1      34.295  28.582  22.521  1.00  0.00     0.013 C 
ATOM     16  C   UNL A   1      33.226  28.842  24.725  1.00  0.00     0.012 C 
BRANCH   7  17
ATOM     17  O   UNL A   1      34.605  22.523  24.729  1.00  0.00    -0.497 OA
ATOM     18  C   UNL A   1      33.977  22.061  25.921  1.00  0.00     0.278 C 
ENDBRANCH   7  17
BRANCH  11  19
ATOM     19  O   UNL A   1      33.625  25.817  21.407  1.00  0.00    -0.496 OA
ATOM     20  C   UNL A   1      32.312  25.580  20.897  1.00  0.00     0.278 C 
ENDBRANCH  11  19
ENDBRANCH   5   6
ENDBRANCH   3   5
ENDBRANCH   2   3
ENDBRANCH   1   2
BRANCH   1  21
ATOM     21  C   UNL A   1      32.113  33.224  27.044  1.00  0.00     0.275 C 
BRANCH  21  22
ATOM     22  O   UNL A   1      32.146  33.631  28.424  1.00  0.00    -0.458 OA
BRANCH  22  23
ATOM     23  C   UNL A   1      33.021  34.619  28.716  1.00  0.00     0.338 C 
ATOM     24  O   UNL A   1      32.804  35.819  28.767  1.00  0.00    -0.246 OA
BRANCH  23  25
ATOM     25  C   UNL A   1      34.303  34.019  29.112  1.00  0.00     0.060 A 
ATOM     26  C   UNL A   1      34.319  33.152  30.207  1.00  0.00     0.016 A 
ATOM     27  C   UNL A   1      35.483  34.344  28.441  1.00  0.00     0.016 A 
ATOM     28  C   UNL A   1      35.520  32.595  30.636  1.00  0.00     0.010 A 
ATOM     29  C   UNL A   1      36.689  33.789  28.875  1.00  0.00     0.010 A 
ATOM     30  C   UNL A   1      36.715  32.917  29.978  1.00  0.00    -0.014 A 
BRANCH  30  31
ATOM     31  C   UNL A   1      38.002  32.377  30.473  1.00  0.00     0.031 A 
ATOM     32  C   UNL A   1      38.569  31.128  29.864  1.00  0.00     0.074 A 
ATOM     33  C   UNL A   1      38.654  33.005  31.468  1.00  0.00     0.049 A 
ATOM     34  N   UNL A   1      39.635  30.454  30.209  1.00  0.00    -0.248 NA
ATOM     35  C   UNL A   1      37.839  30.563  28.719  1.00  0.00     0.031 C 
ATOM     36  C   UNL A   1      38.220  34.243  32.117  1.00  0.00     0.029 A 
ATOM     37  N   UNL A   1      39.819  32.677  32.113  1.00  0.00    -0.354 N 
ATOM     38  C   UNL A   1      39.693  29.373  29.339  1.00  0.00     0.074 A 
ATOM     39  C   UNL A   1      38.551  29.475  28.458  1.00  0.00     0.031 C 
ATOM     40  C   UNL A   1      39.104  34.566  33.075  1.00  0.00     0.029 A 
ATOM     41  C   UNL A   1      40.141  33.540  33.133  1.00  0.00     0.049 A 
ATOM     42  H   UNL A   1      40.370  31.899  31.870  1.00  0.00     0.167 HD
ATOM     43  C   UNL A   1      40.617  28.383  29.284  1.00  0.00     0.031 A 
ATOM     44  C   UNL A   1      41.144  33.491  34.029  1.00  0.00     0.031 A 
ATOM     45  C   UNL A   1      41.755  28.284  30.156  1.00  0.00     0.049 A 
ATOM     46  C   UNL A   1      42.129  32.356  33.973  1.00  0.00     0.074 A 
ATOM     47  C   UNL A   1      42.759  27.332  30.159  1.00  0.00     0.029 A 
ATOM     48  N   UNL A   1      42.039  29.171  31.183  1.00  0.00    -0.354 N 
ATOM     49  N   UNL A   1      42.183  31.350  33.135  1.00  0.00    -0.248 NA
ATOM     50  C   UNL A   1      43.193  32.352  34.987  1.00  0.00     0.031 C 
ATOM     51  C   UNL A   1      43.628  27.617  31.217  1.00  0.00     0.029 A 
ATOM     52  C   UNL A   1      43.191  28.774  31.842  1.00  0.00     0.049 A 
ATOM     53  H   UNL A   1      41.504  29.965  31.410  1.00  0.00     0.167 HD
ATOM     54  C   UNL A   1      43.295  30.606  33.506  1.00  0.00     0.074 A 
ATOM     55  C   UNL A   1      43.896  31.285  34.636  1.00  0.00     0.031 C 
ATOM     56  C   UNL A   1      43.775  29.462  32.962  1.00  0.00     0.031 A 
BRANCH  43  57
ATOM     57  C   UNL A   1      40.411  27.302  28.262  1.00  0.00    -0.014 A 
ATOM     58  C   UNL A   1      40.987  27.386  26.986  1.00  0.00     0.009 A 
ATOM     59  C   UNL A   1      39.667  26.161  28.602  1.00  0.00     0.009 A 
ATOM     60  C   UNL A   1      40.801  26.356  26.060  1.00  0.00     0.001 A 
ATOM     61  C   UNL A   1      39.502  25.124  27.683  1.00  0.00     0.001 A 
ATOM     62  C   UNL A   1      40.062  25.226  26.410  1.00  0.00     0.000 A 
ENDBRANCH  43  57
BRANCH  44  63
ATOM     63  C   UNL A   1      41.249  34.531  35.084  1.00  0.00    -0.014 A 
ATOM     64  C   UNL A   1      42.019  35.685  34.879  1.00  0.00     0.009 A 
ATOM     65  C   UNL A   1      40.590  34.364  36.312  1.00  0.00     0.009 A 
ATOM     66  C   UNL A   1      42.145  36.639  35.891  1.00  0.00     0.001 A 
ATOM     67  C   UNL A   1      40.697  35.330  37.313  1.00  0.00     0.001 A 
ATOM     68  C   UNL A   1      41.483  36.463  37.105  1.00  0.00     0.000 A 
ENDBRANCH  44  63
BRANCH  56  69
ATOM     69  C   UNL A   1      45.028  28.892  33.561  1.00  0.00    -0.014 A 
ATOM     70  C   UNL A   1      46.295  29.294  33.114  1.00  0.00     0.009 A 
ATOM     71  C   UNL A   1      44.936  27.971  34.618  1.00  0.00     0.009 A 
ATOM     72  C   UNL A   1      47.448  28.761  33.694  1.00  0.00     0.001 A 
ATOM     73  C   UNL A   1      46.090  27.458  35.210  1.00  0.00     0.001 A 
ATOM     74  C   UNL A   1      47.344  27.848  34.743  1.00  0.00     0.000 A 
ENDBRANCH  56  69
ENDBRANCH  30  31
ENDBRANCH  23  25
ENDBRANCH  22  23
ENDBRANCH  21  22
ENDBRANCH   1  21
TORSDOF 14
ENDMDL
