MODEL 1
REMARK VINA RESULT:     -10.0      0.000      0.000
REMARK SMILES C[NH2+][C@@]1(C(=O)OCCOC(=O)c2ccc(-c3c4nc(c(-c5ccccc5)c5ccc([nH]5)c(-c5ccccc5)c5nc(c(-c6ccccc6)c6ccc3[nH]6)C=C5)C=C4)cc2)CCC[C@H]1CCSc1nccc(=O)[nH]1
REMARK SMILES IDX 7 1 6 2 4 3 5 4 3 5 60 6 63 7 61 8 62 9 2 10 1 11 64 14
REMARK SMILES IDX 65 15 66 16 67 17 68 18 73 19 69 20 71 21 70 23 72 24 8 25
REMARK SMILES IDX 9 26 10 27 11 28 12 29 13 30 59 31 14 32 58 33 15 34 16 35
REMARK SMILES IDX 17 36 52 37 18 38 57 39 51 40 53 41 19 42 56 43 50 44 49 45
REMARK SMILES IDX 20 47 42 48 27 49 41 50 28 51 31 52 40 53 54 54 29 55 30 56
REMARK SMILES IDX 39 58 55 59 32 60 21 61 22 62 26 63 23 64 25 65 24 66 43 67
REMARK SMILES IDX 44 68 48 69 45 70 47 71 46 72 33 73 34 74 38 75 35 76 37 77
REMARK SMILES IDX 36 78
REMARK H PARENT 2 12 2 13 73 22 53 46 31 57
REMARK Flexibility Score: inf
ROOT
ATOM      1  C   UNL A   1      36.334  22.863  23.513  1.00  0.00     0.274 C 
ENDROOT
BRANCH   1   2
ATOM      2  O   UNL A   1      35.332  23.682  24.148  1.00  0.00    -0.457 OA
BRANCH   2   3
ATOM      3  C   UNL A   1      34.250  24.029  23.397  1.00  0.00     0.368 C 
ATOM      4  O   UNL A   1      34.267  24.059  22.169  1.00  0.00    -0.245 OA
BRANCH   3   5
ATOM      5  C   UNL A   1      32.998  24.458  24.263  1.00  0.00     0.197 C 
ATOM      6  C   UNL A   1      32.676  25.917  23.891  1.00  0.00     0.081 C 
ATOM      7  C   UNL A   1      33.329  24.562  25.801  1.00  0.00     0.063 C 
ATOM      8  C   UNL A   1      33.704  26.720  24.668  1.00  0.00     0.008 C 
ATOM      9  C   UNL A   1      33.755  26.034  26.022  1.00  0.00     0.011 C 
BRANCH   5  10
ATOM     10  N   UNL A   1      31.851  23.543  23.998  1.00  0.00    -0.334 N 
ATOM     11  C   UNL A   1      30.706  24.146  23.315  1.00  0.00     0.331 C 
ATOM     12  H   UNL A   1      32.189  22.773  23.421  1.00  0.00     0.347 HD
ATOM     13  H   UNL A   1      31.508  23.254  24.914  1.00  0.00     0.347 HD
ENDBRANCH   5  10
BRANCH   7  14
ATOM     14  C   UNL A   1      32.212  24.208  26.817  1.00  0.00     0.022 C 
BRANCH  14  15
ATOM     15  C   UNL A   1      32.136  22.709  27.145  1.00  0.00     0.079 C 
BRANCH  15  16
ATOM     16  S   UNL A   1      33.736  21.854  26.940  1.00  0.00    -0.088 SA
BRANCH  16  17
ATOM     17  C   UNL A   1      33.272  20.639  25.789  1.00  0.00     0.168 A 
ATOM     18  N   UNL A   1      33.062  20.904  24.544  1.00  0.00    -0.233 NA
ATOM     19  N   UNL A   1      33.173  19.404  26.344  1.00  0.00    -0.301 N 
ATOM     20  C   UNL A   1      32.629  19.855  23.772  1.00  0.00     0.120 A 
ATOM     21  C   UNL A   1      32.783  18.323  25.615  1.00  0.00     0.251 A 
ATOM     22  H   UNL A   1      33.389  19.287  27.298  1.00  0.00     0.172 HD
ATOM     23  C   UNL A   1      32.463  18.602  24.207  1.00  0.00     0.091 A 
ATOM     24  O   UNL A   1      32.703  17.192  26.080  1.00  0.00    -0.269 OA
ENDBRANCH  16  17
ENDBRANCH  15  16
ENDBRANCH  14  15
ENDBRANCH   7  14
ENDBRANCH   3   5
ENDBRANCH   2   3
ENDBRANCH   1   2
BRANCH   1  25
ATOM     25  C   UNL A   1      37.215  22.201  24.568  1.00  0.00     0.275 C 
BRANCH  25  26
ATOM     26  O   UNL A   1      37.612  23.179  25.546  1.00  0.00    -0.458 OA
BRANCH  26  27
ATOM     27  C   UNL A   1      38.799  22.932  26.135  1.00  0.00     0.338 C 
ATOM     28  O   UNL A   1      39.420  21.878  26.166  1.00  0.00    -0.246 OA
BRANCH  27  29
ATOM     29  C   UNL A   1      39.313  24.134  26.787  1.00  0.00     0.060 A 
ATOM     30  C   UNL A   1      38.943  24.402  28.102  1.00  0.00     0.016 A 
ATOM     31  C   UNL A   1      40.025  25.069  26.037  1.00  0.00     0.016 A 
ATOM     32  C   UNL A   1      39.253  25.634  28.668  1.00  0.00     0.010 A 
ATOM     33  C   UNL A   1      40.393  26.279  26.626  1.00  0.00     0.010 A 
ATOM     34  C   UNL A   1      40.001  26.574  27.942  1.00  0.00    -0.014 A 
BRANCH  34  35
ATOM     35  C   UNL A   1      40.440  27.830  28.593  1.00  0.00     0.031 A 
ATOM     36  C   UNL A   1      41.844  28.003  29.095  1.00  0.00     0.074 A 
ATOM     37  C   UNL A   1      39.541  28.823  28.732  1.00  0.00     0.049 A 
ATOM     38  N   UNL A   1      42.361  29.008  29.755  1.00  0.00    -0.248 NA
ATOM     39  C   UNL A   1      42.788  26.909  28.824  1.00  0.00     0.031 C 
ATOM     40  C   UNL A   1      38.154  28.774  28.262  1.00  0.00     0.029 A 
ATOM     41  N   UNL A   1      39.660  30.066  29.296  1.00  0.00    -0.354 N 
ATOM     42  C   UNL A   1      43.682  28.661  30.001  1.00  0.00     0.074 A 
ATOM     43  C   UNL A   1      43.888  27.349  29.423  1.00  0.00     0.031 C 
ATOM     44  C   UNL A   1      37.563  29.949  28.523  1.00  0.00     0.029 A 
ATOM     45  C   UNL A   1      38.503  30.803  29.237  1.00  0.00     0.049 A 
ATOM     46  H   UNL A   1      40.492  30.398  29.703  1.00  0.00     0.167 HD
ATOM     47  C   UNL A   1      44.631  29.371  30.659  1.00  0.00     0.031 A 
ATOM     48  C   UNL A   1      38.218  32.021  29.729  1.00  0.00     0.031 A 
ATOM     49  C   UNL A   1      44.418  30.674  31.235  1.00  0.00     0.049 A 
ATOM     50  C   UNL A   1      39.273  32.765  30.488  1.00  0.00     0.074 A 
ATOM     51  C   UNL A   1      45.317  31.474  31.921  1.00  0.00     0.029 A 
ATOM     52  N   UNL A   1      43.220  31.370  31.191  1.00  0.00    -0.354 N 
ATOM     53  N   UNL A   1      40.512  32.413  30.731  1.00  0.00    -0.248 NA
ATOM     54  C   UNL A   1      38.888  34.065  31.051  1.00  0.00     0.031 C 
ATOM     55  C   UNL A   1      44.650  32.635  32.326  1.00  0.00     0.029 A 
ATOM     56  C   UNL A   1      43.349  32.579  31.854  1.00  0.00     0.049 A 
ATOM     57  H   UNL A   1      42.397  31.051  30.753  1.00  0.00     0.167 HD
ATOM     58  C   UNL A   1      41.057  33.447  31.477  1.00  0.00     0.074 A 
ATOM     59  C   UNL A   1      40.020  34.451  31.621  1.00  0.00     0.031 C 
ATOM     60  C   UNL A   1      42.301  33.554  32.002  1.00  0.00     0.031 A 
BRANCH  47  61
ATOM     61  C   UNL A   1      45.983  28.735  30.827  1.00  0.00    -0.014 A 
ATOM     62  C   UNL A   1      47.010  28.945  29.894  1.00  0.00     0.009 A 
ATOM     63  C   UNL A   1      46.246  27.956  31.964  1.00  0.00     0.009 A 
ATOM     64  C   UNL A   1      48.267  28.367  30.087  1.00  0.00     0.001 A 
ATOM     65  C   UNL A   1      47.508  27.395  32.164  1.00  0.00     0.001 A 
ATOM     66  C   UNL A   1      48.517  27.596  31.222  1.00  0.00     0.000 A 
ENDBRANCH  47  61
BRANCH  48  67
ATOM     67  C   UNL A   1      36.858  32.584  29.541  1.00  0.00    -0.014 A 
ATOM     68  C   UNL A   1      35.869  32.399  30.518  1.00  0.00     0.009 A 
ATOM     69  C   UNL A   1      36.558  33.349  28.402  1.00  0.00     0.009 A 
ATOM     70  C   UNL A   1      34.602  32.963  30.352  1.00  0.00     0.001 A 
ATOM     71  C   UNL A   1      35.301  33.935  28.254  1.00  0.00     0.001 A 
ATOM     72  C   UNL A   1      34.322  33.737  29.226  1.00  0.00     0.000 A 
ENDBRANCH  48  67
BRANCH  60  73
ATOM     73  C   UNL A   1      42.599  34.806  32.771  1.00  0.00    -0.014 A 
ATOM     74  C   UNL A   1      43.266  35.882  32.163  1.00  0.00     0.009 A 
ATOM     75  C   UNL A   1      42.205  34.914  34.112  1.00  0.00     0.009 A 
ATOM     76  C   UNL A   1      43.560  37.032  32.897  1.00  0.00     0.001 A 
ATOM     77  C   UNL A   1      42.482  36.073  34.837  1.00  0.00     0.001 A 
ATOM     78  C   UNL A   1      43.167  37.127  34.232  1.00  0.00     0.000 A 
ENDBRANCH  60  73
ENDBRANCH  34  35
ENDBRANCH  27  29
ENDBRANCH  26  27
ENDBRANCH  25  26
ENDBRANCH   1  25
TORSDOF 16
ENDMDL
MODEL 2
REMARK VINA RESULT:      -9.9      2.267      3.661
REMARK SMILES C[NH2+][C@@]1(C(=O)OCCOC(=O)c2ccc(-c3c4nc(c(-c5ccccc5)c5ccc([nH]5)c(-c5ccccc5)c5nc(c(-c6ccccc6)c6ccc3[nH]6)C=C5)C=C4)cc2)CCC[C@H]1CCSc1nccc(=O)[nH]1
REMARK SMILES IDX 7 1 6 2 4 3 5 4 3 5 60 6 63 7 61 8 62 9 2 10 1 11 64 14
REMARK SMILES IDX 65 15 66 16 67 17 68 18 73 19 69 20 71 21 70 23 72 24 8 25
REMARK SMILES IDX 9 26 10 27 11 28 12 29 13 30 59 31 14 32 58 33 15 34 16 35
REMARK SMILES IDX 17 36 52 37 18 38 57 39 51 40 53 41 19 42 56 43 50 44 49 45
REMARK SMILES IDX 20 47 42 48 27 49 41 50 28 51 31 52 40 53 54 54 29 55 30 56
REMARK SMILES IDX 39 58 55 59 32 60 21 61 22 62 26 63 23 64 25 65 24 66 43 67
REMARK SMILES IDX 44 68 48 69 45 70 47 71 46 72 33 73 34 74 38 75 35 76 37 77
REMARK SMILES IDX 36 78
REMARK H PARENT 2 12 2 13 73 22 53 46 31 57
REMARK Flexibility Score: inf
ROOT
ATOM      1  C   UNL A   1      39.131  21.404  26.035  1.00  0.00     0.274 C 
ENDROOT
BRANCH   1   2
ATOM      2  O   UNL A   1      37.825  21.719  25.512  1.00  0.00    -0.457 OA
BRANCH   2   3
ATOM      3  C   UNL A   1      37.339  22.965  25.770  1.00  0.00     0.368 C 
ATOM      4  O   UNL A   1      38.059  23.928  26.018  1.00  0.00    -0.245 OA
BRANCH   3   5
ATOM      5  C   UNL A   1      35.759  23.029  25.789  1.00  0.00     0.197 C 
ATOM      6  C   UNL A   1      35.260  22.020  24.737  1.00  0.00     0.081 C 
ATOM      7  C   UNL A   1      35.198  24.397  25.244  1.00  0.00     0.063 C 
ATOM      8  C   UNL A   1      35.444  22.755  23.421  1.00  0.00     0.008 C 
ATOM      9  C   UNL A   1      34.988  24.171  23.727  1.00  0.00     0.011 C 
BRANCH   5  10
ATOM     10  N   UNL A   1      35.246  22.717  27.154  1.00  0.00    -0.334 N 
ATOM     11  C   UNL A   1      34.408  21.523  27.258  1.00  0.00     0.331 C 
ATOM     12  H   UNL A   1      36.050  22.589  27.770  1.00  0.00     0.347 HD
ATOM     13  H   UNL A   1      34.648  23.501  27.413  1.00  0.00     0.347 HD
ENDBRANCH   5  10
BRANCH   7  14
ATOM     14  C   UNL A   1      33.881  24.944  25.854  1.00  0.00     0.022 C 
BRANCH  14  15
ATOM     15  C   UNL A   1      32.763  25.140  24.819  1.00  0.00     0.079 C 
BRANCH  15  16
ATOM     16  S   UNL A   1      31.280  24.135  25.172  1.00  0.00    -0.088 SA
BRANCH  16  17
ATOM     17  C   UNL A   1      31.684  22.698  24.284  1.00  0.00     0.168 A 
ATOM     18  N   UNL A   1      31.834  22.691  23.002  1.00  0.00    -0.233 NA
ATOM     19  N   UNL A   1      31.831  21.612  25.086  1.00  0.00    -0.301 N 
ATOM     20  C   UNL A   1      32.078  21.466  22.434  1.00  0.00     0.120 A 
ATOM     21  C   UNL A   1      32.109  20.381  24.576  1.00  0.00     0.251 A 
ATOM     22  H   UNL A   1      31.733  21.717  26.060  1.00  0.00     0.172 HD
ATOM     23  C   UNL A   1      32.215  20.321  23.110  1.00  0.00     0.091 A 
ATOM     24  O   UNL A   1      32.267  19.385  25.272  1.00  0.00    -0.269 OA
ENDBRANCH  16  17
ENDBRANCH  15  16
ENDBRANCH  14  15
ENDBRANCH   7  14
ENDBRANCH   3   5
ENDBRANCH   2   3
ENDBRANCH   1   2
BRANCH   1  25
ATOM     25  C   UNL A   1      39.553  20.009  25.585  1.00  0.00     0.275 C 
BRANCH  25  26
ATOM     26  O   UNL A   1      40.654  19.555  26.394  1.00  0.00    -0.458 OA
BRANCH  26  27
ATOM     27  C   UNL A   1      41.869  19.936  25.952  1.00  0.00     0.338 C 
ATOM     28  O   UNL A   1      42.604  19.348  25.170  1.00  0.00    -0.246 OA
BRANCH  27  29
ATOM     29  C   UNL A   1      42.257  21.214  26.543  1.00  0.00     0.060 A 
ATOM     30  C   UNL A   1      42.146  21.386  27.920  1.00  0.00     0.016 A 
ATOM     31  C   UNL A   1      42.573  22.286  25.709  1.00  0.00     0.016 A 
ATOM     32  C   UNL A   1      42.315  22.651  28.472  1.00  0.00     0.010 A 
ATOM     33  C   UNL A   1      42.807  23.542  26.270  1.00  0.00     0.010 A 
ATOM     34  C   UNL A   1      42.669  23.735  27.654  1.00  0.00    -0.014 A 
BRANCH  34  35
ATOM     35  C   UNL A   1      42.975  25.051  28.263  1.00  0.00     0.031 A 
ATOM     36  C   UNL A   1      44.370  25.417  28.677  1.00  0.00     0.074 A 
ATOM     37  C   UNL A   1      41.962  25.919  28.445  1.00  0.00     0.049 A 
ATOM     38  N   UNL A   1      44.787  26.494  29.293  1.00  0.00    -0.248 NA
ATOM     39  C   UNL A   1      45.434  24.453  28.362  1.00  0.00     0.031 C 
ATOM     40  C   UNL A   1      40.568  25.678  28.062  1.00  0.00     0.029 A 
ATOM     41  N   UNL A   1      41.947  27.178  28.987  1.00  0.00    -0.354 N 
ATOM     42  C   UNL A   1      46.155  26.329  29.462  1.00  0.00     0.074 A 
ATOM     43  C   UNL A   1      46.499  25.045  28.887  1.00  0.00     0.031 C 
ATOM     44  C   UNL A   1      39.842  26.770  28.344  1.00  0.00     0.029 A 
ATOM     45  C   UNL A   1      40.701  27.754  28.990  1.00  0.00     0.049 A 
ATOM     46  H   UNL A   1      42.750  27.624  29.339  1.00  0.00     0.167 HD
ATOM     47  C   UNL A   1      47.038  27.171  30.052  1.00  0.00     0.031 A 
ATOM     48  C   UNL A   1      40.286  28.933  29.485  1.00  0.00     0.031 A 
ATOM     49  C   UNL A   1      46.688  28.445  30.626  1.00  0.00     0.049 A 
ATOM     50  C   UNL A   1      41.276  29.824  30.169  1.00  0.00     0.074 A 
ATOM     51  C   UNL A   1      47.512  29.370  31.247  1.00  0.00     0.029 A 
ATOM     52  N   UNL A   1      45.408  28.976  30.647  1.00  0.00    -0.354 N 
ATOM     53  N   UNL A   1      42.563  29.643  30.341  1.00  0.00    -0.248 NA
ATOM     54  C   UNL A   1      40.755  31.073  30.740  1.00  0.00     0.031 C 
ATOM     55  C   UNL A   1      46.721  30.441  31.678  1.00  0.00     0.029 A 
ATOM     56  C   UNL A   1      45.414  30.204  31.287  1.00  0.00     0.049 A 
ATOM     57  H   UNL A   1      44.610  28.543  30.263  1.00  0.00     0.167 HD
ATOM     58  C   UNL A   1      43.008  30.755  31.040  1.00  0.00     0.074 A 
ATOM     59  C   UNL A   1      41.857  31.616  31.236  1.00  0.00     0.031 C 
ATOM     60  C   UNL A   1      44.255  31.035  31.487  1.00  0.00     0.031 A 
BRANCH  47  61
ATOM     61  C   UNL A   1      48.469  26.723  30.145  1.00  0.00    -0.014 A 
ATOM     62  C   UNL A   1      48.920  25.937  31.217  1.00  0.00     0.009 A 
ATOM     63  C   UNL A   1      49.367  27.049  29.117  1.00  0.00     0.009 A 
ATOM     64  C   UNL A   1      50.250  25.508  31.267  1.00  0.00     0.001 A 
ATOM     65  C   UNL A   1      50.689  26.602  29.160  1.00  0.00     0.001 A 
ATOM     66  C   UNL A   1      51.131  25.837  30.238  1.00  0.00     0.000 A 
ENDBRANCH  47  61
BRANCH  48  67
ATOM     67  C   UNL A   1      38.854  29.308  29.373  1.00  0.00    -0.014 A 
ATOM     68  C   UNL A   1      37.970  29.063  30.433  1.00  0.00     0.009 A 
ATOM     69  C   UNL A   1      38.378  29.955  28.221  1.00  0.00     0.009 A 
ATOM     70  C   UNL A   1      36.632  29.453  30.337  1.00  0.00     0.001 A 
ATOM     71  C   UNL A   1      37.048  30.367  28.140  1.00  0.00     0.001 A 
ATOM     72  C   UNL A   1      36.175  30.112  29.196  1.00  0.00     0.000 A 
ENDBRANCH  48  67
BRANCH  60  73
ATOM     73  C   UNL A   1      44.430  32.330  32.222  1.00  0.00    -0.014 A 
ATOM     74  C   UNL A   1      44.778  33.505  31.537  1.00  0.00     0.009 A 
ATOM     75  C   UNL A   1      44.237  32.378  33.610  1.00  0.00     0.009 A 
ATOM     76  C   UNL A   1      44.962  34.698  32.237  1.00  0.00     0.001 A 
ATOM     77  C   UNL A   1      44.401  33.577  34.304  1.00  0.00     0.001 A 
ATOM     78  C   UNL A   1      44.772  34.734  33.619  1.00  0.00     0.000 A 
ENDBRANCH  60  73
ENDBRANCH  34  35
ENDBRANCH  27  29
ENDBRANCH  26  27
ENDBRANCH  25  26
ENDBRANCH   1  25
TORSDOF 16
ENDMDL
MODEL 3
REMARK VINA RESULT:      -9.8      3.273      7.665
REMARK SMILES C[NH2+][C@@]1(C(=O)OCCOC(=O)c2ccc(-c3c4nc(c(-c5ccccc5)c5ccc([nH]5)c(-c5ccccc5)c5nc(c(-c6ccccc6)c6ccc3[nH]6)C=C5)C=C4)cc2)CCC[C@H]1CCSc1nccc(=O)[nH]1
REMARK SMILES IDX 7 1 6 2 4 3 5 4 3 5 60 6 63 7 61 8 62 9 2 10 1 11 64 14
REMARK SMILES IDX 65 15 66 16 67 17 68 18 73 19 69 20 71 21 70 23 72 24 8 25
REMARK SMILES IDX 9 26 10 27 11 28 12 29 13 30 59 31 14 32 58 33 15 34 16 35
REMARK SMILES IDX 17 36 52 37 18 38 57 39 51 40 53 41 19 42 56 43 50 44 49 45
REMARK SMILES IDX 20 47 42 48 27 49 41 50 28 51 31 52 40 53 54 54 29 55 30 56
REMARK SMILES IDX 39 58 55 59 32 60 21 61 22 62 26 63 23 64 25 65 24 66 43 67
REMARK SMILES IDX 44 68 48 69 45 70 47 71 46 72 33 73 34 74 38 75 35 76 37 77
REMARK SMILES IDX 36 78
REMARK H PARENT 2 12 2 13 73 22 53 46 31 57
REMARK Flexibility Score: inf
ROOT
ATOM      1  C   UNL A   1      33.567  31.744  27.566  1.00  0.00     0.274 C 
ENDROOT
BRANCH   1   2
ATOM      2  O   UNL A   1      33.183  30.713  26.634  1.00  0.00    -0.457 OA
BRANCH   2   3
ATOM      3  C   UNL A   1      33.865  29.535  26.699  1.00  0.00     0.368 C 
ATOM      4  O   UNL A   1      34.743  29.313  27.528  1.00  0.00    -0.245 OA
BRANCH   3   5
ATOM      5  C   UNL A   1      33.464  28.516  25.558  1.00  0.00     0.197 C 
ATOM      6  C   UNL A   1      31.942  28.647  25.358  1.00  0.00     0.081 C 
ATOM      7  C   UNL A   1      33.623  27.012  26.001  1.00  0.00     0.063 C 
ATOM      8  C   UNL A   1      31.359  27.849  26.511  1.00  0.00     0.008 C 
ATOM      9  C   UNL A   1      32.244  26.617  26.585  1.00  0.00     0.011 C 
BRANCH   5  10
ATOM     10  N   UNL A   1      34.223  28.815  24.310  1.00  0.00    -0.334 N 
ATOM     11  C   UNL A   1      33.410  29.121  23.132  1.00  0.00     0.331 C 
ATOM     12  H   UNL A   1      34.824  29.619  24.492  1.00  0.00     0.347 HD
ATOM     13  H   UNL A   1      34.732  27.962  24.082  1.00  0.00     0.347 HD
ENDBRANCH   5  10
BRANCH   7  14
ATOM     14  C   UNL A   1      34.026  25.970  24.926  1.00  0.00     0.022 C 
BRANCH  14  15
ATOM     15  C   UNL A   1      32.903  24.981  24.581  1.00  0.00     0.079 C 
BRANCH  15  16
ATOM     16  S   UNL A   1      32.316  25.142  22.860  1.00  0.00    -0.088 SA
BRANCH  16  17
ATOM     17  C   UNL A   1      30.879  26.082  23.128  1.00  0.00     0.168 A 
ATOM     18  N   UNL A   1      29.942  25.706  23.932  1.00  0.00    -0.233 NA
ATOM     19  N   UNL A   1      30.870  27.237  22.417  1.00  0.00    -0.301 N 
ATOM     20  C   UNL A   1      28.836  26.515  23.983  1.00  0.00     0.120 A 
ATOM     21  C   UNL A   1      29.814  28.094  22.459  1.00  0.00     0.251 A 
ATOM     22  H   UNL A   1      31.647  27.462  21.855  1.00  0.00     0.172 HD
ATOM     23  C   UNL A   1      28.694  27.662  23.310  1.00  0.00     0.091 A 
ATOM     24  O   UNL A   1      29.781  29.154  21.845  1.00  0.00    -0.269 OA
ENDBRANCH  16  17
ENDBRANCH  15  16
ENDBRANCH  14  15
ENDBRANCH   7  14
ENDBRANCH   3   5
ENDBRANCH   2   3
ENDBRANCH   1   2
BRANCH   1  25
ATOM     25  C   UNL A   1      32.486  32.819  27.631  1.00  0.00     0.275 C 
BRANCH  25  26
ATOM     26  O   UNL A   1      33.099  34.106  27.832  1.00  0.00    -0.458 OA
BRANCH  26  27
ATOM     27  C   UNL A   1      33.344  34.414  29.122  1.00  0.00     0.338 C 
ATOM     28  O   UNL A   1      32.623  35.027  29.899  1.00  0.00    -0.246 OA
BRANCH  27  29
ATOM     29  C   UNL A   1      34.652  33.913  29.535  1.00  0.00     0.060 A 
ATOM     30  C   UNL A   1      35.764  34.190  28.746  1.00  0.00     0.016 A 
ATOM     31  C   UNL A   1      34.738  33.033  30.614  1.00  0.00     0.016 A 
ATOM     32  C   UNL A   1      36.972  33.555  29.011  1.00  0.00     0.010 A 
ATOM     33  C   UNL A   1      35.967  32.446  30.920  1.00  0.00     0.010 A 
ATOM     34  C   UNL A   1      37.090  32.695  30.114  1.00  0.00    -0.014 A 
BRANCH  34  35
ATOM     35  C   UNL A   1      38.410  32.124  30.468  1.00  0.00     0.031 A 
ATOM     36  C   UNL A   1      38.892  30.836  29.866  1.00  0.00     0.074 A 
ATOM     37  C   UNL A   1      39.174  32.788  31.355  1.00  0.00     0.049 A 
ATOM     38  N   UNL A   1      39.986  30.167  30.129  1.00  0.00    -0.248 NA
ATOM     39  C   UNL A   1      38.041  30.220  28.837  1.00  0.00     0.031 C 
ATOM     40  C   UNL A   1      38.816  34.059  31.989  1.00  0.00     0.029 A 
ATOM     41  N   UNL A   1      40.410  32.495  31.869  1.00  0.00    -0.354 N 
ATOM     42  C   UNL A   1      39.945  29.039  29.321  1.00  0.00     0.074 A 
ATOM     43  C   UNL A   1      38.716  29.112  28.558  1.00  0.00     0.031 C 
ATOM     44  C   UNL A   1      39.826  34.456  32.776  1.00  0.00     0.029 A 
ATOM     45  C   UNL A   1      40.867  33.436  32.757  1.00  0.00     0.049 A 
ATOM     46  H   UNL A   1      40.919  31.688  31.626  1.00  0.00     0.167 HD
ATOM     47  C   UNL A   1      40.848  28.032  29.233  1.00  0.00     0.031 A 
ATOM     48  C   UNL A   1      41.988  33.465  33.499  1.00  0.00     0.031 A 
ATOM     49  C   UNL A   1      42.067  27.965  29.997  1.00  0.00     0.049 A 
ATOM     50  C   UNL A   1      42.948  32.319  33.413  1.00  0.00     0.074 A 
ATOM     51  C   UNL A   1      43.046  26.985  29.978  1.00  0.00     0.029 A 
ATOM     52  N   UNL A   1      42.475  28.918  30.917  1.00  0.00    -0.354 N 
ATOM     53  N   UNL A   1      42.883  31.248  32.659  1.00  0.00    -0.248 NA
ATOM     54  C   UNL A   1      44.125  32.378  34.287  1.00  0.00     0.031 C 
ATOM     55  C   UNL A   1      44.026  27.327  30.917  1.00  0.00     0.029 A 
ATOM     56  C   UNL A   1      43.680  28.541  31.488  1.00  0.00     0.049 A 
ATOM     57  H   UNL A   1      41.981  29.742  31.134  1.00  0.00     0.167 HD
ATOM     58  C   UNL A   1      44.011  30.503  32.968  1.00  0.00     0.074 A 
ATOM     59  C   UNL A   1      44.755  31.259  33.958  1.00  0.00     0.031 C 
ATOM     60  C   UNL A   1      44.393  29.298  32.483  1.00  0.00     0.031 A 
BRANCH  47  61
ATOM     61  C   UNL A   1      40.533  26.896  28.302  1.00  0.00    -0.014 A 
ATOM     62  C   UNL A   1      39.735  25.816  28.711  1.00  0.00     0.009 A 
ATOM     63  C   UNL A   1      40.999  26.932  26.979  1.00  0.00     0.009 A 
ATOM     64  C   UNL A   1      39.431  24.784  27.819  1.00  0.00     0.001 A 
ATOM     65  C   UNL A   1      40.678  25.910  26.083  1.00  0.00     0.001 A 
ATOM     66  C   UNL A   1      39.899  24.834  26.506  1.00  0.00     0.000 A 
ENDBRANCH  47  61
BRANCH  48  67
ATOM     67  C   UNL A   1      42.231  34.611  34.410  1.00  0.00    -0.014 A 
ATOM     68  C   UNL A   1      41.778  34.575  35.737  1.00  0.00     0.009 A 
ATOM     69  C   UNL A   1      42.958  35.728  33.967  1.00  0.00     0.009 A 
ATOM     70  C   UNL A   1      42.042  35.640  36.600  1.00  0.00     0.001 A 
ATOM     71  C   UNL A   1      43.244  36.778  34.840  1.00  0.00     0.001 A 
ATOM     72  C   UNL A   1      42.782  36.736  36.155  1.00  0.00     0.000 A 
ENDBRANCH  48  67
BRANCH  60  73
ATOM     73  C   UNL A   1      45.678  28.737  33.016  1.00  0.00    -0.014 A 
ATOM     74  C   UNL A   1      46.903  29.033  32.398  1.00  0.00     0.009 A 
ATOM     75  C   UNL A   1      45.663  27.911  34.148  1.00  0.00     0.009 A 
ATOM     76  C   UNL A   1      48.088  28.484  32.889  1.00  0.00     0.001 A 
ATOM     77  C   UNL A   1      46.852  27.380  34.649  1.00  0.00     0.001 A 
ATOM     78  C   UNL A   1      48.062  27.660  34.014  1.00  0.00     0.000 A 
ENDBRANCH  60  73
ENDBRANCH  34  35
ENDBRANCH  27  29
ENDBRANCH  26  27
ENDBRANCH  25  26
ENDBRANCH   1  25
TORSDOF 16
ENDMDL
