MODEL 1
REMARK VINA RESULT:     -13.1      0.000      0.000
REMARK SMILES O=C(OCCOC(=O)c1ccc(N2C(=O)[C@@H]3N=NC(c4ccccc4)=C3[C@H]2c2cccc(Br)c2)cc1)c1ccc(-c2c3nc(c(-c4ccccc4)c4ccc([nH]4)c(-c4ccccc4)c4nc(c(-c5ccccc5)c5ccc2[nH]5)C=C4)C=C3)cc1
REMARK SMILES IDX 4 1 3 2 2 3 1 4 37 5 38 6 84 7 39 8 83 9 40 10 41 11 42 12
REMARK SMILES IDX 77 13 43 14 82 15 76 16 78 17 44 18 81 19 75 20 74 21 45 23
REMARK SMILES IDX 67 24 52 25 66 26 53 27 56 28 65 29 79 30 54 31 55 32 64 34
REMARK SMILES IDX 80 35 57 36 46 37 47 38 51 39 48 40 50 41 49 42 68 43 69 44
REMARK SMILES IDX 73 45 70 46 72 47 71 48 58 49 59 50 63 51 60 52 62 53 61 54
REMARK SMILES IDX 5 55 6 56 7 57 8 58 9 59 10 60 36 61 11 62 35 63 12 64 13 65
REMARK SMILES IDX 14 66 27 67 16 68 15 69 26 70 17 71 19 72 18 73 28 74 29 75
REMARK SMILES IDX 34 76 30 77 32 78 31 79 33 80 20 81 21 82 25 83 22 84 24 85
REMARK SMILES IDX 23 86
REMARK H PARENT 78 22 56 33
REMARK Flexibility Score: inf
ROOT
ATOM      1  C   UNL A   1      34.745  33.701  30.301  1.00  0.00     0.275 C 
ENDROOT
BRANCH   1   2
ATOM      2  O   UNL A   1      34.641  32.509  31.107  1.00  0.00    -0.458 OA
BRANCH   2   3
ATOM      3  C   UNL A   1      35.466  32.369  32.168  1.00  0.00     0.338 C 
ATOM      4  O   UNL A   1      35.240  32.791  33.290  1.00  0.00    -0.246 OA
BRANCH   3   5
ATOM      5  C   UNL A   1      36.582  31.452  31.857  1.00  0.00     0.060 A 
ATOM      6  C   UNL A   1      37.915  31.869  31.922  1.00  0.00     0.016 A 
ATOM      7  C   UNL A   1      36.276  30.130  31.512  1.00  0.00     0.016 A 
ATOM      8  C   UNL A   1      38.931  30.990  31.582  1.00  0.00     0.010 A 
ATOM      9  C   UNL A   1      37.298  29.244  31.183  1.00  0.00     0.010 A 
ATOM     10  C   UNL A   1      38.624  29.684  31.185  1.00  0.00    -0.014 A 
BRANCH  10  11
ATOM     11  C   UNL A   1      39.746  28.798  30.880  1.00  0.00     0.031 A 
ATOM     12  C   UNL A   1      40.670  28.492  32.011  1.00  0.00     0.074 A 
ATOM     13  C   UNL A   1      39.914  28.141  29.717  1.00  0.00     0.049 A 
ATOM     14  N   UNL A   1      41.934  28.750  32.128  1.00  0.00    -0.248 NA
ATOM     15  C   UNL A   1      40.076  27.849  33.186  1.00  0.00     0.031 C 
ATOM     16  C   UNL A   1      38.996  28.030  28.584  1.00  0.00     0.029 A 
ATOM     17  N   UNL A   1      40.951  27.333  29.361  1.00  0.00    -0.354 N 
ATOM     18  C   UNL A   1      42.332  28.181  33.339  1.00  0.00     0.074 A 
ATOM     19  C   UNL A   1      41.134  27.733  33.986  1.00  0.00     0.031 C 
ATOM     20  C   UNL A   1      39.419  27.033  27.771  1.00  0.00     0.029 A 
ATOM     21  C   UNL A   1      40.701  26.545  28.251  1.00  0.00     0.049 A 
ATOM     22  H   UNL A   1      41.805  27.311  29.852  1.00  0.00     0.167 HD
ATOM     23  C   UNL A   1      43.632  27.955  33.680  1.00  0.00     0.031 A 
ATOM     24  C   UNL A   1      41.477  25.535  27.790  1.00  0.00     0.031 A 
ATOM     25  C   UNL A   1      44.543  28.702  32.866  1.00  0.00     0.049 A 
ATOM     26  C   UNL A   1      42.829  25.692  28.370  1.00  0.00     0.074 A 
ATOM     27  C   UNL A   1      44.738  30.044  32.608  1.00  0.00     0.029 A 
ATOM     28  N   UNL A   1      45.201  28.031  31.866  1.00  0.00    -0.354 N 
ATOM     29  N   UNL A   1      43.652  26.643  28.035  1.00  0.00    -0.248 NA
ATOM     30  C   UNL A   1      43.137  25.012  29.618  1.00  0.00     0.031 C 
ATOM     31  C   UNL A   1      45.020  30.100  31.212  1.00  0.00     0.029 A 
ATOM     32  C   UNL A   1      45.039  28.787  30.735  1.00  0.00     0.049 A 
ATOM     33  H   UNL A   1      45.688  27.179  31.945  1.00  0.00     0.167 HD
ATOM     34  C   UNL A   1      44.314  26.970  29.209  1.00  0.00     0.074 A 
ATOM     35  C   UNL A   1      44.041  25.858  30.118  1.00  0.00     0.031 C 
ATOM     36  C   UNL A   1      44.791  28.231  29.425  1.00  0.00     0.031 A 
BRANCH  23  37
ATOM     37  C   UNL A   1      44.089  26.788  34.522  1.00  0.00    -0.014 A 
ATOM     38  C   UNL A   1      44.078  25.497  33.959  1.00  0.00     0.009 A 
ATOM     39  C   UNL A   1      44.251  26.864  35.919  1.00  0.00     0.009 A 
ATOM     40  C   UNL A   1      44.141  24.349  34.759  1.00  0.00     0.001 A 
ATOM     41  C   UNL A   1      44.360  25.720  36.717  1.00  0.00     0.001 A 
ATOM     42  C   UNL A   1      44.272  24.461  36.139  1.00  0.00     0.000 A 
ENDBRANCH  23  37
BRANCH  24  43
ATOM     43  C   UNL A   1      41.091  24.331  27.030  1.00  0.00    -0.014 A 
ATOM     44  C   UNL A   1      42.066  23.432  26.572  1.00  0.00     0.009 A 
ATOM     45  C   UNL A   1      39.746  23.927  26.979  1.00  0.00     0.009 A 
ATOM     46  C   UNL A   1      41.709  22.158  26.116  1.00  0.00     0.001 A 
ATOM     47  C   UNL A   1      39.389  22.656  26.518  1.00  0.00     0.001 A 
ATOM     48  C   UNL A   1      40.373  21.765  26.102  1.00  0.00     0.000 A 
ENDBRANCH  24  43
BRANCH  36  49
ATOM     49  C   UNL A   1      44.777  29.213  28.279  1.00  0.00    -0.014 A 
ATOM     50  C   UNL A   1      43.653  29.992  27.954  1.00  0.00     0.009 A 
ATOM     51  C   UNL A   1      45.985  29.485  27.620  1.00  0.00     0.009 A 
ATOM     52  C   UNL A   1      43.727  30.984  26.973  1.00  0.00     0.001 A 
ATOM     53  C   UNL A   1      46.067  30.495  26.660  1.00  0.00     0.001 A 
ATOM     54  C   UNL A   1      44.937  31.240  26.332  1.00  0.00     0.000 A 
ENDBRANCH  36  49
ENDBRANCH  10  11
ENDBRANCH   3   5
ENDBRANCH   2   3
ENDBRANCH   1   2
BRANCH   1  55
ATOM     55  C   UNL A   1      35.965  33.826  29.388  1.00  0.00     0.275 C 
BRANCH  55  56
ATOM     56  O   UNL A   1      35.762  33.101  28.159  1.00  0.00    -0.458 OA
BRANCH  56  57
ATOM     57  C   UNL A   1      36.212  31.820  28.177  1.00  0.00     0.338 C 
ATOM     58  O   UNL A   1      37.326  31.425  28.473  1.00  0.00    -0.246 OA
BRANCH  57  59
ATOM     59  C   UNL A   1      35.148  30.920  27.709  1.00  0.00     0.060 A 
ATOM     60  C   UNL A   1      35.441  29.603  27.354  1.00  0.00     0.018 A 
ATOM     61  C   UNL A   1      33.857  31.425  27.547  1.00  0.00     0.018 A 
ATOM     62  C   UNL A   1      34.425  28.786  26.842  1.00  0.00     0.027 A 
ATOM     63  C   UNL A   1      32.849  30.608  27.019  1.00  0.00     0.027 A 
ATOM     64  C   UNL A   1      33.128  29.291  26.644  1.00  0.00     0.045 A 
BRANCH  64  65
ATOM     65  N   UNL A   1      32.091  28.439  26.185  1.00  0.00    -0.299 N 
ATOM     66  C   UNL A   1      31.469  27.558  27.109  1.00  0.00     0.259 C 
ATOM     67  C   UNL A   1      32.065  27.878  24.820  1.00  0.00     0.152 C 
ATOM     68  C   UNL A   1      30.879  26.409  26.333  1.00  0.00     0.248 C 
ATOM     69  O   UNL A   1      31.448  27.686  28.308  1.00  0.00    -0.271 OA
ATOM     70  C   UNL A   1      31.865  26.457  25.227  1.00  0.00     0.021 C 
ATOM     71  N   UNL A   1      31.103  25.087  26.924  1.00  0.00    -0.170 NA
ATOM     72  C   UNL A   1      32.452  25.258  25.219  1.00  0.00     0.097 C 
ATOM     73  N   UNL A   1      31.900  24.439  26.189  1.00  0.00    -0.154 NA
BRANCH  67  74
ATOM     74  C   UNL A   1      30.857  28.401  24.010  1.00  0.00    -0.020 A 
ATOM     75  C   UNL A   1      30.007  27.532  23.287  1.00  0.00     0.006 A 
ATOM     76  C   UNL A   1      30.521  29.766  23.999  1.00  0.00     0.022 A 
ATOM     77  C   UNL A   1      28.826  27.983  22.689  1.00  0.00     0.002 A 
ATOM     78  C   UNL A   1      29.342  30.215  23.390  1.00  0.00     0.018 A 
ATOM     79  C   UNL A   1      28.483  29.327  22.752  1.00  0.00     0.016 A 
ATOM     80  Br  UNL A   1      28.896  32.053  23.450  1.00  0.00    -0.051 Br
ENDBRANCH  67  74
BRANCH  72  81
ATOM     81  C   UNL A   1      33.718  24.807  24.639  1.00  0.00     0.002 A 
ATOM     82  C   UNL A   1      33.738  24.106  23.429  1.00  0.00     0.010 A 
ATOM     83  C   UNL A   1      34.859  24.796  25.457  1.00  0.00     0.010 A 
ATOM     84  C   UNL A   1      34.864  23.354  23.074  1.00  0.00     0.001 A 
ATOM     85  C   UNL A   1      35.978  24.041  25.103  1.00  0.00     0.001 A 
ATOM     86  C   UNL A   1      35.972  23.304  23.921  1.00  0.00     0.000 A 
ENDBRANCH  72  81
ENDBRANCH  64  65
ENDBRANCH  57  59
ENDBRANCH  56  57
ENDBRANCH  55  56
ENDBRANCH   1  55
TORSDOF 14
ENDMDL
MODEL 2
REMARK VINA RESULT:     -13.0      3.829      8.619
REMARK SMILES O=C(OCCOC(=O)c1ccc(N2C(=O)[C@@H]3N=NC(c4ccccc4)=C3[C@H]2c2cccc(Br)c2)cc1)c1ccc(-c2c3nc(c(-c4ccccc4)c4ccc([nH]4)c(-c4ccccc4)c4nc(c(-c5ccccc5)c5ccc2[nH]5)C=C4)C=C3)cc1
REMARK SMILES IDX 4 1 3 2 2 3 1 4 37 5 38 6 84 7 39 8 83 9 40 10 41 11 42 12
REMARK SMILES IDX 77 13 43 14 82 15 76 16 78 17 44 18 81 19 75 20 74 21 45 23
REMARK SMILES IDX 67 24 52 25 66 26 53 27 56 28 65 29 79 30 54 31 55 32 64 34
REMARK SMILES IDX 80 35 57 36 46 37 47 38 51 39 48 40 50 41 49 42 68 43 69 44
REMARK SMILES IDX 73 45 70 46 72 47 71 48 58 49 59 50 63 51 60 52 62 53 61 54
REMARK SMILES IDX 5 55 6 56 7 57 8 58 9 59 10 60 36 61 11 62 35 63 12 64 13 65
REMARK SMILES IDX 14 66 27 67 16 68 15 69 26 70 17 71 19 72 18 73 28 74 29 75
REMARK SMILES IDX 34 76 30 77 32 78 31 79 33 80 20 81 21 82 25 83 22 84 24 85
REMARK SMILES IDX 23 86
REMARK H PARENT 78 22 56 33
REMARK Flexibility Score: inf
ROOT
ATOM      1  C   UNL A   1      42.912  21.751  25.960  1.00  0.00     0.275 C 
ENDROOT
BRANCH   1   2
ATOM      2  O   UNL A   1      42.710  22.840  25.033  1.00  0.00    -0.458 OA
BRANCH   2   3
ATOM      3  C   UNL A   1      43.647  23.810  24.959  1.00  0.00     0.338 C 
ATOM      4  O   UNL A   1      44.624  23.785  24.228  1.00  0.00    -0.246 OA
BRANCH   3   5
ATOM      5  C   UNL A   1      43.231  25.011  25.713  1.00  0.00     0.060 A 
ATOM      6  C   UNL A   1      43.924  25.442  26.847  1.00  0.00     0.016 A 
ATOM      7  C   UNL A   1      42.124  25.733  25.250  1.00  0.00     0.016 A 
ATOM      8  C   UNL A   1      43.477  26.549  27.552  1.00  0.00     0.010 A 
ATOM      9  C   UNL A   1      41.684  26.852  25.950  1.00  0.00     0.010 A 
ATOM     10  C   UNL A   1      42.341  27.240  27.121  1.00  0.00    -0.014 A 
BRANCH  10  11
ATOM     11  C   UNL A   1      41.948  28.422  27.886  1.00  0.00     0.031 A 
ATOM     12  C   UNL A   1      42.911  29.562  27.877  1.00  0.00     0.074 A 
ATOM     13  C   UNL A   1      40.744  28.602  28.462  1.00  0.00     0.049 A 
ATOM     14  N   UNL A   1      43.544  30.107  28.868  1.00  0.00    -0.248 NA
ATOM     15  C   UNL A   1      43.238  30.133  26.568  1.00  0.00     0.031 C 
ATOM     16  C   UNL A   1      39.540  27.781  28.350  1.00  0.00     0.029 A 
ATOM     17  N   UNL A   1      40.333  29.661  29.214  1.00  0.00    -0.354 N 
ATOM     18  C   UNL A   1      44.251  31.182  28.328  1.00  0.00     0.074 A 
ATOM     19  C   UNL A   1      44.104  31.087  26.906  1.00  0.00     0.031 C 
ATOM     20  C   UNL A   1      38.483  28.481  28.824  1.00  0.00     0.029 A 
ATOM     21  C   UNL A   1      38.963  29.728  29.398  1.00  0.00     0.049 A 
ATOM     22  H   UNL A   1      40.957  30.322  29.594  1.00  0.00     0.167 HD
ATOM     23  C   UNL A   1      44.784  32.191  29.073  1.00  0.00     0.031 A 
ATOM     24  C   UNL A   1      38.273  30.757  29.945  1.00  0.00     0.031 A 
ATOM     25  C   UNL A   1      44.888  31.844  30.459  1.00  0.00     0.049 A 
ATOM     26  C   UNL A   1      39.224  31.590  30.715  1.00  0.00     0.074 A 
ATOM     27  C   UNL A   1      45.532  30.847  31.163  1.00  0.00     0.029 A 
ATOM     28  N   UNL A   1      43.952  32.363  31.318  1.00  0.00    -0.354 N 
ATOM     29  N   UNL A   1      39.780  31.208  31.828  1.00  0.00    -0.248 NA
ATOM     30  C   UNL A   1      39.866  32.712  30.050  1.00  0.00     0.031 C 
ATOM     31  C   UNL A   1      44.602  30.470  32.175  1.00  0.00     0.029 A 
ATOM     32  C   UNL A   1      43.488  31.305  32.053  1.00  0.00     0.049 A 
ATOM     33  H   UNL A   1      43.671  33.303  31.390  1.00  0.00     0.167 HD
ATOM     34  C   UNL A   1      41.060  31.740  31.786  1.00  0.00     0.074 A 
ATOM     35  C   UNL A   1      41.015  32.748  30.730  1.00  0.00     0.031 C 
ATOM     36  C   UNL A   1      42.103  31.126  32.420  1.00  0.00     0.031 A 
BRANCH  23  37
ATOM     37  C   UNL A   1      44.884  33.622  28.601  1.00  0.00    -0.014 A 
ATOM     38  C   UNL A   1      43.699  34.348  28.372  1.00  0.00     0.009 A 
ATOM     39  C   UNL A   1      46.074  34.185  28.100  1.00  0.00     0.009 A 
ATOM     40  C   UNL A   1      43.698  35.525  27.613  1.00  0.00     0.001 A 
ATOM     41  C   UNL A   1      46.082  35.383  27.379  1.00  0.00     0.001 A 
ATOM     42  C   UNL A   1      44.888  36.037  27.108  1.00  0.00     0.000 A 
ENDBRANCH  23  37
BRANCH  24  43
ATOM     43  C   UNL A   1      36.883  31.187  29.701  1.00  0.00    -0.014 A 
ATOM     44  C   UNL A   1      36.072  31.618  30.761  1.00  0.00     0.009 A 
ATOM     45  C   UNL A   1      36.434  31.422  28.390  1.00  0.00     0.009 A 
ATOM     46  C   UNL A   1      34.873  32.296  30.517  1.00  0.00     0.001 A 
ATOM     47  C   UNL A   1      35.234  32.094  28.146  1.00  0.00     0.001 A 
ATOM     48  C   UNL A   1      34.460  32.546  29.211  1.00  0.00     0.000 A 
ENDBRANCH  24  43
BRANCH  36  49
ATOM     49  C   UNL A   1      41.804  29.974  33.347  1.00  0.00    -0.014 A 
ATOM     50  C   UNL A   1      41.664  28.648  32.899  1.00  0.00     0.009 A 
ATOM     51  C   UNL A   1      41.837  30.205  34.731  1.00  0.00     0.009 A 
ATOM     52  C   UNL A   1      41.524  27.595  33.806  1.00  0.00     0.001 A 
ATOM     53  C   UNL A   1      41.725  29.150  35.637  1.00  0.00     0.001 A 
ATOM     54  C   UNL A   1      41.561  27.846  35.175  1.00  0.00     0.000 A 
ENDBRANCH  36  49
ENDBRANCH  10  11
ENDBRANCH   3   5
ENDBRANCH   2   3
ENDBRANCH   1   2
BRANCH   1  55
ATOM     55  C   UNL A   1      42.588  22.014  27.430  1.00  0.00     0.275 C 
BRANCH  55  56
ATOM     56  O   UNL A   1      41.167  21.955  27.661  1.00  0.00    -0.458 OA
BRANCH  56  57
ATOM     57  C   UNL A   1      40.532  23.153  27.585  1.00  0.00     0.338 C 
ATOM     58  O   UNL A   1      40.832  24.195  28.141  1.00  0.00    -0.246 OA
BRANCH  57  59
ATOM     59  C   UNL A   1      39.332  23.019  26.745  1.00  0.00     0.060 A 
ATOM     60  C   UNL A   1      38.408  24.061  26.659  1.00  0.00     0.018 A 
ATOM     61  C   UNL A   1      39.087  21.803  26.104  1.00  0.00     0.018 A 
ATOM     62  C   UNL A   1      37.237  23.883  25.912  1.00  0.00     0.027 A 
ATOM     63  C   UNL A   1      37.905  21.626  25.373  1.00  0.00     0.027 A 
ATOM     64  C   UNL A   1      36.963  22.654  25.287  1.00  0.00     0.045 A 
BRANCH  64  65
ATOM     65  N   UNL A   1      35.805  22.503  24.482  1.00  0.00    -0.299 N 
ATOM     66  C   UNL A   1      35.783  23.103  23.195  1.00  0.00     0.259 C 
ATOM     67  C   UNL A   1      34.445  22.418  25.049  1.00  0.00     0.152 C 
ATOM     68  C   UNL A   1      34.344  23.321  22.807  1.00  0.00     0.248 C 
ATOM     69  O   UNL A   1      36.747  23.418  22.543  1.00  0.00    -0.271 OA
ATOM     70  C   UNL A   1      33.839  23.478  24.192  1.00  0.00     0.021 C 
ATOM     71  N   UNL A   1      34.061  24.623  22.198  1.00  0.00    -0.170 NA
ATOM     72  C   UNL A   1      33.290  24.694  24.237  1.00  0.00     0.097 C 
ATOM     73  N   UNL A   1      33.360  25.306  22.998  1.00  0.00    -0.154 NA
BRANCH  67  74
ATOM     74  C   UNL A   1      33.797  21.041  24.774  1.00  0.00    -0.020 A 
ATOM     75  C   UNL A   1      32.468  20.919  24.306  1.00  0.00     0.006 A 
ATOM     76  C   UNL A   1      34.523  19.848  24.931  1.00  0.00     0.022 A 
ATOM     77  C   UNL A   1      31.936  19.689  23.905  1.00  0.00     0.002 A 
ATOM     78  C   UNL A   1      33.983  18.616  24.538  1.00  0.00     0.018 A 
ATOM     79  C   UNL A   1      32.701  18.534  24.006  1.00  0.00     0.016 A 
ATOM     80  Br  UNL A   1      35.016  17.040  24.709  1.00  0.00    -0.051 Br
ENDBRANCH  67  74
BRANCH  72  81
ATOM     81  C   UNL A   1      32.963  25.563  25.368  1.00  0.00     0.002 A 
ATOM     82  C   UNL A   1      31.653  25.639  25.853  1.00  0.00     0.010 A 
ATOM     83  C   UNL A   1      33.890  26.550  25.740  1.00  0.00     0.010 A 
ATOM     84  C   UNL A   1      31.263  26.721  26.650  1.00  0.00     0.001 A 
ATOM     85  C   UNL A   1      33.497  27.631  26.530  1.00  0.00     0.001 A 
ATOM     86  C   UNL A   1      32.178  27.727  26.967  1.00  0.00     0.000 A 
ENDBRANCH  72  81
ENDBRANCH  64  65
ENDBRANCH  57  59
ENDBRANCH  56  57
ENDBRANCH  55  56
ENDBRANCH   1  55
TORSDOF 14
ENDMDL
MODEL 3
REMARK VINA RESULT:     -12.6      3.598      8.148
REMARK SMILES O=C(OCCOC(=O)c1ccc(N2C(=O)[C@@H]3N=NC(c4ccccc4)=C3[C@H]2c2cccc(Br)c2)cc1)c1ccc(-c2c3nc(c(-c4ccccc4)c4ccc([nH]4)c(-c4ccccc4)c4nc(c(-c5ccccc5)c5ccc2[nH]5)C=C4)C=C3)cc1
REMARK SMILES IDX 4 1 3 2 2 3 1 4 37 5 38 6 84 7 39 8 83 9 40 10 41 11 42 12
REMARK SMILES IDX 77 13 43 14 82 15 76 16 78 17 44 18 81 19 75 20 74 21 45 23
REMARK SMILES IDX 67 24 52 25 66 26 53 27 56 28 65 29 79 30 54 31 55 32 64 34
REMARK SMILES IDX 80 35 57 36 46 37 47 38 51 39 48 40 50 41 49 42 68 43 69 44
REMARK SMILES IDX 73 45 70 46 72 47 71 48 58 49 59 50 63 51 60 52 62 53 61 54
REMARK SMILES IDX 5 55 6 56 7 57 8 58 9 59 10 60 36 61 11 62 35 63 12 64 13 65
REMARK SMILES IDX 14 66 27 67 16 68 15 69 26 70 17 71 19 72 18 73 28 74 29 75
REMARK SMILES IDX 34 76 30 77 32 78 31 79 33 80 20 81 21 82 25 83 22 84 24 85
REMARK SMILES IDX 23 86
REMARK H PARENT 78 22 56 33
REMARK Flexibility Score: inf
ROOT
ATOM      1  C   UNL A   1      42.881  19.802  25.839  1.00  0.00     0.275 C 
ENDROOT
BRANCH   1   2
ATOM      2  O   UNL A   1      43.437  20.803  24.961  1.00  0.00    -0.458 OA
BRANCH   2   3
ATOM      3  C   UNL A   1      44.516  21.503  25.375  1.00  0.00     0.338 C 
ATOM      4  O   UNL A   1      45.674  21.226  25.107  1.00  0.00    -0.246 OA
BRANCH   3   5
ATOM      5  C   UNL A   1      44.114  22.773  26.015  1.00  0.00     0.060 A 
ATOM      6  C   UNL A   1      43.404  23.753  25.318  1.00  0.00     0.016 A 
ATOM      7  C   UNL A   1      44.445  22.970  27.361  1.00  0.00     0.016 A 
ATOM      8  C   UNL A   1      43.082  24.949  25.941  1.00  0.00     0.010 A 
ATOM      9  C   UNL A   1      44.111  24.165  27.990  1.00  0.00     0.010 A 
ATOM     10  C   UNL A   1      43.459  25.169  27.270  1.00  0.00    -0.014 A 
BRANCH  10  11
ATOM     11  C   UNL A   1      43.053  26.434  27.878  1.00  0.00     0.031 A 
ATOM     12  C   UNL A   1      44.005  27.573  27.726  1.00  0.00     0.074 A 
ATOM     13  C   UNL A   1      41.847  26.673  28.426  1.00  0.00     0.049 A 
ATOM     14  N   UNL A   1      44.630  28.246  28.640  1.00  0.00    -0.248 NA
ATOM     15  C   UNL A   1      44.328  27.978  26.355  1.00  0.00     0.031 C 
ATOM     16  C   UNL A   1      40.651  25.832  28.418  1.00  0.00     0.029 A 
ATOM     17  N   UNL A   1      41.423  27.814  29.038  1.00  0.00    -0.354 N 
ATOM     18  C   UNL A   1      45.326  29.252  27.969  1.00  0.00     0.074 A 
ATOM     19  C   UNL A   1      45.183  28.975  26.570  1.00  0.00     0.031 C 
ATOM     20  C   UNL A   1      39.586  26.575  28.799  1.00  0.00     0.029 A 
ATOM     21  C   UNL A   1      40.052  27.889  29.211  1.00  0.00     0.049 A 
ATOM     22  H   UNL A   1      42.039  28.524  29.332  1.00  0.00     0.167 HD
ATOM     23  C   UNL A   1      45.848  30.352  28.580  1.00  0.00     0.031 A 
ATOM     24  C   UNL A   1      39.351  28.972  29.622  1.00  0.00     0.031 A 
ATOM     25  C   UNL A   1      45.953  30.184  29.999  1.00  0.00     0.049 A 
ATOM     26  C   UNL A   1      40.291  29.906  30.282  1.00  0.00     0.074 A 
ATOM     27  C   UNL A   1      46.606  29.292  30.824  1.00  0.00     0.029 A 
ATOM     28  N   UNL A   1      45.010  30.798  30.785  1.00  0.00    -0.354 N 
ATOM     29  N   UNL A   1      40.849  29.674  31.434  1.00  0.00    -0.248 NA
ATOM     30  C   UNL A   1      40.923  30.942  29.481  1.00  0.00     0.031 C 
ATOM     31  C   UNL A   1      45.677  29.036  31.875  1.00  0.00     0.029 A 
ATOM     32  C   UNL A   1      44.555  29.837  31.648  1.00  0.00     0.049 A 
ATOM     33  H   UNL A   1      44.719  31.737  30.737  1.00  0.00     0.167 HD
ATOM     34  C   UNL A   1      42.123  30.209  31.326  1.00  0.00     0.074 A 
ATOM     35  C   UNL A   1      42.070  31.076  30.151  1.00  0.00     0.031 C 
ATOM     36  C   UNL A   1      43.171  29.692  32.034  1.00  0.00     0.031 A 
BRANCH  23  37
ATOM     37  C   UNL A   1      45.934  31.713  27.930  1.00  0.00    -0.014 A 
ATOM     38  C   UNL A   1      44.742  32.381  27.590  1.00  0.00     0.009 A 
ATOM     39  C   UNL A   1      47.125  32.229  27.383  1.00  0.00     0.009 A 
ATOM     40  C   UNL A   1      44.737  33.452  26.686  1.00  0.00     0.001 A 
ATOM     41  C   UNL A   1      47.128  33.326  26.515  1.00  0.00     0.001 A 
ATOM     42  C   UNL A   1      45.929  33.917  26.141  1.00  0.00     0.000 A 
ENDBRANCH  23  37
BRANCH  24  43
ATOM     43  C   UNL A   1      37.957  29.353  29.326  1.00  0.00    -0.014 A 
ATOM     44  C   UNL A   1      37.131  29.880  30.330  1.00  0.00     0.009 A 
ATOM     45  C   UNL A   1      37.516  29.444  27.994  1.00  0.00     0.009 A 
ATOM     46  C   UNL A   1      35.923  30.511  30.008  1.00  0.00     0.001 A 
ATOM     47  C   UNL A   1      36.308  30.069  27.673  1.00  0.00     0.001 A 
ATOM     48  C   UNL A   1      35.519  30.618  28.680  1.00  0.00     0.000 A 
ENDBRANCH  24  43
BRANCH  36  49
ATOM     49  C   UNL A   1      42.882  28.663  33.099  1.00  0.00    -0.014 A 
ATOM     50  C   UNL A   1      43.060  27.283  32.897  1.00  0.00     0.009 A 
ATOM     51  C   UNL A   1      42.590  29.111  34.397  1.00  0.00     0.009 A 
ATOM     52  C   UNL A   1      42.911  26.378  33.951  1.00  0.00     0.001 A 
ATOM     53  C   UNL A   1      42.470  28.210  35.456  1.00  0.00     0.001 A 
ATOM     54  C   UNL A   1      42.623  26.844  35.232  1.00  0.00     0.000 A 
ENDBRANCH  36  49
ENDBRANCH  10  11
ENDBRANCH   3   5
ENDBRANCH   2   3
ENDBRANCH   1   2
BRANCH   1  55
ATOM     55  C   UNL A   1      41.517  20.097  26.464  1.00  0.00     0.275 C 
BRANCH  55  56
ATOM     56  O   UNL A   1      40.876  21.203  25.798  1.00  0.00    -0.458 OA
BRANCH  56  57
ATOM     57  C   UNL A   1      40.362  22.143  26.632  1.00  0.00     0.338 C 
ATOM     58  O   UNL A   1      40.900  22.662  27.595  1.00  0.00    -0.246 OA
BRANCH  57  59
ATOM     59  C   UNL A   1      38.974  22.435  26.245  1.00  0.00     0.060 A 
ATOM     60  C   UNL A   1      38.435  23.706  26.448  1.00  0.00     0.018 A 
ATOM     61  C   UNL A   1      38.178  21.401  25.751  1.00  0.00     0.018 A 
ATOM     62  C   UNL A   1      37.090  23.941  26.140  1.00  0.00     0.027 A 
ATOM     63  C   UNL A   1      36.828  21.638  25.461  1.00  0.00     0.027 A 
ATOM     64  C   UNL A   1      36.268  22.901  25.671  1.00  0.00     0.045 A 
BRANCH  64  65
ATOM     65  N   UNL A   1      34.923  23.162  25.303  1.00  0.00    -0.299 N 
ATOM     66  C   UNL A   1      33.909  23.049  26.292  1.00  0.00     0.259 C 
ATOM     67  C   UNL A   1      34.390  22.858  23.961  1.00  0.00     0.152 C 
ATOM     68  C   UNL A   1      32.603  22.784  25.590  1.00  0.00     0.248 C 
ATOM     69  O   UNL A   1      34.071  23.115  27.485  1.00  0.00    -0.271 OA
ATOM     70  C   UNL A   1      33.199  22.089  24.424  1.00  0.00     0.021 C 
ATOM     71  N   UNL A   1      31.770  21.749  26.208  1.00  0.00    -0.170 NA
ATOM     72  C   UNL A   1      32.654  20.870  24.418  1.00  0.00     0.097 C 
ATOM     73  N   UNL A   1      31.736  20.741  25.446  1.00  0.00    -0.154 NA
BRANCH  67  74
ATOM     74  C   UNL A   1      33.967  24.142  23.210  1.00  0.00    -0.020 A 
ATOM     75  C   UNL A   1      33.314  24.096  21.957  1.00  0.00     0.006 A 
ATOM     76  C   UNL A   1      34.169  25.415  23.770  1.00  0.00     0.022 A 
ATOM     77  C   UNL A   1      32.788  25.244  21.355  1.00  0.00     0.002 A 
ATOM     78  C   UNL A   1      33.651  26.565  23.159  1.00  0.00     0.018 A 
ATOM     79  C   UNL A   1      32.944  26.482  21.965  1.00  0.00     0.016 A 
ATOM     80  Br  UNL A   1      33.894  28.254  23.976  1.00  0.00    -0.051 Br
ENDBRANCH  67  74
BRANCH  72  81
ATOM     81  C   UNL A   1      33.081  19.626  23.776  1.00  0.00     0.002 A 
ATOM     82  C   UNL A   1      32.313  19.048  22.760  1.00  0.00     0.010 A 
ATOM     83  C   UNL A   1      34.076  18.859  24.403  1.00  0.00     0.010 A 
ATOM     84  C   UNL A   1      32.498  17.703  22.422  1.00  0.00     0.001 A 
ATOM     85  C   UNL A   1      34.255  17.517  24.067  1.00  0.00     0.001 A 
ATOM     86  C   UNL A   1      33.451  16.934  23.091  1.00  0.00     0.000 A 
ENDBRANCH  72  81
ENDBRANCH  64  65
ENDBRANCH  57  59
ENDBRANCH  56  57
ENDBRANCH  55  56
ENDBRANCH   1  55
TORSDOF 14
ENDMDL
