MODEL 1
REMARK VINA RESULT:     -10.3      0.000      0.000
REMARK SMILES C[C@@H](C(=O)OCCOC(=O)c1ccc(-c2c3nc(c(-c4ccccc4)c4ccc([nH]4)c(-c4ccccc4)c4nc(c(-c5ccccc5)c5ccc2[nH]5)C=C4)C=C3)cc1)c1ccc(Cc2ccco2)cc1F
REMARK SMILES IDX 6 1 5 2 3 3 4 4 2 5 1 6 59 7 60 8 70 9 61 10 69 11 71 12
REMARK SMILES IDX 62 13 63 14 64 15 65 16 68 17 66 18 67 19 7 20 8 21 9 22
REMARK SMILES IDX 10 23 11 24 12 25 58 26 13 27 57 28 14 29 15 30 16 31 51 32
REMARK SMILES IDX 17 33 56 34 50 35 52 36 18 37 55 38 49 39 48 40 19 42 41 43
REMARK SMILES IDX 26 44 40 45 27 46 30 47 39 48 53 49 28 50 29 51 38 53 54 54
REMARK SMILES IDX 31 55 20 56 21 57 25 58 22 59 24 60 23 61 42 62 43 63 47 64
REMARK SMILES IDX 44 65 46 66 45 67 32 68 33 69 37 70 34 71 36 72 35 73
REMARK H PARENT 52 41 30 52
REMARK Flexibility Score: inf
ROOT
ATOM      1  C   UNL A   1      38.624  21.125  25.732  1.00  0.00     0.274 C 
ENDROOT
BRANCH   1   2
ATOM      2  O   UNL A   1      37.677  21.254  24.652  1.00  0.00    -0.462 OA
BRANCH   2   3
ATOM      3  C   UNL A   1      36.391  21.537  25.007  1.00  0.00     0.313 C 
ATOM      4  O   UNL A   1      35.880  21.132  26.045  1.00  0.00    -0.252 OA
BRANCH   3   5
ATOM      5  C   UNL A   1      35.653  22.358  23.927  1.00  0.00     0.129 C 
ATOM      6  C   UNL A   1      36.636  23.061  22.980  1.00  0.00     0.025 C 
BRANCH   5   7
ATOM      7  C   UNL A   1      34.617  23.303  24.542  1.00  0.00     0.002 A 
ATOM      8  C   UNL A   1      34.951  24.480  25.227  1.00  0.00     0.008 A 
ATOM      9  C   UNL A   1      33.258  22.978  24.466  1.00  0.00     0.127 A 
ATOM     10  C   UNL A   1      33.964  25.271  25.836  1.00  0.00     0.005 A 
ATOM     11  C   UNL A   1      32.279  23.733  25.117  1.00  0.00     0.043 A 
ATOM     12  F   UNL A   1      32.867  21.909  23.756  1.00  0.00    -0.207 F 
ATOM     13  C   UNL A   1      32.619  24.885  25.843  1.00  0.00    -0.038 A 
BRANCH  13  14
ATOM     14  C   UNL A   1      31.512  25.707  26.477  1.00  0.00     0.111 C 
BRANCH  14  15
ATOM     15  C   UNL A   1      31.637  27.197  26.511  1.00  0.00     0.108 A 
ATOM     16  C   UNL A   1      31.792  28.174  27.475  1.00  0.00     0.046 A 
ATOM     17  O   UNL A   1      31.705  27.781  25.273  1.00  0.00    -0.469 OA
ATOM     18  C   UNL A   1      31.997  29.397  26.793  1.00  0.00     0.042 A 
ATOM     19  C   UNL A   1      31.910  29.109  25.454  1.00  0.00     0.195 A 
ENDBRANCH  14  15
ENDBRANCH  13  14
ENDBRANCH   5   7
ENDBRANCH   3   5
ENDBRANCH   2   3
ENDBRANCH   1   2
BRANCH   1  20
ATOM     20  C   UNL A   1      39.416  19.817  25.649  1.00  0.00     0.275 C 
BRANCH  20  21
ATOM     21  O   UNL A   1      40.479  19.775  26.620  1.00  0.00    -0.458 OA
BRANCH  21  22
ATOM     22  C   UNL A   1      41.717  20.034  26.143  1.00  0.00     0.338 C 
ATOM     23  O   UNL A   1      42.373  19.354  25.371  1.00  0.00    -0.246 OA
BRANCH  22  24
ATOM     24  C   UNL A   1      42.155  21.362  26.596  1.00  0.00     0.060 A 
ATOM     25  C   UNL A   1      42.181  21.589  27.968  1.00  0.00     0.016 A 
ATOM     26  C   UNL A   1      42.410  22.409  25.710  1.00  0.00     0.016 A 
ATOM     27  C   UNL A   1      42.416  22.863  28.466  1.00  0.00     0.010 A 
ATOM     28  C   UNL A   1      42.691  23.690  26.216  1.00  0.00     0.010 A 
ATOM     29  C   UNL A   1      42.671  23.935  27.601  1.00  0.00    -0.014 A 
BRANCH  29  30
ATOM     30  C   UNL A   1      42.836  25.293  28.190  1.00  0.00     0.031 A 
ATOM     31  C   UNL A   1      44.213  25.857  28.423  1.00  0.00     0.074 A 
ATOM     32  C   UNL A   1      41.757  26.083  28.366  1.00  0.00     0.049 A 
ATOM     33  N   UNL A   1      44.560  27.037  28.880  1.00  0.00    -0.248 NA
ATOM     34  C   UNL A   1      45.354  24.991  28.085  1.00  0.00     0.031 C 
ATOM     35  C   UNL A   1      40.370  25.695  28.097  1.00  0.00     0.029 A 
ATOM     36  N   UNL A   1      41.662  27.396  28.758  1.00  0.00    -0.354 N 
ATOM     37  C   UNL A   1      45.947  27.067  28.841  1.00  0.00     0.074 A 
ATOM     38  C   UNL A   1      46.387  25.760  28.402  1.00  0.00     0.031 C 
ATOM     39  C   UNL A   1      39.574  26.763  28.264  1.00  0.00     0.029 A 
ATOM     40  C   UNL A   1      40.381  27.894  28.710  1.00  0.00     0.049 A 
ATOM     41  H   UNL A   1      42.436  27.931  29.045  1.00  0.00     0.167 HD
ATOM     42  C   UNL A   1      46.782  28.108  29.071  1.00  0.00     0.031 A 
ATOM     43  C   UNL A   1      39.903  29.120  29.000  1.00  0.00     0.031 A 
ATOM     44  C   UNL A   1      46.364  29.429  29.448  1.00  0.00     0.049 A 
ATOM     45  C   UNL A   1      40.852  30.188  29.467  1.00  0.00     0.074 A 
ATOM     46  C   UNL A   1      47.148  30.543  29.697  1.00  0.00     0.029 A 
ATOM     47  N   UNL A   1      45.047  29.821  29.620  1.00  0.00    -0.354 N 
ATOM     48  N   UNL A   1      42.162  30.177  29.495  1.00  0.00    -0.248 NA
ATOM     49  C   UNL A   1      40.249  31.433  29.968  1.00  0.00     0.031 C 
ATOM     50  C   UNL A   1      46.305  31.606  30.042  1.00  0.00     0.029 A 
ATOM     51  C   UNL A   1      44.996  31.159  29.977  1.00  0.00     0.049 A 
ATOM     52  H   UNL A   1      44.263  29.236  29.506  1.00  0.00     0.167 HD
ATOM     53  C   UNL A   1      42.538  31.412  30.006  1.00  0.00     0.074 A 
ATOM     54  C   UNL A   1      41.322  32.156  30.255  1.00  0.00     0.031 C 
ATOM     55  C   UNL A   1      43.785  31.885  30.246  1.00  0.00     0.031 A 
BRANCH  42  56
ATOM     56  C   UNL A   1      48.250  27.868  28.872  1.00  0.00    -0.014 A 
ATOM     57  C   UNL A   1      48.852  28.121  27.630  1.00  0.00     0.009 A 
ATOM     58  C   UNL A   1      49.048  27.446  29.946  1.00  0.00     0.009 A 
ATOM     59  C   UNL A   1      50.225  27.934  27.458  1.00  0.00     0.001 A 
ATOM     60  C   UNL A   1      50.423  27.276  29.776  1.00  0.00     0.001 A 
ATOM     61  C   UNL A   1      51.009  27.516  28.533  1.00  0.00     0.000 A 
ENDBRANCH  42  56
BRANCH  43  62
ATOM     62  C   UNL A   1      38.446  29.403  28.912  1.00  0.00    -0.014 A 
ATOM     63  C   UNL A   1      37.856  29.756  27.690  1.00  0.00     0.009 A 
ATOM     64  C   UNL A   1      37.644  29.361  30.065  1.00  0.00     0.009 A 
ATOM     65  C   UNL A   1      36.497  30.080  27.628  1.00  0.00     0.001 A 
ATOM     66  C   UNL A   1      36.282  29.656  29.995  1.00  0.00     0.001 A 
ATOM     67  C   UNL A   1      35.711  30.025  28.778  1.00  0.00     0.000 A 
ENDBRANCH  43  62
BRANCH  55  68
ATOM     68  C   UNL A   1      43.893  33.275  30.798  1.00  0.00    -0.014 A 
ATOM     69  C   UNL A   1      43.986  33.493  32.182  1.00  0.00     0.009 A 
ATOM     70  C   UNL A   1      43.925  34.377  29.930  1.00  0.00     0.009 A 
ATOM     71  C   UNL A   1      44.086  34.791  32.686  1.00  0.00     0.001 A 
ATOM     72  C   UNL A   1      44.049  35.672  30.436  1.00  0.00     0.001 A 
ATOM     73  C   UNL A   1      44.122  35.878  31.814  1.00  0.00     0.000 A 
ENDBRANCH  55  68
ENDBRANCH  29  30
ENDBRANCH  22  24
ENDBRANCH  21  22
ENDBRANCH  20  21
ENDBRANCH   1  20
TORSDOF 14
ENDMDL
MODEL 2
REMARK VINA RESULT:     -10.2      3.986      6.292
REMARK SMILES C[C@@H](C(=O)OCCOC(=O)c1ccc(-c2c3nc(c(-c4ccccc4)c4ccc([nH]4)c(-c4ccccc4)c4nc(c(-c5ccccc5)c5ccc2[nH]5)C=C4)C=C3)cc1)c1ccc(Cc2ccco2)cc1F
REMARK SMILES IDX 6 1 5 2 3 3 4 4 2 5 1 6 59 7 60 8 70 9 61 10 69 11 71 12
REMARK SMILES IDX 62 13 63 14 64 15 65 16 68 17 66 18 67 19 7 20 8 21 9 22
REMARK SMILES IDX 10 23 11 24 12 25 58 26 13 27 57 28 14 29 15 30 16 31 51 32
REMARK SMILES IDX 17 33 56 34 50 35 52 36 18 37 55 38 49 39 48 40 19 42 41 43
REMARK SMILES IDX 26 44 40 45 27 46 30 47 39 48 53 49 28 50 29 51 38 53 54 54
REMARK SMILES IDX 31 55 20 56 21 57 25 58 22 59 24 60 23 61 42 62 43 63 47 64
REMARK SMILES IDX 44 65 46 66 45 67 32 68 33 69 37 70 34 71 36 72 35 73
REMARK H PARENT 52 41 30 52
REMARK Flexibility Score: inf
ROOT
ATOM      1  C   UNL A   1      44.890  21.499  25.093  1.00  0.00     0.274 C 
ENDROOT
BRANCH   1   2
ATOM      2  O   UNL A   1      43.780  20.673  24.686  1.00  0.00    -0.462 OA
BRANCH   2   3
ATOM      3  C   UNL A   1      43.736  19.416  25.213  1.00  0.00     0.313 C 
ATOM      4  O   UNL A   1      44.177  18.432  24.631  1.00  0.00    -0.252 OA
BRANCH   3   5
ATOM      5  C   UNL A   1      43.016  19.378  26.579  1.00  0.00     0.129 C 
ATOM      6  C   UNL A   1      42.812  17.938  27.071  1.00  0.00     0.025 C 
BRANCH   5   7
ATOM      7  C   UNL A   1      41.728  20.206  26.565  1.00  0.00     0.002 A 
ATOM      8  C   UNL A   1      40.605  19.880  25.791  1.00  0.00     0.008 A 
ATOM      9  C   UNL A   1      41.655  21.379  27.326  1.00  0.00     0.127 A 
ATOM     10  C   UNL A   1      39.477  20.717  25.759  1.00  0.00     0.005 A 
ATOM     11  C   UNL A   1      40.558  22.240  27.253  1.00  0.00     0.043 A 
ATOM     12  F   UNL A   1      42.663  21.703  28.149  1.00  0.00    -0.207 F 
ATOM     13  C   UNL A   1      39.454  21.938  26.441  1.00  0.00    -0.038 A 
BRANCH  13  14
ATOM     14  C   UNL A   1      38.258  22.873  26.449  1.00  0.00     0.111 C 
BRANCH  14  15
ATOM     15  C   UNL A   1      37.126  22.618  25.504  1.00  0.00     0.108 A 
ATOM     16  C   UNL A   1      36.849  22.866  24.174  1.00  0.00     0.046 A 
ATOM     17  O   UNL A   1      36.110  21.869  26.038  1.00  0.00    -0.469 OA
ATOM     18  C   UNL A   1      35.630  22.210  23.879  1.00  0.00     0.042 A 
ATOM     19  C   UNL A   1      35.208  21.638  25.053  1.00  0.00     0.195 A 
ENDBRANCH  14  15
ENDBRANCH  13  14
ENDBRANCH   5   7
ENDBRANCH   3   5
ENDBRANCH   2   3
ENDBRANCH   1   2
BRANCH   1  20
ATOM     20  C   UNL A   1      45.068  22.714  24.179  1.00  0.00     0.275 C 
BRANCH  20  21
ATOM     21  O   UNL A   1      44.180  23.788  24.541  1.00  0.00    -0.458 OA
BRANCH  21  22
ATOM     22  C   UNL A   1      44.777  24.906  25.014  1.00  0.00     0.338 C 
ATOM     23  O   UNL A   1      45.816  25.413  24.627  1.00  0.00    -0.246 OA
BRANCH  22  24
ATOM     24  C   UNL A   1      43.916  25.537  26.025  1.00  0.00     0.060 A 
ATOM     25  C   UNL A   1      44.162  26.871  26.327  1.00  0.00     0.016 A 
ATOM     26  C   UNL A   1      42.974  24.816  26.760  1.00  0.00     0.016 A 
ATOM     27  C   UNL A   1      43.509  27.485  27.387  1.00  0.00     0.010 A 
ATOM     28  C   UNL A   1      42.281  25.451  27.806  1.00  0.00     0.010 A 
ATOM     29  C   UNL A   1      42.561  26.786  28.145  1.00  0.00    -0.014 A 
BRANCH  29  30
ATOM     30  C   UNL A   1      41.954  27.472  29.320  1.00  0.00     0.031 A 
ATOM     31  C   UNL A   1      42.676  27.495  30.643  1.00  0.00     0.074 A 
ATOM     32  C   UNL A   1      40.837  28.211  29.162  1.00  0.00     0.049 A 
ATOM     33  N   UNL A   1      42.333  28.081  31.764  1.00  0.00    -0.248 NA
ATOM     34  C   UNL A   1      43.960  26.779  30.712  1.00  0.00     0.031 C 
ATOM     35  C   UNL A   1      40.083  28.350  27.913  1.00  0.00     0.029 A 
ATOM     36  N   UNL A   1      40.172  29.031  30.041  1.00  0.00    -0.354 N 
ATOM     37  C   UNL A   1      43.374  27.842  32.651  1.00  0.00     0.074 A 
ATOM     38  C   UNL A   1      44.321  26.984  31.973  1.00  0.00     0.031 C 
ATOM     39  C   UNL A   1      39.106  29.254  28.088  1.00  0.00     0.029 A 
ATOM     40  C   UNL A   1      39.122  29.713  29.473  1.00  0.00     0.049 A 
ATOM     41  H   UNL A   1      40.423  29.122  30.988  1.00  0.00     0.167 HD
ATOM     42  C   UNL A   1      43.569  28.351  33.891  1.00  0.00     0.031 A 
ATOM     43  C   UNL A   1      38.261  30.602  30.004  1.00  0.00     0.031 A 
ATOM     44  C   UNL A   1      42.673  29.252  34.560  1.00  0.00     0.049 A 
ATOM     45  C   UNL A   1      38.387  30.971  31.456  1.00  0.00     0.074 A 
ATOM     46  C   UNL A   1      42.800  29.818  35.817  1.00  0.00     0.029 A 
ATOM     47  N   UNL A   1      41.489  29.730  34.023  1.00  0.00    -0.354 N 
ATOM     48  N   UNL A   1      39.340  30.677  32.305  1.00  0.00    -0.248 NA
ATOM     49  C   UNL A   1      37.298  31.778  32.028  1.00  0.00     0.031 C 
ATOM     50  C   UNL A   1      41.679  30.623  36.051  1.00  0.00     0.029 A 
ATOM     51  C   UNL A   1      40.872  30.581  34.927  1.00  0.00     0.049 A 
ATOM     52  H   UNL A   1      41.137  29.500  33.133  1.00  0.00     0.167 HD
ATOM     53  C   UNL A   1      38.971  31.268  33.506  1.00  0.00     0.074 A 
ATOM     54  C   UNL A   1      37.720  31.956  33.272  1.00  0.00     0.031 C 
ATOM     55  C   UNL A   1      39.617  31.242  34.697  1.00  0.00     0.031 A 
BRANCH  42  56
ATOM     56  C   UNL A   1      44.841  27.978  34.595  1.00  0.00    -0.014 A 
ATOM     57  C   UNL A   1      44.899  26.831  35.402  1.00  0.00     0.009 A 
ATOM     58  C   UNL A   1      46.002  28.740  34.405  1.00  0.00     0.009 A 
ATOM     59  C   UNL A   1      46.093  26.465  36.025  1.00  0.00     0.001 A 
ATOM     60  C   UNL A   1      47.199  28.363  35.015  1.00  0.00     0.001 A 
ATOM     61  C   UNL A   1      47.243  27.229  35.828  1.00  0.00     0.000 A 
ENDBRANCH  42  56
BRANCH  43  62
ATOM     62  C   UNL A   1      37.164  31.176  29.181  1.00  0.00    -0.014 A 
ATOM     63  C   UNL A   1      37.210  32.510  28.752  1.00  0.00     0.009 A 
ATOM     64  C   UNL A   1      36.040  30.398  28.856  1.00  0.00     0.009 A 
ATOM     65  C   UNL A   1      36.145  33.059  28.030  1.00  0.00     0.001 A 
ATOM     66  C   UNL A   1      34.992  30.939  28.110  1.00  0.00     0.001 A 
ATOM     67  C   UNL A   1      35.041  32.272  27.706  1.00  0.00     0.000 A 
ENDBRANCH  43  62
BRANCH  55  68
ATOM     68  C   UNL A   1      38.982  31.986  35.834  1.00  0.00    -0.014 A 
ATOM     69  C   UNL A   1      39.303  33.330  36.081  1.00  0.00     0.009 A 
ATOM     70  C   UNL A   1      38.039  31.347  36.654  1.00  0.00     0.009 A 
ATOM     71  C   UNL A   1      38.707  34.013  37.143  1.00  0.00     0.001 A 
ATOM     72  C   UNL A   1      37.428  32.040  37.700  1.00  0.00     0.001 A 
ATOM     73  C   UNL A   1      37.768  33.370  37.948  1.00  0.00     0.000 A 
ENDBRANCH  55  68
ENDBRANCH  29  30
ENDBRANCH  22  24
ENDBRANCH  21  22
ENDBRANCH  20  21
ENDBRANCH   1  20
TORSDOF 14
ENDMDL
MODEL 3
REMARK VINA RESULT:     -10.1      1.595      2.160
REMARK SMILES C[C@@H](C(=O)OCCOC(=O)c1ccc(-c2c3nc(c(-c4ccccc4)c4ccc([nH]4)c(-c4ccccc4)c4nc(c(-c5ccccc5)c5ccc2[nH]5)C=C4)C=C3)cc1)c1ccc(Cc2ccco2)cc1F
REMARK SMILES IDX 6 1 5 2 3 3 4 4 2 5 1 6 59 7 60 8 70 9 61 10 69 11 71 12
REMARK SMILES IDX 62 13 63 14 64 15 65 16 68 17 66 18 67 19 7 20 8 21 9 22
REMARK SMILES IDX 10 23 11 24 12 25 58 26 13 27 57 28 14 29 15 30 16 31 51 32
REMARK SMILES IDX 17 33 56 34 50 35 52 36 18 37 55 38 49 39 48 40 19 42 41 43
REMARK SMILES IDX 26 44 40 45 27 46 30 47 39 48 53 49 28 50 29 51 38 53 54 54
REMARK SMILES IDX 31 55 20 56 21 57 25 58 22 59 24 60 23 61 42 62 43 63 47 64
REMARK SMILES IDX 44 65 46 66 45 67 32 68 33 69 37 70 34 71 36 72 35 73
REMARK H PARENT 52 41 30 52
REMARK Flexibility Score: inf
ROOT
ATOM      1  C   UNL A   1      37.917  19.924  24.797  1.00  0.00     0.274 C 
ENDROOT
BRANCH   1   2
ATOM      2  O   UNL A   1      36.766  20.611  25.330  1.00  0.00    -0.462 OA
BRANCH   2   3
ATOM      3  C   UNL A   1      36.235  21.595  24.550  1.00  0.00     0.313 C 
ATOM      4  O   UNL A   1      36.898  22.241  23.745  1.00  0.00    -0.252 OA
BRANCH   3   5
ATOM      5  C   UNL A   1      34.740  21.838  24.849  1.00  0.00     0.129 C 
ATOM      6  C   UNL A   1      33.897  20.584  24.575  1.00  0.00     0.025 C 
BRANCH   5   7
ATOM      7  C   UNL A   1      34.216  23.092  24.144  1.00  0.00     0.002 A 
ATOM      8  C   UNL A   1      33.620  23.076  22.874  1.00  0.00     0.008 A 
ATOM      9  C   UNL A   1      34.363  24.340  24.759  1.00  0.00     0.127 A 
ATOM     10  C   UNL A   1      33.224  24.265  22.242  1.00  0.00     0.005 A 
ATOM     11  C   UNL A   1      34.022  25.530  24.110  1.00  0.00     0.043 A 
ATOM     12  F   UNL A   1      34.851  24.416  26.006  1.00  0.00    -0.207 F 
ATOM     13  C   UNL A   1      33.469  25.516  22.820  1.00  0.00    -0.038 A 
BRANCH  13  14
ATOM     14  C   UNL A   1      33.054  26.830  22.185  1.00  0.00     0.111 C 
BRANCH  14  15
ATOM     15  C   UNL A   1      31.731  27.429  22.544  1.00  0.00     0.108 A 
ATOM     16  C   UNL A   1      30.492  26.969  22.947  1.00  0.00     0.046 A 
ATOM     17  O   UNL A   1      31.728  28.799  22.579  1.00  0.00    -0.469 OA
ATOM     18  C   UNL A   1      29.717  28.107  23.272  1.00  0.00     0.042 A 
ATOM     19  C   UNL A   1      30.505  29.198  23.007  1.00  0.00     0.195 A 
ENDBRANCH  14  15
ENDBRANCH  13  14
ENDBRANCH   5   7
ENDBRANCH   3   5
ENDBRANCH   2   3
ENDBRANCH   1   2
BRANCH   1  20
ATOM     20  C   UNL A   1      39.177  20.183  25.628  1.00  0.00     0.275 C 
BRANCH  20  21
ATOM     21  O   UNL A   1      40.066  19.050  25.614  1.00  0.00    -0.458 OA
BRANCH  21  22
ATOM     22  C   UNL A   1      41.364  19.323  25.878  1.00  0.00     0.338 C 
ATOM     23  O   UNL A   1      42.340  18.663  25.566  1.00  0.00    -0.246 OA
BRANCH  22  24
ATOM     24  C   UNL A   1      41.471  20.643  26.517  1.00  0.00     0.060 A 
ATOM     25  C   UNL A   1      41.809  21.718  25.704  1.00  0.00     0.016 A 
ATOM     26  C   UNL A   1      41.375  20.815  27.898  1.00  0.00     0.016 A 
ATOM     27  C   UNL A   1      42.096  22.958  26.258  1.00  0.00     0.010 A 
ATOM     28  C   UNL A   1      41.623  22.082  28.456  1.00  0.00     0.010 A 
ATOM     29  C   UNL A   1      42.011  23.160  27.642  1.00  0.00    -0.014 A 
BRANCH  29  30
ATOM     30  C   UNL A   1      42.410  24.489  28.185  1.00  0.00     0.031 A 
ATOM     31  C   UNL A   1      43.867  24.844  28.327  1.00  0.00     0.074 A 
ATOM     32  C   UNL A   1      41.473  25.434  28.400  1.00  0.00     0.049 A 
ATOM     33  N   UNL A   1      44.411  25.966  28.734  1.00  0.00    -0.248 NA
ATOM     34  C   UNL A   1      44.845  23.811  27.949  1.00  0.00     0.031 C 
ATOM     35  C   UNL A   1      40.030  25.254  28.218  1.00  0.00     0.029 A 
ATOM     36  N   UNL A   1      41.597  26.754  28.762  1.00  0.00    -0.354 N 
ATOM     37  C   UNL A   1      45.783  25.787  28.617  1.00  0.00     0.074 A 
ATOM     38  C   UNL A   1      45.998  24.422  28.189  1.00  0.00     0.031 C 
ATOM     39  C   UNL A   1      39.413  26.433  28.400  1.00  0.00     0.029 A 
ATOM     40  C   UNL A   1      40.404  27.437  28.772  1.00  0.00     0.049 A 
ATOM     41  H   UNL A   1      42.458  27.171  28.992  1.00  0.00     0.167 HD
ATOM     42  C   UNL A   1      46.776  26.695  28.774  1.00  0.00     0.031 A 
ATOM     43  C   UNL A   1      40.132  28.726  29.056  1.00  0.00     0.031 A 
ATOM     44  C   UNL A   1      46.581  28.070  29.139  1.00  0.00     0.049 A 
ATOM     45  C   UNL A   1      41.255  29.647  29.441  1.00  0.00     0.074 A 
ATOM     46  C   UNL A   1      47.536  29.058  29.314  1.00  0.00     0.029 A 
ATOM     47  N   UNL A   1      45.349  28.658  29.373  1.00  0.00    -0.354 N 
ATOM     48  N   UNL A   1      42.548  29.441  29.397  1.00  0.00    -0.248 NA
ATOM     49  C   UNL A   1      40.874  30.977  29.942  1.00  0.00     0.031 C 
ATOM     50  C   UNL A   1      46.882  30.241  29.678  1.00  0.00     0.029 A 
ATOM     51  C   UNL A   1      45.520  29.995  29.697  1.00  0.00     0.049 A 
ATOM     52  H   UNL A   1      44.482  28.196  29.317  1.00  0.00     0.167 HD
ATOM     53  C   UNL A   1      43.132  30.614  29.854  1.00  0.00     0.074 A 
ATOM     54  C   UNL A   1      42.057  31.536  30.151  1.00  0.00     0.031 C 
ATOM     55  C   UNL A   1      44.448  30.899  30.013  1.00  0.00     0.031 A 
BRANCH  42  56
ATOM     56  C   UNL A   1      48.178  26.235  28.500  1.00  0.00    -0.014 A 
ATOM     57  C   UNL A   1      48.735  26.369  27.220  1.00  0.00     0.009 A 
ATOM     58  C   UNL A   1      48.966  25.719  29.539  1.00  0.00     0.009 A 
ATOM     59  C   UNL A   1      50.053  25.975  26.977  1.00  0.00     0.001 A 
ATOM     60  C   UNL A   1      50.288  25.342  29.299  1.00  0.00     0.001 A 
ATOM     61  C   UNL A   1      50.829  25.466  28.018  1.00  0.00     0.000 A 
ENDBRANCH  42  56
BRANCH  43  62
ATOM     62  C   UNL A   1      38.730  29.223  29.041  1.00  0.00    -0.014 A 
ATOM     63  C   UNL A   1      37.927  29.143  30.188  1.00  0.00     0.009 A 
ATOM     64  C   UNL A   1      38.175  29.742  27.859  1.00  0.00     0.009 A 
ATOM     65  C   UNL A   1      36.592  29.556  30.147  1.00  0.00     0.001 A 
ATOM     66  C   UNL A   1      36.850  30.181  27.830  1.00  0.00     0.001 A 
ATOM     67  C   UNL A   1      36.057  30.079  28.971  1.00  0.00     0.000 A 
ENDBRANCH  43  62
BRANCH  55  68
ATOM     68  C   UNL A   1      44.794  32.267  30.522  1.00  0.00    -0.014 A 
ATOM     69  C   UNL A   1      44.954  33.344  29.636  1.00  0.00     0.009 A 
ATOM     70  C   UNL A   1      44.940  32.488  31.900  1.00  0.00     0.009 A 
ATOM     71  C   UNL A   1      45.276  34.613  30.121  1.00  0.00     0.001 A 
ATOM     72  C   UNL A   1      45.240  33.763  32.383  1.00  0.00     0.001 A 
ATOM     73  C   UNL A   1      45.415  34.822  31.492  1.00  0.00     0.000 A 
ENDBRANCH  55  68
ENDBRANCH  29  30
ENDBRANCH  22  24
ENDBRANCH  21  22
ENDBRANCH  20  21
ENDBRANCH   1  20
TORSDOF 14
ENDMDL
