MODEL 1
REMARK VINA RESULT:     -10.7      0.000      0.000
REMARK SMILES CC(C)Cc1cc2c(cc1Cl)C=C(C(=O)OCCOC(=O)c1ccc(-c3c4nc(c(-c5ccccc5)c5ccc([nH]5)c(-c5ccccc5)c5nc(c(-c6ccccc6)c6ccc3[nH]6)C=C5)C=C4)cc1)[C@@H](C(F)(F)F)O2
REMARK SMILES IDX 17 1 16 2 14 3 15 4 13 5 5 6 6 7 10 8 7 9 9 10 11 11 8 12
REMARK SMILES IDX 75 13 12 14 70 15 4 16 2 17 1 18 3 19 71 20 72 21 73 22
REMARK SMILES IDX 74 23 18 24 19 25 20 26 21 27 22 28 23 29 69 30 24 31 68 32
REMARK SMILES IDX 25 33 26 34 27 35 62 36 28 37 67 38 61 39 63 40 29 41 66 42
REMARK SMILES IDX 60 43 59 44 30 46 52 47 37 48 51 49 38 50 41 51 50 52 64 53
REMARK SMILES IDX 39 54 40 55 49 57 65 58 42 59 31 60 32 61 36 62 33 63 35 64
REMARK SMILES IDX 34 65 53 66 54 67 58 68 55 69 57 70 56 71 43 72 44 73 48 74
REMARK SMILES IDX 45 75 47 76 46 77
REMARK H PARENT 63 45 41 56
REMARK Flexibility Score: inf
ROOT
ATOM      1  C   UNL A   1      36.306  21.015  25.338  1.00  0.00     0.275 C 
ENDROOT
BRANCH   1   2
ATOM      2  O   UNL A   1      35.376  21.401  24.302  1.00  0.00    -0.459 OA
BRANCH   2   3
ATOM      3  C   UNL A   1      34.066  21.284  24.624  1.00  0.00     0.338 C 
ATOM      4  O   UNL A   1      33.413  20.253  24.646  1.00  0.00    -0.246 OA
BRANCH   3   5
ATOM      5  C   UNL A   1      33.515  22.591  25.030  1.00  0.00     0.087 C 
ATOM      6  C   UNL A   1      32.472  27.502  25.423  1.00  0.00    -0.025 A 
ATOM      7  C   UNL A   1      32.093  26.354  26.152  1.00  0.00     0.052 A 
ATOM      8  C   UNL A   1      33.339  27.349  24.330  1.00  0.00     0.045 A 
ATOM      9  C   UNL A   1      32.556  25.087  25.790  1.00  0.00     0.128 A 
ATOM     10  C   UNL A   1      33.784  26.082  23.958  1.00  0.00     0.032 A 
ATOM     11  Cl  UNL A   1      33.919  28.688  23.406  1.00  0.00    -0.084 Cl
ATOM     12  C   UNL A   1      33.395  24.957  24.691  1.00  0.00     0.019 A 
ATOM     13  O   UNL A   1      32.124  24.025  26.537  1.00  0.00    -0.475 OA
ATOM     14  C   UNL A   1      33.871  23.651  24.297  1.00  0.00     0.027 C 
ATOM     15  C   UNL A   1      32.705  22.708  26.291  1.00  0.00     0.316 C 
BRANCH   6  16
ATOM     16  C   UNL A   1      31.912  28.848  25.826  1.00  0.00     0.040 C 
BRANCH  16  17
ATOM     17  C   UNL A   1      32.605  29.471  27.057  1.00  0.00    -0.013 C 
ATOM     18  C   UNL A   1      34.112  29.200  27.071  1.00  0.00     0.008 C 
ATOM     19  C   UNL A   1      32.341  30.977  27.094  1.00  0.00     0.008 C 
ENDBRANCH  16  17
ENDBRANCH   6  16
BRANCH  15  20
ATOM     20  C   UNL A   1      33.550  22.293  27.507  1.00  0.00     0.430 C 
ATOM     21  F   UNL A   1      32.920  22.577  28.672  1.00  0.00    -0.167 F 
ATOM     22  F   UNL A   1      33.791  20.959  27.510  1.00  0.00    -0.167 F 
ATOM     23  F   UNL A   1      34.750  22.917  27.531  1.00  0.00    -0.167 F 
ENDBRANCH  15  20
ENDBRANCH   3   5
ENDBRANCH   2   3
ENDBRANCH   1   2
BRANCH   1  24
ATOM     24  C   UNL A   1      37.725  21.484  25.018  1.00  0.00     0.275 C 
BRANCH  24  25
ATOM     25  O   UNL A   1      38.066  22.624  25.827  1.00  0.00    -0.458 OA
BRANCH  25  26
ATOM     26  C   UNL A   1      39.372  22.741  26.164  1.00  0.00     0.338 C 
ATOM     27  O   UNL A   1      40.269  21.942  25.967  1.00  0.00    -0.246 OA
BRANCH  26  28
ATOM     28  C   UNL A   1      39.592  24.057  26.784  1.00  0.00     0.060 A 
ATOM     29  C   UNL A   1      39.218  24.307  28.101  1.00  0.00     0.016 A 
ATOM     30  C   UNL A   1      40.287  25.021  26.064  1.00  0.00     0.016 A 
ATOM     31  C   UNL A   1      39.524  25.548  28.675  1.00  0.00     0.010 A 
ATOM     32  C   UNL A   1      40.713  26.195  26.679  1.00  0.00     0.010 A 
ATOM     33  C   UNL A   1      40.299  26.499  27.981  1.00  0.00    -0.014 A 
BRANCH  33  34
ATOM     34  C   UNL A   1      40.656  27.821  28.576  1.00  0.00     0.031 A 
ATOM     35  C   UNL A   1      42.075  28.102  29.017  1.00  0.00     0.074 A 
ATOM     36  C   UNL A   1      39.705  28.757  28.773  1.00  0.00     0.049 A 
ATOM     37  N   UNL A   1      42.557  29.157  29.627  1.00  0.00    -0.248 NA
ATOM     38  C   UNL A   1      43.076  27.048  28.781  1.00  0.00     0.031 C 
ATOM     39  C   UNL A   1      38.284  28.606  28.456  1.00  0.00     0.029 A 
ATOM     40  N   UNL A   1      39.794  30.030  29.284  1.00  0.00    -0.354 N 
ATOM     41  C   UNL A   1      43.892  28.868  29.887  1.00  0.00     0.074 A 
ATOM     42  C   UNL A   1      44.133  27.523  29.420  1.00  0.00     0.031 C 
ATOM     43  C   UNL A   1      37.649  29.759  28.714  1.00  0.00     0.029 A 
ATOM     44  C   UNL A   1      38.603  30.716  29.266  1.00  0.00     0.049 A 
ATOM     45  H   UNL A   1      40.631  30.414  29.630  1.00  0.00     0.167 HD
ATOM     46  C   UNL A   1      44.846  29.661  30.430  1.00  0.00     0.031 A 
ATOM     47  C   UNL A   1      38.305  31.975  29.645  1.00  0.00     0.031 A 
ATOM     48  C   UNL A   1      44.632  31.027  30.820  1.00  0.00     0.049 A 
ATOM     49  C   UNL A   1      39.387  32.856  30.202  1.00  0.00     0.074 A 
ATOM     50  C   UNL A   1      45.561  31.940  31.289  1.00  0.00     0.029 A 
ATOM     51  N   UNL A   1      43.413  31.680  30.768  1.00  0.00    -0.354 N 
ATOM     52  N   UNL A   1      40.656  32.582  30.387  1.00  0.00    -0.248 NA
ATOM     53  C   UNL A   1      39.003  34.219  30.601  1.00  0.00     0.031 C 
ATOM     54  C   UNL A   1      44.895  33.136  31.557  1.00  0.00     0.029 A 
ATOM     55  C   UNL A   1      43.563  32.983  31.208  1.00  0.00     0.049 A 
ATOM     56  H   UNL A   1      42.567  31.279  30.463  1.00  0.00     0.167 HD
ATOM     57  C   UNL A   1      41.223  33.738  30.908  1.00  0.00     0.074 A 
ATOM     58  C   UNL A   1      40.166  34.723  30.996  1.00  0.00     0.031 C 
ATOM     59  C   UNL A   1      42.504  33.956  31.282  1.00  0.00     0.031 A 
BRANCH  46  60
ATOM     60  C   UNL A   1      46.227  29.090  30.606  1.00  0.00    -0.014 A 
ATOM     61  C   UNL A   1      47.155  29.166  29.554  1.00  0.00     0.009 A 
ATOM     62  C   UNL A   1      46.587  28.407  31.778  1.00  0.00     0.009 A 
ATOM     63  C   UNL A   1      48.411  28.567  29.672  1.00  0.00     0.001 A 
ATOM     64  C   UNL A   1      47.855  27.838  31.906  1.00  0.00     0.001 A 
ATOM     65  C   UNL A   1      48.764  27.912  30.850  1.00  0.00     0.000 A 
ENDBRANCH  46  60
BRANCH  47  66
ATOM     66  C   UNL A   1      36.920  32.485  29.460  1.00  0.00    -0.014 A 
ATOM     67  C   UNL A   1      35.955  32.337  30.468  1.00  0.00     0.009 A 
ATOM     68  C   UNL A   1      36.542  33.071  28.242  1.00  0.00     0.009 A 
ATOM     69  C   UNL A   1      34.636  32.743  30.253  1.00  0.00     0.001 A 
ATOM     70  C   UNL A   1      35.229  33.500  28.039  1.00  0.00     0.001 A 
ATOM     71  C   UNL A   1      34.275  33.326  29.040  1.00  0.00     0.000 A 
ENDBRANCH  47  66
BRANCH  59  72
ATOM     72  C   UNL A   1      42.869  35.311  31.815  1.00  0.00    -0.014 A 
ATOM     73  C   UNL A   1      43.552  36.221  30.993  1.00  0.00     0.009 A 
ATOM     74  C   UNL A   1      42.671  35.626  33.167  1.00  0.00     0.009 A 
ATOM     75  C   UNL A   1      44.054  37.412  31.521  1.00  0.00     0.001 A 
ATOM     76  C   UNL A   1      43.154  36.828  33.686  1.00  0.00     0.001 A 
ATOM     77  C   UNL A   1      43.855  37.713  32.866  1.00  0.00     0.000 A 
ENDBRANCH  59  72
ENDBRANCH  33  34
ENDBRANCH  26  28
ENDBRANCH  25  26
ENDBRANCH  24  25
ENDBRANCH   1  24
TORSDOF 14
ENDMDL
MODEL 2
REMARK VINA RESULT:     -10.7      1.190      1.700
REMARK SMILES CC(C)Cc1cc2c(cc1Cl)C=C(C(=O)OCCOC(=O)c1ccc(-c3c4nc(c(-c5ccccc5)c5ccc([nH]5)c(-c5ccccc5)c5nc(c(-c6ccccc6)c6ccc3[nH]6)C=C5)C=C4)cc1)[C@@H](C(F)(F)F)O2
REMARK SMILES IDX 17 1 16 2 14 3 15 4 13 5 5 6 6 7 10 8 7 9 9 10 11 11 8 12
REMARK SMILES IDX 75 13 12 14 70 15 4 16 2 17 1 18 3 19 71 20 72 21 73 22
REMARK SMILES IDX 74 23 18 24 19 25 20 26 21 27 22 28 23 29 69 30 24 31 68 32
REMARK SMILES IDX 25 33 26 34 27 35 62 36 28 37 67 38 61 39 63 40 29 41 66 42
REMARK SMILES IDX 60 43 59 44 30 46 52 47 37 48 51 49 38 50 41 51 50 52 64 53
REMARK SMILES IDX 39 54 40 55 49 57 65 58 42 59 31 60 32 61 36 62 33 63 35 64
REMARK SMILES IDX 34 65 53 66 54 67 58 68 55 69 57 70 56 71 43 72 44 73 48 74
REMARK SMILES IDX 45 75 47 76 46 77
REMARK H PARENT 63 45 41 56
REMARK Flexibility Score: inf
ROOT
ATOM      1  C   UNL A   1      36.236  20.713  25.169  1.00  0.00     0.275 C 
ENDROOT
BRANCH   1   2
ATOM      2  O   UNL A   1      35.358  21.408  24.256  1.00  0.00    -0.459 OA
BRANCH   2   3
ATOM      3  C   UNL A   1      34.037  21.313  24.535  1.00  0.00     0.338 C 
ATOM      4  O   UNL A   1      33.353  20.302  24.479  1.00  0.00    -0.246 OA
BRANCH   3   5
ATOM      5  C   UNL A   1      33.511  22.610  25.003  1.00  0.00     0.087 C 
ATOM      6  C   UNL A   1      32.531  27.514  25.594  1.00  0.00    -0.025 A 
ATOM      7  C   UNL A   1      32.163  26.345  26.295  1.00  0.00     0.052 A 
ATOM      8  C   UNL A   1      33.363  27.391  24.471  1.00  0.00     0.045 A 
ATOM      9  C   UNL A   1      32.601  25.087  25.876  1.00  0.00     0.128 A 
ATOM     10  C   UNL A   1      33.783  26.134  24.042  1.00  0.00     0.032 A 
ATOM     11  Cl  UNL A   1      33.928  28.755  23.575  1.00  0.00    -0.084 Cl
ATOM     12  C   UNL A   1      33.406  24.987  24.748  1.00  0.00     0.019 A 
ATOM     13  O   UNL A   1      32.181  24.004  26.599  1.00  0.00    -0.475 OA
ATOM     14  C   UNL A   1      33.855  23.691  24.295  1.00  0.00     0.027 C 
ATOM     15  C   UNL A   1      32.741  22.691  26.290  1.00  0.00     0.316 C 
BRANCH   6  16
ATOM     16  C   UNL A   1      31.997  28.851  26.060  1.00  0.00     0.040 C 
BRANCH  16  17
ATOM     17  C   UNL A   1      32.798  29.472  27.224  1.00  0.00    -0.013 C 
ATOM     18  C   UNL A   1      34.260  29.020  27.227  1.00  0.00     0.008 C 
ATOM     19  C   UNL A   1      32.719  30.998  27.150  1.00  0.00     0.008 C 
ENDBRANCH  16  17
ENDBRANCH   6  16
BRANCH  15  20
ATOM     20  C   UNL A   1      33.618  22.227  27.466  1.00  0.00     0.430 C 
ATOM     21  F   UNL A   1      33.759  20.880  27.481  1.00  0.00    -0.167 F 
ATOM     22  F   UNL A   1      34.867  22.747  27.386  1.00  0.00    -0.167 F 
ATOM     23  F   UNL A   1      33.105  22.597  28.662  1.00  0.00    -0.167 F 
ENDBRANCH  15  20
ENDBRANCH   3   5
ENDBRANCH   2   3
ENDBRANCH   1   2
BRANCH   1  24
ATOM     24  C   UNL A   1      37.693  21.132  24.970  1.00  0.00     0.275 C 
BRANCH  24  25
ATOM     25  O   UNL A   1      38.085  22.067  25.992  1.00  0.00    -0.458 OA
BRANCH  25  26
ATOM     26  C   UNL A   1      39.372  21.988  26.403  1.00  0.00     0.338 C 
ATOM     27  O   UNL A   1      40.133  21.044  26.300  1.00  0.00    -0.246 OA
BRANCH  26  28
ATOM     28  C   UNL A   1      39.774  23.283  26.974  1.00  0.00     0.060 A 
ATOM     29  C   UNL A   1      40.801  23.375  27.908  1.00  0.00     0.016 A 
ATOM     30  C   UNL A   1      39.182  24.439  26.476  1.00  0.00     0.016 A 
ATOM     31  C   UNL A   1      41.204  24.639  28.359  1.00  0.00     0.010 A 
ATOM     32  C   UNL A   1      39.678  25.693  26.818  1.00  0.00     0.010 A 
ATOM     33  C   UNL A   1      40.668  25.816  27.801  1.00  0.00    -0.014 A 
BRANCH  33  34
ATOM     34  C   UNL A   1      41.093  27.174  28.249  1.00  0.00     0.031 A 
ATOM     35  C   UNL A   1      42.542  27.593  28.147  1.00  0.00     0.074 A 
ATOM     36  C   UNL A   1      40.198  28.021  28.799  1.00  0.00     0.049 A 
ATOM     37  N   UNL A   1      43.114  28.698  28.560  1.00  0.00    -0.248 NA
ATOM     38  C   UNL A   1      43.481  26.634  27.542  1.00  0.00     0.031 C 
ATOM     39  C   UNL A   1      38.780  27.733  29.019  1.00  0.00     0.029 A 
ATOM     40  N   UNL A   1      40.349  29.305  29.266  1.00  0.00    -0.354 N 
ATOM     41  C   UNL A   1      44.473  28.539  28.308  1.00  0.00     0.074 A 
ATOM     42  C   UNL A   1      44.650  27.216  27.759  1.00  0.00     0.031 C 
ATOM     43  C   UNL A   1      38.180  28.827  29.514  1.00  0.00     0.029 A 
ATOM     44  C   UNL A   1      39.176  29.877  29.698  1.00  0.00     0.049 A 
ATOM     45  H   UNL A   1      41.216  29.771  29.290  1.00  0.00     0.167 HD
ATOM     46  C   UNL A   1      45.482  29.426  28.480  1.00  0.00     0.031 A 
ATOM     47  C   UNL A   1      38.922  31.108  30.185  1.00  0.00     0.031 A 
ATOM     48  C   UNL A   1      45.300  30.772  28.948  1.00  0.00     0.049 A 
ATOM     49  C   UNL A   1      40.047  32.095  30.324  1.00  0.00     0.074 A 
ATOM     50  C   UNL A   1      46.247  31.775  29.063  1.00  0.00     0.029 A 
ATOM     51  N   UNL A   1      44.091  31.308  29.357  1.00  0.00    -0.354 N 
ATOM     52  N   UNL A   1      41.315  31.943  30.027  1.00  0.00    -0.248 NA
ATOM     53  C   UNL A   1      39.711  33.422  30.862  1.00  0.00     0.031 C 
ATOM     54  C   UNL A   1      45.618  32.908  29.579  1.00  0.00     0.029 A 
ATOM     55  C   UNL A   1      44.270  32.626  29.737  1.00  0.00     0.049 A 
ATOM     56  H   UNL A   1      43.233  30.825  29.375  1.00  0.00     0.167 HD
ATOM     57  C   UNL A   1      41.924  33.155  30.328  1.00  0.00     0.074 A 
ATOM     58  C   UNL A   1      40.886  34.039  30.815  1.00  0.00     0.031 C 
ATOM     59  C   UNL A   1      43.228  33.498  30.212  1.00  0.00     0.031 A 
BRANCH  46  60
ATOM     60  C   UNL A   1      46.878  28.989  28.128  1.00  0.00    -0.014 A 
ATOM     61  C   UNL A   1      47.337  29.110  26.806  1.00  0.00     0.009 A 
ATOM     62  C   UNL A   1      47.712  28.384  29.081  1.00  0.00     0.009 A 
ATOM     63  C   UNL A   1      48.599  28.633  26.447  1.00  0.00     0.001 A 
ATOM     64  C   UNL A   1      48.986  27.937  28.727  1.00  0.00     0.001 A 
ATOM     65  C   UNL A   1      49.426  28.055  27.409  1.00  0.00     0.000 A 
ENDBRANCH  46  60
BRANCH  47  66
ATOM     66  C   UNL A   1      37.525  31.484  30.528  1.00  0.00    -0.014 A 
ATOM     67  C   UNL A   1      36.646  31.969  29.548  1.00  0.00     0.009 A 
ATOM     68  C   UNL A   1      37.083  31.413  31.858  1.00  0.00     0.009 A 
ATOM     69  C   UNL A   1      35.363  32.399  29.894  1.00  0.00     0.001 A 
ATOM     70  C   UNL A   1      35.791  31.818  32.199  1.00  0.00     0.001 A 
ATOM     71  C   UNL A   1      34.936  32.320  31.219  1.00  0.00     0.000 A 
ENDBRANCH  47  66
BRANCH  59  72
ATOM     72  C   UNL A   1      43.635  34.888  30.601  1.00  0.00    -0.014 A 
ATOM     73  C   UNL A   1      43.914  35.182  31.945  1.00  0.00     0.009 A 
ATOM     74  C   UNL A   1      43.596  35.934  29.668  1.00  0.00     0.009 A 
ATOM     75  C   UNL A   1      44.121  36.500  32.353  1.00  0.00     0.001 A 
ATOM     76  C   UNL A   1      43.826  37.249  30.075  1.00  0.00     0.001 A 
ATOM     77  C   UNL A   1      44.076  37.532  31.418  1.00  0.00     0.000 A 
ENDBRANCH  59  72
ENDBRANCH  33  34
ENDBRANCH  26  28
ENDBRANCH  25  26
ENDBRANCH  24  25
ENDBRANCH   1  24
TORSDOF 14
ENDMDL
MODEL 3
REMARK VINA RESULT:     -10.6      2.911      8.006
REMARK SMILES CC(C)Cc1cc2c(cc1Cl)C=C(C(=O)OCCOC(=O)c1ccc(-c3c4nc(c(-c5ccccc5)c5ccc([nH]5)c(-c5ccccc5)c5nc(c(-c6ccccc6)c6ccc3[nH]6)C=C5)C=C4)cc1)[C@@H](C(F)(F)F)O2
REMARK SMILES IDX 17 1 16 2 14 3 15 4 13 5 5 6 6 7 10 8 7 9 9 10 11 11 8 12
REMARK SMILES IDX 75 13 12 14 70 15 4 16 2 17 1 18 3 19 71 20 72 21 73 22
REMARK SMILES IDX 74 23 18 24 19 25 20 26 21 27 22 28 23 29 69 30 24 31 68 32
REMARK SMILES IDX 25 33 26 34 27 35 62 36 28 37 67 38 61 39 63 40 29 41 66 42
REMARK SMILES IDX 60 43 59 44 30 46 52 47 37 48 51 49 38 50 41 51 50 52 64 53
REMARK SMILES IDX 39 54 40 55 49 57 65 58 42 59 31 60 32 61 36 62 33 63 35 64
REMARK SMILES IDX 34 65 53 66 54 67 58 68 55 69 57 70 56 71 43 72 44 73 48 74
REMARK SMILES IDX 45 75 47 76 46 77
REMARK H PARENT 63 45 41 56
REMARK Flexibility Score: inf
ROOT
ATOM      1  C   UNL A   1      31.781  28.463  26.139  1.00  0.00     0.275 C 
ENDROOT
BRANCH   1   2
ATOM      2  O   UNL A   1      32.319  27.145  26.391  1.00  0.00    -0.459 OA
BRANCH   2   3
ATOM      3  C   UNL A   1      33.035  26.606  25.377  1.00  0.00     0.338 C 
ATOM      4  O   UNL A   1      33.825  27.192  24.653  1.00  0.00    -0.246 OA
BRANCH   3   5
ATOM      5  C   UNL A   1      32.794  25.153  25.288  1.00  0.00     0.087 C 
ATOM      6  C   UNL A   1      33.345  20.162  24.904  1.00  0.00    -0.025 A 
ATOM      7  C   UNL A   1      32.232  21.030  24.941  1.00  0.00     0.052 A 
ATOM      8  C   UNL A   1      34.632  20.717  24.975  1.00  0.00     0.045 A 
ATOM      9  C   UNL A   1      32.399  22.411  25.060  1.00  0.00     0.128 A 
ATOM     10  C   UNL A   1      34.798  22.093  25.113  1.00  0.00     0.032 A 
ATOM     11  Cl  UNL A   1      36.067  19.759  24.875  1.00  0.00    -0.084 Cl
ATOM     12  C   UNL A   1      33.683  22.935  25.151  1.00  0.00     0.019 A 
ATOM     13  O   UNL A   1      31.268  23.178  25.110  1.00  0.00    -0.475 OA
ATOM     14  C   UNL A   1      33.871  24.361  25.288  1.00  0.00     0.027 C 
ATOM     15  C   UNL A   1      31.400  24.632  25.076  1.00  0.00     0.316 C 
BRANCH   6  16
ATOM     16  C   UNL A   1      33.114  18.670  24.818  1.00  0.00     0.040 C 
BRANCH  16  17
ATOM     17  C   UNL A   1      33.501  18.055  23.456  1.00  0.00    -0.013 C 
ATOM     18  C   UNL A   1      33.968  16.604  23.588  1.00  0.00     0.008 C 
ATOM     19  C   UNL A   1      32.316  18.141  22.493  1.00  0.00     0.008 C 
ENDBRANCH  16  17
ENDBRANCH   6  16
BRANCH  15  20
ATOM     20  C   UNL A   1      30.831  25.160  23.748  1.00  0.00     0.430 C 
ATOM     21  F   UNL A   1      30.028  24.248  23.152  1.00  0.00    -0.167 F 
ATOM     22  F   UNL A   1      30.081  26.273  23.939  1.00  0.00    -0.167 F 
ATOM     23  F   UNL A   1      31.806  25.481  22.867  1.00  0.00    -0.167 F 
ENDBRANCH  15  20
ENDBRANCH   3   5
ENDBRANCH   2   3
ENDBRANCH   1   2
BRANCH   1  24
ATOM     24  C   UNL A   1      32.298  29.481  27.154  1.00  0.00     0.275 C 
BRANCH  24  25
ATOM     25  O   UNL A   1      33.737  29.480  27.171  1.00  0.00    -0.458 OA
BRANCH  25  26
ATOM     26  C   UNL A   1      34.322  30.541  27.775  1.00  0.00     0.338 C 
ATOM     27  O   UNL A   1      33.842  31.638  27.988  1.00  0.00    -0.246 OA
BRANCH  26  28
ATOM     28  C   UNL A   1      35.672  30.156  28.216  1.00  0.00     0.060 A 
ATOM     29  C   UNL A   1      35.894  29.621  29.481  1.00  0.00     0.016 A 
ATOM     30  C   UNL A   1      36.715  30.232  27.300  1.00  0.00     0.016 A 
ATOM     31  C   UNL A   1      37.183  29.191  29.825  1.00  0.00     0.010 A 
ATOM     32  C   UNL A   1      37.957  29.677  27.593  1.00  0.00     0.010 A 
ATOM     33  C   UNL A   1      38.226  29.188  28.877  1.00  0.00    -0.014 A 
BRANCH  33  34
ATOM     34  C   UNL A   1      39.603  28.719  29.210  1.00  0.00     0.031 A 
ATOM     35  C   UNL A   1      40.533  29.595  30.019  1.00  0.00     0.074 A 
ATOM     36  C   UNL A   1      40.048  27.531  28.750  1.00  0.00     0.049 A 
ATOM     37  N   UNL A   1      41.789  29.395  30.337  1.00  0.00    -0.248 NA
ATOM     38  C   UNL A   1      40.001  30.882  30.497  1.00  0.00     0.031 C 
ATOM     39  C   UNL A   1      39.287  26.607  27.908  1.00  0.00     0.029 A 
ATOM     40  N   UNL A   1      41.252  26.894  28.933  1.00  0.00    -0.354 N 
ATOM     41  C   UNL A   1      42.200  30.545  31.003  1.00  0.00     0.074 A 
ATOM     42  C   UNL A   1      41.083  31.460  30.997  1.00  0.00     0.031 C 
ATOM     43  C   UNL A   1      40.012  25.497  27.705  1.00  0.00     0.029 A 
ATOM     44  C   UNL A   1      41.311  25.648  28.353  1.00  0.00     0.049 A 
ATOM     45  H   UNL A   1      42.001  27.292  29.432  1.00  0.00     0.167 HD
ATOM     46  C   UNL A   1      43.386  30.806  31.601  1.00  0.00     0.031 A 
ATOM     47  C   UNL A   1      42.294  24.726  28.345  1.00  0.00     0.031 A 
ATOM     48  C   UNL A   1      44.471  29.868  31.681  1.00  0.00     0.049 A 
ATOM     49  C   UNL A   1      43.586  25.015  29.055  1.00  0.00     0.074 A 
ATOM     50  C   UNL A   1      45.675  30.006  32.350  1.00  0.00     0.029 A 
ATOM     51  N   UNL A   1      44.476  28.615  31.093  1.00  0.00    -0.354 N 
ATOM     52  N   UNL A   1      43.933  26.086  29.726  1.00  0.00    -0.248 NA
ATOM     53  C   UNL A   1      44.623  23.972  29.010  1.00  0.00     0.031 C 
ATOM     54  C   UNL A   1      46.426  28.849  32.134  1.00  0.00     0.029 A 
ATOM     55  C   UNL A   1      45.669  27.973  31.373  1.00  0.00     0.049 A 
ATOM     56  H   UNL A   1      43.742  28.238  30.555  1.00  0.00     0.167 HD
ATOM     57  C   UNL A   1      45.218  25.841  30.195  1.00  0.00     0.074 A 
ATOM     58  C   UNL A   1      45.585  24.515  29.746  1.00  0.00     0.031 C 
ATOM     59  C   UNL A   1      46.018  26.649  30.928  1.00  0.00     0.031 A 
BRANCH  46  60
ATOM     60  C   UNL A   1      43.571  32.149  32.253  1.00  0.00    -0.014 A 
ATOM     61  C   UNL A   1      44.116  33.215  31.519  1.00  0.00     0.009 A 
ATOM     62  C   UNL A   1      43.284  32.341  33.614  1.00  0.00     0.009 A 
ATOM     63  C   UNL A   1      44.372  34.443  32.133  1.00  0.00     0.001 A 
ATOM     64  C   UNL A   1      43.510  33.580  34.217  1.00  0.00     0.001 A 
ATOM     65  C   UNL A   1      44.060  34.627  33.479  1.00  0.00     0.000 A 
ENDBRANCH  46  60
BRANCH  47  66
ATOM     66  C   UNL A   1      42.062  23.419  27.675  1.00  0.00    -0.014 A 
ATOM     67  C   UNL A   1      42.451  23.211  26.343  1.00  0.00     0.009 A 
ATOM     68  C   UNL A   1      41.391  22.389  28.353  1.00  0.00     0.009 A 
ATOM     69  C   UNL A   1      42.154  22.009  25.695  1.00  0.00     0.001 A 
ATOM     70  C   UNL A   1      41.118  21.179  27.712  1.00  0.00     0.001 A 
ATOM     71  C   UNL A   1      41.490  20.993  26.381  1.00  0.00     0.000 A 
ENDBRANCH  47  66
BRANCH  59  72
ATOM     72  C   UNL A   1      47.376  26.142  31.317  1.00  0.00    -0.014 A 
ATOM     73  C   UNL A   1      47.577  25.605  32.599  1.00  0.00     0.009 A 
ATOM     74  C   UNL A   1      48.481  26.333  30.475  1.00  0.00     0.009 A 
ATOM     75  C   UNL A   1      48.863  25.293  33.041  1.00  0.00     0.001 A 
ATOM     76  C   UNL A   1      49.764  25.998  30.912  1.00  0.00     0.001 A 
ATOM     77  C   UNL A   1      49.955  25.490  32.198  1.00  0.00     0.000 A 
ENDBRANCH  59  72
ENDBRANCH  33  34
ENDBRANCH  26  28
ENDBRANCH  25  26
ENDBRANCH  24  25
ENDBRANCH   1  24
TORSDOF 14
ENDMDL
