MODEL 1
REMARK VINA RESULT:     -10.4      0.000      0.000
REMARK SMILES C[C@H]([NH2+][C@@H](C)[C@]12C[C@H]3C[C@H](C[C@H](C3)C1)C2)[C@@H](C)C(=O)OCCOC(=O)c1ccc(-c2c3nc(c(-c4ccccc4)c4ccc([nH]4)c(-c4ccccc4)c4nc(c(-c5ccccc5)c5ccc2[nH]5)C=C4)C=C3)cc1
REMARK SMILES IDX 21 1 20 2 18 3 19 4 16 5 17 6 2 7 1 8 3 9 4 12 5 13 6 14
REMARK SMILES IDX 7 15 14 16 15 17 8 18 12 19 10 20 9 21 13 22 11 23 22 24
REMARK SMILES IDX 23 25 24 26 25 27 26 28 27 29 73 30 28 31 72 32 29 33 30 34
REMARK SMILES IDX 31 35 66 36 32 37 71 38 65 39 67 40 33 41 70 42 64 43 63 44
REMARK SMILES IDX 34 46 56 47 41 48 55 49 42 50 45 51 54 52 68 53 43 54 44 55
REMARK SMILES IDX 53 57 69 58 46 59 35 60 36 61 40 62 37 63 39 64 38 65 57 66
REMARK SMILES IDX 58 67 62 68 59 69 61 70 60 71 47 72 48 73 52 74 49 75 51 76
REMARK SMILES IDX 50 77
REMARK H PARENT 3 10 3 11 67 45 45 56
REMARK Flexibility Score: inf
ROOT
ATOM      1  C   UNL A   1      32.934  35.230  28.710  1.00  0.00     0.274 C 
ENDROOT
BRANCH   1   2
ATOM      2  O   UNL A   1      33.656  34.022  29.038  1.00  0.00    -0.462 OA
BRANCH   2   3
ATOM      3  C   UNL A   1      34.730  33.730  28.253  1.00  0.00     0.314 C 
ATOM      4  O   UNL A   1      34.996  34.291  27.195  1.00  0.00    -0.252 OA
BRANCH   3   5
ATOM      5  C   UNL A   1      35.561  32.575  28.798  1.00  0.00     0.154 C 
ATOM      6  C   UNL A   1      37.018  32.844  28.431  1.00  0.00     0.026 C 
BRANCH   5   7
ATOM      7  C   UNL A   1      35.029  31.191  28.339  1.00  0.00     0.193 C 
ATOM      8  C   UNL A   1      36.222  30.305  27.956  1.00  0.00     0.076 C 
BRANCH   7   9
ATOM      9  N   UNL A   1      34.161  31.300  27.163  1.00  0.00    -0.341 N 
ATOM     10  H   UNL A   1      34.656  30.881  26.376  1.00  0.00     0.346 HD
ATOM     11  H   UNL A   1      33.967  32.297  27.069  1.00  0.00     0.346 HD
BRANCH   9  12
ATOM     12  C   UNL A   1      32.833  30.659  27.245  1.00  0.00     0.185 C 
ATOM     13  C   UNL A   1      31.869  31.780  26.809  1.00  0.00     0.076 C 
BRANCH  12  14
ATOM     14  C   UNL A   1      32.607  29.305  26.450  1.00  0.00     0.023 C 
ATOM     15  C   UNL A   1      31.503  29.431  25.363  1.00  0.00     0.016 C 
ATOM     16  C   UNL A   1      32.157  28.158  27.414  1.00  0.00     0.016 C 
ATOM     17  C   UNL A   1      33.927  28.795  25.792  1.00  0.00     0.016 C 
ATOM     18  C   UNL A   1      31.319  28.109  24.596  1.00  0.00    -0.010 C 
ATOM     19  C   UNL A   1      31.958  26.824  26.663  1.00  0.00    -0.010 C 
ATOM     20  C   UNL A   1      33.722  27.487  25.018  1.00  0.00    -0.010 C 
ATOM     21  C   UNL A   1      32.647  27.705  23.940  1.00  0.00     0.007 C 
ATOM     22  C   UNL A   1      30.885  27.010  25.580  1.00  0.00     0.007 C 
ATOM     23  C   UNL A   1      33.272  26.400  25.996  1.00  0.00     0.007 C 
ENDBRANCH  12  14
ENDBRANCH   9  12
ENDBRANCH   7   9
ENDBRANCH   5   7
ENDBRANCH   3   5
ENDBRANCH   2   3
ENDBRANCH   1   2
BRANCH   1  24
ATOM     24  C   UNL A   1      32.869  36.160  29.921  1.00  0.00     0.275 C 
BRANCH  24  25
ATOM     25  O   UNL A   1      32.392  35.416  31.053  1.00  0.00    -0.458 OA
BRANCH  25  26
ATOM     26  C   UNL A   1      32.802  35.865  32.262  1.00  0.00     0.338 C 
ATOM     27  O   UNL A   1      32.285  36.752  32.918  1.00  0.00    -0.246 OA
BRANCH  26  28
ATOM     28  C   UNL A   1      33.973  35.076  32.722  1.00  0.00     0.060 A 
ATOM     29  C   UNL A   1      35.277  35.569  32.611  1.00  0.00     0.016 A 
ATOM     30  C   UNL A   1      33.770  33.778  33.194  1.00  0.00     0.016 A 
ATOM     31  C   UNL A   1      36.371  34.750  32.886  1.00  0.00     0.010 A 
ATOM     32  C   UNL A   1      34.865  32.994  33.569  1.00  0.00     0.010 A 
ATOM     33  C   UNL A   1      36.180  33.462  33.399  1.00  0.00    -0.014 A 
BRANCH  33  34
ATOM     34  C   UNL A   1      37.335  32.606  33.781  1.00  0.00     0.031 A 
ATOM     35  C   UNL A   1      38.063  32.844  35.077  1.00  0.00     0.074 A 
ATOM     36  C   UNL A   1      37.768  31.641  32.946  1.00  0.00     0.049 A 
ATOM     37  N   UNL A   1      39.222  32.379  35.471  1.00  0.00    -0.248 NA
ATOM     38  C   UNL A   1      37.409  33.734  36.050  1.00  0.00     0.031 C 
ATOM     39  C   UNL A   1      37.138  31.264  31.678  1.00  0.00     0.029 A 
ATOM     40  N   UNL A   1      38.854  30.806  33.036  1.00  0.00    -0.354 N 
ATOM     41  C   UNL A   1      39.463  32.964  36.709  1.00  0.00     0.074 A 
ATOM     42  C   UNL A   1      38.329  33.814  37.003  1.00  0.00     0.031 C 
ATOM     43  C   UNL A   1      37.835  30.262  31.120  1.00  0.00     0.029 A 
ATOM     44  C   UNL A   1      39.007  29.988  31.944  1.00  0.00     0.049 A 
ATOM     45  H   UNL A   1      39.464  30.796  33.808  1.00  0.00     0.167 HD
ATOM     46  C   UNL A   1      40.537  32.813  37.521  1.00  0.00     0.031 A 
ATOM     47  C   UNL A   1      40.002  29.149  31.606  1.00  0.00     0.031 A 
ATOM     48  C   UNL A   1      41.649  31.941  37.245  1.00  0.00     0.049 A 
ATOM     49  C   UNL A   1      41.201  29.031  32.498  1.00  0.00     0.074 A 
ATOM     50  C   UNL A   1      42.776  31.709  38.016  1.00  0.00     0.029 A 
ATOM     51  N   UNL A   1      41.767  31.148  36.115  1.00  0.00    -0.354 N 
ATOM     52  N   UNL A   1      41.443  29.631  33.638  1.00  0.00    -0.248 NA
ATOM     53  C   UNL A   1      42.274  28.134  32.046  1.00  0.00     0.031 C 
ATOM     54  C   UNL A   1      43.593  30.800  37.335  1.00  0.00     0.029 A 
ATOM     55  C   UNL A   1      42.954  30.434  36.161  1.00  0.00     0.049 A 
ATOM     56  H   UNL A   1      41.107  31.099  35.387  1.00  0.00     0.167 HD
ATOM     57  C   UNL A   1      42.689  29.175  34.045  1.00  0.00     0.074 A 
ATOM     58  C   UNL A   1      43.144  28.236  33.041  1.00  0.00     0.031 C 
ATOM     59  C   UNL A   1      43.393  29.508  35.153  1.00  0.00     0.031 A 
BRANCH  46  60
ATOM     60  C   UNL A   1      40.582  33.640  38.773  1.00  0.00    -0.014 A 
ATOM     61  C   UNL A   1      40.099  33.149  39.995  1.00  0.00     0.009 A 
ATOM     62  C   UNL A   1      41.161  34.919  38.735  1.00  0.00     0.009 A 
ATOM     63  C   UNL A   1      40.168  33.935  41.149  1.00  0.00     0.001 A 
ATOM     64  C   UNL A   1      41.251  35.693  39.893  1.00  0.00     0.001 A 
ATOM     65  C   UNL A   1      40.748  35.203  41.098  1.00  0.00     0.000 A 
ENDBRANCH  46  60
BRANCH  47  66
ATOM     66  C   UNL A   1      39.927  28.392  30.330  1.00  0.00    -0.014 A 
ATOM     67  C   UNL A   1      40.571  28.872  29.181  1.00  0.00     0.009 A 
ATOM     68  C   UNL A   1      39.223  27.179  30.260  1.00  0.00     0.009 A 
ATOM     69  C   UNL A   1      40.500  28.158  27.983  1.00  0.00     0.001 A 
ATOM     70  C   UNL A   1      39.178  26.454  29.068  1.00  0.00     0.001 A 
ATOM     71  C   UNL A   1      39.811  26.948  27.929  1.00  0.00     0.000 A 
ENDBRANCH  47  66
BRANCH  59  72
ATOM     72  C   UNL A   1      44.715  28.825  35.347  1.00  0.00    -0.014 A 
ATOM     73  C   UNL A   1      45.902  29.391  34.859  1.00  0.00     0.009 A 
ATOM     74  C   UNL A   1      44.773  27.609  36.045  1.00  0.00     0.009 A 
ATOM     75  C   UNL A   1      47.121  28.735  35.041  1.00  0.00     0.001 A 
ATOM     76  C   UNL A   1      45.995  26.967  36.245  1.00  0.00     0.001 A 
ATOM     77  C   UNL A   1      47.167  27.526  35.736  1.00  0.00     0.000 A 
ENDBRANCH  59  72
ENDBRANCH  33  34
ENDBRANCH  26  28
ENDBRANCH  25  26
ENDBRANCH  24  25
ENDBRANCH   1  24
TORSDOF 15
ENDMDL
MODEL 2
REMARK VINA RESULT:     -10.0      3.247      8.118
REMARK SMILES C[C@H]([NH2+][C@@H](C)[C@]12C[C@H]3C[C@H](C[C@H](C3)C1)C2)[C@@H](C)C(=O)OCCOC(=O)c1ccc(-c2c3nc(c(-c4ccccc4)c4ccc([nH]4)c(-c4ccccc4)c4nc(c(-c5ccccc5)c5ccc2[nH]5)C=C4)C=C3)cc1
REMARK SMILES IDX 21 1 20 2 18 3 19 4 16 5 17 6 2 7 1 8 3 9 4 12 5 13 6 14
REMARK SMILES IDX 7 15 14 16 15 17 8 18 12 19 10 20 9 21 13 22 11 23 22 24
REMARK SMILES IDX 23 25 24 26 25 27 26 28 27 29 73 30 28 31 72 32 29 33 30 34
REMARK SMILES IDX 31 35 66 36 32 37 71 38 65 39 67 40 33 41 70 42 64 43 63 44
REMARK SMILES IDX 34 46 56 47 41 48 55 49 42 50 45 51 54 52 68 53 43 54 44 55
REMARK SMILES IDX 53 57 69 58 46 59 35 60 36 61 40 62 37 63 39 64 38 65 57 66
REMARK SMILES IDX 58 67 62 68 59 69 61 70 60 71 47 72 48 73 52 74 49 75 51 76
REMARK SMILES IDX 50 77
REMARK H PARENT 3 10 3 11 67 45 45 56
REMARK Flexibility Score: inf
ROOT
ATOM      1  C   UNL A   1      31.879  28.204  25.095  1.00  0.00     0.274 C 
ENDROOT
BRANCH   1   2
ATOM      2  O   UNL A   1      31.917  28.505  23.682  1.00  0.00    -0.462 OA
BRANCH   2   3
ATOM      3  C   UNL A   1      31.536  27.504  22.842  1.00  0.00     0.314 C 
ATOM      4  O   UNL A   1      30.651  27.598  21.999  1.00  0.00    -0.252 OA
BRANCH   3   5
ATOM      5  C   UNL A   1      32.295  26.207  23.092  1.00  0.00     0.154 C 
ATOM      6  C   UNL A   1      33.656  26.333  22.413  1.00  0.00     0.026 C 
BRANCH   5   7
ATOM      7  C   UNL A   1      31.483  24.952  22.670  1.00  0.00     0.193 C 
ATOM      8  C   UNL A   1      30.624  24.496  23.857  1.00  0.00     0.076 C 
BRANCH   7   9
ATOM      9  N   UNL A   1      32.355  23.834  22.298  1.00  0.00    -0.341 N 
ATOM     10  H   UNL A   1      33.295  24.208  22.167  1.00  0.00     0.346 HD
ATOM     11  H   UNL A   1      31.929  23.435  21.462  1.00  0.00     0.346 HD
BRANCH   9  12
ATOM     12  C   UNL A   1      32.453  22.711  23.252  1.00  0.00     0.185 C 
ATOM     13  C   UNL A   1      32.154  21.476  22.378  1.00  0.00     0.076 C 
BRANCH  12  14
ATOM     14  C   UNL A   1      33.787  22.562  24.096  1.00  0.00     0.023 C 
ATOM     15  C   UNL A   1      34.035  21.100  24.564  1.00  0.00     0.016 C 
ATOM     16  C   UNL A   1      33.734  23.442  25.388  1.00  0.00     0.016 C 
ATOM     17  C   UNL A   1      35.031  23.070  23.303  1.00  0.00     0.016 C 
ATOM     18  C   UNL A   1      35.345  20.983  25.365  1.00  0.00    -0.010 C 
ATOM     19  C   UNL A   1      35.035  23.332  26.210  1.00  0.00    -0.010 C 
ATOM     20  C   UNL A   1      36.329  22.930  24.108  1.00  0.00    -0.010 C 
ATOM     21  C   UNL A   1      36.521  21.455  24.497  1.00  0.00     0.007 C 
ATOM     22  C   UNL A   1      35.252  21.867  26.618  1.00  0.00     0.007 C 
ATOM     23  C   UNL A   1      36.227  23.797  25.365  1.00  0.00     0.007 C 
ENDBRANCH  12  14
ENDBRANCH   9  12
ENDBRANCH   7   9
ENDBRANCH   5   7
ENDBRANCH   3   5
ENDBRANCH   2   3
ENDBRANCH   1   2
BRANCH   1  24
ATOM     24  C   UNL A   1      31.699  29.484  25.911  1.00  0.00     0.275 C 
BRANCH  24  25
ATOM     25  O   UNL A   1      32.903  30.260  25.829  1.00  0.00    -0.458 OA
BRANCH  25  26
ATOM     26  C   UNL A   1      33.102  31.138  26.840  1.00  0.00     0.338 C 
ATOM     27  O   UNL A   1      32.336  32.016  27.198  1.00  0.00    -0.246 OA
BRANCH  26  28
ATOM     28  C   UNL A   1      34.397  30.851  27.509  1.00  0.00     0.060 A 
ATOM     29  C   UNL A   1      34.751  29.553  27.891  1.00  0.00     0.016 A 
ATOM     30  C   UNL A   1      35.235  31.916  27.842  1.00  0.00     0.016 A 
ATOM     31  C   UNL A   1      35.885  29.328  28.670  1.00  0.00     0.010 A 
ATOM     32  C   UNL A   1      36.428  31.674  28.531  1.00  0.00     0.010 A 
ATOM     33  C   UNL A   1      36.756  30.381  28.973  1.00  0.00    -0.014 A 
BRANCH  33  34
ATOM     34  C   UNL A   1      38.016  30.144  29.727  1.00  0.00     0.031 A 
ATOM     35  C   UNL A   1      39.112  29.300  29.132  1.00  0.00     0.074 A 
ATOM     36  C   UNL A   1      38.166  30.645  30.969  1.00  0.00     0.049 A 
ATOM     37  N   UNL A   1      40.164  28.781  29.715  1.00  0.00    -0.248 NA
ATOM     38  C   UNL A   1      39.002  28.986  27.698  1.00  0.00     0.031 C 
ATOM     39  C   UNL A   1      37.212  31.516  31.659  1.00  0.00     0.029 A 
ATOM     40  N   UNL A   1      39.180  30.479  31.880  1.00  0.00    -0.354 N 
ATOM     41  C   UNL A   1      40.808  28.033  28.737  1.00  0.00     0.074 A 
ATOM     42  C   UNL A   1      40.032  28.169  27.522  1.00  0.00     0.031 C 
ATOM     43  C   UNL A   1      37.694  31.824  32.873  1.00  0.00     0.029 A 
ATOM     44  C   UNL A   1      38.944  31.103  33.081  1.00  0.00     0.049 A 
ATOM     45  H   UNL A   1      39.997  29.964  31.691  1.00  0.00     0.167 HD
ATOM     46  C   UNL A   1      41.937  27.293  28.844  1.00  0.00     0.031 A 
ATOM     47  C   UNL A   1      39.621  31.061  34.242  1.00  0.00     0.031 A 
ATOM     48  C   UNL A   1      42.728  27.185  30.042  1.00  0.00     0.049 A 
ATOM     49  C   UNL A   1      40.843  30.200  34.351  1.00  0.00     0.074 A 
ATOM     50  C   UNL A   1      43.897  26.471  30.243  1.00  0.00     0.029 A 
ATOM     51  N   UNL A   1      42.436  27.819  31.239  1.00  0.00    -0.354 N 
ATOM     52  N   UNL A   1      41.411  29.454  33.435  1.00  0.00    -0.248 NA
ATOM     53  C   UNL A   1      41.508  30.161  35.661  1.00  0.00     0.031 C 
ATOM     54  C   UNL A   1      44.295  26.647  31.573  1.00  0.00     0.029 A 
ATOM     55  C   UNL A   1      43.396  27.504  32.187  1.00  0.00     0.049 A 
ATOM     56  H   UNL A   1      41.661  28.406  31.393  1.00  0.00     0.167 HD
ATOM     57  C   UNL A   1      42.505  28.867  34.054  1.00  0.00     0.074 A 
ATOM     58  C   UNL A   1      42.532  29.356  35.417  1.00  0.00     0.031 C 
ATOM     59  C   UNL A   1      43.406  27.996  33.538  1.00  0.00     0.031 A 
BRANCH  46  60
ATOM     60  C   UNL A   1      42.369  26.506  27.640  1.00  0.00    -0.014 A 
ATOM     61  C   UNL A   1      41.940  25.186  27.434  1.00  0.00     0.009 A 
ATOM     62  C   UNL A   1      43.185  27.115  26.673  1.00  0.00     0.009 A 
ATOM     63  C   UNL A   1      42.345  24.483  26.295  1.00  0.00     0.001 A 
ATOM     64  C   UNL A   1      43.568  26.419  25.526  1.00  0.00     0.001 A 
ATOM     65  C   UNL A   1      43.153  25.101  25.341  1.00  0.00     0.000 A 
ENDBRANCH  46  60
BRANCH  47  66
ATOM     66  C   UNL A   1      39.121  31.821  35.415  1.00  0.00    -0.014 A 
ATOM     67  C   UNL A   1      39.495  33.159  35.607  1.00  0.00     0.009 A 
ATOM     68  C   UNL A   1      38.255  31.216  36.341  1.00  0.00     0.009 A 
ATOM     69  C   UNL A   1      39.021  33.872  36.710  1.00  0.00     0.001 A 
ATOM     70  C   UNL A   1      37.762  31.940  37.427  1.00  0.00     0.001 A 
ATOM     71  C   UNL A   1      38.150  33.266  37.614  1.00  0.00     0.000 A 
ENDBRANCH  47  66
BRANCH  59  72
ATOM     72  C   UNL A   1      44.512  27.547  34.446  1.00  0.00    -0.014 A 
ATOM     73  C   UNL A   1      44.391  26.378  35.214  1.00  0.00     0.009 A 
ATOM     74  C   UNL A   1      45.698  28.293  34.518  1.00  0.00     0.009 A 
ATOM     75  C   UNL A   1      45.427  25.982  36.060  1.00  0.00     0.001 A 
ATOM     76  C   UNL A   1      46.741  27.882  35.349  1.00  0.00     0.001 A 
ATOM     77  C   UNL A   1      46.602  26.732  36.125  1.00  0.00     0.000 A 
ENDBRANCH  59  72
ENDBRANCH  33  34
ENDBRANCH  26  28
ENDBRANCH  25  26
ENDBRANCH  24  25
ENDBRANCH   1  24
TORSDOF 15
ENDMDL
MODEL 3
REMARK VINA RESULT:      -9.9      5.652      9.618
REMARK SMILES C[C@H]([NH2+][C@@H](C)[C@]12C[C@H]3C[C@H](C[C@H](C3)C1)C2)[C@@H](C)C(=O)OCCOC(=O)c1ccc(-c2c3nc(c(-c4ccccc4)c4ccc([nH]4)c(-c4ccccc4)c4nc(c(-c5ccccc5)c5ccc2[nH]5)C=C4)C=C3)cc1
REMARK SMILES IDX 21 1 20 2 18 3 19 4 16 5 17 6 2 7 1 8 3 9 4 12 5 13 6 14
REMARK SMILES IDX 7 15 14 16 15 17 8 18 12 19 10 20 9 21 13 22 11 23 22 24
REMARK SMILES IDX 23 25 24 26 25 27 26 28 27 29 73 30 28 31 72 32 29 33 30 34
REMARK SMILES IDX 31 35 66 36 32 37 71 38 65 39 67 40 33 41 70 42 64 43 63 44
REMARK SMILES IDX 34 46 56 47 41 48 55 49 42 50 45 51 54 52 68 53 43 54 44 55
REMARK SMILES IDX 53 57 69 58 46 59 35 60 36 61 40 62 37 63 39 64 38 65 57 66
REMARK SMILES IDX 58 67 62 68 59 69 61 70 60 71 47 72 48 73 52 74 49 75 51 76
REMARK SMILES IDX 50 77
REMARK H PARENT 3 10 3 11 67 45 45 56
REMARK Flexibility Score: inf
ROOT
ATOM      1  C   UNL A   1      34.846  20.677  25.202  1.00  0.00     0.274 C 
ENDROOT
BRANCH   1   2
ATOM      2  O   UNL A   1      34.641  21.680  26.223  1.00  0.00    -0.462 OA
BRANCH   2   3
ATOM      3  C   UNL A   1      34.081  22.851  25.813  1.00  0.00     0.314 C 
ATOM      4  O   UNL A   1      34.431  23.485  24.824  1.00  0.00    -0.252 OA
BRANCH   3   5
ATOM      5  C   UNL A   1      32.985  23.340  26.753  1.00  0.00     0.154 C 
ATOM      6  C   UNL A   1      33.005  22.443  27.988  1.00  0.00     0.026 C 
BRANCH   5   7
ATOM      7  C   UNL A   1      31.602  23.438  26.054  1.00  0.00     0.193 C 
ATOM      8  C   UNL A   1      31.252  22.069  25.456  1.00  0.00     0.076 C 
BRANCH   7   9
ATOM      9  N   UNL A   1      31.609  24.413  24.959  1.00  0.00    -0.341 N 
ATOM     10  H   UNL A   1      31.234  23.949  24.132  1.00  0.00     0.346 HD
ATOM     11  H   UNL A   1      32.580  24.715  24.882  1.00  0.00     0.346 HD
BRANCH   9  12
ATOM     12  C   UNL A   1      30.836  25.655  25.160  1.00  0.00     0.185 C 
ATOM     13  C   UNL A   1      29.814  25.266  26.247  1.00  0.00     0.076 C 
BRANCH  12  14
ATOM     14  C   UNL A   1      31.633  26.982  25.509  1.00  0.00     0.023 C 
ATOM     15  C   UNL A   1      31.550  27.346  27.018  1.00  0.00     0.016 C 
ATOM     16  C   UNL A   1      31.058  28.204  24.720  1.00  0.00     0.016 C 
ATOM     17  C   UNL A   1      33.131  26.884  25.081  1.00  0.00     0.016 C 
ATOM     18  C   UNL A   1      32.347  28.627  27.328  1.00  0.00    -0.010 C 
ATOM     19  C   UNL A   1      31.837  29.501  25.025  1.00  0.00    -0.010 C 
ATOM     20  C   UNL A   1      33.914  28.160  25.413  1.00  0.00    -0.010 C 
ATOM     21  C   UNL A   1      33.816  28.429  26.924  1.00  0.00     0.007 C 
ATOM     22  C   UNL A   1      31.755  29.798  26.530  1.00  0.00     0.007 C 
ATOM     23  C   UNL A   1      33.310  29.328  24.631  1.00  0.00     0.007 C 
ENDBRANCH  12  14
ENDBRANCH   9  12
ENDBRANCH   7   9
ENDBRANCH   5   7
ENDBRANCH   3   5
ENDBRANCH   2   3
ENDBRANCH   1   2
BRANCH   1  24
ATOM     24  C   UNL A   1      36.338  20.414  25.003  1.00  0.00     0.275 C 
BRANCH  24  25
ATOM     25  O   UNL A   1      37.085  21.362  25.779  1.00  0.00    -0.458 OA
BRANCH  25  26
ATOM     26  C   UNL A   1      38.420  21.146  25.838  1.00  0.00     0.338 C 
ATOM     27  O   UNL A   1      39.005  20.131  25.504  1.00  0.00    -0.246 OA
BRANCH  26  28
ATOM     28  C   UNL A   1      39.107  22.367  26.334  1.00  0.00     0.060 A 
ATOM     29  C   UNL A   1      38.624  23.647  26.043  1.00  0.00     0.016 A 
ATOM     30  C   UNL A   1      40.308  22.230  27.031  1.00  0.00     0.016 A 
ATOM     31  C   UNL A   1      39.373  24.777  26.367  1.00  0.00     0.010 A 
ATOM     32  C   UNL A   1      41.004  23.368  27.449  1.00  0.00     0.010 A 
ATOM     33  C   UNL A   1      40.557  24.655  27.103  1.00  0.00    -0.014 A 
BRANCH  33  34
ATOM     34  C   UNL A   1      41.323  25.855  27.534  1.00  0.00     0.031 A 
ATOM     35  C   UNL A   1      40.703  26.857  28.472  1.00  0.00     0.074 A 
ATOM     36  C   UNL A   1      42.561  26.078  27.050  1.00  0.00     0.049 A 
ATOM     37  N   UNL A   1      41.102  28.069  28.768  1.00  0.00    -0.248 NA
ATOM     38  C   UNL A   1      39.464  26.448  29.153  1.00  0.00     0.031 C 
ATOM     39  C   UNL A   1      43.309  25.178  26.170  1.00  0.00     0.029 A 
ATOM     40  N   UNL A   1      43.405  27.147  27.223  1.00  0.00    -0.354 N 
ATOM     41  C   UNL A   1      40.136  28.588  29.621  1.00  0.00     0.074 A 
ATOM     42  C   UNL A   1      39.133  27.558  29.800  1.00  0.00     0.031 C 
ATOM     43  C   UNL A   1      44.505  25.720  25.898  1.00  0.00     0.029 A 
ATOM     44  C   UNL A   1      44.573  27.042  26.508  1.00  0.00     0.049 A 
ATOM     45  H   UNL A   1      43.194  27.914  27.803  1.00  0.00     0.167 HD
ATOM     46  C   UNL A   1      40.085  29.813  30.196  1.00  0.00     0.031 A 
ATOM     47  C   UNL A   1      45.568  27.926  26.314  1.00  0.00     0.031 A 
ATOM     48  C   UNL A   1      41.099  30.824  30.046  1.00  0.00     0.049 A 
ATOM     49  C   UNL A   1      45.469  29.292  26.923  1.00  0.00     0.074 A 
ATOM     50  C   UNL A   1      41.142  32.092  30.603  1.00  0.00     0.029 A 
ATOM     51  N   UNL A   1      42.253  30.677  29.295  1.00  0.00    -0.354 N 
ATOM     52  N   UNL A   1      44.524  29.790  27.683  1.00  0.00    -0.248 NA
ATOM     53  C   UNL A   1      46.566  30.225  26.632  1.00  0.00     0.031 C 
ATOM     54  C   UNL A   1      42.308  32.725  30.160  1.00  0.00     0.029 A 
ATOM     55  C   UNL A   1      43.011  31.836  29.363  1.00  0.00     0.049 A 
ATOM     56  H   UNL A   1      42.499  29.871  28.788  1.00  0.00     0.167 HD
ATOM     57  C   UNL A   1      44.918  31.089  27.970  1.00  0.00     0.074 A 
ATOM     58  C   UNL A   1      46.194  31.296  27.318  1.00  0.00     0.031 C 
ATOM     59  C   UNL A   1      44.276  32.027  28.706  1.00  0.00     0.031 A 
BRANCH  46  60
ATOM     60  C   UNL A   1      38.870  30.147  31.013  1.00  0.00    -0.014 A 
ATOM     61  C   UNL A   1      38.834  29.929  32.398  1.00  0.00     0.009 A 
ATOM     62  C   UNL A   1      37.757  30.732  30.387  1.00  0.00     0.009 A 
ATOM     63  C   UNL A   1      37.695  30.265  33.135  1.00  0.00     0.001 A 
ATOM     64  C   UNL A   1      36.629  31.088  31.129  1.00  0.00     0.001 A 
ATOM     65  C   UNL A   1      36.597  30.848  32.502  1.00  0.00     0.000 A 
ENDBRANCH  46  60
BRANCH  47  66
ATOM     66  C   UNL A   1      46.723  27.559  25.456  1.00  0.00    -0.014 A 
ATOM     67  C   UNL A   1      46.748  27.924  24.103  1.00  0.00     0.009 A 
ATOM     68  C   UNL A   1      47.813  26.853  25.991  1.00  0.00     0.009 A 
ATOM     69  C   UNL A   1      47.836  27.579  23.299  1.00  0.00     0.001 A 
ATOM     70  C   UNL A   1      48.912  26.534  25.191  1.00  0.00     0.001 A 
ATOM     71  C   UNL A   1      48.919  26.892  23.844  1.00  0.00     0.000 A 
ENDBRANCH  47  66
BRANCH  59  72
ATOM     72  C   UNL A   1      44.965  33.350  28.869  1.00  0.00    -0.014 A 
ATOM     73  C   UNL A   1      44.721  34.408  27.982  1.00  0.00     0.009 A 
ATOM     74  C   UNL A   1      45.854  33.543  29.938  1.00  0.00     0.009 A 
ATOM     75  C   UNL A   1      45.379  35.629  28.144  1.00  0.00     0.001 A 
ATOM     76  C   UNL A   1      46.493  34.771  30.111  1.00  0.00     0.001 A 
ATOM     77  C   UNL A   1      46.262  35.810  29.210  1.00  0.00     0.000 A 
ENDBRANCH  59  72
ENDBRANCH  33  34
ENDBRANCH  26  28
ENDBRANCH  25  26
ENDBRANCH  24  25
ENDBRANCH   1  24
TORSDOF 15
ENDMDL
