MODEL 1
REMARK VINA RESULT:     -10.8      0.000      0.000
REMARK SMILES CCCc1cc(OC(F)(F)F)cc2c1O[C@H](C(F)(F)F)C(C(=O)OCCOC(=O)c1ccc(-c3c4nc(c(-c5ccccc5)c5ccc([nH]5)c(-c5ccccc5)c5nc(c(-c6ccccc6)c6ccc3[nH]6)C=C5)C=C4)cc1)=C2
REMARK SMILES IDX 25 1 24 2 22 3 23 4 21 5 4 6 5 7 14 8 6 9 13 10 15 11 12 12
REMARK SMILES IDX 78 13 16 14 3 15 2 16 1 17 7 18 8 19 9 20 10 21 11 22 17 23
REMARK SMILES IDX 18 24 19 25 20 26 26 27 27 28 28 29 29 30 30 31 31 32 77 33
REMARK SMILES IDX 32 34 76 35 33 36 34 37 35 38 70 39 36 40 75 41 69 42 71 43
REMARK SMILES IDX 37 44 74 45 68 46 67 47 38 49 60 50 45 51 59 52 46 53 49 54
REMARK SMILES IDX 58 55 72 56 47 57 48 58 57 60 73 61 50 62 39 63 40 64 44 65
REMARK SMILES IDX 41 66 43 67 42 68 61 69 62 70 66 71 63 72 65 73 64 74 51 75
REMARK SMILES IDX 52 76 56 77 53 78 55 79 54 80
REMARK H PARENT 71 48 49 59
REMARK Flexibility Score: inf
ROOT
ATOM      1  C   UNL A   1      31.917  29.749  26.517  1.00  0.00     0.275 C 
ENDROOT
BRANCH   1   2
ATOM      2  O   UNL A   1      31.623  28.662  25.612  1.00  0.00    -0.459 OA
BRANCH   2   3
ATOM      3  C   UNL A   1      31.573  27.439  26.190  1.00  0.00     0.338 C 
ATOM      4  O   UNL A   1      31.009  27.157  27.234  1.00  0.00    -0.246 OA
BRANCH   3   5
ATOM      5  C   UNL A   1      32.275  26.416  25.397  1.00  0.00     0.087 C 
ATOM      6  C   UNL A   1      33.480  22.798  23.728  1.00  0.00    -0.002 A 
ATOM      7  C   UNL A   1      34.847  22.477  23.739  1.00  0.00     0.054 A 
ATOM      8  C   UNL A   1      33.077  23.978  24.363  1.00  0.00     0.131 A 
ATOM      9  C   UNL A   1      35.774  23.290  24.399  1.00  0.00     0.130 A 
ATOM     10  C   UNL A   1      33.998  24.817  25.015  1.00  0.00     0.021 A 
ATOM     11  O   UNL A   1      31.737  24.279  24.344  1.00  0.00    -0.475 OA
ATOM     12  C   UNL A   1      35.345  24.462  25.031  1.00  0.00     0.058 A 
ATOM     13  C   UNL A   1      33.513  26.010  25.712  1.00  0.00     0.027 C 
ATOM     14  C   UNL A   1      31.465  25.699  24.346  1.00  0.00     0.316 C 
BRANCH   6  15
ATOM     15  C   UNL A   1      32.489  21.911  23.005  1.00  0.00     0.039 C 
BRANCH  15  16
ATOM     16  C   UNL A   1      32.519  20.439  23.428  1.00  0.00     0.001 C 
ATOM     17  C   UNL A   1      32.220  20.231  24.905  1.00  0.00     0.004 C 
ENDBRANCH  15  16
ENDBRANCH   6  15
BRANCH   9  18
ATOM     18  O   UNL A   1      37.118  23.062  24.496  1.00  0.00    -0.406 OA
BRANCH  18  19
ATOM     19  C   UNL A   1      37.546  22.057  25.402  1.00  0.00     0.573 C 
ATOM     20  F   UNL A   1      36.514  21.588  26.136  1.00  0.00    -0.132 F 
ATOM     21  F   UNL A   1      38.136  21.035  24.746  1.00  0.00    -0.132 F 
ATOM     22  F   UNL A   1      38.452  22.594  26.246  1.00  0.00    -0.132 F 
ENDBRANCH  18  19
ENDBRANCH   9  18
BRANCH  14  23
ATOM     23  C   UNL A   1      31.640  26.290  22.933  1.00  0.00     0.430 C 
ATOM     24  F   UNL A   1      31.531  25.322  21.990  1.00  0.00    -0.167 F 
ATOM     25  F   UNL A   1      30.690  27.212  22.664  1.00  0.00    -0.167 F 
ATOM     26  F   UNL A   1      32.835  26.894  22.751  1.00  0.00    -0.167 F 
ENDBRANCH  14  23
ENDBRANCH   3   5
ENDBRANCH   2   3
ENDBRANCH   1   2
BRANCH   1  27
ATOM     27  C   UNL A   1      33.421  29.984  26.645  1.00  0.00     0.275 C 
BRANCH  27  28
ATOM     28  O   UNL A   1      33.781  30.134  28.031  1.00  0.00    -0.458 OA
BRANCH  28  29
ATOM     29  C   UNL A   1      34.852  30.917  28.275  1.00  0.00     0.338 C 
ATOM     30  O   UNL A   1      34.859  32.136  28.422  1.00  0.00    -0.246 OA
BRANCH  29  31
ATOM     31  C   UNL A   1      36.081  30.109  28.343  1.00  0.00     0.060 A 
ATOM     32  C   UNL A   1      36.465  29.499  29.537  1.00  0.00     0.016 A 
ATOM     33  C   UNL A   1      36.941  30.090  27.246  1.00  0.00     0.016 A 
ATOM     34  C   UNL A   1      37.754  28.989  29.681  1.00  0.00     0.010 A 
ATOM     35  C   UNL A   1      38.186  29.466  27.356  1.00  0.00     0.010 A 
ATOM     36  C   UNL A   1      38.629  28.950  28.588  1.00  0.00    -0.014 A 
BRANCH  36  37
ATOM     37  C   UNL A   1      40.015  28.416  28.714  1.00  0.00     0.031 A 
ATOM     38  C   UNL A   1      41.142  29.344  29.091  1.00  0.00     0.074 A 
ATOM     39  C   UNL A   1      40.287  27.119  28.469  1.00  0.00     0.049 A 
ATOM     40  N   UNL A   1      42.434  29.171  28.963  1.00  0.00    -0.248 NA
ATOM     41  C   UNL A   1      40.764  30.645  29.666  1.00  0.00     0.031 C 
ATOM     42  C   UNL A   1      39.303  26.078  28.168  1.00  0.00     0.029 A 
ATOM     43  N   UNL A   1      41.491  26.456  28.425  1.00  0.00    -0.354 N 
ATOM     44  C   UNL A   1      43.015  30.369  29.366  1.00  0.00     0.074 A 
ATOM     45  C   UNL A   1      41.938  31.253  29.754  1.00  0.00     0.031 C 
ATOM     46  C   UNL A   1      39.936  24.908  27.999  1.00  0.00     0.029 A 
ATOM     47  C   UNL A   1      41.374  25.134  28.072  1.00  0.00     0.049 A 
ATOM     48  H   UNL A   1      42.352  26.888  28.627  1.00  0.00     0.167 HD
ATOM     49  C   UNL A   1      44.328  30.702  29.395  1.00  0.00     0.031 A 
ATOM     50  C   UNL A   1      42.313  24.216  27.775  1.00  0.00     0.031 A 
ATOM     51  C   UNL A   1      45.400  29.800  29.066  1.00  0.00     0.049 A 
ATOM     52  C   UNL A   1      43.759  24.613  27.778  1.00  0.00     0.074 A 
ATOM     53  C   UNL A   1      46.763  30.041  29.067  1.00  0.00     0.029 A 
ATOM     54  N   UNL A   1      45.227  28.475  28.700  1.00  0.00    -0.354 N 
ATOM     55  N   UNL A   1      44.295  25.773  28.069  1.00  0.00    -0.248 NA
ATOM     56  C   UNL A   1      44.730  23.581  27.389  1.00  0.00     0.031 C 
ATOM     57  C   UNL A   1      47.415  28.868  28.674  1.00  0.00     0.029 A 
ATOM     58  C   UNL A   1      46.459  27.886  28.471  1.00  0.00     0.049 A 
ATOM     59  H   UNL A   1      44.359  28.019  28.615  1.00  0.00     0.167 HD
ATOM     60  C   UNL A   1      45.665  25.605  27.918  1.00  0.00     0.074 A 
ATOM     61  C   UNL A   1      45.879  24.230  27.521  1.00  0.00     0.031 C 
ATOM     62  C   UNL A   1      46.655  26.512  28.093  1.00  0.00     0.031 A 
BRANCH  49  63
ATOM     63  C   UNL A   1      44.681  32.118  29.752  1.00  0.00    -0.014 A 
ATOM     64  C   UNL A   1      44.730  33.134  28.786  1.00  0.00     0.009 A 
ATOM     65  C   UNL A   1      44.926  32.446  31.096  1.00  0.00     0.009 A 
ATOM     66  C   UNL A   1      45.049  34.444  29.155  1.00  0.00     0.001 A 
ATOM     67  C   UNL A   1      45.219  33.761  31.466  1.00  0.00     0.001 A 
ATOM     68  C   UNL A   1      45.288  34.757  30.494  1.00  0.00     0.000 A 
ENDBRANCH  49  63
BRANCH  50  69
ATOM     69  C   UNL A   1      41.904  22.841  27.385  1.00  0.00    -0.014 A 
ATOM     70  C   UNL A   1      41.878  22.462  26.035  1.00  0.00     0.009 A 
ATOM     71  C   UNL A   1      41.551  21.897  28.364  1.00  0.00     0.009 A 
ATOM     72  C   UNL A   1      41.492  21.169  25.672  1.00  0.00     0.001 A 
ATOM     73  C   UNL A   1      41.195  20.597  28.000  1.00  0.00     0.001 A 
ATOM     74  C   UNL A   1      41.159  20.236  26.654  1.00  0.00     0.000 A 
ENDBRANCH  50  69
BRANCH  62  75
ATOM     75  C   UNL A   1      48.065  26.032  27.910  1.00  0.00    -0.014 A 
ATOM     76  C   UNL A   1      48.687  26.058  26.654  1.00  0.00     0.009 A 
ATOM     77  C   UNL A   1      48.795  25.595  29.027  1.00  0.00     0.009 A 
ATOM     78  C   UNL A   1      50.009  25.633  26.516  1.00  0.00     0.001 A 
ATOM     79  C   UNL A   1      50.123  25.192  28.889  1.00  0.00     0.001 A 
ATOM     80  C   UNL A   1      50.727  25.205  27.634  1.00  0.00     0.000 A 
ENDBRANCH  62  75
ENDBRANCH  36  37
ENDBRANCH  29  31
ENDBRANCH  28  29
ENDBRANCH  27  28
ENDBRANCH   1  27
TORSDOF 16
ENDMDL
MODEL 2
REMARK VINA RESULT:     -10.6      3.562      8.662
REMARK SMILES CCCc1cc(OC(F)(F)F)cc2c1O[C@H](C(F)(F)F)C(C(=O)OCCOC(=O)c1ccc(-c3c4nc(c(-c5ccccc5)c5ccc([nH]5)c(-c5ccccc5)c5nc(c(-c6ccccc6)c6ccc3[nH]6)C=C5)C=C4)cc1)=C2
REMARK SMILES IDX 25 1 24 2 22 3 23 4 21 5 4 6 5 7 14 8 6 9 13 10 15 11 12 12
REMARK SMILES IDX 78 13 16 14 3 15 2 16 1 17 7 18 8 19 9 20 10 21 11 22 17 23
REMARK SMILES IDX 18 24 19 25 20 26 26 27 27 28 28 29 29 30 30 31 31 32 77 33
REMARK SMILES IDX 32 34 76 35 33 36 34 37 35 38 70 39 36 40 75 41 69 42 71 43
REMARK SMILES IDX 37 44 74 45 68 46 67 47 38 49 60 50 45 51 59 52 46 53 49 54
REMARK SMILES IDX 58 55 72 56 47 57 48 58 57 60 73 61 50 62 39 63 40 64 44 65
REMARK SMILES IDX 41 66 43 67 42 68 61 69 62 70 66 71 63 72 65 73 64 74 51 75
REMARK SMILES IDX 52 76 56 77 53 78 55 79 54 80
REMARK H PARENT 71 48 49 59
REMARK Flexibility Score: inf
ROOT
ATOM      1  C   UNL A   1      37.082  21.623  24.876  1.00  0.00     0.275 C 
ENDROOT
BRANCH   1   2
ATOM      2  O   UNL A   1      36.700  23.016  24.900  1.00  0.00    -0.459 OA
BRANCH   2   3
ATOM      3  C   UNL A   1      35.747  23.361  24.003  1.00  0.00     0.338 C 
ATOM      4  O   UNL A   1      35.737  23.079  22.816  1.00  0.00    -0.246 OA
BRANCH   3   5
ATOM      5  C   UNL A   1      34.650  24.127  24.619  1.00  0.00     0.087 C 
ATOM      6  C   UNL A   1      31.242  26.444  25.198  1.00  0.00    -0.002 A 
ATOM      7  C   UNL A   1      31.330  27.571  26.032  1.00  0.00     0.054 A 
ATOM      8  C   UNL A   1      32.411  25.720  24.946  1.00  0.00     0.131 A 
ATOM      9  C   UNL A   1      32.558  27.981  26.564  1.00  0.00     0.130 A 
ATOM     10  C   UNL A   1      33.651  26.106  25.488  1.00  0.00     0.021 A 
ATOM     11  O   UNL A   1      32.310  24.621  24.129  1.00  0.00    -0.475 OA
ATOM     12  C   UNL A   1      33.714  27.242  26.293  1.00  0.00     0.058 A 
ATOM     13  C   UNL A   1      34.853  25.344  25.145  1.00  0.00     0.027 C 
ATOM     14  C   UNL A   1      33.257  23.577  24.446  1.00  0.00     0.316 C 
BRANCH   6  15
ATOM     15  C   UNL A   1      29.906  26.010  24.635  1.00  0.00     0.039 C 
BRANCH  15  16
ATOM     16  C   UNL A   1      29.254  27.016  23.681  1.00  0.00     0.001 C 
ATOM     17  C   UNL A   1      30.246  27.673  22.731  1.00  0.00     0.004 C 
ENDBRANCH  15  16
ENDBRANCH   6  15
BRANCH   9  18
ATOM     18  O   UNL A   1      32.764  29.071  27.362  1.00  0.00    -0.406 OA
BRANCH  18  19
ATOM     19  C   UNL A   1      33.084  30.296  26.723  1.00  0.00     0.573 C 
ATOM     20  F   UNL A   1      32.241  31.281  27.102  1.00  0.00    -0.132 F 
ATOM     21  F   UNL A   1      34.356  30.663  26.991  1.00  0.00    -0.132 F 
ATOM     22  F   UNL A   1      32.966  30.132  25.389  1.00  0.00    -0.132 F 
ENDBRANCH  18  19
ENDBRANCH   9  18
BRANCH  14  23
ATOM     23  C   UNL A   1      32.775  22.750  25.654  1.00  0.00     0.430 C 
ATOM     24  F   UNL A   1      33.473  23.076  26.770  1.00  0.00    -0.167 F 
ATOM     25  F   UNL A   1      31.471  22.985  25.922  1.00  0.00    -0.167 F 
ATOM     26  F   UNL A   1      32.904  21.417  25.475  1.00  0.00    -0.167 F 
ENDBRANCH  14  23
ENDBRANCH   3   5
ENDBRANCH   2   3
ENDBRANCH   1   2
BRANCH   1  27
ATOM     27  C   UNL A   1      38.507  21.420  25.387  1.00  0.00     0.275 C 
BRANCH  27  28
ATOM     28  O   UNL A   1      38.797  22.369  26.430  1.00  0.00    -0.458 OA
BRANCH  28  29
ATOM     29  C   UNL A   1      39.990  22.992  26.339  1.00  0.00     0.338 C 
ATOM     30  O   UNL A   1      41.024  22.544  25.851  1.00  0.00    -0.246 OA
BRANCH  29  31
ATOM     31  C   UNL A   1      39.916  24.340  26.928  1.00  0.00     0.060 A 
ATOM     32  C   UNL A   1      40.674  25.387  26.402  1.00  0.00     0.016 A 
ATOM     33  C   UNL A   1      39.206  24.524  28.112  1.00  0.00     0.016 A 
ATOM     34  C   UNL A   1      40.832  26.569  27.124  1.00  0.00     0.010 A 
ATOM     35  C   UNL A   1      39.266  25.756  28.769  1.00  0.00     0.010 A 
ATOM     36  C   UNL A   1      40.117  26.778  28.311  1.00  0.00    -0.014 A 
BRANCH  36  37
ATOM     37  C   UNL A   1      40.271  28.029  29.106  1.00  0.00     0.031 A 
ATOM     38  C   UNL A   1      41.434  28.175  30.053  1.00  0.00     0.074 A 
ATOM     39  C   UNL A   1      39.369  29.027  29.016  1.00  0.00     0.049 A 
ATOM     40  N   UNL A   1      41.596  29.018  31.043  1.00  0.00    -0.248 NA
ATOM     41  C   UNL A   1      42.552  27.233  29.878  1.00  0.00     0.031 C 
ATOM     42  C   UNL A   1      38.232  29.076  28.096  1.00  0.00     0.029 A 
ATOM     43  N   UNL A   1      39.267  30.199  29.727  1.00  0.00    -0.354 N 
ATOM     44  C   UNL A   1      42.792  28.656  31.654  1.00  0.00     0.074 A 
ATOM     45  C   UNL A   1      43.320  27.528  30.918  1.00  0.00     0.031 C 
ATOM     46  C   UNL A   1      37.566  30.225  28.277  1.00  0.00     0.029 A 
ATOM     47  C   UNL A   1      38.162  30.944  29.396  1.00  0.00     0.049 A 
ATOM     48  H   UNL A   1      39.923  30.477  30.407  1.00  0.00     0.167 HD
ATOM     49  C   UNL A   1      43.386  29.209  32.738  1.00  0.00     0.031 A 
ATOM     50  C   UNL A   1      37.642  32.049  29.964  1.00  0.00     0.031 A 
ATOM     51  C   UNL A   1      42.889  30.368  33.431  1.00  0.00     0.049 A 
ATOM     52  C   UNL A   1      38.293  32.625  31.187  1.00  0.00     0.074 A 
ATOM     53  C   UNL A   1      43.420  31.006  34.539  1.00  0.00     0.029 A 
ATOM     54  N   UNL A   1      41.757  31.077  33.065  1.00  0.00    -0.354 N 
ATOM     55  N   UNL A   1      39.371  32.221  31.815  1.00  0.00    -0.248 NA
ATOM     56  C   UNL A   1      37.644  33.795  31.794  1.00  0.00     0.031 C 
ATOM     57  C   UNL A   1      42.593  32.086  34.861  1.00  0.00     0.029 A 
ATOM     58  C   UNL A   1      41.572  32.145  33.926  1.00  0.00     0.049 A 
ATOM     59  H   UNL A   1      41.171  30.856  32.306  1.00  0.00     0.167 HD
ATOM     60  C   UNL A   1      39.540  33.099  32.876  1.00  0.00     0.074 A 
ATOM     61  C   UNL A   1      38.463  34.063  32.803  1.00  0.00     0.031 C 
ATOM     62  C   UNL A   1      40.503  33.104  33.828  1.00  0.00     0.031 A 
BRANCH  49  63
ATOM     63  C   UNL A   1      44.619  28.538  33.277  1.00  0.00    -0.014 A 
ATOM     64  C   UNL A   1      45.904  28.889  32.837  1.00  0.00     0.009 A 
ATOM     65  C   UNL A   1      44.487  27.563  34.279  1.00  0.00     0.009 A 
ATOM     66  C   UNL A   1      47.029  28.254  33.368  1.00  0.00     0.001 A 
ATOM     67  C   UNL A   1      45.615  26.949  34.827  1.00  0.00     0.001 A 
ATOM     68  C   UNL A   1      46.884  27.289  34.365  1.00  0.00     0.000 A 
ENDBRANCH  49  63
BRANCH  50  69
ATOM     69  C   UNL A   1      36.395  32.644  29.417  1.00  0.00    -0.014 A 
ATOM     70  C   UNL A   1      35.145  32.296  29.950  1.00  0.00     0.009 A 
ATOM     71  C   UNL A   1      36.451  33.575  28.366  1.00  0.00     0.009 A 
ATOM     72  C   UNL A   1      33.976  32.857  29.432  1.00  0.00     0.001 A 
ATOM     73  C   UNL A   1      35.282  34.157  27.872  1.00  0.00     0.001 A 
ATOM     74  C   UNL A   1      34.046  33.792  28.399  1.00  0.00     0.000 A 
ENDBRANCH  50  69
BRANCH  62  75
ATOM     75  C   UNL A   1      40.469  34.216  34.834  1.00  0.00    -0.014 A 
ATOM     76  C   UNL A   1      41.118  35.437  34.595  1.00  0.00     0.009 A 
ATOM     77  C   UNL A   1      39.734  34.053  36.019  1.00  0.00     0.009 A 
ATOM     78  C   UNL A   1      41.048  36.466  35.535  1.00  0.00     0.001 A 
ATOM     79  C   UNL A   1      39.647  35.091  36.946  1.00  0.00     0.001 A 
ATOM     80  C   UNL A   1      40.309  36.294  36.706  1.00  0.00     0.000 A 
ENDBRANCH  62  75
ENDBRANCH  36  37
ENDBRANCH  29  31
ENDBRANCH  28  29
ENDBRANCH  27  28
ENDBRANCH   1  27
TORSDOF 16
ENDMDL
MODEL 3
REMARK VINA RESULT:     -10.6      3.604      6.586
REMARK SMILES CCCc1cc(OC(F)(F)F)cc2c1O[C@H](C(F)(F)F)C(C(=O)OCCOC(=O)c1ccc(-c3c4nc(c(-c5ccccc5)c5ccc([nH]5)c(-c5ccccc5)c5nc(c(-c6ccccc6)c6ccc3[nH]6)C=C5)C=C4)cc1)=C2
REMARK SMILES IDX 25 1 24 2 22 3 23 4 21 5 4 6 5 7 14 8 6 9 13 10 15 11 12 12
REMARK SMILES IDX 78 13 16 14 3 15 2 16 1 17 7 18 8 19 9 20 10 21 11 22 17 23
REMARK SMILES IDX 18 24 19 25 20 26 26 27 27 28 28 29 29 30 30 31 31 32 77 33
REMARK SMILES IDX 32 34 76 35 33 36 34 37 35 38 70 39 36 40 75 41 69 42 71 43
REMARK SMILES IDX 37 44 74 45 68 46 67 47 38 49 60 50 45 51 59 52 46 53 49 54
REMARK SMILES IDX 58 55 72 56 47 57 48 58 57 60 73 61 50 62 39 63 40 64 44 65
REMARK SMILES IDX 41 66 43 67 42 68 61 69 62 70 66 71 63 72 65 73 64 74 51 75
REMARK SMILES IDX 52 76 56 77 53 78 55 79 54 80
REMARK H PARENT 71 48 49 59
REMARK Flexibility Score: inf
ROOT
ATOM      1  C   UNL A   1      31.759  28.436  24.944  1.00  0.00     0.275 C 
ENDROOT
BRANCH   1   2
ATOM      2  O   UNL A   1      32.152  27.543  26.010  1.00  0.00    -0.459 OA
BRANCH   2   3
ATOM      3  C   UNL A   1      31.417  26.410  26.104  1.00  0.00     0.338 C 
ATOM      4  O   UNL A   1      30.277  26.323  26.528  1.00  0.00    -0.246 OA
BRANCH   3   5
ATOM      5  C   UNL A   1      32.142  25.231  25.602  1.00  0.00     0.087 C 
ATOM      6  C   UNL A   1      33.256  21.323  24.700  1.00  0.00    -0.002 A 
ATOM      7  C   UNL A   1      34.563  20.911  25.005  1.00  0.00     0.054 A 
ATOM      8  C   UNL A   1      32.867  22.612  25.080  1.00  0.00     0.131 A 
ATOM      9  C   UNL A   1      35.439  21.748  25.705  1.00  0.00     0.130 A 
ATOM     10  C   UNL A   1      33.741  23.474  25.768  1.00  0.00     0.021 A 
ATOM     11  O   UNL A   1      31.586  23.001  24.775  1.00  0.00    -0.475 OA
ATOM     12  C   UNL A   1      35.024  23.031  26.079  1.00  0.00     0.058 A 
ATOM     13  C   UNL A   1      33.263  24.791  26.192  1.00  0.00     0.027 C 
ATOM     14  C   UNL A   1      31.458  24.420  24.531  1.00  0.00     0.316 C 
BRANCH   6  15
ATOM     15  C   UNL A   1      32.322  20.408  23.937  1.00  0.00     0.039 C 
BRANCH  15  16
ATOM     16  C   UNL A   1      32.590  18.913  24.130  1.00  0.00     0.001 C 
ATOM     17  C   UNL A   1      32.527  18.119  22.834  1.00  0.00     0.004 C 
ENDBRANCH  15  16
ENDBRANCH   6  15
BRANCH   9  18
ATOM     18  O   UNL A   1      36.718  21.442  26.077  1.00  0.00    -0.406 OA
BRANCH  18  19
ATOM     19  C   UNL A   1      37.772  21.972  25.290  1.00  0.00     0.573 C 
ATOM     20  F   UNL A   1      37.413  22.067  23.991  1.00  0.00    -0.132 F 
ATOM     21  F   UNL A   1      38.152  23.186  25.744  1.00  0.00    -0.132 F 
ATOM     22  F   UNL A   1      38.833  21.141  25.373  1.00  0.00    -0.132 F 
ENDBRANCH  18  19
ENDBRANCH   9  18
BRANCH  14  23
ATOM     23  C   UNL A   1      31.928  24.773  23.106  1.00  0.00     0.430 C 
ATOM     24  F   UNL A   1      33.169  25.321  23.130  1.00  0.00    -0.167 F 
ATOM     25  F   UNL A   1      31.997  23.674  22.323  1.00  0.00    -0.167 F 
ATOM     26  F   UNL A   1      31.115  25.651  22.477  1.00  0.00    -0.167 F 
ENDBRANCH  14  23
ENDBRANCH   3   5
ENDBRANCH   2   3
ENDBRANCH   1   2
BRANCH   1  27
ATOM     27  C   UNL A   1      31.832  29.898  25.379  1.00  0.00     0.275 C 
BRANCH  27  28
ATOM     28  O   UNL A   1      32.240  29.985  26.757  1.00  0.00    -0.458 OA
BRANCH  28  29
ATOM     29  C   UNL A   1      32.837  31.139  27.119  1.00  0.00     0.338 C 
ATOM     30  O   UNL A   1      32.351  32.266  27.086  1.00  0.00    -0.246 OA
BRANCH  29  31
ATOM     31  C   UNL A   1      34.215  30.888  27.574  1.00  0.00     0.060 A 
ATOM     32  C   UNL A   1      34.673  29.585  27.766  1.00  0.00     0.016 A 
ATOM     33  C   UNL A   1      35.006  31.967  27.965  1.00  0.00     0.016 A 
ATOM     34  C   UNL A   1      35.856  29.354  28.467  1.00  0.00     0.010 A 
ATOM     35  C   UNL A   1      36.250  31.732  28.556  1.00  0.00     0.010 A 
ATOM     36  C   UNL A   1      36.671  30.424  28.858  1.00  0.00    -0.014 A 
BRANCH  36  37
ATOM     37  C   UNL A   1      37.937  30.206  29.614  1.00  0.00     0.031 A 
ATOM     38  C   UNL A   1      39.051  29.402  28.993  1.00  0.00     0.074 A 
ATOM     39  C   UNL A   1      38.096  30.693  30.861  1.00  0.00     0.049 A 
ATOM     40  N   UNL A   1      40.086  28.842  29.565  1.00  0.00    -0.248 NA
ATOM     41  C   UNL A   1      38.976  29.181  27.539  1.00  0.00     0.031 C 
ATOM     42  C   UNL A   1      37.150  31.551  31.575  1.00  0.00     0.029 A 
ATOM     43  N   UNL A   1      39.124  30.520  31.758  1.00  0.00    -0.354 N 
ATOM     44  C   UNL A   1      40.739  28.138  28.558  1.00  0.00     0.074 A 
ATOM     45  C   UNL A   1      39.991  28.353  27.339  1.00  0.00     0.031 C 
ATOM     46  C   UNL A   1      37.649  31.852  32.782  1.00  0.00     0.029 A 
ATOM     47  C   UNL A   1      38.897  31.123  32.971  1.00  0.00     0.049 A 
ATOM     48  H   UNL A   1      39.942  30.013  31.551  1.00  0.00     0.167 HD
ATOM     49  C   UNL A   1      41.853  27.373  28.649  1.00  0.00     0.031 A 
ATOM     50  C   UNL A   1      39.578  31.052  34.130  1.00  0.00     0.031 A 
ATOM     51  C   UNL A   1      42.628  27.211  29.851  1.00  0.00     0.049 A 
ATOM     52  C   UNL A   1      40.788  30.171  34.221  1.00  0.00     0.074 A 
ATOM     53  C   UNL A   1      43.774  26.459  30.044  1.00  0.00     0.029 A 
ATOM     54  N   UNL A   1      42.348  27.832  31.057  1.00  0.00    -0.354 N 
ATOM     55  N   UNL A   1      41.345  29.435  33.290  1.00  0.00    -0.248 NA
ATOM     56  C   UNL A   1      41.453  30.091  35.530  1.00  0.00     0.031 C 
ATOM     57  C   UNL A   1      44.172  26.603  31.377  1.00  0.00     0.029 A 
ATOM     58  C   UNL A   1      43.298  27.479  31.999  1.00  0.00     0.049 A 
ATOM     59  H   UNL A   1      41.587  28.434  31.220  1.00  0.00     0.167 HD
ATOM     60  C   UNL A   1      42.434  28.822  33.894  1.00  0.00     0.074 A 
ATOM     61  C   UNL A   1      42.468  29.280  35.267  1.00  0.00     0.031 C 
ATOM     62  C   UNL A   1      43.326  27.956  33.357  1.00  0.00     0.031 A 
BRANCH  49  63
ATOM     63  C   UNL A   1      42.277  26.611  27.425  1.00  0.00    -0.014 A 
ATOM     64  C   UNL A   1      43.185  27.146  26.499  1.00  0.00     0.009 A 
ATOM     65  C   UNL A   1      41.788  25.310  27.223  1.00  0.00     0.009 A 
ATOM     66  C   UNL A   1      43.568  26.404  25.378  1.00  0.00     0.001 A 
ATOM     67  C   UNL A   1      42.193  24.561  26.117  1.00  0.00     0.001 A 
ATOM     68  C   UNL A   1      43.077  25.112  25.191  1.00  0.00     0.000 A 
ENDBRANCH  49  63
BRANCH  50  69
ATOM     69  C   UNL A   1      39.086  31.793  35.322  1.00  0.00    -0.014 A 
ATOM     70  C   UNL A   1      38.239  31.168  36.249  1.00  0.00     0.009 A 
ATOM     71  C   UNL A   1      39.474  33.124  35.544  1.00  0.00     0.009 A 
ATOM     72  C   UNL A   1      37.779  31.867  37.367  1.00  0.00     0.001 A 
ATOM     73  C   UNL A   1      39.037  33.810  36.678  1.00  0.00     0.001 A 
ATOM     74  C   UNL A   1      38.184  33.184  37.585  1.00  0.00     0.000 A 
ENDBRANCH  50  69
BRANCH  62  75
ATOM     75  C   UNL A   1      44.447  27.490  34.238  1.00  0.00    -0.014 A 
ATOM     76  C   UNL A   1      44.338  26.314  34.994  1.00  0.00     0.009 A 
ATOM     77  C   UNL A   1      45.648  28.216  34.269  1.00  0.00     0.009 A 
ATOM     78  C   UNL A   1      45.406  25.886  35.785  1.00  0.00     0.001 A 
ATOM     79  C   UNL A   1      46.720  27.774  35.043  1.00  0.00     0.001 A 
ATOM     80  C   UNL A   1      46.597  26.614  35.804  1.00  0.00     0.000 A 
ENDBRANCH  62  75
ENDBRANCH  36  37
ENDBRANCH  29  31
ENDBRANCH  28  29
ENDBRANCH  27  28
ENDBRANCH   1  27
TORSDOF 16
ENDMDL
