MODEL 1
REMARK VINA RESULT:     -10.0      0.000      0.000
REMARK SMILES O=C(Cc1cccn(C(F)F)c1=O)OCCOC(=O)c1ccc(-c2c3nc(c(-c4ccccc4)c4ccc([nH]4)c(-c4ccccc4)c4nc(c(-c5ccccc5)c5ccc2[nH]5)C=C4)C=C3)cc1
REMARK SMILES IDX 15 1 14 2 2 3 1 4 3 5 4 6 5 7 12 8 6 9 8 10 13 11 7 12 9 13
REMARK SMILES IDX 10 14 11 15 16 16 17 17 18 18 19 19 20 20 21 21 67 22 22 23
REMARK SMILES IDX 66 24 23 25 24 26 25 27 60 28 26 29 65 30 59 31 61 32 27 33
REMARK SMILES IDX 64 34 58 35 57 36 28 38 50 39 35 40 49 41 36 42 39 43 48 44
REMARK SMILES IDX 62 45 37 46 38 47 47 49 63 50 40 51 29 52 30 53 34 54 31 55
REMARK SMILES IDX 33 56 32 57 51 58 52 59 56 60 53 61 55 62 54 63 41 64 42 65
REMARK SMILES IDX 46 66 43 67 45 68 44 69
REMARK H PARENT 61 37 39 48
REMARK Flexibility Score: inf
ROOT
ATOM      1  C   UNL A   1      33.788  34.729  32.240  1.00  0.00     0.274 C 
ENDROOT
BRANCH   1   2
ATOM      2  O   UNL A   1      34.284  34.881  30.889  1.00  0.00    -0.462 OA
BRANCH   2   3
ATOM      3  C   UNL A   1      33.529  35.157  29.801  1.00  0.00     0.310 C 
ATOM      4  O   UNL A   1      32.417  35.667  29.933  1.00  0.00    -0.252 OA
BRANCH   3   5
ATOM      5  C   UNL A   1      34.078  34.833  28.430  1.00  0.00     0.164 C 
BRANCH   5   6
ATOM      6  C   UNL A   1      34.229  33.382  28.089  1.00  0.00     0.029 A 
ATOM      7  C   UNL A   1      35.315  32.613  28.275  1.00  0.00     0.011 A 
ATOM      8  C   UNL A   1      32.990  32.754  27.508  1.00  0.00     0.258 A 
ATOM      9  C   UNL A   1      35.298  31.209  27.956  1.00  0.00     0.019 A 
ATOM     10  N   UNL A   1      33.063  31.408  27.211  1.00  0.00    -0.258 N 
ATOM     11  O   UNL A   1      31.982  33.438  27.338  1.00  0.00    -0.269 OA
ATOM     12  C   UNL A   1      34.196  30.653  27.439  1.00  0.00     0.095 A 
BRANCH  10  13
ATOM     13  C   UNL A   1      31.909  30.794  26.602  1.00  0.00     0.451 C 
ATOM     14  F   UNL A   1      32.239  30.350  25.360  1.00  0.00    -0.185 F 
ATOM     15  F   UNL A   1      31.546  29.693  27.314  1.00  0.00    -0.185 F 
ENDBRANCH  10  13
ENDBRANCH   5   6
ENDBRANCH   3   5
ENDBRANCH   2   3
ENDBRANCH   1   2
BRANCH   1  16
ATOM     16  C   UNL A   1      34.455  33.550  32.948  1.00  0.00     0.275 C 
BRANCH  16  17
ATOM     17  O   UNL A   1      35.810  33.412  32.486  1.00  0.00    -0.458 OA
BRANCH  17  18
ATOM     18  C   UNL A   1      36.629  32.645  33.248  1.00  0.00     0.338 C 
ATOM     19  O   UNL A   1      36.468  32.351  34.419  1.00  0.00    -0.246 OA
BRANCH  18  20
ATOM     20  C   UNL A   1      37.656  32.031  32.374  1.00  0.00     0.060 A 
ATOM     21  C   UNL A   1      37.611  32.151  30.980  1.00  0.00     0.016 A 
ATOM     22  C   UNL A   1      38.652  31.251  32.977  1.00  0.00     0.016 A 
ATOM     23  C   UNL A   1      38.561  31.494  30.195  1.00  0.00     0.010 A 
ATOM     24  C   UNL A   1      39.605  30.599  32.191  1.00  0.00     0.010 A 
ATOM     25  C   UNL A   1      39.570  30.723  30.795  1.00  0.00    -0.014 A 
BRANCH  25  26
ATOM     26  C   UNL A   1      40.669  30.173  29.968  1.00  0.00     0.031 A 
ATOM     27  C   UNL A   1      40.610  28.800  29.375  1.00  0.00     0.074 A 
ATOM     28  C   UNL A   1      41.749  30.949  29.761  1.00  0.00     0.049 A 
ATOM     29  N   UNL A   1      41.451  28.231  28.546  1.00  0.00    -0.248 NA
ATOM     30  C   UNL A   1      39.469  27.956  29.749  1.00  0.00     0.031 C 
ATOM     31  C   UNL A   1      41.928  32.299  30.302  1.00  0.00     0.029 A 
ATOM     32  N   UNL A   1      42.892  30.721  29.039  1.00  0.00    -0.354 N 
ATOM     33  C   UNL A   1      40.926  26.975  28.275  1.00  0.00     0.074 A 
ATOM     34  C   UNL A   1      39.716  26.847  29.061  1.00  0.00     0.031 C 
ATOM     35  C   UNL A   1      43.103  32.785  29.878  1.00  0.00     0.029 A 
ATOM     36  C   UNL A   1      43.769  31.777  29.058  1.00  0.00     0.049 A 
ATOM     37  H   UNL A   1      43.068  29.883  28.556  1.00  0.00     0.167 HD
ATOM     38  C   UNL A   1      41.407  26.026  27.438  1.00  0.00     0.031 A 
ATOM     39  C   UNL A   1      44.976  31.925  28.480  1.00  0.00     0.031 A 
ATOM     40  C   UNL A   1      42.637  26.140  26.696  1.00  0.00     0.049 A 
ATOM     41  C   UNL A   1      45.524  30.823  27.622  1.00  0.00     0.074 A 
ATOM     42  C   UNL A   1      43.180  25.243  25.791  1.00  0.00     0.029 A 
ATOM     43  N   UNL A   1      43.530  27.196  26.792  1.00  0.00    -0.354 N 
ATOM     44  N   UNL A   1      44.971  29.680  27.300  1.00  0.00    -0.248 NA
ATOM     45  C   UNL A   1      46.854  31.037  27.037  1.00  0.00     0.031 C 
ATOM     46  C   UNL A   1      44.431  25.721  25.394  1.00  0.00     0.029 A 
ATOM     47  C   UNL A   1      44.638  26.951  25.997  1.00  0.00     0.049 A 
ATOM     48  H   UNL A   1      43.395  28.002  27.343  1.00  0.00     0.167 HD
ATOM     49  C   UNL A   1      45.876  29.045  26.460  1.00  0.00     0.074 A 
ATOM     50  C   UNL A   1      47.007  29.937  26.310  1.00  0.00     0.031 C 
ATOM     51  C   UNL A   1      45.771  27.832  25.866  1.00  0.00     0.031 A 
BRANCH  38  52
ATOM     52  C   UNL A   1      40.608  24.766  27.262  1.00  0.00    -0.014 A 
ATOM     53  C   UNL A   1      41.133  23.535  27.688  1.00  0.00     0.009 A 
ATOM     54  C   UNL A   1      39.392  24.781  26.562  1.00  0.00     0.009 A 
ATOM     55  C   UNL A   1      40.465  22.343  27.402  1.00  0.00     0.001 A 
ATOM     56  C   UNL A   1      38.714  23.588  26.297  1.00  0.00     0.001 A 
ATOM     57  C   UNL A   1      39.256  22.370  26.708  1.00  0.00     0.000 A 
ENDBRANCH  38  52
BRANCH  39  58
ATOM     58  C   UNL A   1      45.721  33.192  28.681  1.00  0.00    -0.014 A 
ATOM     59  C   UNL A   1      45.616  34.236  27.747  1.00  0.00     0.009 A 
ATOM     60  C   UNL A   1      46.592  33.339  29.771  1.00  0.00     0.009 A 
ATOM     61  C   UNL A   1      46.384  35.393  27.889  1.00  0.00     0.001 A 
ATOM     62  C   UNL A   1      47.338  34.508  29.924  1.00  0.00     0.001 A 
ATOM     63  C   UNL A   1      47.242  35.529  28.979  1.00  0.00     0.000 A 
ENDBRANCH  39  58
BRANCH  51  64
ATOM     64  C   UNL A   1      46.908  27.380  24.992  1.00  0.00    -0.014 A 
ATOM     65  C   UNL A   1      47.895  26.529  25.514  1.00  0.00     0.009 A 
ATOM     66  C   UNL A   1      47.050  27.862  23.682  1.00  0.00     0.009 A 
ATOM     67  C   UNL A   1      49.009  26.179  24.747  1.00  0.00     0.001 A 
ATOM     68  C   UNL A   1      48.150  27.488  22.907  1.00  0.00     0.001 A 
ATOM     69  C   UNL A   1      49.132  26.655  23.443  1.00  0.00     0.000 A 
ENDBRANCH  51  64
ENDBRANCH  25  26
ENDBRANCH  18  20
ENDBRANCH  17  18
ENDBRANCH  16  17
ENDBRANCH   1  16
TORSDOF 13
ENDMDL
MODEL 2
REMARK VINA RESULT:     -10.0      5.734     11.527
REMARK SMILES O=C(Cc1cccn(C(F)F)c1=O)OCCOC(=O)c1ccc(-c2c3nc(c(-c4ccccc4)c4ccc([nH]4)c(-c4ccccc4)c4nc(c(-c5ccccc5)c5ccc2[nH]5)C=C4)C=C3)cc1
REMARK SMILES IDX 15 1 14 2 2 3 1 4 3 5 4 6 5 7 12 8 6 9 8 10 13 11 7 12 9 13
REMARK SMILES IDX 10 14 11 15 16 16 17 17 18 18 19 19 20 20 21 21 67 22 22 23
REMARK SMILES IDX 66 24 23 25 24 26 25 27 60 28 26 29 65 30 59 31 61 32 27 33
REMARK SMILES IDX 64 34 58 35 57 36 28 38 50 39 35 40 49 41 36 42 39 43 48 44
REMARK SMILES IDX 62 45 37 46 38 47 47 49 63 50 40 51 29 52 30 53 34 54 31 55
REMARK SMILES IDX 33 56 32 57 51 58 52 59 56 60 53 61 55 62 54 63 41 64 42 65
REMARK SMILES IDX 46 66 43 67 45 68 44 69
REMARK H PARENT 61 37 39 48
REMARK Flexibility Score: inf
ROOT
ATOM      1  C   UNL A   1      44.009  21.414  25.504  1.00  0.00     0.274 C 
ENDROOT
BRANCH   1   2
ATOM      2  O   UNL A   1      42.592  21.136  25.428  1.00  0.00    -0.462 OA
BRANCH   2   3
ATOM      3  C   UNL A   1      41.996  19.981  25.803  1.00  0.00     0.310 C 
ATOM      4  O   UNL A   1      42.511  18.900  25.522  1.00  0.00    -0.252 OA
BRANCH   3   5
ATOM      5  C   UNL A   1      40.695  20.046  26.572  1.00  0.00     0.164 C 
BRANCH   5   6
ATOM      6  C   UNL A   1      40.019  21.381  26.644  1.00  0.00     0.029 A 
ATOM      7  C   UNL A   1      40.420  22.456  27.342  1.00  0.00     0.011 A 
ATOM      8  C   UNL A   1      38.778  21.488  25.797  1.00  0.00     0.258 A 
ATOM      9  C   UNL A   1      39.701  23.702  27.268  1.00  0.00     0.019 A 
ATOM     10  N   UNL A   1      38.137  22.711  25.798  1.00  0.00    -0.258 N 
ATOM     11  O   UNL A   1      38.399  20.518  25.144  1.00  0.00    -0.269 OA
ATOM     12  C   UNL A   1      38.598  23.796  26.517  1.00  0.00     0.095 A 
BRANCH  10  13
ATOM     13  C   UNL A   1      36.916  22.826  25.040  1.00  0.00     0.451 C 
ATOM     14  F   UNL A   1      35.896  22.267  25.744  1.00  0.00    -0.185 F 
ATOM     15  F   UNL A   1      36.594  24.138  24.885  1.00  0.00    -0.185 F 
ENDBRANCH  10  13
ENDBRANCH   5   6
ENDBRANCH   3   5
ENDBRANCH   2   3
ENDBRANCH   1   2
BRANCH   1  16
ATOM     16  C   UNL A   1      44.457  22.336  24.370  1.00  0.00     0.275 C 
BRANCH  16  17
ATOM     17  O   UNL A   1      43.915  23.653  24.575  1.00  0.00    -0.458 OA
BRANCH  17  18
ATOM     18  C   UNL A   1      44.769  24.584  25.068  1.00  0.00     0.338 C 
ATOM     19  O   UNL A   1      45.835  24.920  24.585  1.00  0.00    -0.246 OA
BRANCH  18  20
ATOM     20  C   UNL A   1      44.102  25.297  26.184  1.00  0.00     0.060 A 
ATOM     21  C   UNL A   1      43.288  24.632  27.108  1.00  0.00     0.016 A 
ATOM     22  C   UNL A   1      44.248  26.690  26.253  1.00  0.00     0.016 A 
ATOM     23  C   UNL A   1      42.625  25.359  28.098  1.00  0.00     0.010 A 
ATOM     24  C   UNL A   1      43.588  27.414  27.248  1.00  0.00     0.010 A 
ATOM     25  C   UNL A   1      42.778  26.752  28.182  1.00  0.00    -0.014 A 
BRANCH  25  26
ATOM     26  C   UNL A   1      42.212  27.490  29.335  1.00  0.00     0.031 A 
ATOM     27  C   UNL A   1      42.886  27.519  30.672  1.00  0.00     0.074 A 
ATOM     28  C   UNL A   1      41.049  28.143  29.154  1.00  0.00     0.049 A 
ATOM     29  N   UNL A   1      42.559  28.208  31.737  1.00  0.00    -0.248 NA
ATOM     30  C   UNL A   1      44.077  26.677  30.841  1.00  0.00     0.031 C 
ATOM     31  C   UNL A   1      40.291  28.173  27.902  1.00  0.00     0.029 A 
ATOM     32  N   UNL A   1      40.308  28.910  30.016  1.00  0.00    -0.354 N 
ATOM     33  C   UNL A   1      43.519  27.908  32.693  1.00  0.00     0.074 A 
ATOM     34  C   UNL A   1      44.418  26.941  32.097  1.00  0.00     0.031 C 
ATOM     35  C   UNL A   1      39.201  28.935  28.072  1.00  0.00     0.029 A 
ATOM     36  C   UNL A   1      39.170  29.425  29.447  1.00  0.00     0.049 A 
ATOM     37  H   UNL A   1      40.565  29.073  30.951  1.00  0.00     0.167 HD
ATOM     38  C   UNL A   1      43.642  28.406  33.946  1.00  0.00     0.031 A 
ATOM     39  C   UNL A   1      38.207  30.208  29.967  1.00  0.00     0.031 A 
ATOM     40  C   UNL A   1      42.717  29.330  34.551  1.00  0.00     0.049 A 
ATOM     41  C   UNL A   1      38.326  30.681  31.386  1.00  0.00     0.074 A 
ATOM     42  C   UNL A   1      42.787  29.920  35.803  1.00  0.00     0.029 A 
ATOM     43  N   UNL A   1      41.542  29.779  33.966  1.00  0.00    -0.354 N 
ATOM     44  N   UNL A   1      39.289  30.464  32.247  1.00  0.00    -0.248 NA
ATOM     45  C   UNL A   1      37.231  31.515  31.902  1.00  0.00     0.031 C 
ATOM     46  C   UNL A   1      41.623  30.666  36.003  1.00  0.00     0.029 A 
ATOM     47  C   UNL A   1      40.859  30.600  34.850  1.00  0.00     0.049 A 
ATOM     48  H   UNL A   1      41.239  29.548  33.058  1.00  0.00     0.167 HD
ATOM     49  C   UNL A   1      38.928  31.150  33.399  1.00  0.00     0.074 A 
ATOM     50  C   UNL A   1      37.665  31.802  33.122  1.00  0.00     0.031 C 
ATOM     51  C   UNL A   1      39.592  31.231  34.577  1.00  0.00     0.031 A 
BRANCH  38  52
ATOM     52  C   UNL A   1      44.822  27.971  34.769  1.00  0.00    -0.014 A 
ATOM     53  C   UNL A   1      44.705  26.880  35.645  1.00  0.00     0.009 A 
ATOM     54  C   UNL A   1      46.009  28.720  34.769  1.00  0.00     0.009 A 
ATOM     55  C   UNL A   1      45.747  26.558  36.517  1.00  0.00     0.001 A 
ATOM     56  C   UNL A   1      47.059  28.380  35.626  1.00  0.00     0.001 A 
ATOM     57  C   UNL A   1      46.923  27.306  36.506  1.00  0.00     0.000 A 
ENDBRANCH  38  52
BRANCH  39  58
ATOM     58  C   UNL A   1      37.065  30.614  29.110  1.00  0.00    -0.014 A 
ATOM     59  C   UNL A   1      36.939  31.943  28.675  1.00  0.00     0.009 A 
ATOM     60  C   UNL A   1      36.064  29.690  28.778  1.00  0.00     0.009 A 
ATOM     61  C   UNL A   1      35.820  32.344  27.943  1.00  0.00     0.001 A 
ATOM     62  C   UNL A   1      34.960  30.088  28.023  1.00  0.00     0.001 A 
ATOM     63  C   UNL A   1      34.834  31.416  27.615  1.00  0.00     0.000 A 
ENDBRANCH  39  58
BRANCH  51  64
ATOM     64  C   UNL A   1      38.974  32.053  35.674  1.00  0.00    -0.014 A 
ATOM     65  C   UNL A   1      39.290  33.416  35.789  1.00  0.00     0.009 A 
ATOM     66  C   UNL A   1      38.148  31.464  36.642  1.00  0.00     0.009 A 
ATOM     67  C   UNL A   1      38.803  34.171  36.858  1.00  0.00     0.001 A 
ATOM     68  C   UNL A   1      37.638  32.227  37.696  1.00  0.00     0.001 A 
ATOM     69  C   UNL A   1      37.974  33.576  37.807  1.00  0.00     0.000 A 
ENDBRANCH  51  64
ENDBRANCH  25  26
ENDBRANCH  18  20
ENDBRANCH  17  18
ENDBRANCH  16  17
ENDBRANCH   1  16
TORSDOF 13
ENDMDL
MODEL 3
REMARK VINA RESULT:      -9.9      4.269      7.933
REMARK SMILES O=C(Cc1cccn(C(F)F)c1=O)OCCOC(=O)c1ccc(-c2c3nc(c(-c4ccccc4)c4ccc([nH]4)c(-c4ccccc4)c4nc(c(-c5ccccc5)c5ccc2[nH]5)C=C4)C=C3)cc1
REMARK SMILES IDX 15 1 14 2 2 3 1 4 3 5 4 6 5 7 12 8 6 9 8 10 13 11 7 12 9 13
REMARK SMILES IDX 10 14 11 15 16 16 17 17 18 18 19 19 20 20 21 21 67 22 22 23
REMARK SMILES IDX 66 24 23 25 24 26 25 27 60 28 26 29 65 30 59 31 61 32 27 33
REMARK SMILES IDX 64 34 58 35 57 36 28 38 50 39 35 40 49 41 36 42 39 43 48 44
REMARK SMILES IDX 62 45 37 46 38 47 47 49 63 50 40 51 29 52 30 53 34 54 31 55
REMARK SMILES IDX 33 56 32 57 51 58 52 59 56 60 53 61 55 62 54 63 41 64 42 65
REMARK SMILES IDX 46 66 43 67 45 68 44 69
REMARK H PARENT 61 37 39 48
REMARK Flexibility Score: inf
ROOT
ATOM      1  C   UNL A   1      33.399  34.971  28.665  1.00  0.00     0.274 C 
ENDROOT
BRANCH   1   2
ATOM      2  O   UNL A   1      32.527  35.124  29.809  1.00  0.00    -0.462 OA
BRANCH   2   3
ATOM      3  C   UNL A   1      32.931  35.328  31.084  1.00  0.00     0.310 C 
ATOM      4  O   UNL A   1      32.101  35.505  31.975  1.00  0.00    -0.252 OA
BRANCH   3   5
ATOM      5  C   UNL A   1      34.412  35.328  31.390  1.00  0.00     0.164 C 
BRANCH   5   6
ATOM      6  C   UNL A   1      34.995  34.047  31.903  1.00  0.00     0.029 A 
ATOM      7  C   UNL A   1      34.850  32.821  31.374  1.00  0.00     0.011 A 
ATOM      8  C   UNL A   1      35.857  34.209  33.127  1.00  0.00     0.258 A 
ATOM      9  C   UNL A   1      35.523  31.681  31.940  1.00  0.00     0.019 A 
ATOM     10  N   UNL A   1      36.450  33.064  33.619  1.00  0.00    -0.258 N 
ATOM     11  O   UNL A   1      36.009  35.324  33.622  1.00  0.00    -0.269 OA
ATOM     12  C   UNL A   1      36.288  31.826  33.028  1.00  0.00     0.095 A 
BRANCH  10  13
ATOM     13  C   UNL A   1      37.235  33.181  34.822  1.00  0.00     0.451 C 
ATOM     14  F   UNL A   1      36.417  33.483  35.865  1.00  0.00    -0.185 F 
ATOM     15  F   UNL A   1      37.801  31.980  35.119  1.00  0.00    -0.185 F 
ENDBRANCH  10  13
ENDBRANCH   5   6
ENDBRANCH   3   5
ENDBRANCH   2   3
ENDBRANCH   1   2
BRANCH   1  16
ATOM     16  C   UNL A   1      33.166  33.635  27.961  1.00  0.00     0.275 C 
BRANCH  16  17
ATOM     17  O   UNL A   1      34.427  32.985  27.726  1.00  0.00    -0.458 OA
BRANCH  17  18
ATOM     18  C   UNL A   1      34.408  31.630  27.693  1.00  0.00     0.338 C 
ATOM     19  O   UNL A   1      33.568  30.928  27.160  1.00  0.00    -0.246 OA
BRANCH  18  20
ATOM     20  C   UNL A   1      35.695  31.122  28.225  1.00  0.00     0.060 A 
ATOM     21  C   UNL A   1      36.829  31.938  28.326  1.00  0.00     0.016 A 
ATOM     22  C   UNL A   1      35.776  29.764  28.563  1.00  0.00     0.016 A 
ATOM     23  C   UNL A   1      38.037  31.394  28.767  1.00  0.00     0.010 A 
ATOM     24  C   UNL A   1      36.985  29.224  29.009  1.00  0.00     0.010 A 
ATOM     25  C   UNL A   1      38.121  30.038  29.121  1.00  0.00    -0.014 A 
BRANCH  25  26
ATOM     26  C   UNL A   1      39.357  29.514  29.748  1.00  0.00     0.031 A 
ATOM     27  C   UNL A   1      39.944  30.123  30.983  1.00  0.00     0.074 A 
ATOM     28  C   UNL A   1      39.957  28.458  29.168  1.00  0.00     0.049 A 
ATOM     29  N   UNL A   1      40.959  29.703  31.698  1.00  0.00    -0.248 NA
ATOM     30  C   UNL A   1      39.319  31.352  31.487  1.00  0.00     0.031 C 
ATOM     31  C   UNL A   1      39.487  27.790  27.952  1.00  0.00     0.029 A 
ATOM     32  N   UNL A   1      41.082  27.759  29.524  1.00  0.00    -0.354 N 
ATOM     33  C   UNL A   1      41.076  30.598  32.752  1.00  0.00     0.074 A 
ATOM     34  C   UNL A   1      40.056  31.609  32.562  1.00  0.00     0.031 C 
ATOM     35  C   UNL A   1      40.308  26.767  27.674  1.00  0.00     0.029 A 
ATOM     36  C   UNL A   1      41.372  26.722  28.673  1.00  0.00     0.049 A 
ATOM     37  H   UNL A   1      41.629  27.981  30.311  1.00  0.00     0.167 HD
ATOM     38  C   UNL A   1      41.948  30.567  33.788  1.00  0.00     0.031 A 
ATOM     39  C   UNL A   1      42.377  25.828  28.691  1.00  0.00     0.031 A 
ATOM     40  C   UNL A   1      42.992  29.586  33.946  1.00  0.00     0.049 A 
ATOM     41  C   UNL A   1      43.379  25.866  29.808  1.00  0.00     0.074 A 
ATOM     42  C   UNL A   1      43.895  29.455  34.988  1.00  0.00     0.029 A 
ATOM     43  N   UNL A   1      43.295  28.591  33.031  1.00  0.00    -0.354 N 
ATOM     44  N   UNL A   1      43.421  26.660  30.848  1.00  0.00    -0.248 NA
ATOM     45  C   UNL A   1      44.465  24.877  29.759  1.00  0.00     0.031 C 
ATOM     46  C   UNL A   1      44.787  28.427  34.670  1.00  0.00     0.029 A 
ATOM     47  C   UNL A   1      44.398  27.871  33.463  1.00  0.00     0.049 A 
ATOM     48  H   UNL A   1      42.798  28.420  32.197  1.00  0.00     0.167 HD
ATOM     49  C   UNL A   1      44.524  26.257  31.589  1.00  0.00     0.074 A 
ATOM     50  C   UNL A   1      45.115  25.137  30.886  1.00  0.00     0.031 C 
ATOM     51  C   UNL A   1      44.996  26.770  32.750  1.00  0.00     0.031 A 
BRANCH  38  52
ATOM     52  C   UNL A   1      41.823  31.622  34.851  1.00  0.00    -0.014 A 
ATOM     53  C   UNL A   1      42.621  32.776  34.793  1.00  0.00     0.009 A 
ATOM     54  C   UNL A   1      41.008  31.414  35.974  1.00  0.00     0.009 A 
ATOM     55  C   UNL A   1      42.619  33.692  35.846  1.00  0.00     0.001 A 
ATOM     56  C   UNL A   1      40.991  32.345  37.016  1.00  0.00     0.001 A 
ATOM     57  C   UNL A   1      41.803  33.477  36.955  1.00  0.00     0.000 A 
ENDBRANCH  38  52
BRANCH  39  58
ATOM     58  C   UNL A   1      42.451  24.803  27.621  1.00  0.00    -0.014 A 
ATOM     59  C   UNL A   1      43.123  25.077  26.418  1.00  0.00     0.009 A 
ATOM     60  C   UNL A   1      41.796  23.572  27.770  1.00  0.00     0.009 A 
ATOM     61  C   UNL A   1      43.118  24.147  25.377  1.00  0.00     0.001 A 
ATOM     62  C   UNL A   1      41.816  22.633  26.737  1.00  0.00     0.001 A 
ATOM     63  C   UNL A   1      42.468  22.925  25.539  1.00  0.00     0.000 A 
ENDBRANCH  39  58
BRANCH  51  64
ATOM     64  C   UNL A   1      46.220  26.136  33.349  1.00  0.00    -0.014 A 
ATOM     65  C   UNL A   1      47.495  26.591  32.980  1.00  0.00     0.009 A 
ATOM     66  C   UNL A   1      46.116  25.034  34.212  1.00  0.00     0.009 A 
ATOM     67  C   UNL A   1      48.643  25.949  33.451  1.00  0.00     0.001 A 
ATOM     68  C   UNL A   1      47.264  24.410  34.704  1.00  0.00     0.001 A 
ATOM     69  C   UNL A   1      48.525  24.862  34.316  1.00  0.00     0.000 A 
ENDBRANCH  51  64
ENDBRANCH  25  26
ENDBRANCH  18  20
ENDBRANCH  17  18
ENDBRANCH  16  17
ENDBRANCH   1  16
TORSDOF 13
ENDMDL
