MODEL 1
REMARK VINA RESULT:     -11.4      0.000      0.000
REMARK SMILES O=C(OCCOC(=O)c1cccc(NC(=S)N/N=C\c2c[nH]c3ccccc23)c1)c1ccc(-c2c3nc(c(-c4ccccc4)c4ccc([nH]4)c(-c4ccccc4)c4nc(c(-c5ccccc5)c5ccc2[nH]5)C=C4)C=C3)cc1
REMARK SMILES IDX 6 1 5 2 4 3 3 4 2 5 1 6 30 7 31 8 77 9 32 10 76 11 33 12
REMARK SMILES IDX 34 13 35 14 70 15 36 16 75 17 69 18 71 19 37 20 74 21 68 22
REMARK SMILES IDX 67 23 38 25 60 26 45 27 59 28 46 29 49 30 58 31 72 32 47 33
REMARK SMILES IDX 48 34 57 36 73 37 50 38 39 39 40 40 44 41 41 42 43 43 42 44
REMARK SMILES IDX 61 45 62 46 66 47 63 48 65 49 64 50 51 51 52 52 56 53 53 54
REMARK SMILES IDX 55 55 54 56 7 57 8 58 9 59 10 60 29 61 11 62 13 63 12 64
REMARK SMILES IDX 14 65 15 67 16 68 17 69 18 71 19 72 20 73 21 74 28 75 22 76
REMARK SMILES IDX 23 77 27 78 24 80 26 81 25 82
REMARK H PARENT 71 24 49 35 14 66 17 70 22 79
REMARK Flexibility Score: inf
ROOT
ATOM      1  O   UNL A   1      41.668  21.182  25.596  1.00  0.00    -0.458 OA
ENDROOT
BRANCH   1   2
ATOM      2  C   UNL A   1      42.929  20.594  25.949  1.00  0.00     0.275 C 
BRANCH   2   3
ATOM      3  C   UNL A   1      44.094  21.210  25.168  1.00  0.00     0.275 C 
BRANCH   3   4
ATOM      4  O   UNL A   1      43.787  22.453  24.508  1.00  0.00    -0.458 OA
BRANCH   4   5
ATOM      5  C   UNL A   1      44.239  23.688  24.840  1.00  0.00     0.338 C 
ATOM      6  O   UNL A   1      45.277  24.117  24.339  1.00  0.00    -0.246 OA
BRANCH   5   7
ATOM      7  C   UNL A   1      43.638  24.456  25.969  1.00  0.00     0.060 A 
ATOM      8  C   UNL A   1      42.874  23.906  27.001  1.00  0.00     0.016 A 
ATOM      9  C   UNL A   1      43.839  25.845  25.954  1.00  0.00     0.016 A 
ATOM     10  C   UNL A   1      42.412  24.705  28.053  1.00  0.00     0.010 A 
ATOM     11  C   UNL A   1      43.369  26.648  26.998  1.00  0.00     0.010 A 
ATOM     12  C   UNL A   1      42.667  26.079  28.069  1.00  0.00    -0.014 A 
BRANCH  12  13
ATOM     13  C   UNL A   1      42.040  26.948  29.095  1.00  0.00     0.031 A 
ATOM     14  C   UNL A   1      42.762  27.096  30.408  1.00  0.00     0.074 A 
ATOM     15  C   UNL A   1      40.921  27.658  28.833  1.00  0.00     0.049 A 
ATOM     16  N   UNL A   1      42.452  27.828  31.444  1.00  0.00    -0.248 NA
ATOM     17  C   UNL A   1      44.033  26.360  30.550  1.00  0.00     0.031 C 
ATOM     18  C   UNL A   1      40.248  27.743  27.534  1.00  0.00     0.029 A 
ATOM     19  N   UNL A   1      40.166  28.475  29.639  1.00  0.00    -0.354 N 
ATOM     20  C   UNL A   1      43.517  27.688  32.328  1.00  0.00     0.074 A 
ATOM     21  C   UNL A   1      44.436  26.736  31.753  1.00  0.00     0.031 C 
ATOM     22  C   UNL A   1      39.212  28.600  27.625  1.00  0.00     0.029 A 
ATOM     23  C   UNL A   1      39.092  29.066  29.003  1.00  0.00     0.049 A 
ATOM     24  H   UNL A   1      40.373  28.628  30.589  1.00  0.00     0.167 HD
ATOM     25  C   UNL A   1      43.739  28.343  33.491  1.00  0.00     0.031 A 
ATOM     26  C   UNL A   1      38.119  29.859  29.503  1.00  0.00     0.031 A 
ATOM     27  C   UNL A   1      42.805  29.261  34.073  1.00  0.00     0.049 A 
ATOM     28  C   UNL A   1      38.190  30.160  30.988  1.00  0.00     0.074 A 
ATOM     29  C   UNL A   1      42.917  29.999  35.236  1.00  0.00     0.029 A 
ATOM     30  N   UNL A   1      41.561  29.540  33.532  1.00  0.00    -0.354 N 
ATOM     31  N   UNL A   1      39.211  30.047  31.805  1.00  0.00    -0.248 NA
ATOM     32  C   UNL A   1      36.970  30.676  31.625  1.00  0.00     0.031 C 
ATOM     33  C   UNL A   1      41.713  30.689  35.423  1.00  0.00     0.029 A 
ATOM     34  C   UNL A   1      40.873  30.410  34.354  1.00  0.00     0.049 A 
ATOM     35  H   UNL A   1      41.217  29.172  32.685  1.00  0.00     0.167 HD
ATOM     36  C   UNL A   1      38.800  30.616  33.005  1.00  0.00     0.074 A 
ATOM     37  C   UNL A   1      37.413  30.996  32.833  1.00  0.00     0.031 C 
ATOM     38  C   UNL A   1      39.525  30.855  34.126  1.00  0.00     0.031 A 
BRANCH  25  39
ATOM     39  C   UNL A   1      45.049  28.087  34.178  1.00  0.00    -0.014 A 
ATOM     40  C   UNL A   1      46.178  28.865  33.871  1.00  0.00     0.009 A 
ATOM     41  C   UNL A   1      45.167  27.060  35.124  1.00  0.00     0.009 A 
ATOM     42  C   UNL A   1      47.409  28.596  34.473  1.00  0.00     0.001 A 
ATOM     43  C   UNL A   1      46.395  26.806  35.740  1.00  0.00     0.001 A 
ATOM     44  C   UNL A   1      47.517  27.567  35.407  1.00  0.00     0.000 A 
ENDBRANCH  25  39
BRANCH  26  45
ATOM     45  C   UNL A   1      36.959  30.389  28.702  1.00  0.00    -0.014 A 
ATOM     46  C   UNL A   1      36.755  31.768  28.538  1.00  0.00     0.009 A 
ATOM     47  C   UNL A   1      35.946  29.548  28.226  1.00  0.00     0.009 A 
ATOM     48  C   UNL A   1      35.549  32.264  28.016  1.00  0.00     0.001 A 
ATOM     49  C   UNL A   1      34.739  30.030  27.713  1.00  0.00     0.001 A 
ATOM     50  C   UNL A   1      34.533  31.396  27.625  1.00  0.00     0.000 A 
ENDBRANCH  26  45
BRANCH  38  51
ATOM     51  C   UNL A   1      38.910  31.753  35.158  1.00  0.00    -0.014 A 
ATOM     52  C   UNL A   1      38.244  31.260  36.285  1.00  0.00     0.009 A 
ATOM     53  C   UNL A   1      39.049  33.143  34.996  1.00  0.00     0.009 A 
ATOM     54  C   UNL A   1      37.705  32.146  37.221  1.00  0.00     0.001 A 
ATOM     55  C   UNL A   1      38.536  34.023  35.945  1.00  0.00     0.001 A 
ATOM     56  C   UNL A   1      37.856  33.524  37.054  1.00  0.00     0.000 A 
ENDBRANCH  38  51
ENDBRANCH  12  13
ENDBRANCH   5   7
ENDBRANCH   4   5
ENDBRANCH   3   4
ENDBRANCH   2   3
ENDBRANCH   1   2
BRANCH   1  57
ATOM     57  C   UNL A   1      40.690  20.984  26.515  1.00  0.00     0.338 C 
ATOM     58  O   UNL A   1      40.780  20.332  27.543  1.00  0.00    -0.246 OA
BRANCH  57  59
ATOM     59  C   UNL A   1      39.522  21.828  26.206  1.00  0.00     0.062 A 
ATOM     60  C   UNL A   1      39.515  23.119  26.747  1.00  0.00     0.016 A 
ATOM     61  C   UNL A   1      38.468  21.397  25.394  1.00  0.00     0.041 A 
ATOM     62  C   UNL A   1      38.443  23.973  26.507  1.00  0.00     0.003 A 
ATOM     63  C   UNL A   1      37.378  22.250  25.189  1.00  0.00     0.041 A 
ATOM     64  C   UNL A   1      37.365  23.528  25.751  1.00  0.00     0.026 A 
BRANCH  63  65
ATOM     65  N   UNL A   1      36.361  21.878  24.297  1.00  0.00    -0.331 N 
ATOM     66  H   UNL A   1      36.624  21.284  23.556  1.00  0.00     0.169 HD
BRANCH  65  67
ATOM     67  C   UNL A   1      35.051  22.249  24.343  1.00  0.00     0.191 C 
ATOM     68  S   UNL A   1      34.018  21.476  25.411  1.00  0.00    -0.039 S 
BRANCH  67  69
ATOM     69  N   UNL A   1      34.604  23.325  23.616  1.00  0.00    -0.254 N 
ATOM     70  H   UNL A   1      34.588  24.192  24.083  1.00  0.00     0.193 HD
BRANCH  69  71
ATOM     71  N   UNL A   1      34.172  23.329  22.298  1.00  0.00    -0.181 NA
ATOM     72  C   UNL A   1      32.973  23.777  22.028  1.00  0.00     0.143 C 
BRANCH  72  73
ATOM     73  C   UNL A   1      32.117  24.348  23.038  1.00  0.00     0.020 A 
ATOM     74  C   UNL A   1      31.003  23.696  23.531  1.00  0.00     0.093 A 
ATOM     75  C   UNL A   1      32.088  25.656  23.598  1.00  0.00     0.008 A 
ATOM     76  N   UNL A   1      30.091  24.694  23.734  1.00  0.00    -0.361 N 
ATOM     77  C   UNL A   1      30.749  25.886  23.912  1.00  0.00     0.046 A 
ATOM     78  C   UNL A   1      33.003  26.710  23.775  1.00  0.00     0.011 A 
ATOM     79  H   UNL A   1      29.115  24.576  23.750  1.00  0.00     0.166 HD
ATOM     80  C   UNL A   1      30.248  27.131  24.297  1.00  0.00     0.027 A 
ATOM     81  C   UNL A   1      32.536  27.934  24.277  1.00  0.00     0.001 A 
ATOM     82  C   UNL A   1      31.177  28.148  24.501  1.00  0.00     0.002 A 
ENDBRANCH  72  73
ENDBRANCH  69  71
ENDBRANCH  67  69
ENDBRANCH  65  67
ENDBRANCH  63  65
ENDBRANCH  57  59
ENDBRANCH   1  57
TORSDOF 16
ENDMDL
MODEL 2
REMARK VINA RESULT:     -11.4      4.743      9.469
REMARK SMILES O=C(OCCOC(=O)c1cccc(NC(=S)N/N=C\c2c[nH]c3ccccc23)c1)c1ccc(-c2c3nc(c(-c4ccccc4)c4ccc([nH]4)c(-c4ccccc4)c4nc(c(-c5ccccc5)c5ccc2[nH]5)C=C4)C=C3)cc1
REMARK SMILES IDX 6 1 5 2 4 3 3 4 2 5 1 6 30 7 31 8 77 9 32 10 76 11 33 12
REMARK SMILES IDX 34 13 35 14 70 15 36 16 75 17 69 18 71 19 37 20 74 21 68 22
REMARK SMILES IDX 67 23 38 25 60 26 45 27 59 28 46 29 49 30 58 31 72 32 47 33
REMARK SMILES IDX 48 34 57 36 73 37 50 38 39 39 40 40 44 41 41 42 43 43 42 44
REMARK SMILES IDX 61 45 62 46 66 47 63 48 65 49 64 50 51 51 52 52 56 53 53 54
REMARK SMILES IDX 55 55 54 56 7 57 8 58 9 59 10 60 29 61 11 62 13 63 12 64
REMARK SMILES IDX 14 65 15 67 16 68 17 69 18 71 19 72 20 73 21 74 28 75 22 76
REMARK SMILES IDX 23 77 27 78 24 80 26 81 25 82
REMARK H PARENT 71 24 49 35 14 66 17 70 22 79
REMARK Flexibility Score: inf
ROOT
ATOM      1  O   UNL A   1      33.798  33.091  29.565  1.00  0.00    -0.458 OA
ENDROOT
BRANCH   1   2
ATOM      2  C   UNL A   1      34.136  34.356  30.153  1.00  0.00     0.275 C 
BRANCH   2   3
ATOM      3  C   UNL A   1      34.377  34.248  31.662  1.00  0.00     0.275 C 
BRANCH   3   4
ATOM      4  O   UNL A   1      34.565  32.904  32.147  1.00  0.00    -0.458 OA
BRANCH   4   5
ATOM      5  C   UNL A   1      35.617  32.433  32.862  1.00  0.00     0.338 C 
ATOM      6  O   UNL A   1      35.733  32.725  34.050  1.00  0.00    -0.246 OA
BRANCH   5   7
ATOM      7  C   UNL A   1      36.766  31.754  32.194  1.00  0.00     0.060 A 
ATOM      8  C   UNL A   1      37.739  30.990  32.843  1.00  0.00     0.016 A 
ATOM      9  C   UNL A   1      36.877  31.939  30.807  1.00  0.00     0.016 A 
ATOM     10  C   UNL A   1      38.739  30.337  32.114  1.00  0.00     0.010 A 
ATOM     11  C   UNL A   1      37.882  31.297  30.076  1.00  0.00     0.010 A 
ATOM     12  C   UNL A   1      38.811  30.472  30.724  1.00  0.00    -0.014 A 
BRANCH  12  13
ATOM     13  C   UNL A   1      39.963  29.914  29.975  1.00  0.00     0.031 A 
ATOM     14  C   UNL A   1      41.170  30.798  29.807  1.00  0.00     0.074 A 
ATOM     15  C   UNL A   1      39.975  28.634  29.546  1.00  0.00     0.049 A 
ATOM     16  N   UNL A   1      42.316  30.534  29.239  1.00  0.00    -0.248 NA
ATOM     17  C   UNL A   1      41.093  32.144  30.409  1.00  0.00     0.031 C 
ATOM     18  C   UNL A   1      38.944  27.630  29.823  1.00  0.00     0.029 A 
ATOM     19  N   UNL A   1      40.906  27.940  28.810  1.00  0.00    -0.354 N 
ATOM     20  C   UNL A   1      43.111  31.653  29.470  1.00  0.00     0.074 A 
ATOM     21  C   UNL A   1      42.295  32.632  30.147  1.00  0.00     0.031 C 
ATOM     22  C   UNL A   1      39.324  26.446  29.304  1.00  0.00     0.029 A 
ATOM     23  C   UNL A   1      40.584  26.616  28.587  1.00  0.00     0.049 A 
ATOM     24  H   UNL A   1      41.733  28.352  28.471  1.00  0.00     0.167 HD
ATOM     25  C   UNL A   1      44.424  31.826  29.196  1.00  0.00     0.031 A 
ATOM     26  C   UNL A   1      41.228  25.679  27.857  1.00  0.00     0.031 A 
ATOM     27  C   UNL A   1      45.219  30.863  28.491  1.00  0.00     0.049 A 
ATOM     28  C   UNL A   1      42.501  26.123  27.163  1.00  0.00     0.074 A 
ATOM     29  C   UNL A   1      46.561  30.911  28.165  1.00  0.00     0.029 A 
ATOM     30  N   UNL A   1      44.717  29.678  27.979  1.00  0.00    -0.354 N 
ATOM     31  N   UNL A   1      43.255  27.169  27.409  1.00  0.00    -0.248 NA
ATOM     32  C   UNL A   1      43.001  25.270  26.075  1.00  0.00     0.031 C 
ATOM     33  C   UNL A   1      46.859  29.772  27.407  1.00  0.00     0.029 A 
ATOM     34  C   UNL A   1      45.711  28.999  27.302  1.00  0.00     0.049 A 
ATOM     35  H   UNL A   1      43.788  29.366  28.082  1.00  0.00     0.167 HD
ATOM     36  C   UNL A   1      44.386  27.016  26.615  1.00  0.00     0.074 A 
ATOM     37  C   UNL A   1      44.179  25.823  25.820  1.00  0.00     0.031 C 
ATOM     38  C   UNL A   1      45.516  27.764  26.592  1.00  0.00     0.031 A 
BRANCH  25  39
ATOM     39  C   UNL A   1      45.061  33.096  29.681  1.00  0.00    -0.014 A 
ATOM     40  C   UNL A   1      45.102  34.233  28.855  1.00  0.00     0.009 A 
ATOM     41  C   UNL A   1      45.636  33.161  30.957  1.00  0.00     0.009 A 
ATOM     42  C   UNL A   1      45.738  35.399  29.285  1.00  0.00     0.001 A 
ATOM     43  C   UNL A   1      46.253  34.335  31.393  1.00  0.00     0.001 A 
ATOM     44  C   UNL A   1      46.313  35.449  30.554  1.00  0.00     0.000 A 
ENDBRANCH  25  39
BRANCH  26  45
ATOM     45  C   UNL A   1      40.727  24.275  27.644  1.00  0.00    -0.014 A 
ATOM     46  C   UNL A   1      41.445  23.165  28.114  1.00  0.00     0.009 A 
ATOM     47  C   UNL A   1      39.619  24.003  26.832  1.00  0.00     0.009 A 
ATOM     48  C   UNL A   1      41.118  21.863  27.701  1.00  0.00     0.001 A 
ATOM     49  C   UNL A   1      39.290  22.714  26.407  1.00  0.00     0.001 A 
ATOM     50  C   UNL A   1      40.056  21.640  26.830  1.00  0.00     0.000 A 
ENDBRANCH  26  45
BRANCH  38  51
ATOM     51  C   UNL A   1      46.695  27.196  25.858  1.00  0.00    -0.014 A 
ATOM     52  C   UNL A   1      47.010  27.558  24.543  1.00  0.00     0.009 A 
ATOM     53  C   UNL A   1      47.533  26.298  26.542  1.00  0.00     0.009 A 
ATOM     54  C   UNL A   1      48.130  27.007  23.917  1.00  0.00     0.001 A 
ATOM     55  C   UNL A   1      48.665  25.772  25.925  1.00  0.00     0.001 A 
ATOM     56  C   UNL A   1      48.959  26.121  24.609  1.00  0.00     0.000 A 
ENDBRANCH  38  51
ENDBRANCH  12  13
ENDBRANCH   5   7
ENDBRANCH   4   5
ENDBRANCH   3   4
ENDBRANCH   2   3
ENDBRANCH   1   2
BRANCH   1  57
ATOM     57  C   UNL A   1      34.070  33.008  28.239  1.00  0.00     0.338 C 
ATOM     58  O   UNL A   1      34.436  33.919  27.513  1.00  0.00    -0.246 OA
BRANCH  57  59
ATOM     59  C   UNL A   1      34.049  31.600  27.802  1.00  0.00     0.062 A 
ATOM     60  C   UNL A   1      35.251  30.889  27.904  1.00  0.00     0.016 A 
ATOM     61  C   UNL A   1      32.895  30.971  27.326  1.00  0.00     0.041 A 
ATOM     62  C   UNL A   1      35.314  29.559  27.504  1.00  0.00     0.003 A 
ATOM     63  C   UNL A   1      32.976  29.644  26.892  1.00  0.00     0.041 A 
ATOM     64  C   UNL A   1      34.184  28.946  26.975  1.00  0.00     0.026 A 
BRANCH  63  65
ATOM     65  N   UNL A   1      31.811  28.964  26.509  1.00  0.00    -0.331 N 
ATOM     66  H   UNL A   1      31.034  29.055  27.108  1.00  0.00     0.169 HD
BRANCH  65  67
ATOM     67  C   UNL A   1      31.637  28.189  25.402  1.00  0.00     0.191 C 
ATOM     68  S   UNL A   1      31.557  28.920  23.897  1.00  0.00    -0.039 S 
BRANCH  67  69
ATOM     69  N   UNL A   1      31.652  26.819  25.498  1.00  0.00    -0.254 N 
ATOM     70  H   UNL A   1      32.012  26.330  24.722  1.00  0.00     0.193 HD
BRANCH  69  71
ATOM     71  N   UNL A   1      31.215  26.046  26.563  1.00  0.00    -0.181 NA
ATOM     72  C   UNL A   1      31.392  24.751  26.518  1.00  0.00     0.143 C 
BRANCH  72  73
ATOM     73  C   UNL A   1      32.102  24.106  25.442  1.00  0.00     0.020 A 
ATOM     74  C   UNL A   1      31.469  23.345  24.478  1.00  0.00     0.093 A 
ATOM     75  C   UNL A   1      33.498  23.946  25.217  1.00  0.00     0.008 A 
ATOM     76  N   UNL A   1      32.347  22.330  24.221  1.00  0.00    -0.361 N 
ATOM     77  C   UNL A   1      33.619  22.731  24.543  1.00  0.00     0.046 A 
ATOM     78  C   UNL A   1      34.675  24.619  25.593  1.00  0.00     0.011 A 
ATOM     79  H   UNL A   1      32.104  21.447  23.860  1.00  0.00     0.166 HD
ATOM     80  C   UNL A   1      34.840  22.096  24.309  1.00  0.00     0.027 A 
ATOM     81  C   UNL A   1      35.914  24.052  25.258  1.00  0.00     0.001 A 
ATOM     82  C   UNL A   1      35.992  22.796  24.657  1.00  0.00     0.002 A 
ENDBRANCH  72  73
ENDBRANCH  69  71
ENDBRANCH  67  69
ENDBRANCH  65  67
ENDBRANCH  63  65
ENDBRANCH  57  59
ENDBRANCH   1  57
TORSDOF 16
ENDMDL
MODEL 3
REMARK VINA RESULT:     -11.4      3.869      8.349
REMARK SMILES O=C(OCCOC(=O)c1cccc(NC(=S)N/N=C\c2c[nH]c3ccccc23)c1)c1ccc(-c2c3nc(c(-c4ccccc4)c4ccc([nH]4)c(-c4ccccc4)c4nc(c(-c5ccccc5)c5ccc2[nH]5)C=C4)C=C3)cc1
REMARK SMILES IDX 6 1 5 2 4 3 3 4 2 5 1 6 30 7 31 8 77 9 32 10 76 11 33 12
REMARK SMILES IDX 34 13 35 14 70 15 36 16 75 17 69 18 71 19 37 20 74 21 68 22
REMARK SMILES IDX 67 23 38 25 60 26 45 27 59 28 46 29 49 30 58 31 72 32 47 33
REMARK SMILES IDX 48 34 57 36 73 37 50 38 39 39 40 40 44 41 41 42 43 43 42 44
REMARK SMILES IDX 61 45 62 46 66 47 63 48 65 49 64 50 51 51 52 52 56 53 53 54
REMARK SMILES IDX 55 55 54 56 7 57 8 58 9 59 10 60 29 61 11 62 13 63 12 64
REMARK SMILES IDX 14 65 15 67 16 68 17 69 18 71 19 72 20 73 21 74 28 75 22 76
REMARK SMILES IDX 23 77 27 78 24 80 26 81 25 82
REMARK H PARENT 71 24 49 35 14 66 17 70 22 79
REMARK Flexibility Score: inf
ROOT
ATOM      1  O   UNL A   1      31.329  30.609  26.924  1.00  0.00    -0.458 OA
ENDROOT
BRANCH   1   2
ATOM      2  C   UNL A   1      31.250  31.965  26.462  1.00  0.00     0.275 C 
BRANCH   2   3
ATOM      3  C   UNL A   1      32.468  32.793  26.888  1.00  0.00     0.275 C 
BRANCH   3   4
ATOM      4  O   UNL A   1      32.153  33.989  27.627  1.00  0.00    -0.458 OA
BRANCH   4   5
ATOM      5  C   UNL A   1      32.947  34.630  28.520  1.00  0.00     0.338 C 
ATOM      6  O   UNL A   1      32.757  35.819  28.768  1.00  0.00    -0.246 OA
BRANCH   5   7
ATOM      7  C   UNL A   1      34.191  33.997  29.045  1.00  0.00     0.060 A 
ATOM      8  C   UNL A   1      35.479  34.213  28.546  1.00  0.00     0.016 A 
ATOM      9  C   UNL A   1      34.029  33.087  30.102  1.00  0.00     0.016 A 
ATOM     10  C   UNL A   1      36.591  33.621  29.155  1.00  0.00     0.010 A 
ATOM     11  C   UNL A   1      35.138  32.485  30.706  1.00  0.00     0.010 A 
ATOM     12  C   UNL A   1      36.432  32.764  30.248  1.00  0.00    -0.014 A 
BRANCH  12  13
ATOM     13  C   UNL A   1      37.592  32.012  30.787  1.00  0.00     0.031 A 
ATOM     14  C   UNL A   1      38.159  32.470  32.104  1.00  0.00     0.074 A 
ATOM     15  C   UNL A   1      38.060  30.902  30.177  1.00  0.00     0.049 A 
ATOM     16  N   UNL A   1      39.134  31.959  32.808  1.00  0.00    -0.248 NA
ATOM     17  C   UNL A   1      37.503  33.630  32.740  1.00  0.00     0.031 C 
ATOM     18  C   UNL A   1      37.465  30.256  29.004  1.00  0.00     0.029 A 
ATOM     19  N   UNL A   1      39.131  30.094  30.478  1.00  0.00    -0.354 N 
ATOM     20  C   UNL A   1      39.162  32.693  33.989  1.00  0.00     0.074 A 
ATOM     21  C   UNL A   1      38.175  33.740  33.874  1.00  0.00     0.031 C 
ATOM     22  C   UNL A   1      38.152  29.132  28.719  1.00  0.00     0.029 A 
ATOM     23  C   UNL A   1      39.284  29.014  29.632  1.00  0.00     0.049 A 
ATOM     24  H   UNL A   1      39.736  30.270  31.234  1.00  0.00     0.167 HD
ATOM     25  C   UNL A   1      39.906  32.478  35.099  1.00  0.00     0.031 A 
ATOM     26  C   UNL A   1      40.252  28.072  29.597  1.00  0.00     0.031 A 
ATOM     27  C   UNL A   1      40.910  31.458  35.192  1.00  0.00     0.049 A 
ATOM     28  C   UNL A   1      41.354  28.199  30.631  1.00  0.00     0.074 A 
ATOM     29  C   UNL A   1      41.719  31.127  36.263  1.00  0.00     0.029 A 
ATOM     30  N   UNL A   1      41.254  30.619  34.145  1.00  0.00    -0.354 N 
ATOM     31  N   UNL A   1      41.357  28.877  31.756  1.00  0.00    -0.248 NA
ATOM     32  C   UNL A   1      42.594  27.450  30.382  1.00  0.00     0.031 C 
ATOM     33  C   UNL A   1      42.592  30.116  35.843  1.00  0.00     0.029 A 
ATOM     34  C   UNL A   1      42.293  29.793  34.526  1.00  0.00     0.049 A 
ATOM     35  H   UNL A   1      40.823  30.613  33.260  1.00  0.00     0.167 HD
ATOM     36  C   UNL A   1      42.529  28.515  32.412  1.00  0.00     0.074 A 
ATOM     37  C   UNL A   1      43.248  27.626  31.523  1.00  0.00     0.031 C 
ATOM     38  C   UNL A   1      42.941  28.844  33.661  1.00  0.00     0.031 A 
BRANCH  25  39
ATOM     39  C   UNL A   1      39.633  33.356  36.284  1.00  0.00    -0.014 A 
ATOM     40  C   UNL A   1      40.342  34.558  36.459  1.00  0.00     0.009 A 
ATOM     41  C   UNL A   1      38.679  32.984  37.240  1.00  0.00     0.009 A 
ATOM     42  C   UNL A   1      40.125  35.351  37.587  1.00  0.00     0.001 A 
ATOM     43  C   UNL A   1      38.449  33.790  38.358  1.00  0.00     0.001 A 
ATOM     44  C   UNL A   1      39.179  34.967  38.536  1.00  0.00     0.000 A 
ENDBRANCH  25  39
BRANCH  26  45
ATOM     45  C   UNL A   1      40.333  26.974  28.570  1.00  0.00    -0.014 A 
ATOM     46  C   UNL A   1      40.925  27.190  27.316  1.00  0.00     0.009 A 
ATOM     47  C   UNL A   1      39.685  25.747  28.750  1.00  0.00     0.009 A 
ATOM     48  C   UNL A   1      40.777  26.259  26.275  1.00  0.00     0.001 A 
ATOM     49  C   UNL A   1      39.523  24.817  27.720  1.00  0.00     0.001 A 
ATOM     50  C   UNL A   1      40.056  25.084  26.470  1.00  0.00     0.000 A 
ENDBRANCH  26  45
BRANCH  38  51
ATOM     51  C   UNL A   1      44.097  28.072  34.224  1.00  0.00    -0.014 A 
ATOM     52  C   UNL A   1      43.940  26.829  34.847  1.00  0.00     0.009 A 
ATOM     53  C   UNL A   1      45.388  28.609  34.078  1.00  0.00     0.009 A 
ATOM     54  C   UNL A   1      45.057  26.149  35.339  1.00  0.00     0.001 A 
ATOM     55  C   UNL A   1      46.502  27.916  34.544  1.00  0.00     0.001 A 
ATOM     56  C   UNL A   1      46.335  26.689  35.182  1.00  0.00     0.000 A 
ENDBRANCH  38  51
ENDBRANCH  12  13
ENDBRANCH   5   7
ENDBRANCH   4   5
ENDBRANCH   3   4
ENDBRANCH   2   3
ENDBRANCH   1   2
BRANCH   1  57
ATOM     57  C   UNL A   1      32.173  29.829  26.203  1.00  0.00     0.338 C 
ATOM     58  O   UNL A   1      33.372  30.003  26.050  1.00  0.00    -0.246 OA
BRANCH  57  59
ATOM     59  C   UNL A   1      31.484  28.602  25.763  1.00  0.00     0.062 A 
ATOM     60  C   UNL A   1      30.895  28.630  24.493  1.00  0.00     0.016 A 
ATOM     61  C   UNL A   1      31.425  27.443  26.543  1.00  0.00     0.041 A 
ATOM     62  C   UNL A   1      30.220  27.514  24.010  1.00  0.00     0.003 A 
ATOM     63  C   UNL A   1      30.713  26.339  26.064  1.00  0.00     0.041 A 
ATOM     64  C   UNL A   1      30.107  26.380  24.806  1.00  0.00     0.026 A 
BRANCH  63  65
ATOM     65  N   UNL A   1      30.728  25.135  26.783  1.00  0.00    -0.331 N 
ATOM     66  H   UNL A   1      30.152  25.094  27.581  1.00  0.00     0.169 HD
BRANCH  65  67
ATOM     67  C   UNL A   1      31.455  24.017  26.501  1.00  0.00     0.191 C 
ATOM     68  S   UNL A   1      30.654  22.594  26.126  1.00  0.00    -0.039 S 
BRANCH  67  69
ATOM     69  N   UNL A   1      32.823  24.080  26.401  1.00  0.00    -0.254 N 
ATOM     70  H   UNL A   1      33.257  24.854  26.828  1.00  0.00     0.193 HD
BRANCH  69  71
ATOM     71  N   UNL A   1      33.662  23.178  25.764  1.00  0.00    -0.181 NA
ATOM     72  C   UNL A   1      33.762  23.221  24.460  1.00  0.00     0.143 C 
BRANCH  72  73
ATOM     73  C   UNL A   1      33.100  24.226  23.668  1.00  0.00     0.020 A 
ATOM     74  C   UNL A   1      32.104  23.926  22.758  1.00  0.00     0.093 A 
ATOM     75  C   UNL A   1      33.387  25.610  23.496  1.00  0.00     0.008 A 
ATOM     76  N   UNL A   1      32.315  24.800  21.728  1.00  0.00    -0.361 N 
ATOM     77  C   UNL A   1      32.984  25.904  22.193  1.00  0.00     0.046 A 
ATOM     78  C   UNL A   1      34.033  26.616  24.236  1.00  0.00     0.011 A 
ATOM     79  H   UNL A   1      32.030  24.659  20.797  1.00  0.00     0.166 HD
ATOM     80  C   UNL A   1      33.275  27.107  21.548  1.00  0.00     0.027 A 
ATOM     81  C   UNL A   1      34.226  27.874  23.643  1.00  0.00     0.001 A 
ATOM     82  C   UNL A   1      33.883  28.101  22.311  1.00  0.00     0.002 A 
ENDBRANCH  72  73
ENDBRANCH  69  71
ENDBRANCH  67  69
ENDBRANCH  65  67
ENDBRANCH  63  65
ENDBRANCH  57  59
ENDBRANCH   1  57
TORSDOF 16
ENDMDL
