MODEL 1
REMARK VINA RESULT:     -10.7      0.000      0.000
REMARK SMILES CCOC(=O)C1=NN(c2ccc([N+](=O)[O-])cc2C(F)(F)F)[C@@](C)(C(=O)OCCOC(=O)c2ccc(-c3c4nc(c(-c5ccccc5)c5ccc([nH]5)c(-c5ccccc5)c5nc(c(-c6ccccc6)c6ccc3[nH]6)C=C5)C=C4)cc2)C1
REMARK SMILES IDX 27 1 26 2 24 3 25 4 22 5 6 6 7 7 80 8 8 9 23 10 4 11 5 12
REMARK SMILES IDX 3 13 2 14 1 15 9 16 10 17 17 18 11 19 16 20 12 21 18 22
REMARK SMILES IDX 19 23 20 24 21 25 13 26 14 27 15 28 28 29 29 30 30 31 31 32
REMARK SMILES IDX 32 33 33 34 79 35 34 36 78 37 35 38 36 39 37 40 72 41 38 42
REMARK SMILES IDX 77 43 71 44 73 45 39 46 76 47 70 48 69 49 40 51 62 52 47 53
REMARK SMILES IDX 61 54 48 55 51 56 60 57 74 58 49 59 50 60 59 62 75 63 52 64
REMARK SMILES IDX 41 65 42 66 46 67 43 68 45 69 44 70 63 71 64 72 68 73 65 74
REMARK SMILES IDX 67 75 66 76 53 77 54 78 58 79 55 80 57 81 56 82
REMARK H PARENT 73 50 51 61
REMARK Flexibility Score: inf
ROOT
ATOM      1  C   UNL A   1      32.816  28.380  25.937  1.00  0.00     0.274 C 
ENDROOT
BRANCH   1   2
ATOM      2  O   UNL A   1      33.008  26.951  25.839  1.00  0.00    -0.460 OA
BRANCH   2   3
ATOM      3  C   UNL A   1      31.943  26.174  26.171  1.00  0.00     0.334 C 
ATOM      4  O   UNL A   1      31.261  26.349  27.179  1.00  0.00    -0.249 OA
BRANCH   3   5
ATOM      5  C   UNL A   1      31.691  24.989  25.222  1.00  0.00     0.163 C 
ATOM      6  C   UNL A   1      31.743  25.634  23.001  1.00  0.00     0.149 C 
ATOM      7  N   UNL A   1      32.911  25.111  23.194  1.00  0.00    -0.169 NA
ATOM      8  C   UNL A   1      30.741  25.445  24.090  1.00  0.00     0.108 C 
ATOM      9  N   UNL A   1      32.870  24.549  24.439  1.00  0.00    -0.247 N 
ATOM     10  C   UNL A   1      31.044  23.901  26.074  1.00  0.00     0.050 C 
BRANCH   6  11
ATOM     11  C   UNL A   1      31.385  26.341  21.724  1.00  0.00     0.354 C 
ATOM     12  O   UNL A   1      31.772  25.950  20.639  1.00  0.00    -0.245 OA
BRANCH  11  13
ATOM     13  O   UNL A   1      30.587  27.386  22.005  1.00  0.00    -0.461 OA
BRANCH  13  14
ATOM     14  C   UNL A   1      31.262  28.562  22.477  1.00  0.00     0.230 C 
ATOM     15  C   UNL A   1      30.357  29.331  23.419  1.00  0.00     0.049 C 
ENDBRANCH  13  14
ENDBRANCH  11  13
ENDBRANCH   6  11
BRANCH   9  16
ATOM     16  C   UNL A   1      33.971  23.794  24.799  1.00  0.00     0.073 A 
ATOM     17  C   UNL A   1      35.105  24.470  25.303  1.00  0.00     0.036 A 
ATOM     18  C   UNL A   1      34.097  22.421  24.507  1.00  0.00     0.088 A 
ATOM     19  C   UNL A   1      36.315  23.819  25.552  1.00  0.00     0.088 A 
ATOM     20  C   UNL A   1      35.311  21.752  24.798  1.00  0.00     0.101 A 
ATOM     21  C   UNL A   1      36.411  22.453  25.300  1.00  0.00     0.270 A 
BRANCH  18  22
ATOM     22  C   UNL A   1      33.016  21.611  23.835  1.00  0.00     0.418 C 
ATOM     23  F   UNL A   1      33.378  20.308  23.643  1.00  0.00    -0.166 F 
ATOM     24  F   UNL A   1      31.882  21.554  24.591  1.00  0.00    -0.166 F 
ATOM     25  F   UNL A   1      32.630  22.054  22.606  1.00  0.00    -0.166 F 
ENDBRANCH  18  22
BRANCH  21  26
ATOM     26  N   UNL A   1      37.686  21.757  25.510  1.00  0.00     0.062 N 
ATOM     27  O   UNL A   1      37.833  20.649  24.975  1.00  0.00    -0.258 OA
ATOM     28  O   UNL A   1      38.537  22.320  26.212  1.00  0.00    -0.258 OA
ENDBRANCH  21  26
ENDBRANCH   9  16
ENDBRANCH   3   5
ENDBRANCH   2   3
ENDBRANCH   1   2
BRANCH   1  29
ATOM     29  C   UNL A   1      33.365  28.908  27.262  1.00  0.00     0.275 C 
BRANCH  29  30
ATOM     30  O   UNL A   1      34.185  30.053  26.989  1.00  0.00    -0.458 OA
BRANCH  30  31
ATOM     31  C   UNL A   1      34.816  30.603  28.052  1.00  0.00     0.338 C 
ATOM     32  O   UNL A   1      34.355  31.449  28.803  1.00  0.00    -0.246 OA
BRANCH  31  33
ATOM     33  C   UNL A   1      36.168  30.001  28.191  1.00  0.00     0.060 A 
ATOM     34  C   UNL A   1      36.586  29.426  29.395  1.00  0.00     0.016 A 
ATOM     35  C   UNL A   1      37.059  30.048  27.117  1.00  0.00     0.016 A 
ATOM     36  C   UNL A   1      37.896  28.974  29.554  1.00  0.00     0.010 A 
ATOM     37  C   UNL A   1      38.348  29.514  27.249  1.00  0.00     0.010 A 
ATOM     38  C   UNL A   1      38.790  28.990  28.477  1.00  0.00    -0.014 A 
BRANCH  38  39
ATOM     39  C   UNL A   1      40.179  28.473  28.634  1.00  0.00     0.031 A 
ATOM     40  C   UNL A   1      41.283  29.385  29.098  1.00  0.00     0.074 A 
ATOM     41  C   UNL A   1      40.467  27.183  28.365  1.00  0.00     0.049 A 
ATOM     42  N   UNL A   1      42.577  29.185  29.081  1.00  0.00    -0.248 NA
ATOM     43  C   UNL A   1      40.884  30.690  29.647  1.00  0.00     0.031 C 
ATOM     44  C   UNL A   1      39.502  26.155  27.966  1.00  0.00     0.029 A 
ATOM     45  N   UNL A   1      41.667  26.513  28.394  1.00  0.00    -0.354 N 
ATOM     46  C   UNL A   1      43.148  30.360  29.556  1.00  0.00     0.074 A 
ATOM     47  C   UNL A   1      42.060  31.260  29.872  1.00  0.00     0.031 C 
ATOM     48  C   UNL A   1      40.137  24.982  27.831  1.00  0.00     0.029 A 
ATOM     49  C   UNL A   1      41.566  25.191  28.032  1.00  0.00     0.049 A 
ATOM     50  H   UNL A   1      42.517  26.939  28.649  1.00  0.00     0.167 HD
ATOM     51  C   UNL A   1      44.460  30.663  29.703  1.00  0.00     0.031 A 
ATOM     52  C   UNL A   1      42.514  24.258  27.824  1.00  0.00     0.031 A 
ATOM     53  C   UNL A   1      45.546  29.762  29.428  1.00  0.00     0.049 A 
ATOM     54  C   UNL A   1      43.960  24.637  27.926  1.00  0.00     0.074 A 
ATOM     55  C   UNL A   1      46.908  29.987  29.550  1.00  0.00     0.029 A 
ATOM     56  N   UNL A   1      45.395  28.458  28.989  1.00  0.00    -0.354 N 
ATOM     57  N   UNL A   1      44.489  25.781  28.281  1.00  0.00    -0.248 NA
ATOM     58  C   UNL A   1      44.941  23.606  27.554  1.00  0.00     0.031 C 
ATOM     59  C   UNL A   1      47.582  28.824  29.158  1.00  0.00     0.029 A 
ATOM     60  C   UNL A   1      46.637  27.869  28.821  1.00  0.00     0.049 A 
ATOM     61  H   UNL A   1      44.532  28.015  28.821  1.00  0.00     0.167 HD
ATOM     62  C   UNL A   1      45.861  25.616  28.156  1.00  0.00     0.074 A 
ATOM     63  C   UNL A   1      46.085  24.252  27.724  1.00  0.00     0.031 C 
ATOM     64  C   UNL A   1      46.845  26.522  28.367  1.00  0.00     0.031 A 
BRANCH  51  65
ATOM     65  C   UNL A   1      44.797  32.056  30.146  1.00  0.00    -0.014 A 
ATOM     66  C   UNL A   1      44.946  33.100  29.222  1.00  0.00     0.009 A 
ATOM     67  C   UNL A   1      44.929  32.330  31.516  1.00  0.00     0.009 A 
ATOM     68  C   UNL A   1      45.241  34.392  29.662  1.00  0.00     0.001 A 
ATOM     69  C   UNL A   1      45.207  33.625  31.954  1.00  0.00     0.001 A 
ATOM     70  C   UNL A   1      45.368  34.654  31.027  1.00  0.00     0.000 A 
ENDBRANCH  51  65
BRANCH  52  71
ATOM     71  C   UNL A   1      42.118  22.891  27.401  1.00  0.00    -0.014 A 
ATOM     72  C   UNL A   1      41.573  21.991  28.326  1.00  0.00     0.009 A 
ATOM     73  C   UNL A   1      42.272  22.489  26.064  1.00  0.00     0.009 A 
ATOM     74  C   UNL A   1      41.189  20.711  27.919  1.00  0.00     0.001 A 
ATOM     75  C   UNL A   1      41.867  21.218  25.657  1.00  0.00     0.001 A 
ATOM     76  C   UNL A   1      41.329  20.329  26.585  1.00  0.00     0.000 A 
ENDBRANCH  52  71
BRANCH  64  77
ATOM     77  C   UNL A   1      48.250  26.062  28.119  1.00  0.00    -0.014 A 
ATOM     78  C   UNL A   1      48.787  26.084  26.823  1.00  0.00     0.009 A 
ATOM     79  C   UNL A   1      49.045  25.622  29.186  1.00  0.00     0.009 A 
ATOM     80  C   UNL A   1      50.095  25.649  26.597  1.00  0.00     0.001 A 
ATOM     81  C   UNL A   1      50.357  25.202  28.958  1.00  0.00     0.001 A 
ATOM     82  C   UNL A   1      50.878  25.210  27.664  1.00  0.00     0.000 A 
ENDBRANCH  64  77
ENDBRANCH  38  39
ENDBRANCH  31  33
ENDBRANCH  30  31
ENDBRANCH  29  30
ENDBRANCH   1  29
TORSDOF 17
ENDMDL
MODEL 2
REMARK VINA RESULT:     -10.6      3.966      7.704
REMARK SMILES CCOC(=O)C1=NN(c2ccc([N+](=O)[O-])cc2C(F)(F)F)[C@@](C)(C(=O)OCCOC(=O)c2ccc(-c3c4nc(c(-c5ccccc5)c5ccc([nH]5)c(-c5ccccc5)c5nc(c(-c6ccccc6)c6ccc3[nH]6)C=C5)C=C4)cc2)C1
REMARK SMILES IDX 27 1 26 2 24 3 25 4 22 5 6 6 7 7 80 8 8 9 23 10 4 11 5 12
REMARK SMILES IDX 3 13 2 14 1 15 9 16 10 17 17 18 11 19 16 20 12 21 18 22
REMARK SMILES IDX 19 23 20 24 21 25 13 26 14 27 15 28 28 29 29 30 30 31 31 32
REMARK SMILES IDX 32 33 33 34 79 35 34 36 78 37 35 38 36 39 37 40 72 41 38 42
REMARK SMILES IDX 77 43 71 44 73 45 39 46 76 47 70 48 69 49 40 51 62 52 47 53
REMARK SMILES IDX 61 54 48 55 51 56 60 57 74 58 49 59 50 60 59 62 75 63 52 64
REMARK SMILES IDX 41 65 42 66 46 67 43 68 45 69 44 70 63 71 64 72 68 73 65 74
REMARK SMILES IDX 67 75 66 76 53 77 54 78 58 79 55 80 57 81 56 82
REMARK H PARENT 73 50 51 61
REMARK Flexibility Score: inf
ROOT
ATOM      1  C   UNL A   1      31.677  28.424  26.427  1.00  0.00     0.274 C 
ENDROOT
BRANCH   1   2
ATOM      2  O   UNL A   1      32.916  27.807  26.011  1.00  0.00    -0.460 OA
BRANCH   2   3
ATOM      3  C   UNL A   1      32.807  26.670  25.275  1.00  0.00     0.334 C 
ATOM      4  O   UNL A   1      32.634  25.555  25.767  1.00  0.00    -0.249 OA
BRANCH   3   5
ATOM      5  C   UNL A   1      32.998  26.862  23.760  1.00  0.00     0.163 C 
ATOM      6  C   UNL A   1      32.651  24.895  22.591  1.00  0.00     0.149 C 
ATOM      7  N   UNL A   1      31.540  25.541  22.439  1.00  0.00    -0.169 NA
ATOM      8  C   UNL A   1      33.784  25.654  23.196  1.00  0.00     0.108 C 
ATOM      9  N   UNL A   1      31.755  26.787  22.956  1.00  0.00    -0.247 N 
ATOM     10  C   UNL A   1      33.791  28.155  23.599  1.00  0.00     0.050 C 
BRANCH   6  11
ATOM     11  C   UNL A   1      32.822  23.476  22.127  1.00  0.00     0.354 C 
ATOM     12  O   UNL A   1      33.519  23.188  21.172  1.00  0.00    -0.245 OA
BRANCH  11  13
ATOM     13  O   UNL A   1      32.129  22.659  22.939  1.00  0.00    -0.461 OA
BRANCH  13  14
ATOM     14  C   UNL A   1      32.918  21.700  23.660  1.00  0.00     0.230 C 
ATOM     15  C   UNL A   1      33.087  22.151  25.097  1.00  0.00     0.049 C 
ENDBRANCH  13  14
ENDBRANCH  11  13
ENDBRANCH   6  11
BRANCH   9  16
ATOM     16  C   UNL A   1      30.741  27.706  22.763  1.00  0.00     0.073 A 
ATOM     17  C   UNL A   1      31.067  28.938  22.151  1.00  0.00     0.036 A 
ATOM     18  C   UNL A   1      29.452  27.566  23.316  1.00  0.00     0.088 A 
ATOM     19  C   UNL A   1      30.153  29.988  22.047  1.00  0.00     0.088 A 
ATOM     20  C   UNL A   1      28.511  28.615  23.175  1.00  0.00     0.101 A 
ATOM     21  C   UNL A   1      28.870  29.819  22.560  1.00  0.00     0.270 A 
BRANCH  18  22
ATOM     22  C   UNL A   1      29.018  26.364  24.119  1.00  0.00     0.418 C 
ATOM     23  F   UNL A   1      29.611  26.314  25.349  1.00  0.00    -0.166 F 
ATOM     24  F   UNL A   1      27.679  26.382  24.374  1.00  0.00    -0.166 F 
ATOM     25  F   UNL A   1      29.280  25.154  23.553  1.00  0.00    -0.166 F 
ENDBRANCH  18  22
BRANCH  21  26
ATOM     26  N   UNL A   1      27.906  30.924  22.504  1.00  0.00     0.062 N 
ATOM     27  O   UNL A   1      27.110  31.043  23.445  1.00  0.00    -0.258 OA
ATOM     28  O   UNL A   1      27.948  31.671  21.516  1.00  0.00    -0.258 OA
ENDBRANCH  21  26
ENDBRANCH   9  16
ENDBRANCH   3   5
ENDBRANCH   2   3
ENDBRANCH   1   2
BRANCH   1  29
ATOM     29  C   UNL A   1      31.571  29.846  25.877  1.00  0.00     0.275 C 
BRANCH  29  30
ATOM     30  O   UNL A   1      32.872  30.447  25.919  1.00  0.00    -0.458 OA
BRANCH  30  31
ATOM     31  C   UNL A   1      33.081  31.352  26.904  1.00  0.00     0.338 C 
ATOM     32  O   UNL A   1      32.327  32.259  27.218  1.00  0.00    -0.246 OA
BRANCH  31  33
ATOM     33  C   UNL A   1      34.375  31.060  27.577  1.00  0.00     0.060 A 
ATOM     34  C   UNL A   1      34.736  29.755  27.922  1.00  0.00     0.016 A 
ATOM     35  C   UNL A   1      35.229  32.112  27.916  1.00  0.00     0.016 A 
ATOM     36  C   UNL A   1      35.892  29.504  28.660  1.00  0.00     0.010 A 
ATOM     37  C   UNL A   1      36.434  31.851  28.582  1.00  0.00     0.010 A 
ATOM     38  C   UNL A   1      36.770  30.546  28.983  1.00  0.00    -0.014 A 
BRANCH  38  39
ATOM     39  C   UNL A   1      38.024  30.276  29.739  1.00  0.00     0.031 A 
ATOM     40  C   UNL A   1      39.138  29.482  29.110  1.00  0.00     0.074 A 
ATOM     41  C   UNL A   1      38.183  30.739  30.996  1.00  0.00     0.049 A 
ATOM     42  N   UNL A   1      40.197  28.958  29.676  1.00  0.00    -0.248 NA
ATOM     43  C   UNL A   1      39.049  29.242  27.661  1.00  0.00     0.031 C 
ATOM     44  C   UNL A   1      37.228  31.575  31.728  1.00  0.00     0.029 A 
ATOM     45  N   UNL A   1      39.219  30.572  31.884  1.00  0.00    -0.354 N 
ATOM     46  C   UNL A   1      40.865  28.274  28.667  1.00  0.00     0.074 A 
ATOM     47  C   UNL A   1      40.105  28.466  27.451  1.00  0.00     0.031 C 
ATOM     48  C   UNL A   1      37.739  31.884  32.928  1.00  0.00     0.029 A 
ATOM     49  C   UNL A   1      39.008  31.186  33.096  1.00  0.00     0.049 A 
ATOM     50  H   UNL A   1      40.034  30.062  31.673  1.00  0.00     0.167 HD
ATOM     51  C   UNL A   1      42.001  27.543  28.751  1.00  0.00     0.031 A 
ATOM     52  C   UNL A   1      39.718  31.150  34.239  1.00  0.00     0.031 A 
ATOM     53  C   UNL A   1      42.785  27.377  29.946  1.00  0.00     0.049 A 
ATOM     54  C   UNL A   1      40.935  30.279  34.327  1.00  0.00     0.074 A 
ATOM     55  C   UNL A   1      43.952  26.653  30.121  1.00  0.00     0.029 A 
ATOM     56  N   UNL A   1      42.487  27.956  31.168  1.00  0.00    -0.354 N 
ATOM     57  N   UNL A   1      41.501  29.558  33.393  1.00  0.00    -0.248 NA
ATOM     58  C   UNL A   1      41.582  30.182  35.644  1.00  0.00     0.031 C 
ATOM     59  C   UNL A   1      44.347  26.773  31.459  1.00  0.00     0.029 A 
ATOM     60  C   UNL A   1      43.440  27.595  32.106  1.00  0.00     0.049 A 
ATOM     61  H   UNL A   1      41.713  28.538  31.344  1.00  0.00     0.167 HD
ATOM     62  C   UNL A   1      42.559  28.906  34.010  1.00  0.00     0.074 A 
ATOM     63  C   UNL A   1      42.576  29.342  35.392  1.00  0.00     0.031 C 
ATOM     64  C   UNL A   1      43.429  28.015  33.480  1.00  0.00     0.031 A 
BRANCH  51  65
ATOM     65  C   UNL A   1      42.448  26.822  27.514  1.00  0.00    -0.014 A 
ATOM     66  C   UNL A   1      43.381  27.390  26.635  1.00  0.00     0.009 A 
ATOM     67  C   UNL A   1      41.952  25.536  27.248  1.00  0.00     0.009 A 
ATOM     68  C   UNL A   1      43.796  26.688  25.501  1.00  0.00     0.001 A 
ATOM     69  C   UNL A   1      42.379  24.832  26.123  1.00  0.00     0.001 A 
ATOM     70  C   UNL A   1      43.297  25.410  25.247  1.00  0.00     0.000 A 
ENDBRANCH  51  65
BRANCH  52  71
ATOM     71  C   UNL A   1      39.234  31.896  35.428  1.00  0.00    -0.014 A 
ATOM     72  C   UNL A   1      38.376  31.283  36.351  1.00  0.00     0.009 A 
ATOM     73  C   UNL A   1      39.645  33.220  35.649  1.00  0.00     0.009 A 
ATOM     74  C   UNL A   1      37.937  31.986  37.475  1.00  0.00     0.001 A 
ATOM     75  C   UNL A   1      39.223  33.911  36.785  1.00  0.00     0.001 A 
ATOM     76  C   UNL A   1      38.366  33.295  37.696  1.00  0.00     0.000 A 
ENDBRANCH  52  71
BRANCH  64  77
ATOM     77  C   UNL A   1      44.461  27.446  34.407  1.00  0.00    -0.014 A 
ATOM     78  C   UNL A   1      45.757  27.984  34.444  1.00  0.00     0.009 A 
ATOM     79  C   UNL A   1      44.134  26.382  35.258  1.00  0.00     0.009 A 
ATOM     80  C   UNL A   1      46.716  27.447  35.305  1.00  0.00     0.001 A 
ATOM     81  C   UNL A   1      45.092  25.857  36.128  1.00  0.00     0.001 A 
ATOM     82  C   UNL A   1      46.382  26.386  36.146  1.00  0.00     0.000 A 
ENDBRANCH  64  77
ENDBRANCH  38  39
ENDBRANCH  31  33
ENDBRANCH  30  31
ENDBRANCH  29  30
ENDBRANCH   1  29
TORSDOF 17
ENDMDL
MODEL 3
REMARK VINA RESULT:     -10.6      3.481      6.475
REMARK SMILES CCOC(=O)C1=NN(c2ccc([N+](=O)[O-])cc2C(F)(F)F)[C@@](C)(C(=O)OCCOC(=O)c2ccc(-c3c4nc(c(-c5ccccc5)c5ccc([nH]5)c(-c5ccccc5)c5nc(c(-c6ccccc6)c6ccc3[nH]6)C=C5)C=C4)cc2)C1
REMARK SMILES IDX 27 1 26 2 24 3 25 4 22 5 6 6 7 7 80 8 8 9 23 10 4 11 5 12
REMARK SMILES IDX 3 13 2 14 1 15 9 16 10 17 17 18 11 19 16 20 12 21 18 22
REMARK SMILES IDX 19 23 20 24 21 25 13 26 14 27 15 28 28 29 29 30 30 31 31 32
REMARK SMILES IDX 32 33 33 34 79 35 34 36 78 37 35 38 36 39 37 40 72 41 38 42
REMARK SMILES IDX 77 43 71 44 73 45 39 46 76 47 70 48 69 49 40 51 62 52 47 53
REMARK SMILES IDX 61 54 48 55 51 56 60 57 74 58 49 59 50 60 59 62 75 63 52 64
REMARK SMILES IDX 41 65 42 66 46 67 43 68 45 69 44 70 63 71 64 72 68 73 65 74
REMARK SMILES IDX 67 75 66 76 53 77 54 78 58 79 55 80 57 81 56 82
REMARK H PARENT 73 50 51 61
REMARK Flexibility Score: inf
ROOT
ATOM      1  C   UNL A   1      31.508  28.421  27.131  1.00  0.00     0.274 C 
ENDROOT
BRANCH   1   2
ATOM      2  O   UNL A   1      31.173  27.078  26.717  1.00  0.00    -0.460 OA
BRANCH   2   3
ATOM      3  C   UNL A   1      32.201  26.309  26.271  1.00  0.00     0.334 C 
ATOM      4  O   UNL A   1      33.385  26.559  26.494  1.00  0.00    -0.249 OA
BRANCH   3   5
ATOM      5  C   UNL A   1      31.781  25.124  25.383  1.00  0.00     0.163 C 
ATOM      6  C   UNL A   1      31.680  25.715  23.148  1.00  0.00     0.149 C 
ATOM      7  N   UNL A   1      32.820  25.111  23.253  1.00  0.00    -0.169 NA
ATOM      8  C   UNL A   1      30.768  25.624  24.326  1.00  0.00     0.108 C 
ATOM      9  N   UNL A   1      32.851  24.582  24.512  1.00  0.00    -0.247 N 
ATOM     10  C   UNL A   1      31.137  24.107  26.320  1.00  0.00     0.050 C 
BRANCH   6  11
ATOM     11  C   UNL A   1      31.260  26.417  21.888  1.00  0.00     0.354 C 
ATOM     12  O   UNL A   1      31.634  26.051  20.789  1.00  0.00    -0.245 OA
BRANCH  11  13
ATOM     13  O   UNL A   1      30.428  27.426  22.199  1.00  0.00    -0.461 OA
BRANCH  13  14
ATOM     14  C   UNL A   1      31.053  28.711  22.345  1.00  0.00     0.230 C 
ATOM     15  C   UNL A   1      30.054  29.806  22.027  1.00  0.00     0.049 C 
ENDBRANCH  13  14
ENDBRANCH  11  13
ENDBRANCH   6  11
BRANCH   9  16
ATOM     16  C   UNL A   1      33.923  23.756  24.796  1.00  0.00     0.073 A 
ATOM     17  C   UNL A   1      35.160  24.358  25.116  1.00  0.00     0.036 A 
ATOM     18  C   UNL A   1      33.901  22.361  24.592  1.00  0.00     0.088 A 
ATOM     19  C   UNL A   1      36.335  23.619  25.269  1.00  0.00     0.088 A 
ATOM     20  C   UNL A   1      35.083  21.607  24.788  1.00  0.00     0.101 A 
ATOM     21  C   UNL A   1      36.290  22.238  25.107  1.00  0.00     0.270 A 
BRANCH  18  22
ATOM     22  C   UNL A   1      32.684  21.611  24.109  1.00  0.00     0.418 C 
ATOM     23  F   UNL A   1      31.790  21.361  25.111  1.00  0.00    -0.166 F 
ATOM     24  F   UNL A   1      31.984  22.325  23.182  1.00  0.00    -0.166 F 
ATOM     25  F   UNL A   1      32.929  20.396  23.546  1.00  0.00    -0.166 F 
ENDBRANCH  18  22
BRANCH  21  26
ATOM     26  N   UNL A   1      37.519  21.445  25.217  1.00  0.00     0.062 N 
ATOM     27  O   UNL A   1      37.521  20.310  24.722  1.00  0.00    -0.258 OA
ATOM     28  O   UNL A   1      38.483  21.961  25.802  1.00  0.00    -0.258 OA
ENDBRANCH  21  26
ENDBRANCH   9  16
ENDBRANCH   3   5
ENDBRANCH   2   3
ENDBRANCH   1   2
BRANCH   1  29
ATOM     29  C   UNL A   1      31.480  29.376  25.938  1.00  0.00     0.275 C 
BRANCH  29  30
ATOM     30  O   UNL A   1      32.754  30.028  25.848  1.00  0.00    -0.458 OA
BRANCH  30  31
ATOM     31  C   UNL A   1      32.984  31.018  26.741  1.00  0.00     0.338 C 
ATOM     32  O   UNL A   1      32.246  31.962  26.973  1.00  0.00    -0.246 OA
BRANCH  31  33
ATOM     33  C   UNL A   1      34.278  30.772  27.430  1.00  0.00     0.060 A 
ATOM     34  C   UNL A   1      34.754  29.474  27.639  1.00  0.00     0.016 A 
ATOM     35  C   UNL A   1      35.016  31.851  27.922  1.00  0.00     0.016 A 
ATOM     36  C   UNL A   1      35.906  29.248  28.393  1.00  0.00     0.010 A 
ATOM     37  C   UNL A   1      36.219  31.628  28.604  1.00  0.00     0.010 A 
ATOM     38  C   UNL A   1      36.669  30.322  28.867  1.00  0.00    -0.014 A 
BRANCH  38  39
ATOM     39  C   UNL A   1      37.919  30.084  29.640  1.00  0.00     0.031 A 
ATOM     40  C   UNL A   1      39.048  29.290  29.037  1.00  0.00     0.074 A 
ATOM     41  C   UNL A   1      38.061  30.575  30.888  1.00  0.00     0.049 A 
ATOM     42  N   UNL A   1      40.108  28.791  29.622  1.00  0.00    -0.248 NA
ATOM     43  C   UNL A   1      38.975  29.019  27.593  1.00  0.00     0.031 C 
ATOM     44  C   UNL A   1      37.089  31.414  31.594  1.00  0.00     0.029 A 
ATOM     45  N   UNL A   1      39.091  30.439  31.788  1.00  0.00    -0.354 N 
ATOM     46  C   UNL A   1      40.793  28.095  28.634  1.00  0.00     0.074 A 
ATOM     47  C   UNL A   1      40.041  28.252  27.408  1.00  0.00     0.031 C 
ATOM     48  C   UNL A   1      37.586  31.754  32.792  1.00  0.00     0.029 A 
ATOM     49  C   UNL A   1      38.863  31.075  32.985  1.00  0.00     0.049 A 
ATOM     50  H   UNL A   1      39.914  29.935  31.595  1.00  0.00     0.167 HD
ATOM     51  C   UNL A   1      41.938  27.380  28.743  1.00  0.00     0.031 A 
ATOM     52  C   UNL A   1      39.562  31.072  34.134  1.00  0.00     0.031 A 
ATOM     53  C   UNL A   1      42.713  27.249  29.948  1.00  0.00     0.049 A 
ATOM     54  C   UNL A   1      40.789  30.218  34.251  1.00  0.00     0.074 A 
ATOM     55  C   UNL A   1      43.888  26.543  30.148  1.00  0.00     0.029 A 
ATOM     56  N   UNL A   1      42.398  27.849  31.155  1.00  0.00    -0.354 N 
ATOM     57  N   UNL A   1      41.373  29.486  33.337  1.00  0.00    -0.248 NA
ATOM     58  C   UNL A   1      41.427  30.158  35.576  1.00  0.00     0.031 C 
ATOM     59  C   UNL A   1      44.270  26.696  31.486  1.00  0.00     0.029 A 
ATOM     60  C   UNL A   1      43.346  27.520  32.108  1.00  0.00     0.049 A 
ATOM     61  H   UNL A   1      41.615  28.425  31.312  1.00  0.00     0.167 HD
ATOM     62  C   UNL A   1      42.433  28.860  33.977  1.00  0.00     0.074 A 
ATOM     63  C   UNL A   1      42.432  29.325  35.349  1.00  0.00     0.031 C 
ATOM     64  C   UNL A   1      43.319  27.968  33.473  1.00  0.00     0.031 A 
BRANCH  51  65
ATOM     65  C   UNL A   1      42.404  26.639  27.525  1.00  0.00    -0.014 A 
ATOM     66  C   UNL A   1      43.305  27.217  26.620  1.00  0.00     0.009 A 
ATOM     67  C   UNL A   1      41.960  25.326  27.305  1.00  0.00     0.009 A 
ATOM     68  C   UNL A   1      43.739  26.497  25.504  1.00  0.00     0.001 A 
ATOM     69  C   UNL A   1      42.407  24.604  26.199  1.00  0.00     0.001 A 
ATOM     70  C   UNL A   1      43.292  25.192  25.296  1.00  0.00     0.000 A 
ENDBRANCH  51  65
BRANCH  52  71
ATOM     71  C   UNL A   1      39.060  31.837  35.303  1.00  0.00    -0.014 A 
ATOM     72  C   UNL A   1      39.415  33.182  35.479  1.00  0.00     0.009 A 
ATOM     73  C   UNL A   1      38.209  31.227  36.238  1.00  0.00     0.009 A 
ATOM     74  C   UNL A   1      38.926  33.900  36.572  1.00  0.00     0.001 A 
ATOM     75  C   UNL A   1      37.704  31.954  37.316  1.00  0.00     0.001 A 
ATOM     76  C   UNL A   1      38.067  33.289  37.485  1.00  0.00     0.000 A 
ENDBRANCH  52  71
BRANCH  64  77
ATOM     77  C   UNL A   1      44.349  27.432  34.420  1.00  0.00    -0.014 A 
ATOM     78  C   UNL A   1      45.582  28.086  34.575  1.00  0.00     0.009 A 
ATOM     79  C   UNL A   1      44.083  26.281  35.174  1.00  0.00     0.009 A 
ATOM     80  C   UNL A   1      46.540  27.579  35.454  1.00  0.00     0.001 A 
ATOM     81  C   UNL A   1      45.038  25.785  36.063  1.00  0.00     0.001 A 
ATOM     82  C   UNL A   1      46.267  26.432  36.198  1.00  0.00     0.000 A 
ENDBRANCH  64  77
ENDBRANCH  38  39
ENDBRANCH  31  33
ENDBRANCH  30  31
ENDBRANCH  29  30
ENDBRANCH   1  29
TORSDOF 17
ENDMDL
