MODEL 1
REMARK VINA RESULT:     -10.5      0.000      0.000
REMARK SMILES O=C(CC1(C[S@](=O)C[C@H]2Cc3ccccc3S2)CC1)OCCOC(=O)c1ccc(-c2c3nc(c(-c4ccccc4)c4ccc([nH]4)c(-c4ccccc4)c4nc(c(-c5ccccc5)c5ccc2[nH]5)C=C4)C=C3)cc1
REMARK SMILES IDX 20 1 2 2 1 3 3 4 4 5 18 6 19 7 5 8 6 9 7 10 8 11 9 12 10 13
REMARK SMILES IDX 17 14 11 15 16 16 12 17 15 18 13 19 14 20 21 21 22 22 23 23
REMARK SMILES IDX 24 24 25 25 26 26 27 27 73 28 28 29 72 30 29 31 30 32 31 33
REMARK SMILES IDX 66 34 32 35 71 36 65 37 67 38 33 39 70 40 64 41 63 42 34 44
REMARK SMILES IDX 56 45 41 46 55 47 42 48 45 49 54 50 68 51 43 52 44 53 53 55
REMARK SMILES IDX 69 56 46 57 35 58 36 59 40 60 37 61 39 62 38 63 57 64 58 65
REMARK SMILES IDX 62 66 59 67 61 68 60 69 47 70 48 71 52 72 49 73 51 74 50 75
REMARK H PARENT 67 43 45 54
REMARK Flexibility Score: inf
ROOT
ATOM      1  O   UNL A   1      32.008  29.866  27.281  1.00  0.00    -0.462 OA
ENDROOT
BRANCH   1   2
ATOM      2  C   UNL A   1      31.607  28.589  27.070  1.00  0.00     0.306 C 
ATOM      3  O   UNL A   1      31.416  27.823  28.013  1.00  0.00    -0.252 OA
BRANCH   2   4
ATOM      4  C   UNL A   1      31.543  28.104  25.646  1.00  0.00     0.130 C 
BRANCH   4   5
ATOM      5  C   UNL A   1      32.466  26.973  25.228  1.00  0.00    -0.008 C 
ATOM      6  C   UNL A   1      32.760  26.708  23.760  1.00  0.00     0.009 C 
ATOM      7  C   UNL A   1      33.809  27.344  24.615  1.00  0.00     0.009 C 
BRANCH   5   8
ATOM      8  C   UNL A   1      32.481  25.815  26.204  1.00  0.00     0.112 C 
BRANCH   8   9
ATOM      9  S   UNL A   1      31.097  24.699  25.834  1.00  0.00     0.023 S 
ATOM     10  O   UNL A   1      29.948  24.977  26.746  1.00  0.00    -0.260 OA
BRANCH   9  11
ATOM     11  C   UNL A   1      31.872  23.113  26.167  1.00  0.00     0.120 C 
BRANCH  11  12
ATOM     12  C   UNL A   1      32.171  22.095  25.069  1.00  0.00     0.068 C 
ATOM     13  C   UNL A   1      32.757  22.630  23.758  1.00  0.00     0.052 C 
ATOM     14  S   UNL A   1      33.280  20.753  25.619  1.00  0.00    -0.121 SA
ATOM     15  C   UNL A   1      34.243  22.467  23.862  1.00  0.00    -0.033 A 
ATOM     16  C   UNL A   1      34.644  21.471  24.759  1.00  0.00     0.011 A 
ATOM     17  C   UNL A   1      35.189  23.200  23.160  1.00  0.00     0.005 A 
ATOM     18  C   UNL A   1      35.981  21.193  24.978  1.00  0.00     0.015 A 
ATOM     19  C   UNL A   1      36.542  22.944  23.394  1.00  0.00     0.000 A 
ATOM     20  C   UNL A   1      36.935  21.944  24.294  1.00  0.00     0.001 A 
ENDBRANCH  11  12
ENDBRANCH   9  11
ENDBRANCH   8   9
ENDBRANCH   5   8
ENDBRANCH   4   5
ENDBRANCH   2   4
ENDBRANCH   1   2
BRANCH   1  21
ATOM     21  C   UNL A   1      31.756  30.921  26.330  1.00  0.00     0.274 C 
BRANCH  21  22
ATOM     22  C   UNL A   1      31.493  32.274  27.002  1.00  0.00     0.275 C 
BRANCH  22  23
ATOM     23  O   UNL A   1      32.581  33.200  26.798  1.00  0.00    -0.458 OA
BRANCH  23  24
ATOM     24  C   UNL A   1      33.091  33.768  27.923  1.00  0.00     0.338 C 
ATOM     25  O   UNL A   1      32.547  34.611  28.607  1.00  0.00    -0.246 OA
BRANCH  24  26
ATOM     26  C   UNL A   1      34.378  33.121  28.310  1.00  0.00     0.060 A 
ATOM     27  C   UNL A   1      35.627  33.671  28.017  1.00  0.00     0.016 A 
ATOM     28  C   UNL A   1      34.313  31.904  29.006  1.00  0.00     0.016 A 
ATOM     29  C   UNL A   1      36.794  33.023  28.453  1.00  0.00     0.010 A 
ATOM     30  C   UNL A   1      35.478  31.266  29.455  1.00  0.00     0.010 A 
ATOM     31  C   UNL A   1      36.734  31.828  29.202  1.00  0.00    -0.014 A 
BRANCH  31  32
ATOM     32  C   UNL A   1      37.964  31.319  29.871  1.00  0.00     0.031 A 
ATOM     33  C   UNL A   1      38.428  31.748  31.231  1.00  0.00     0.074 A 
ATOM     34  C   UNL A   1      38.705  30.402  29.219  1.00  0.00     0.049 A 
ATOM     35  N   UNL A   1      39.197  31.092  32.067  1.00  0.00    -0.248 NA
ATOM     36  C   UNL A   1      37.978  33.050  31.737  1.00  0.00     0.031 C 
ATOM     37  C   UNL A   1      38.463  29.940  27.853  1.00  0.00     0.029 A 
ATOM     38  N   UNL A   1      39.811  29.699  29.626  1.00  0.00    -0.354 N 
ATOM     39  C   UNL A   1      39.187  31.820  33.246  1.00  0.00     0.074 A 
ATOM     40  C   UNL A   1      38.438  33.030  32.985  1.00  0.00     0.031 C 
ATOM     41  C   UNL A   1      39.388  29.024  27.536  1.00  0.00     0.029 A 
ATOM     42  C   UNL A   1      40.287  28.837  28.673  1.00  0.00     0.049 A 
ATOM     43  H   UNL A   1      40.223  29.805  30.513  1.00  0.00     0.167 HD
ATOM     44  C   UNL A   1      39.726  31.484  34.442  1.00  0.00     0.031 A 
ATOM     45  C   UNL A   1      41.325  27.981  28.703  1.00  0.00     0.031 A 
ATOM     46  C   UNL A   1      40.661  30.409  34.638  1.00  0.00     0.049 A 
ATOM     47  C   UNL A   1      42.107  27.797  29.969  1.00  0.00     0.074 A 
ATOM     48  C   UNL A   1      41.257  29.987  35.815  1.00  0.00     0.029 A 
ATOM     49  N   UNL A   1      41.215  29.656  33.618  1.00  0.00    -0.354 N 
ATOM     50  N   UNL A   1      41.888  28.311  31.155  1.00  0.00    -0.248 NA
ATOM     51  C   UNL A   1      43.267  26.897  29.908  1.00  0.00     0.031 C 
ATOM     52  C   UNL A   1      42.257  29.063  35.489  1.00  0.00     0.029 A 
ATOM     53  C   UNL A   1      42.228  28.855  34.119  1.00  0.00     0.049 A 
ATOM     54  H   UNL A   1      40.933  29.686  32.676  1.00  0.00     0.167 HD
ATOM     55  C   UNL A   1      42.871  27.787  31.986  1.00  0.00     0.074 A 
ATOM     56  C   UNL A   1      43.678  26.903  31.170  1.00  0.00     0.031 C 
ATOM     57  C   UNL A   1      43.073  28.015  33.307  1.00  0.00     0.031 A 
BRANCH  44  58
ATOM     58  C   UNL A   1      39.301  32.262  35.653  1.00  0.00    -0.014 A 
ATOM     59  C   UNL A   1      38.095  31.992  36.311  1.00  0.00     0.009 A 
ATOM     60  C   UNL A   1      40.049  33.388  36.037  1.00  0.00     0.009 A 
ATOM     61  C   UNL A   1      37.649  32.832  37.335  1.00  0.00     0.001 A 
ATOM     62  C   UNL A   1      39.611  34.216  37.073  1.00  0.00     0.001 A 
ATOM     63  C   UNL A   1      38.407  33.941  37.717  1.00  0.00     0.000 A 
ENDBRANCH  44  58
BRANCH  45  64
ATOM     64  C   UNL A   1      41.656  27.229  27.469  1.00  0.00    -0.014 A 
ATOM     65  C   UNL A   1      41.150  25.931  27.284  1.00  0.00     0.009 A 
ATOM     66  C   UNL A   1      42.533  27.762  26.516  1.00  0.00     0.009 A 
ATOM     67  C   UNL A   1      41.544  25.167  26.185  1.00  0.00     0.001 A 
ATOM     68  C   UNL A   1      42.904  27.005  25.403  1.00  0.00     0.001 A 
ATOM     69  C   UNL A   1      42.419  25.706  25.245  1.00  0.00     0.000 A 
ENDBRANCH  45  64
BRANCH  57  70
ATOM     70  C   UNL A   1      44.245  27.338  33.964  1.00  0.00    -0.014 A 
ATOM     71  C   UNL A   1      45.511  27.943  33.950  1.00  0.00     0.009 A 
ATOM     72  C   UNL A   1      44.109  26.066  34.542  1.00  0.00     0.009 A 
ATOM     73  C   UNL A   1      46.619  27.286  34.490  1.00  0.00     0.001 A 
ATOM     74  C   UNL A   1      45.211  25.425  35.113  1.00  0.00     0.001 A 
ATOM     75  C   UNL A   1      46.466  26.032  35.078  1.00  0.00     0.000 A 
ENDBRANCH  57  70
ENDBRANCH  31  32
ENDBRANCH  24  26
ENDBRANCH  23  24
ENDBRANCH  22  23
ENDBRANCH  21  22
ENDBRANCH   1  21
TORSDOF 16
ENDMDL
MODEL 2
REMARK VINA RESULT:     -10.5      4.442      9.259
REMARK SMILES O=C(CC1(C[S@](=O)C[C@H]2Cc3ccccc3S2)CC1)OCCOC(=O)c1ccc(-c2c3nc(c(-c4ccccc4)c4ccc([nH]4)c(-c4ccccc4)c4nc(c(-c5ccccc5)c5ccc2[nH]5)C=C4)C=C3)cc1
REMARK SMILES IDX 20 1 2 2 1 3 3 4 4 5 18 6 19 7 5 8 6 9 7 10 8 11 9 12 10 13
REMARK SMILES IDX 17 14 11 15 16 16 12 17 15 18 13 19 14 20 21 21 22 22 23 23
REMARK SMILES IDX 24 24 25 25 26 26 27 27 73 28 28 29 72 30 29 31 30 32 31 33
REMARK SMILES IDX 66 34 32 35 71 36 65 37 67 38 33 39 70 40 64 41 63 42 34 44
REMARK SMILES IDX 56 45 41 46 55 47 42 48 45 49 54 50 68 51 43 52 44 53 53 55
REMARK SMILES IDX 69 56 46 57 35 58 36 59 40 60 37 61 39 62 38 63 57 64 58 65
REMARK SMILES IDX 62 66 59 67 61 68 60 69 47 70 48 71 52 72 49 73 51 74 50 75
REMARK H PARENT 67 43 45 54
REMARK Flexibility Score: inf
ROOT
ATOM      1  O   UNL A   1      37.159  21.600  24.122  1.00  0.00    -0.462 OA
ENDROOT
BRANCH   1   2
ATOM      2  C   UNL A   1      36.633  22.772  23.692  1.00  0.00     0.306 C 
ATOM      3  O   UNL A   1      36.625  23.060  22.497  1.00  0.00    -0.252 OA
BRANCH   2   4
ATOM      4  C   UNL A   1      36.191  23.764  24.736  1.00  0.00     0.130 C 
BRANCH   4   5
ATOM      5  C   UNL A   1      34.702  23.987  24.931  1.00  0.00    -0.008 C 
ATOM      6  C   UNL A   1      33.758  22.811  25.130  1.00  0.00     0.009 C 
ATOM      7  C   UNL A   1      34.112  23.673  26.299  1.00  0.00     0.009 C 
BRANCH   5   8
ATOM      8  C   UNL A   1      34.186  25.241  24.259  1.00  0.00     0.112 C 
BRANCH   8   9
ATOM      9  S   UNL A   1      33.040  24.784  22.927  1.00  0.00     0.023 S 
ATOM     10  O   UNL A   1      33.766  24.061  21.841  1.00  0.00    -0.260 OA
BRANCH   9  11
ATOM     11  C   UNL A   1      32.481  26.412  22.417  1.00  0.00     0.120 C 
BRANCH  11  12
ATOM     12  C   UNL A   1      31.187  27.039  22.933  1.00  0.00     0.068 C 
ATOM     13  C   UNL A   1      30.637  26.515  24.263  1.00  0.00     0.052 C 
ATOM     14  S   UNL A   1      31.285  28.855  23.093  1.00  0.00    -0.121 SA
ATOM     15  C   UNL A   1      31.129  27.454  25.322  1.00  0.00    -0.033 A 
ATOM     16  C   UNL A   1      31.445  28.732  24.847  1.00  0.00     0.011 A 
ATOM     17  C   UNL A   1      31.281  27.150  26.668  1.00  0.00     0.005 A 
ATOM     18  C   UNL A   1      31.917  29.720  25.692  1.00  0.00     0.015 A 
ATOM     19  C   UNL A   1      31.782  28.133  27.524  1.00  0.00     0.000 A 
ATOM     20  C   UNL A   1      32.094  29.411  27.039  1.00  0.00     0.001 A 
ENDBRANCH  11  12
ENDBRANCH   9  11
ENDBRANCH   8   9
ENDBRANCH   5   8
ENDBRANCH   4   5
ENDBRANCH   2   4
ENDBRANCH   1   2
BRANCH   1  21
ATOM     21  C   UNL A   1      37.562  21.390  25.491  1.00  0.00     0.274 C 
BRANCH  21  22
ATOM     22  C   UNL A   1      39.086  21.379  25.665  1.00  0.00     0.275 C 
BRANCH  22  23
ATOM     23  O   UNL A   1      39.590  20.053  25.926  1.00  0.00    -0.458 OA
BRANCH  23  24
ATOM     24  C   UNL A   1      40.943  19.937  25.985  1.00  0.00     0.338 C 
ATOM     25  O   UNL A   1      41.601  19.017  25.542  1.00  0.00    -0.246 OA
BRANCH  24  26
ATOM     26  C   UNL A   1      41.560  21.171  26.554  1.00  0.00     0.060 A 
ATOM     27  C   UNL A   1      42.247  22.106  25.780  1.00  0.00     0.016 A 
ATOM     28  C   UNL A   1      41.429  21.389  27.934  1.00  0.00     0.016 A 
ATOM     29  C   UNL A   1      42.763  23.265  26.381  1.00  0.00     0.010 A 
ATOM     30  C   UNL A   1      41.930  22.555  28.531  1.00  0.00     0.010 A 
ATOM     31  C   UNL A   1      42.586  23.518  27.759  1.00  0.00    -0.014 A 
BRANCH  31  32
ATOM     32  C   UNL A   1      42.906  24.867  28.304  1.00  0.00     0.031 A 
ATOM     33  C   UNL A   1      44.285  25.327  28.673  1.00  0.00     0.074 A 
ATOM     34  C   UNL A   1      41.894  25.740  28.465  1.00  0.00     0.049 A 
ATOM     35  N   UNL A   1      44.738  26.556  28.738  1.00  0.00    -0.248 NA
ATOM     36  C   UNL A   1      45.292  24.307  28.993  1.00  0.00     0.031 C 
ATOM     37  C   UNL A   1      40.479  25.439  28.252  1.00  0.00     0.029 A 
ATOM     38  N   UNL A   1      41.907  27.058  28.847  1.00  0.00    -0.354 N 
ATOM     39  C   UNL A   1      46.104  26.449  28.943  1.00  0.00     0.074 A 
ATOM     40  C   UNL A   1      46.393  25.043  29.115  1.00  0.00     0.031 C 
ATOM     41  C   UNL A   1      39.760  26.542  28.498  1.00  0.00     0.029 A 
ATOM     42  C   UNL A   1      40.660  27.625  28.888  1.00  0.00     0.049 A 
ATOM     43  H   UNL A   1      42.731  27.548  29.071  1.00  0.00     0.167 HD
ATOM     44  C   UNL A   1      47.030  27.438  28.950  1.00  0.00     0.031 A 
ATOM     45  C   UNL A   1      40.274  28.877  29.194  1.00  0.00     0.031 A 
ATOM     46  C   UNL A   1      46.718  28.841  29.016  1.00  0.00     0.049 A 
ATOM     47  C   UNL A   1      41.304  29.933  29.469  1.00  0.00     0.074 A 
ATOM     48  C   UNL A   1      47.588  29.919  29.021  1.00  0.00     0.029 A 
ATOM     49  N   UNL A   1      45.446  29.355  29.195  1.00  0.00    -0.354 N 
ATOM     50  N   UNL A   1      42.609  29.852  29.383  1.00  0.00    -0.248 NA
ATOM     51  C   UNL A   1      40.807  31.258  29.861  1.00  0.00     0.031 C 
ATOM     52  C   UNL A   1      46.851  31.070  29.323  1.00  0.00     0.029 A 
ATOM     53  C   UNL A   1      45.515  30.718  29.428  1.00  0.00     0.049 A 
ATOM     54  H   UNL A   1      44.615  28.829  29.163  1.00  0.00     0.167 HD
ATOM     55  C   UNL A   1      43.091  31.117  29.694  1.00  0.00     0.074 A 
ATOM     56  C   UNL A   1      41.936  31.950  29.958  1.00  0.00     0.031 C 
ATOM     57  C   UNL A   1      44.377  31.544  29.746  1.00  0.00     0.031 A 
BRANCH  44  58
ATOM     58  C   UNL A   1      48.477  27.053  28.853  1.00  0.00    -0.014 A 
ATOM     59  C   UNL A   1      49.083  26.789  27.619  1.00  0.00     0.009 A 
ATOM     60  C   UNL A   1      49.195  26.797  30.033  1.00  0.00     0.009 A 
ATOM     61  C   UNL A   1      50.384  26.279  27.569  1.00  0.00     0.001 A 
ATOM     62  C   UNL A   1      50.501  26.307  29.981  1.00  0.00     0.001 A 
ATOM     63  C   UNL A   1      51.092  26.041  28.748  1.00  0.00     0.000 A 
ENDBRANCH  44  58
BRANCH  45  64
ATOM     64  C   UNL A   1      38.823  29.177  29.237  1.00  0.00    -0.014 A 
ATOM     65  C   UNL A   1      38.196  29.760  28.122  1.00  0.00     0.009 A 
ATOM     66  C   UNL A   1      38.079  28.964  30.403  1.00  0.00     0.009 A 
ATOM     67  C   UNL A   1      36.859  30.155  28.187  1.00  0.00     0.001 A 
ATOM     68  C   UNL A   1      36.734  29.335  30.456  1.00  0.00     0.001 A 
ATOM     69  C   UNL A   1      36.129  29.940  29.353  1.00  0.00     0.000 A 
ENDBRANCH  45  64
BRANCH  57  70
ATOM     70  C   UNL A   1      44.626  32.972  30.149  1.00  0.00    -0.014 A 
ATOM     71  C   UNL A   1      44.805  33.306  31.500  1.00  0.00     0.009 A 
ATOM     72  C   UNL A   1      44.617  34.001  29.193  1.00  0.00     0.009 A 
ATOM     73  C   UNL A   1      44.960  34.639  31.888  1.00  0.00     0.001 A 
ATOM     74  C   UNL A   1      44.806  35.330  29.580  1.00  0.00     0.001 A 
ATOM     75  C   UNL A   1      44.968  35.648  30.927  1.00  0.00     0.000 A 
ENDBRANCH  57  70
ENDBRANCH  31  32
ENDBRANCH  24  26
ENDBRANCH  23  24
ENDBRANCH  22  23
ENDBRANCH  21  22
ENDBRANCH   1  21
TORSDOF 16
ENDMDL
MODEL 3
REMARK VINA RESULT:     -10.5      3.002      6.769
REMARK SMILES O=C(CC1(C[S@](=O)C[C@H]2Cc3ccccc3S2)CC1)OCCOC(=O)c1ccc(-c2c3nc(c(-c4ccccc4)c4ccc([nH]4)c(-c4ccccc4)c4nc(c(-c5ccccc5)c5ccc2[nH]5)C=C4)C=C3)cc1
REMARK SMILES IDX 20 1 2 2 1 3 3 4 4 5 18 6 19 7 5 8 6 9 7 10 8 11 9 12 10 13
REMARK SMILES IDX 17 14 11 15 16 16 12 17 15 18 13 19 14 20 21 21 22 22 23 23
REMARK SMILES IDX 24 24 25 25 26 26 27 27 73 28 28 29 72 30 29 31 30 32 31 33
REMARK SMILES IDX 66 34 32 35 71 36 65 37 67 38 33 39 70 40 64 41 63 42 34 44
REMARK SMILES IDX 56 45 41 46 55 47 42 48 45 49 54 50 68 51 43 52 44 53 53 55
REMARK SMILES IDX 69 56 46 57 35 58 36 59 40 60 37 61 39 62 38 63 57 64 58 65
REMARK SMILES IDX 62 66 59 67 61 68 60 69 47 70 48 71 52 72 49 73 51 74 50 75
REMARK H PARENT 67 43 45 54
REMARK Flexibility Score: inf
ROOT
ATOM      1  O   UNL A   1      31.138  27.209  27.158  1.00  0.00    -0.462 OA
ENDROOT
BRANCH   1   2
ATOM      2  C   UNL A   1      31.327  26.177  26.299  1.00  0.00     0.306 C 
ATOM      3  O   UNL A   1      31.172  25.014  26.665  1.00  0.00    -0.252 OA
BRANCH   2   4
ATOM      4  C   UNL A   1      31.868  26.499  24.931  1.00  0.00     0.130 C 
BRANCH   4   5
ATOM      5  C   UNL A   1      31.023  26.142  23.721  1.00  0.00    -0.008 C 
ATOM      6  C   UNL A   1      29.546  26.499  23.670  1.00  0.00     0.009 C 
ATOM      7  C   UNL A   1      30.519  27.282  22.848  1.00  0.00     0.009 C 
BRANCH   5   8
ATOM      8  C   UNL A   1      31.510  24.911  22.987  1.00  0.00     0.112 C 
BRANCH   8   9
ATOM      9  S   UNL A   1      33.318  24.973  22.838  1.00  0.00     0.023 S 
ATOM     10  O   UNL A   1      33.712  25.409  21.465  1.00  0.00    -0.260 OA
BRANCH   9  11
ATOM     11  C   UNL A   1      33.722  23.252  23.157  1.00  0.00     0.120 C 
BRANCH  11  12
ATOM     12  C   UNL A   1      33.828  22.678  24.568  1.00  0.00     0.068 C 
ATOM     13  C   UNL A   1      34.678  21.416  24.748  1.00  0.00     0.052 C 
ATOM     14  S   UNL A   1      34.437  23.890  25.790  1.00  0.00    -0.121 SA
ATOM     15  C   UNL A   1      36.034  21.881  25.187  1.00  0.00    -0.033 A 
ATOM     16  C   UNL A   1      36.034  23.137  25.803  1.00  0.00     0.011 A 
ATOM     17  C   UNL A   1      37.221  21.179  25.029  1.00  0.00     0.005 A 
ATOM     18  C   UNL A   1      37.202  23.715  26.264  1.00  0.00     0.015 A 
ATOM     19  C   UNL A   1      38.410  21.766  25.467  1.00  0.00     0.000 A 
ATOM     20  C   UNL A   1      38.399  23.024  26.085  1.00  0.00     0.001 A 
ENDBRANCH  11  12
ENDBRANCH   9  11
ENDBRANCH   8   9
ENDBRANCH   5   8
ENDBRANCH   4   5
ENDBRANCH   2   4
ENDBRANCH   1   2
BRANCH   1  21
ATOM     21  C   UNL A   1      31.895  28.433  27.073  1.00  0.00     0.274 C 
BRANCH  21  22
ATOM     22  C   UNL A   1      33.372  28.242  27.434  1.00  0.00     0.275 C 
BRANCH  22  23
ATOM     23  O   UNL A   1      34.216  29.223  26.793  1.00  0.00    -0.458 OA
BRANCH  23  24
ATOM     24  C   UNL A   1      34.625  30.253  27.580  1.00  0.00     0.338 C 
ATOM     25  O   UNL A   1      33.955  31.212  27.907  1.00  0.00    -0.246 OA
BRANCH  24  26
ATOM     26  C   UNL A   1      35.990  29.998  28.125  1.00  0.00     0.060 A 
ATOM     27  C   UNL A   1      36.236  29.726  29.471  1.00  0.00     0.016 A 
ATOM     28  C   UNL A   1      37.068  30.033  27.226  1.00  0.00     0.016 A 
ATOM     29  C   UNL A   1      37.545  29.453  29.901  1.00  0.00     0.010 A 
ATOM     30  C   UNL A   1      38.373  29.746  27.653  1.00  0.00     0.010 A 
ATOM     31  C   UNL A   1      38.626  29.432  28.992  1.00  0.00    -0.014 A 
BRANCH  31  32
ATOM     32  C   UNL A   1      39.940  28.882  29.429  1.00  0.00     0.031 A 
ATOM     33  C   UNL A   1      40.396  27.476  29.175  1.00  0.00     0.074 A 
ATOM     34  C   UNL A   1      40.782  29.702  30.084  1.00  0.00     0.049 A 
ATOM     35  N   UNL A   1      41.626  27.024  29.116  1.00  0.00    -0.248 NA
ATOM     36  C   UNL A   1      39.375  26.448  28.942  1.00  0.00     0.031 C 
ATOM     37  C   UNL A   1      40.472  31.068  30.505  1.00  0.00     0.029 A 
ATOM     38  N   UNL A   1      42.071  29.500  30.509  1.00  0.00    -0.354 N 
ATOM     39  C   UNL A   1      41.529  25.711  28.682  1.00  0.00     0.074 A 
ATOM     40  C   UNL A   1      40.119  25.397  28.610  1.00  0.00     0.031 C 
ATOM     41  C   UNL A   1      41.543  31.585  31.121  1.00  0.00     0.029 A 
ATOM     42  C   UNL A   1      42.612  30.589  31.141  1.00  0.00     0.049 A 
ATOM     43  H   UNL A   1      42.559  28.655  30.376  1.00  0.00     0.167 HD
ATOM     44  C   UNL A   1      42.530  24.865  28.343  1.00  0.00     0.031 A 
ATOM     45  C   UNL A   1      43.834  30.779  31.673  1.00  0.00     0.031 A 
ATOM     46  C   UNL A   1      43.920  25.092  28.638  1.00  0.00     0.049 A 
ATOM     47  C   UNL A   1      44.885  29.719  31.531  1.00  0.00     0.074 A 
ATOM     48  C   UNL A   1      45.010  24.296  28.328  1.00  0.00     0.029 A 
ATOM     49  N   UNL A   1      44.398  26.143  29.400  1.00  0.00    -0.354 N 
ATOM     50  N   UNL A   1      44.833  28.590  30.867  1.00  0.00    -0.248 NA
ATOM     51  C   UNL A   1      46.172  29.968  32.194  1.00  0.00     0.031 C 
ATOM     52  C   UNL A   1      46.125  24.802  29.005  1.00  0.00     0.029 A 
ATOM     53  C   UNL A   1      45.743  25.957  29.671  1.00  0.00     0.049 A 
ATOM     54  H   UNL A   1      43.862  26.909  29.705  1.00  0.00     0.167 HD
ATOM     55  C   UNL A   1      46.082  28.001  31.017  1.00  0.00     0.074 A 
ATOM     56  C   UNL A   1      46.875  28.905  31.824  1.00  0.00     0.031 C 
ATOM     57  C   UNL A   1      46.526  26.820  30.519  1.00  0.00     0.031 A 
BRANCH  44  58
ATOM     58  C   UNL A   1      42.178  23.619  27.585  1.00  0.00    -0.014 A 
ATOM     59  C   UNL A   1      41.792  22.444  28.245  1.00  0.00     0.009 A 
ATOM     60  C   UNL A   1      42.391  23.581  26.197  1.00  0.00     0.009 A 
ATOM     61  C   UNL A   1      41.624  21.258  27.526  1.00  0.00     0.001 A 
ATOM     62  C   UNL A   1      42.204  22.398  25.478  1.00  0.00     0.001 A 
ATOM     63  C   UNL A   1      41.827  21.235  26.145  1.00  0.00     0.000 A 
ENDBRANCH  44  58
BRANCH  45  64
ATOM     64  C   UNL A   1      44.105  32.054  32.379  1.00  0.00    -0.014 A 
ATOM     65  C   UNL A   1      43.681  32.222  33.708  1.00  0.00     0.009 A 
ATOM     66  C   UNL A   1      44.708  33.129  31.715  1.00  0.00     0.009 A 
ATOM     67  C   UNL A   1      43.825  33.454  34.347  1.00  0.00     0.001 A 
ATOM     68  C   UNL A   1      44.876  34.353  32.366  1.00  0.00     0.001 A 
ATOM     69  C   UNL A   1      44.424  34.517  33.676  1.00  0.00     0.000 A 
ENDBRANCH  45  64
BRANCH  57  70
ATOM     70  C   UNL A   1      47.927  26.397  30.865  1.00  0.00    -0.014 A 
ATOM     71  C   UNL A   1      48.991  26.691  29.999  1.00  0.00     0.009 A 
ATOM     72  C   UNL A   1      48.187  25.647  32.023  1.00  0.00     0.009 A 
ATOM     73  C   UNL A   1      50.282  26.235  30.276  1.00  0.00     0.001 A 
ATOM     74  C   UNL A   1      49.484  25.220  32.317  1.00  0.00     0.001 A 
ATOM     75  C   UNL A   1      50.528  25.508  31.439  1.00  0.00     0.000 A 
ENDBRANCH  57  70
ENDBRANCH  31  32
ENDBRANCH  24  26
ENDBRANCH  23  24
ENDBRANCH  22  23
ENDBRANCH  21  22
ENDBRANCH   1  21
TORSDOF 16
ENDMDL
