MODEL 1
REMARK VINA RESULT:     -10.6      0.000      0.000
REMARK SMILES [NH3+][C@@H](CCCCC(=O)OCCOC(=O)c1ccc(-c2c3nc(c(-c4ccccc4)c4ccc([nH]4)c(-c4ccccc4)c4nc(c(-c5ccccc5)c5ccc2[nH]5)C=C4)C=C3)cc1)c1ccc(-c2ccccc2)cc1
REMARK SMILES IDX 7 1 8 2 6 3 5 4 4 5 3 6 2 7 1 8 63 12 64 13 74 14 65 15
REMARK SMILES IDX 73 16 66 17 67 18 68 19 72 20 69 21 71 22 70 23 9 24 10 25
REMARK SMILES IDX 11 26 12 27 13 28 14 29 15 30 16 31 62 32 17 33 61 34 18 35
REMARK SMILES IDX 19 36 20 37 55 38 21 39 60 40 54 41 56 42 22 43 59 44 53 45
REMARK SMILES IDX 52 46 23 48 45 49 30 50 44 51 31 52 34 53 43 54 57 55 32 56
REMARK SMILES IDX 33 57 42 59 58 60 35 61 24 62 25 63 29 64 26 65 28 66 27 67
REMARK SMILES IDX 46 68 47 69 51 70 48 71 50 72 49 73 36 74 37 75 41 76 38 77
REMARK SMILES IDX 40 78 39 79
REMARK H PARENT 1 9 1 10 1 11 56 47 34 58
REMARK Flexibility Score: inf
ROOT
ATOM      1  C   UNL A   1      34.837  24.455  24.355  1.00  0.00     0.305 C 
ATOM      2  O   UNL A   1      34.430  24.738  23.234  1.00  0.00    -0.252 OA
ENDROOT
BRANCH   1   3
ATOM      3  C   UNL A   1      34.227  25.054  25.596  1.00  0.00     0.123 C 
BRANCH   3   4
ATOM      4  C   UNL A   1      33.602  26.442  25.463  1.00  0.00     0.012 C 
BRANCH   4   5
ATOM      5  C   UNL A   1      32.171  26.549  26.002  1.00  0.00     0.007 C 
BRANCH   5   6
ATOM      6  C   UNL A   1      31.021  26.285  25.007  1.00  0.00     0.070 C 
BRANCH   6   7
ATOM      7  C   UNL A   1      30.216  24.961  25.133  1.00  0.00     0.211 C 
BRANCH   7   8
ATOM      8  N   UNL A   1      29.552  24.926  26.444  1.00  0.00    -0.351 N 
ATOM      9  H   UNL A   1      28.641  25.380  26.376  1.00  0.00     0.345 HD
ATOM     10  H   UNL A   1      30.127  25.417  27.129  1.00  0.00     0.345 HD
ATOM     11  H   UNL A   1      29.428  23.957  26.736  1.00  0.00     0.345 HD
ENDBRANCH   7   8
BRANCH   7  12
ATOM     12  C   UNL A   1      30.982  23.681  24.817  1.00  0.00     0.009 A 
ATOM     13  C   UNL A   1      31.396  22.819  25.844  1.00  0.00     0.010 A 
ATOM     14  C   UNL A   1      31.327  23.326  23.503  1.00  0.00     0.010 A 
ATOM     15  C   UNL A   1      31.997  21.585  25.560  1.00  0.00     0.009 A 
ATOM     16  C   UNL A   1      31.942  22.102  23.218  1.00  0.00     0.009 A 
ATOM     17  C   UNL A   1      32.245  21.195  24.240  1.00  0.00    -0.018 A 
BRANCH  17  18
ATOM     18  C   UNL A   1      32.764  19.862  23.924  1.00  0.00    -0.018 A 
ATOM     19  C   UNL A   1      32.220  19.129  22.856  1.00  0.00     0.009 A 
ATOM     20  C   UNL A   1      33.805  19.288  24.668  1.00  0.00     0.009 A 
ATOM     21  C   UNL A   1      32.699  17.855  22.541  1.00  0.00     0.001 A 
ATOM     22  C   UNL A   1      34.289  18.017  24.350  1.00  0.00     0.001 A 
ATOM     23  C   UNL A   1      33.736  17.301  23.289  1.00  0.00     0.000 A 
ENDBRANCH  17  18
ENDBRANCH   7  12
ENDBRANCH   6   7
ENDBRANCH   5   6
ENDBRANCH   4   5
ENDBRANCH   3   4
ENDBRANCH   1   3
BRANCH   1  24
ATOM     24  O   UNL A   1      35.890  23.641  24.614  1.00  0.00    -0.462 OA
BRANCH  24  25
ATOM     25  C   UNL A   1      35.812  22.325  24.037  1.00  0.00     0.274 C 
BRANCH  25  26
ATOM     26  C   UNL A   1      37.069  21.501  24.328  1.00  0.00     0.275 C 
BRANCH  26  27
ATOM     27  O   UNL A   1      37.408  21.506  25.728  1.00  0.00    -0.458 OA
BRANCH  27  28
ATOM     28  C   UNL A   1      38.704  21.247  26.009  1.00  0.00     0.338 C 
ATOM     29  O   UNL A   1      39.316  20.207  25.813  1.00  0.00    -0.246 OA
BRANCH  28  30
ATOM     30  C   UNL A   1      39.353  22.455  26.533  1.00  0.00     0.060 A 
ATOM     31  C   UNL A   1      38.814  23.701  26.201  1.00  0.00     0.016 A 
ATOM     32  C   UNL A   1      40.549  22.369  27.246  1.00  0.00     0.016 A 
ATOM     33  C   UNL A   1      39.471  24.871  26.572  1.00  0.00     0.010 A 
ATOM     34  C   UNL A   1      41.203  23.545  27.628  1.00  0.00     0.010 A 
ATOM     35  C   UNL A   1      40.676  24.803  27.282  1.00  0.00    -0.014 A 
BRANCH  35  36
ATOM     36  C   UNL A   1      41.416  26.044  27.618  1.00  0.00     0.031 A 
ATOM     37  C   UNL A   1      40.797  27.058  28.538  1.00  0.00     0.074 A 
ATOM     38  C   UNL A   1      42.639  26.263  27.102  1.00  0.00     0.049 A 
ATOM     39  N   UNL A   1      41.212  28.262  28.839  1.00  0.00    -0.248 NA
ATOM     40  C   UNL A   1      39.545  26.665  29.204  1.00  0.00     0.031 C 
ATOM     41  C   UNL A   1      43.379  25.336  26.247  1.00  0.00     0.029 A 
ATOM     42  N   UNL A   1      43.472  27.348  27.223  1.00  0.00    -0.354 N 
ATOM     43  C   UNL A   1      40.252  28.788  29.694  1.00  0.00     0.074 A 
ATOM     44  C   UNL A   1      39.237  27.771  29.868  1.00  0.00     0.031 C 
ATOM     45  C   UNL A   1      44.560  25.888  25.924  1.00  0.00     0.029 A 
ATOM     46  C   UNL A   1      44.634  27.226  26.502  1.00  0.00     0.049 A 
ATOM     47  H   UNL A   1      43.258  28.135  27.774  1.00  0.00     0.167 HD
ATOM     48  C   UNL A   1      40.216  30.011  30.272  1.00  0.00     0.031 A 
ATOM     49  C   UNL A   1      45.630  28.108  26.297  1.00  0.00     0.031 A 
ATOM     50  C   UNL A   1      41.233  31.017  30.116  1.00  0.00     0.049 A 
ATOM     51  C   UNL A   1      45.543  29.477  26.909  1.00  0.00     0.074 A 
ATOM     52  C   UNL A   1      41.287  32.283  30.672  1.00  0.00     0.029 A 
ATOM     53  N   UNL A   1      42.377  30.866  29.348  1.00  0.00    -0.354 N 
ATOM     54  N   UNL A   1      44.613  29.976  27.688  1.00  0.00    -0.248 NA
ATOM     55  C   UNL A   1      46.637  30.409  26.602  1.00  0.00     0.031 C 
ATOM     56  C   UNL A   1      42.451  32.912  30.213  1.00  0.00     0.029 A 
ATOM     57  C   UNL A   1      43.137  32.022  29.404  1.00  0.00     0.049 A 
ATOM     58  H   UNL A   1      42.613  30.058  28.839  1.00  0.00     0.167 HD
ATOM     59  C   UNL A   1      45.016  31.273  27.973  1.00  0.00     0.074 A 
ATOM     60  C   UNL A   1      46.280  31.480  27.299  1.00  0.00     0.031 C 
ATOM     61  C   UNL A   1      44.391  32.210  28.726  1.00  0.00     0.031 A 
BRANCH  48  62
ATOM     62  C   UNL A   1      39.009  30.347  31.100  1.00  0.00    -0.014 A 
ATOM     63  C   UNL A   1      37.848  30.877  30.518  1.00  0.00     0.009 A 
ATOM     64  C   UNL A   1      39.028  30.097  32.481  1.00  0.00     0.009 A 
ATOM     65  C   UNL A   1      36.737  31.177  31.312  1.00  0.00     0.001 A 
ATOM     66  C   UNL A   1      37.909  30.377  33.267  1.00  0.00     0.001 A 
ATOM     67  C   UNL A   1      36.767  30.924  32.683  1.00  0.00     0.000 A 
ENDBRANCH  48  62
BRANCH  49  68
ATOM     68  C   UNL A   1      46.783  27.738  25.437  1.00  0.00    -0.014 A 
ATOM     69  C   UNL A   1      46.754  27.997  24.059  1.00  0.00     0.009 A 
ATOM     70  C   UNL A   1      47.915  27.122  25.992  1.00  0.00     0.009 A 
ATOM     71  C   UNL A   1      47.832  27.631  23.251  1.00  0.00     0.001 A 
ATOM     72  C   UNL A   1      49.001  26.779  25.185  1.00  0.00     0.001 A 
ATOM     73  C   UNL A   1      48.956  27.027  23.815  1.00  0.00     0.000 A 
ENDBRANCH  49  68
BRANCH  61  74
ATOM     74  C   UNL A   1      45.084  33.532  28.880  1.00  0.00    -0.014 A 
ATOM     75  C   UNL A   1      44.820  34.595  28.002  1.00  0.00     0.009 A 
ATOM     76  C   UNL A   1      45.989  33.726  29.934  1.00  0.00     0.009 A 
ATOM     77  C   UNL A   1      45.472  35.819  28.163  1.00  0.00     0.001 A 
ATOM     78  C   UNL A   1      46.623  34.956  30.105  1.00  0.00     0.001 A 
ATOM     79  C   UNL A   1      46.370  35.999  29.215  1.00  0.00     0.000 A 
ENDBRANCH  61  74
ENDBRANCH  35  36
ENDBRANCH  28  30
ENDBRANCH  27  28
ENDBRANCH  26  27
ENDBRANCH  25  26
ENDBRANCH  24  25
ENDBRANCH   1  24
TORSDOF 18
ENDMDL
MODEL 2
REMARK VINA RESULT:     -10.5      2.451      6.081
REMARK SMILES [NH3+][C@@H](CCCCC(=O)OCCOC(=O)c1ccc(-c2c3nc(c(-c4ccccc4)c4ccc([nH]4)c(-c4ccccc4)c4nc(c(-c5ccccc5)c5ccc2[nH]5)C=C4)C=C3)cc1)c1ccc(-c2ccccc2)cc1
REMARK SMILES IDX 7 1 8 2 6 3 5 4 4 5 3 6 2 7 1 8 63 12 64 13 74 14 65 15
REMARK SMILES IDX 73 16 66 17 67 18 68 19 72 20 69 21 71 22 70 23 9 24 10 25
REMARK SMILES IDX 11 26 12 27 13 28 14 29 15 30 16 31 62 32 17 33 61 34 18 35
REMARK SMILES IDX 19 36 20 37 55 38 21 39 60 40 54 41 56 42 22 43 59 44 53 45
REMARK SMILES IDX 52 46 23 48 45 49 30 50 44 51 31 52 34 53 43 54 57 55 32 56
REMARK SMILES IDX 33 57 42 59 58 60 35 61 24 62 25 63 29 64 26 65 28 66 27 67
REMARK SMILES IDX 46 68 47 69 51 70 48 71 50 72 49 73 36 74 37 75 41 76 38 77
REMARK SMILES IDX 40 78 39 79
REMARK H PARENT 1 9 1 10 1 11 56 47 34 58
REMARK Flexibility Score: inf
ROOT
ATOM      1  C   UNL A   1      36.678  22.655  23.892  1.00  0.00     0.305 C 
ATOM      2  O   UNL A   1      36.421  22.964  22.734  1.00  0.00    -0.252 OA
ENDROOT
BRANCH   1   3
ATOM      3  C   UNL A   1      36.847  23.694  24.971  1.00  0.00     0.123 C 
BRANCH   3   4
ATOM      4  C   UNL A   1      35.593  24.110  25.739  1.00  0.00     0.012 C 
BRANCH   4   5
ATOM      5  C   UNL A   1      34.741  25.172  25.035  1.00  0.00     0.007 C 
BRANCH   5   6
ATOM      6  C   UNL A   1      33.475  25.662  25.769  1.00  0.00     0.070 C 
BRANCH   6   7
ATOM      7  C   UNL A   1      32.165  24.835  25.627  1.00  0.00     0.211 C 
BRANCH   7   8
ATOM      8  N   UNL A   1      31.355  25.008  26.841  1.00  0.00    -0.351 N 
ATOM      9  H   UNL A   1      31.169  26.001  26.988  1.00  0.00     0.345 HD
ATOM     10  H   UNL A   1      31.862  24.634  27.643  1.00  0.00     0.345 HD
ATOM     11  H   UNL A   1      30.472  24.509  26.734  1.00  0.00     0.345 HD
ENDBRANCH   7   8
BRANCH   7  12
ATOM     12  C   UNL A   1      32.337  23.375  25.227  1.00  0.00     0.009 A 
ATOM     13  C   UNL A   1      32.296  22.989  23.877  1.00  0.00     0.010 A 
ATOM     14  C   UNL A   1      32.514  22.358  26.179  1.00  0.00     0.010 A 
ATOM     15  C   UNL A   1      32.568  21.671  23.488  1.00  0.00     0.009 A 
ATOM     16  C   UNL A   1      32.770  21.037  25.793  1.00  0.00     0.009 A 
ATOM     17  C   UNL A   1      32.844  20.685  24.441  1.00  0.00    -0.018 A 
BRANCH  17  18
ATOM     18  C   UNL A   1      33.243  19.332  24.044  1.00  0.00    -0.018 A 
ATOM     19  C   UNL A   1      34.373  18.732  24.625  1.00  0.00     0.009 A 
ATOM     20  C   UNL A   1      32.520  18.609  23.085  1.00  0.00     0.009 A 
ATOM     21  C   UNL A   1      34.772  17.445  24.257  1.00  0.00     0.001 A 
ATOM     22  C   UNL A   1      32.915  17.318  22.721  1.00  0.00     0.001 A 
ATOM     23  C   UNL A   1      34.041  16.738  23.305  1.00  0.00     0.000 A 
ENDBRANCH  17  18
ENDBRANCH   7  12
ENDBRANCH   6   7
ENDBRANCH   5   6
ENDBRANCH   4   5
ENDBRANCH   3   4
ENDBRANCH   1   3
BRANCH   1  24
ATOM     24  O   UNL A   1      36.895  21.389  24.327  1.00  0.00    -0.462 OA
BRANCH  24  25
ATOM     25  C   UNL A   1      37.931  21.243  25.316  1.00  0.00     0.274 C 
BRANCH  25  26
ATOM     26  C   UNL A   1      38.818  20.028  25.035  1.00  0.00     0.275 C 
BRANCH  26  27
ATOM     27  O   UNL A   1      39.563  19.621  26.199  1.00  0.00    -0.458 OA
BRANCH  27  28
ATOM     28  C   UNL A   1      40.907  19.669  26.069  1.00  0.00     0.338 C 
ATOM     29  O   UNL A   1      41.636  18.840  25.546  1.00  0.00    -0.246 OA
BRANCH  28  30
ATOM     30  C   UNL A   1      41.414  20.947  26.588  1.00  0.00     0.060 A 
ATOM     31  C   UNL A   1      41.223  21.241  27.941  1.00  0.00     0.016 A 
ATOM     32  C   UNL A   1      41.967  21.895  25.728  1.00  0.00     0.016 A 
ATOM     33  C   UNL A   1      41.575  22.492  28.443  1.00  0.00     0.010 A 
ATOM     34  C   UNL A   1      42.330  23.147  26.235  1.00  0.00     0.010 A 
ATOM     35  C   UNL A   1      42.124  23.459  27.592  1.00  0.00    -0.014 A 
BRANCH  35  36
ATOM     36  C   UNL A   1      42.435  24.815  28.105  1.00  0.00     0.031 A 
ATOM     37  C   UNL A   1      43.838  25.153  28.524  1.00  0.00     0.074 A 
ATOM     38  C   UNL A   1      41.466  25.744  28.195  1.00  0.00     0.049 A 
ATOM     39  N   UNL A   1      44.284  26.223  29.129  1.00  0.00    -0.248 NA
ATOM     40  C   UNL A   1      44.874  24.151  28.224  1.00  0.00     0.031 C 
ATOM     41  C   UNL A   1      40.078  25.567  27.767  1.00  0.00     0.029 A 
ATOM     42  N   UNL A   1      41.506  27.025  28.687  1.00  0.00    -0.354 N 
ATOM     43  C   UNL A   1      45.643  26.008  29.323  1.00  0.00     0.074 A 
ATOM     44  C   UNL A   1      45.949  24.708  28.765  1.00  0.00     0.031 C 
ATOM     45  C   UNL A   1      39.400  26.701  28.009  1.00  0.00     0.029 A 
ATOM     46  C   UNL A   1      40.288  27.658  28.659  1.00  0.00     0.049 A 
ATOM     47  H   UNL A   1      42.328  27.448  29.026  1.00  0.00     0.167 HD
ATOM     48  C   UNL A   1      46.549  26.817  29.919  1.00  0.00     0.031 A 
ATOM     49  C   UNL A   1      39.920  28.861  29.137  1.00  0.00     0.031 A 
ATOM     50  C   UNL A   1      46.251  28.117  30.457  1.00  0.00     0.049 A 
ATOM     51  C   UNL A   1      40.933  29.719  29.841  1.00  0.00     0.074 A 
ATOM     52  C   UNL A   1      47.108  29.014  31.072  1.00  0.00     0.029 A 
ATOM     53  N   UNL A   1      44.998  28.708  30.440  1.00  0.00    -0.354 N 
ATOM     54  N   UNL A   1      42.207  29.490  30.048  1.00  0.00    -0.248 NA
ATOM     55  C   UNL A   1      40.452  30.996  30.387  1.00  0.00     0.031 C 
ATOM     56  C   UNL A   1      46.364  30.136  31.456  1.00  0.00     0.029 A 
ATOM     57  C   UNL A   1      45.054  29.952  31.045  1.00  0.00     0.049 A 
ATOM     58  H   UNL A   1      44.188  28.303  30.053  1.00  0.00     0.167 HD
ATOM     59  C   UNL A   1      42.682  30.598  30.738  1.00  0.00     0.074 A 
ATOM     60  C   UNL A   1      41.566  31.505  30.898  1.00  0.00     0.031 C 
ATOM     61  C   UNL A   1      43.934  30.840  31.197  1.00  0.00     0.031 A 
BRANCH  48  62
ATOM     62  C   UNL A   1      47.950  26.296  30.061  1.00  0.00    -0.014 A 
ATOM     63  C   UNL A   1      48.403  25.731  31.263  1.00  0.00     0.009 A 
ATOM     64  C   UNL A   1      48.819  26.344  28.960  1.00  0.00     0.009 A 
ATOM     65  C   UNL A   1      49.710  25.249  31.366  1.00  0.00     0.001 A 
ATOM     66  C   UNL A   1      50.118  25.842  29.060  1.00  0.00     0.001 A 
ATOM     67  C   UNL A   1      50.565  25.302  30.265  1.00  0.00     0.000 A 
ENDBRANCH  48  62
BRANCH  49  68
ATOM     68  C   UNL A   1      38.511  29.312  29.006  1.00  0.00    -0.014 A 
ATOM     69  C   UNL A   1      38.047  29.853  27.798  1.00  0.00     0.009 A 
ATOM     70  C   UNL A   1      37.627  29.205  30.090  1.00  0.00     0.009 A 
ATOM     71  C   UNL A   1      36.727  30.293  27.685  1.00  0.00     0.001 A 
ATOM     72  C   UNL A   1      36.301  29.624  29.966  1.00  0.00     0.001 A 
ATOM     73  C   UNL A   1      35.854  30.173  28.767  1.00  0.00     0.000 A 
ENDBRANCH  49  68
BRANCH  61  74
ATOM     74  C   UNL A   1      44.162  32.150  31.892  1.00  0.00    -0.014 A 
ATOM     75  C   UNL A   1      44.486  33.307  31.167  1.00  0.00     0.009 A 
ATOM     76  C   UNL A   1      44.019  32.234  33.285  1.00  0.00     0.009 A 
ATOM     77  C   UNL A   1      44.691  34.519  31.830  1.00  0.00     0.001 A 
ATOM     78  C   UNL A   1      44.204  33.450  33.943  1.00  0.00     0.001 A 
ATOM     79  C   UNL A   1      44.548  34.589  33.216  1.00  0.00     0.000 A 
ENDBRANCH  61  74
ENDBRANCH  35  36
ENDBRANCH  28  30
ENDBRANCH  27  28
ENDBRANCH  26  27
ENDBRANCH  25  26
ENDBRANCH  24  25
ENDBRANCH   1  24
TORSDOF 18
ENDMDL
MODEL 3
REMARK VINA RESULT:     -10.5      2.224      2.948
REMARK SMILES [NH3+][C@@H](CCCCC(=O)OCCOC(=O)c1ccc(-c2c3nc(c(-c4ccccc4)c4ccc([nH]4)c(-c4ccccc4)c4nc(c(-c5ccccc5)c5ccc2[nH]5)C=C4)C=C3)cc1)c1ccc(-c2ccccc2)cc1
REMARK SMILES IDX 7 1 8 2 6 3 5 4 4 5 3 6 2 7 1 8 63 12 64 13 74 14 65 15
REMARK SMILES IDX 73 16 66 17 67 18 68 19 72 20 69 21 71 22 70 23 9 24 10 25
REMARK SMILES IDX 11 26 12 27 13 28 14 29 15 30 16 31 62 32 17 33 61 34 18 35
REMARK SMILES IDX 19 36 20 37 55 38 21 39 60 40 54 41 56 42 22 43 59 44 53 45
REMARK SMILES IDX 52 46 23 48 45 49 30 50 44 51 31 52 34 53 43 54 57 55 32 56
REMARK SMILES IDX 33 57 42 59 58 60 35 61 24 62 25 63 29 64 26 65 28 66 27 67
REMARK SMILES IDX 46 68 47 69 51 70 48 71 50 72 49 73 36 74 37 75 41 76 38 77
REMARK SMILES IDX 40 78 39 79
REMARK H PARENT 1 9 1 10 1 11 56 47 34 58
REMARK Flexibility Score: inf
ROOT
ATOM      1  C   UNL A   1      36.377  22.006  25.320  1.00  0.00     0.305 C 
ATOM      2  O   UNL A   1      35.736  21.449  26.205  1.00  0.00    -0.252 OA
ENDROOT
BRANCH   1   3
ATOM      3  C   UNL A   1      35.918  23.304  24.705  1.00  0.00     0.123 C 
BRANCH   3   4
ATOM      4  C   UNL A   1      35.341  24.356  25.651  1.00  0.00     0.012 C 
BRANCH   4   5
ATOM      5  C   UNL A   1      34.383  25.350  24.987  1.00  0.00     0.007 C 
BRANCH   5   6
ATOM      6  C   UNL A   1      33.086  25.699  25.749  1.00  0.00     0.070 C 
BRANCH   6   7
ATOM      7  C   UNL A   1      31.807  24.863  25.464  1.00  0.00     0.211 C 
BRANCH   7   8
ATOM      8  N   UNL A   1      30.872  25.019  26.586  1.00  0.00    -0.351 N 
ATOM      9  H   UNL A   1      30.250  25.809  26.404  1.00  0.00     0.345 HD
ATOM     10  H   UNL A   1      31.396  25.191  27.444  1.00  0.00     0.345 HD
ATOM     11  H   UNL A   1      30.319  24.169  26.690  1.00  0.00     0.345 HD
ENDBRANCH   7   8
BRANCH   7  12
ATOM     12  C   UNL A   1      32.033  23.407  25.074  1.00  0.00     0.009 A 
ATOM     13  C   UNL A   1      32.108  23.027  23.724  1.00  0.00     0.010 A 
ATOM     14  C   UNL A   1      32.148  22.389  26.034  1.00  0.00     0.010 A 
ATOM     15  C   UNL A   1      32.431  21.714  23.355  1.00  0.00     0.009 A 
ATOM     16  C   UNL A   1      32.455  21.073  25.666  1.00  0.00     0.009 A 
ATOM     17  C   UNL A   1      32.644  20.728  24.324  1.00  0.00    -0.018 A 
BRANCH  17  18
ATOM     18  C   UNL A   1      33.095  19.384  23.956  1.00  0.00    -0.018 A 
ATOM     19  C   UNL A   1      34.220  18.822  24.583  1.00  0.00     0.009 A 
ATOM     20  C   UNL A   1      32.426  18.629  22.982  1.00  0.00     0.009 A 
ATOM     21  C   UNL A   1      34.669  17.544  24.244  1.00  0.00     0.001 A 
ATOM     22  C   UNL A   1      32.870  17.347  22.647  1.00  0.00     0.001 A 
ATOM     23  C   UNL A   1      33.991  16.806  23.276  1.00  0.00     0.000 A 
ENDBRANCH  17  18
ENDBRANCH   7  12
ENDBRANCH   6   7
ENDBRANCH   5   6
ENDBRANCH   4   5
ENDBRANCH   3   4
ENDBRANCH   1   3
BRANCH   1  24
ATOM     24  O   UNL A   1      37.509  21.517  24.758  1.00  0.00    -0.462 OA
BRANCH  24  25
ATOM     25  C   UNL A   1      38.534  21.110  25.683  1.00  0.00     0.274 C 
BRANCH  25  26
ATOM     26  C   UNL A   1      39.207  19.805  25.248  1.00  0.00     0.275 C 
BRANCH  26  27
ATOM     27  O   UNL A   1      40.213  19.377  26.186  1.00  0.00    -0.458 OA
BRANCH  27  28
ATOM     28  C   UNL A   1      41.464  19.823  25.933  1.00  0.00     0.338 C 
ATOM     29  O   UNL A   1      42.323  19.286  25.250  1.00  0.00    -0.246 OA
BRANCH  28  30
ATOM     30  C   UNL A   1      41.656  21.145  26.544  1.00  0.00     0.060 A 
ATOM     31  C   UNL A   1      42.079  22.201  25.732  1.00  0.00     0.016 A 
ATOM     32  C   UNL A   1      41.536  21.317  27.922  1.00  0.00     0.016 A 
ATOM     33  C   UNL A   1      42.393  23.436  26.294  1.00  0.00     0.010 A 
ATOM     34  C   UNL A   1      41.841  22.560  28.485  1.00  0.00     0.010 A 
ATOM     35  C   UNL A   1      42.285  23.623  27.677  1.00  0.00    -0.014 A 
BRANCH  35  36
ATOM     36  C   UNL A   1      42.685  24.913  28.290  1.00  0.00     0.031 A 
ATOM     37  C   UNL A   1      41.653  25.976  28.538  1.00  0.00     0.074 A 
ATOM     38  C   UNL A   1      43.970  25.134  28.624  1.00  0.00     0.049 A 
ATOM     39  N   UNL A   1      41.819  27.215  28.924  1.00  0.00    -0.248 NA
ATOM     40  C   UNL A   1      40.249  25.594  28.318  1.00  0.00     0.031 C 
ATOM     41  C   UNL A   1      45.060  24.167  28.494  1.00  0.00     0.029 A 
ATOM     42  N   UNL A   1      44.573  26.254  29.140  1.00  0.00    -0.354 N 
ATOM     43  C   UNL A   1      40.548  27.774  28.953  1.00  0.00     0.074 A 
ATOM     44  C   UNL A   1      39.620  26.738  28.550  1.00  0.00     0.031 C 
ATOM     45  C   UNL A   1      46.199  24.733  28.925  1.00  0.00     0.029 A 
ATOM     46  C   UNL A   1      45.929  26.116  29.305  1.00  0.00     0.049 A 
ATOM     47  H   UNL A   1      44.082  27.076  29.369  1.00  0.00     0.167 HD
ATOM     48  C   UNL A   1      40.189  29.039  29.277  1.00  0.00     0.031 A 
ATOM     49  C   UNL A   1      46.857  27.014  29.685  1.00  0.00     0.031 A 
ATOM     50  C   UNL A   1      41.106  30.064  29.695  1.00  0.00     0.049 A 
ATOM     51  C   UNL A   1      46.440  28.425  29.989  1.00  0.00     0.074 A 
ATOM     52  C   UNL A   1      40.833  31.373  30.053  1.00  0.00     0.029 A 
ATOM     53  N   UNL A   1      42.476  29.893  29.816  1.00  0.00    -0.354 N 
ATOM     54  N   UNL A   1      45.240  28.951  29.980  1.00  0.00    -0.248 NA
ATOM     55  C   UNL A   1      47.510  29.367  30.345  1.00  0.00     0.031 C 
ATOM     56  C   UNL A   1      42.044  32.005  30.360  1.00  0.00     0.029 A 
ATOM     57  C   UNL A   1      43.064  31.076  30.230  1.00  0.00     0.049 A 
ATOM     58  H   UNL A   1      42.959  29.055  29.636  1.00  0.00     0.167 HD
ATOM     59  C   UNL A   1      45.408  30.282  30.338  1.00  0.00     0.074 A 
ATOM     60  C   UNL A   1      46.823  30.478  30.576  1.00  0.00     0.031 C 
ATOM     61  C   UNL A   1      44.473  31.254  30.459  1.00  0.00     0.031 A 
BRANCH  48  62
ATOM     62  C   UNL A   1      38.737  29.397  29.147  1.00  0.00    -0.014 A 
ATOM     63  C   UNL A   1      38.193  29.821  27.925  1.00  0.00     0.009 A 
ATOM     64  C   UNL A   1      37.894  29.277  30.264  1.00  0.00     0.009 A 
ATOM     65  C   UNL A   1      36.837  30.144  27.832  1.00  0.00     0.001 A 
ATOM     66  C   UNL A   1      36.535  29.580  30.162  1.00  0.00     0.001 A 
ATOM     67  C   UNL A   1      36.009  30.020  28.948  1.00  0.00     0.000 A 
ENDBRANCH  48  62
BRANCH  49  68
ATOM     68  C   UNL A   1      48.286  26.617  29.758  1.00  0.00    -0.014 A 
ATOM     69  C   UNL A   1      49.130  26.789  28.651  1.00  0.00     0.009 A 
ATOM     70  C   UNL A   1      48.811  26.063  30.935  1.00  0.00     0.009 A 
ATOM     71  C   UNL A   1      50.468  26.397  28.717  1.00  0.00     0.001 A 
ATOM     72  C   UNL A   1      50.156  25.695  31.007  1.00  0.00     0.001 A 
ATOM     73  C   UNL A   1      50.981  25.855  29.896  1.00  0.00     0.000 A 
ENDBRANCH  49  68
BRANCH  61  74
ATOM     74  C   UNL A   1      44.951  32.609  30.893  1.00  0.00    -0.014 A 
ATOM     75  C   UNL A   1      45.239  33.610  29.953  1.00  0.00     0.009 A 
ATOM     76  C   UNL A   1      45.085  32.895  32.260  1.00  0.00     0.009 A 
ATOM     77  C   UNL A   1      45.680  34.866  30.376  1.00  0.00     0.001 A 
ATOM     78  C   UNL A   1      45.505  34.157  32.680  1.00  0.00     0.001 A 
ATOM     79  C   UNL A   1      45.810  35.138  31.738  1.00  0.00     0.000 A 
ENDBRANCH  61  74
ENDBRANCH  35  36
ENDBRANCH  28  30
ENDBRANCH  27  28
ENDBRANCH  26  27
ENDBRANCH  25  26
ENDBRANCH  24  25
ENDBRANCH   1  24
TORSDOF 18
ENDMDL
