MODEL 1
REMARK VINA RESULT:     -10.0      0.000      0.000
REMARK SMILES Cc1csc(C[NH2+]C[C@H]2CCC[C@H]2C(=O)OCCOC(=O)c2ccc(-c3c4nc(c(-c5ccccc5)c5ccc([nH]5)c(-c5ccccc5)c5nc(c(-c6ccccc6)c6ccc3[nH]6)C=C5)C=C4)cc2)n1
REMARK SMILES IDX 17 1 16 2 14 3 15 4 13 5 9 6 10 7 11 8 12 9 8 10 7 11 6 14
REMARK SMILES IDX 5 15 1 16 2 17 3 18 70 19 4 20 18 21 19 22 20 23 21 24 22 25
REMARK SMILES IDX 23 26 69 27 24 28 68 29 25 30 26 31 27 32 62 33 28 34 67 35
REMARK SMILES IDX 61 36 63 37 29 38 66 39 60 40 59 41 30 43 52 44 37 45 51 46
REMARK SMILES IDX 38 47 41 48 50 49 64 50 39 51 40 52 49 54 65 55 42 56 31 57
REMARK SMILES IDX 32 58 36 59 33 60 35 61 34 62 53 63 54 64 58 65 55 66 57 67
REMARK SMILES IDX 56 68 43 69 44 70 48 71 45 72 47 73 46 74
REMARK H PARENT 7 12 7 13 63 42 41 53
REMARK Flexibility Score: inf
ROOT
ATOM      1  C   UNL A   1      38.628  21.317  25.750  1.00  0.00     0.274 C 
ENDROOT
BRANCH   1   2
ATOM      2  O   UNL A   1      37.741  21.765  24.707  1.00  0.00    -0.462 OA
BRANCH   2   3
ATOM      3  C   UNL A   1      36.433  21.881  25.027  1.00  0.00     0.309 C 
ATOM      4  O   UNL A   1      35.826  21.107  25.759  1.00  0.00    -0.252 OA
BRANCH   3   5
ATOM      5  C   UNL A   1      35.745  23.069  24.384  1.00  0.00     0.108 C 
ATOM      6  C   UNL A   1      34.462  22.910  23.541  1.00  0.00     0.058 C 
ATOM      7  C   UNL A   1      34.136  24.396  23.307  1.00  0.00     0.010 C 
ATOM      8  C   UNL A   1      34.407  25.074  24.648  1.00  0.00     0.001 C 
ATOM      9  C   UNL A   1      35.414  24.181  25.377  1.00  0.00     0.016 C 
BRANCH   6  10
ATOM     10  C   UNL A   1      33.322  22.126  24.230  1.00  0.00     0.265 C 
BRANCH  10  11
ATOM     11  N   UNL A   1      33.288  20.687  23.998  1.00  0.00    -0.340 N 
ATOM     12  H   UNL A   1      32.899  20.521  23.069  1.00  0.00     0.346 HD
ATOM     13  H   UNL A   1      34.247  20.352  24.090  1.00  0.00     0.346 HD
BRANCH  11  14
ATOM     14  C   UNL A   1      32.485  19.939  24.972  1.00  0.00     0.329 C 
BRANCH  14  15
ATOM     15  C   UNL A   1      32.939  18.499  25.029  1.00  0.00     0.147 A 
ATOM     16  C   UNL A   1      32.223  15.066  25.839  1.00  0.00     0.067 C 
ATOM     17  C   UNL A   1      32.888  16.303  25.360  1.00  0.00     0.049 A 
ATOM     18  C   UNL A   1      34.102  16.399  24.709  1.00  0.00     0.090 A 
ATOM     19  N   UNL A   1      32.242  17.511  25.557  1.00  0.00    -0.241 NA
ATOM     20  S   UNL A   1      34.435  18.032  24.314  1.00  0.00    -0.121 S 
ENDBRANCH  14  15
ENDBRANCH  11  14
ENDBRANCH  10  11
ENDBRANCH   6  10
ENDBRANCH   3   5
ENDBRANCH   2   3
ENDBRANCH   1   2
BRANCH   1  21
ATOM     21  C   UNL A   1      39.266  19.970  25.392  1.00  0.00     0.275 C 
BRANCH  21  22
ATOM     22  O   UNL A   1      40.181  19.524  26.413  1.00  0.00    -0.458 OA
BRANCH  22  23
ATOM     23  C   UNL A   1      41.491  19.685  26.120  1.00  0.00     0.338 C 
ATOM     24  O   UNL A   1      42.207  18.934  25.480  1.00  0.00    -0.246 OA
BRANCH  23  25
ATOM     25  C   UNL A   1      41.942  21.011  26.572  1.00  0.00     0.060 A 
ATOM     26  C   UNL A   1      41.848  21.299  27.936  1.00  0.00     0.016 A 
ATOM     27  C   UNL A   1      42.372  21.985  25.671  1.00  0.00     0.016 A 
ATOM     28  C   UNL A   1      42.184  22.562  28.410  1.00  0.00     0.010 A 
ATOM     29  C   UNL A   1      42.705  23.258  26.147  1.00  0.00     0.010 A 
ATOM     30  C   UNL A   1      42.602  23.555  27.517  1.00  0.00    -0.014 A 
BRANCH  30  31
ATOM     31  C   UNL A   1      42.877  24.918  28.025  1.00  0.00     0.031 A 
ATOM     32  C   UNL A   1      44.289  25.339  28.311  1.00  0.00     0.074 A 
ATOM     33  C   UNL A   1      41.866  25.791  28.184  1.00  0.00     0.049 A 
ATOM     34  N   UNL A   1      44.732  26.469  28.798  1.00  0.00    -0.248 NA
ATOM     35  C   UNL A   1      45.342  24.359  28.001  1.00  0.00     0.031 C 
ATOM     36  C   UNL A   1      40.461  25.524  27.877  1.00  0.00     0.029 A 
ATOM     37  N   UNL A   1      41.872  27.086  28.635  1.00  0.00    -0.354 N 
ATOM     38  C   UNL A   1      46.112  26.334  28.868  1.00  0.00     0.074 A 
ATOM     39  C   UNL A   1      46.433  25.006  28.388  1.00  0.00     0.031 C 
ATOM     40  C   UNL A   1      39.740  26.627  28.138  1.00  0.00     0.029 A 
ATOM     41  C   UNL A   1      40.625  27.659  28.671  1.00  0.00     0.049 A 
ATOM     42  H   UNL A   1      42.691  27.560  28.907  1.00  0.00     0.167 HD
ATOM     43  C   UNL A   1      47.030  27.234  29.295  1.00  0.00     0.031 A 
ATOM     44  C   UNL A   1      40.237  28.872  29.108  1.00  0.00     0.031 A 
ATOM     45  C   UNL A   1      46.711  28.551  29.779  1.00  0.00     0.049 A 
ATOM     46  C   UNL A   1      41.265  29.820  29.657  1.00  0.00     0.074 A 
ATOM     47  C   UNL A   1      47.571  29.532  30.244  1.00  0.00     0.029 A 
ATOM     48  N   UNL A   1      45.429  29.070  29.862  1.00  0.00    -0.354 N 
ATOM     49  N   UNL A   1      42.564  29.672  29.740  1.00  0.00    -0.248 NA
ATOM     50  C   UNL A   1      40.768  31.102  30.179  1.00  0.00     0.031 C 
ATOM     51  C   UNL A   1      46.803  30.631  30.646  1.00  0.00     0.029 A 
ATOM     52  C   UNL A   1      45.471  30.350  30.389  1.00  0.00     0.049 A 
ATOM     53  H   UNL A   1      44.610  28.598  29.588  1.00  0.00     0.167 HD
ATOM     54  C   UNL A   1      43.043  30.845  30.308  1.00  0.00     0.074 A 
ATOM     55  C   UNL A   1      41.895  31.701  30.534  1.00  0.00     0.031 C 
ATOM     56  C   UNL A   1      44.319  31.183  30.613  1.00  0.00     0.031 A 
BRANCH  43  57
ATOM     57  C   UNL A   1      48.466  26.800  29.294  1.00  0.00    -0.014 A 
ATOM     58  C   UNL A   1      49.032  26.149  30.401  1.00  0.00     0.009 A 
ATOM     59  C   UNL A   1      49.260  27.031  28.160  1.00  0.00     0.009 A 
ATOM     60  C   UNL A   1      50.375  25.767  30.383  1.00  0.00     0.001 A 
ATOM     61  C   UNL A   1      50.596  26.628  28.137  1.00  0.00     0.001 A 
ATOM     62  C   UNL A   1      51.155  26.004  29.252  1.00  0.00     0.000 A 
ENDBRANCH  43  57
BRANCH  44  63
ATOM     63  C   UNL A   1      38.801  29.249  29.068  1.00  0.00    -0.014 A 
ATOM     64  C   UNL A   1      37.971  29.012  30.173  1.00  0.00     0.009 A 
ATOM     65  C   UNL A   1      38.255  29.846  27.921  1.00  0.00     0.009 A 
ATOM     66  C   UNL A   1      36.617  29.351  30.124  1.00  0.00     0.001 A 
ATOM     67  C   UNL A   1      36.906  30.206  27.884  1.00  0.00     0.001 A 
ATOM     68  C   UNL A   1      36.088  29.952  28.982  1.00  0.00     0.000 A 
ENDBRANCH  44  63
BRANCH  56  69
ATOM     69  C   UNL A   1      44.540  32.548  31.200  1.00  0.00    -0.014 A 
ATOM     70  C   UNL A   1      44.578  32.741  32.589  1.00  0.00     0.009 A 
ATOM     71  C   UNL A   1      44.743  33.646  30.350  1.00  0.00     0.009 A 
ATOM     72  C   UNL A   1      44.788  34.016  33.117  1.00  0.00     0.001 A 
ATOM     73  C   UNL A   1      44.975  34.915  30.881  1.00  0.00     0.001 A 
ATOM     74  C   UNL A   1      44.989  35.102  32.263  1.00  0.00     0.000 A 
ENDBRANCH  56  69
ENDBRANCH  30  31
ENDBRANCH  23  25
ENDBRANCH  22  23
ENDBRANCH  21  22
ENDBRANCH   1  21
TORSDOF 15
ENDMDL
MODEL 2
REMARK VINA RESULT:     -10.0      0.719      6.183
REMARK SMILES Cc1csc(C[NH2+]C[C@H]2CCC[C@H]2C(=O)OCCOC(=O)c2ccc(-c3c4nc(c(-c5ccccc5)c5ccc([nH]5)c(-c5ccccc5)c5nc(c(-c6ccccc6)c6ccc3[nH]6)C=C5)C=C4)cc2)n1
REMARK SMILES IDX 17 1 16 2 14 3 15 4 13 5 9 6 10 7 11 8 12 9 8 10 7 11 6 14
REMARK SMILES IDX 5 15 1 16 2 17 3 18 70 19 4 20 18 21 19 22 20 23 21 24 22 25
REMARK SMILES IDX 23 26 69 27 24 28 68 29 25 30 26 31 27 32 62 33 28 34 67 35
REMARK SMILES IDX 61 36 63 37 29 38 66 39 60 40 59 41 30 43 52 44 37 45 51 46
REMARK SMILES IDX 38 47 41 48 50 49 64 50 39 51 40 52 49 54 65 55 42 56 31 57
REMARK SMILES IDX 32 58 36 59 33 60 35 61 34 62 53 63 54 64 58 65 55 66 57 67
REMARK SMILES IDX 56 68 43 69 44 70 48 71 45 72 47 73 46 74
REMARK H PARENT 7 12 7 13 63 42 41 53
REMARK Flexibility Score: inf
ROOT
ATOM      1  C   UNL A   1      37.650  21.400  25.066  1.00  0.00     0.274 C 
ENDROOT
BRANCH   1   2
ATOM      2  O   UNL A   1      37.200  22.764  24.940  1.00  0.00    -0.462 OA
BRANCH   2   3
ATOM      3  C   UNL A   1      36.373  23.040  23.907  1.00  0.00     0.309 C 
ATOM      4  O   UNL A   1      36.668  22.898  22.725  1.00  0.00    -0.252 OA
BRANCH   3   5
ATOM      5  C   UNL A   1      35.017  23.567  24.328  1.00  0.00     0.108 C 
ATOM      6  C   UNL A   1      33.828  22.624  24.613  1.00  0.00     0.058 C 
ATOM      7  C   UNL A   1      32.817  23.654  25.145  1.00  0.00     0.010 C 
ATOM      8  C   UNL A   1      33.634  24.578  26.046  1.00  0.00     0.001 C 
ATOM      9  C   UNL A   1      35.080  24.480  25.551  1.00  0.00     0.016 C 
BRANCH   6  10
ATOM     10  C   UNL A   1      34.128  21.478  25.608  1.00  0.00     0.265 C 
BRANCH  10  11
ATOM     11  N   UNL A   1      33.018  20.591  25.933  1.00  0.00    -0.340 N 
ATOM     12  H   UNL A   1      33.327  19.943  26.658  1.00  0.00     0.346 HD
ATOM     13  H   UNL A   1      32.246  21.185  26.237  1.00  0.00     0.346 HD
BRANCH  11  14
ATOM     14  C   UNL A   1      32.523  19.806  24.796  1.00  0.00     0.329 C 
BRANCH  14  15
ATOM     15  C   UNL A   1      32.955  18.364  24.927  1.00  0.00     0.147 A 
ATOM     16  C   UNL A   1      32.158  14.973  25.829  1.00  0.00     0.067 C 
ATOM     17  C   UNL A   1      32.860  16.183  25.335  1.00  0.00     0.049 A 
ATOM     18  C   UNL A   1      34.104  16.241  24.737  1.00  0.00     0.090 A 
ATOM     19  N   UNL A   1      32.222  17.404  25.459  1.00  0.00    -0.241 NA
ATOM     20  S   UNL A   1      34.475  17.854  24.299  1.00  0.00    -0.121 S 
ENDBRANCH  14  15
ENDBRANCH  11  14
ENDBRANCH  10  11
ENDBRANCH   6  10
ENDBRANCH   3   5
ENDBRANCH   2   3
ENDBRANCH   1   2
BRANCH   1  21
ATOM     21  C   UNL A   1      39.020  21.332  25.750  1.00  0.00     0.275 C 
BRANCH  21  22
ATOM     22  O   UNL A   1      39.479  19.973  25.890  1.00  0.00    -0.458 OA
BRANCH  22  23
ATOM     23  C   UNL A   1      40.813  19.832  26.060  1.00  0.00     0.338 C 
ATOM     24  O   UNL A   1      41.506  18.879  25.747  1.00  0.00    -0.246 OA
BRANCH  23  25
ATOM     25  C   UNL A   1      41.385  21.088  26.571  1.00  0.00     0.060 A 
ATOM     26  C   UNL A   1      41.171  21.399  27.916  1.00  0.00     0.016 A 
ATOM     27  C   UNL A   1      42.048  21.985  25.733  1.00  0.00     0.016 A 
ATOM     28  C   UNL A   1      41.618  22.610  28.435  1.00  0.00     0.010 A 
ATOM     29  C   UNL A   1      42.492  23.206  26.254  1.00  0.00     0.010 A 
ATOM     30  C   UNL A   1      42.270  23.527  27.604  1.00  0.00    -0.014 A 
BRANCH  30  31
ATOM     31  C   UNL A   1      42.666  24.845  28.150  1.00  0.00     0.031 A 
ATOM     32  C   UNL A   1      41.627  25.906  28.371  1.00  0.00     0.074 A 
ATOM     33  C   UNL A   1      43.948  25.073  28.491  1.00  0.00     0.049 A 
ATOM     34  N   UNL A   1      41.777  27.133  28.798  1.00  0.00    -0.248 NA
ATOM     35  C   UNL A   1      40.235  25.533  28.077  1.00  0.00     0.031 C 
ATOM     36  C   UNL A   1      45.036  24.100  28.387  1.00  0.00     0.029 A 
ATOM     37  N   UNL A   1      44.545  26.195  29.005  1.00  0.00    -0.354 N 
ATOM     38  C   UNL A   1      40.503  27.685  28.811  1.00  0.00     0.074 A 
ATOM     39  C   UNL A   1      39.594  26.664  28.334  1.00  0.00     0.031 C 
ATOM     40  C   UNL A   1      46.169  24.666  28.836  1.00  0.00     0.029 A 
ATOM     41  C   UNL A   1      45.895  26.049  29.214  1.00  0.00     0.049 A 
ATOM     42  H   UNL A   1      44.055  27.025  29.204  1.00  0.00     0.167 HD
ATOM     43  C   UNL A   1      40.125  28.931  29.185  1.00  0.00     0.031 A 
ATOM     44  C   UNL A   1      46.810  26.939  29.640  1.00  0.00     0.031 A 
ATOM     45  C   UNL A   1      41.029  29.948  29.652  1.00  0.00     0.049 A 
ATOM     46  C   UNL A   1      46.378  28.341  29.967  1.00  0.00     0.074 A 
ATOM     47  C   UNL A   1      40.742  31.244  30.044  1.00  0.00     0.029 A 
ATOM     48  N   UNL A   1      42.398  29.782  29.787  1.00  0.00    -0.354 N 
ATOM     49  N   UNL A   1      45.174  28.858  29.952  1.00  0.00    -0.248 NA
ATOM     50  C   UNL A   1      47.435  29.283  30.362  1.00  0.00     0.031 C 
ATOM     51  C   UNL A   1      41.946  31.875  30.380  1.00  0.00     0.029 A 
ATOM     52  C   UNL A   1      42.974  30.958  30.238  1.00  0.00     0.049 A 
ATOM     53  H   UNL A   1      42.888  28.952  29.591  1.00  0.00     0.167 HD
ATOM     54  C   UNL A   1      45.325  30.179  30.352  1.00  0.00     0.074 A 
ATOM     55  C   UNL A   1      46.736  30.379  30.616  1.00  0.00     0.031 C 
ATOM     56  C   UNL A   1      44.379  31.140  30.489  1.00  0.00     0.031 A 
BRANCH  43  57
ATOM     57  C   UNL A   1      38.668  29.269  29.062  1.00  0.00    -0.014 A 
ATOM     58  C   UNL A   1      37.800  29.165  30.161  1.00  0.00     0.009 A 
ATOM     59  C   UNL A   1      38.160  29.715  27.832  1.00  0.00     0.009 A 
ATOM     60  C   UNL A   1      36.445  29.471  30.019  1.00  0.00     0.001 A 
ATOM     61  C   UNL A   1      36.810  30.041  27.700  1.00  0.00     0.001 A 
ATOM     62  C   UNL A   1      35.952  29.910  28.791  1.00  0.00     0.000 A 
ENDBRANCH  43  57
BRANCH  44  63
ATOM     63  C   UNL A   1      48.235  26.539  29.756  1.00  0.00    -0.014 A 
ATOM     64  C   UNL A   1      49.113  26.706  28.676  1.00  0.00     0.009 A 
ATOM     65  C   UNL A   1      48.722  25.983  30.950  1.00  0.00     0.009 A 
ATOM     66  C   UNL A   1      50.448  26.311  28.784  1.00  0.00     0.001 A 
ATOM     67  C   UNL A   1      50.063  25.611  31.063  1.00  0.00     0.001 A 
ATOM     68  C   UNL A   1      50.922  25.768  29.978  1.00  0.00     0.000 A 
ENDBRANCH  44  63
BRANCH  56  69
ATOM     69  C   UNL A   1      44.841  32.486  30.970  1.00  0.00    -0.014 A 
ATOM     70  C   UNL A   1      45.224  33.487  30.064  1.00  0.00     0.009 A 
ATOM     71  C   UNL A   1      44.861  32.763  32.345  1.00  0.00     0.009 A 
ATOM     72  C   UNL A   1      45.647  34.732  30.530  1.00  0.00     0.001 A 
ATOM     73  C   UNL A   1      45.263  34.017  32.807  1.00  0.00     0.001 A 
ATOM     74  C   UNL A   1      45.664  34.998  31.900  1.00  0.00     0.000 A 
ENDBRANCH  56  69
ENDBRANCH  30  31
ENDBRANCH  23  25
ENDBRANCH  22  23
ENDBRANCH  21  22
ENDBRANCH   1  21
TORSDOF 15
ENDMDL
MODEL 3
REMARK VINA RESULT:      -9.7      5.311      9.856
REMARK SMILES Cc1csc(C[NH2+]C[C@H]2CCC[C@H]2C(=O)OCCOC(=O)c2ccc(-c3c4nc(c(-c5ccccc5)c5ccc([nH]5)c(-c5ccccc5)c5nc(c(-c6ccccc6)c6ccc3[nH]6)C=C5)C=C4)cc2)n1
REMARK SMILES IDX 17 1 16 2 14 3 15 4 13 5 9 6 10 7 11 8 12 9 8 10 7 11 6 14
REMARK SMILES IDX 5 15 1 16 2 17 3 18 70 19 4 20 18 21 19 22 20 23 21 24 22 25
REMARK SMILES IDX 23 26 69 27 24 28 68 29 25 30 26 31 27 32 62 33 28 34 67 35
REMARK SMILES IDX 61 36 63 37 29 38 66 39 60 40 59 41 30 43 52 44 37 45 51 46
REMARK SMILES IDX 38 47 41 48 50 49 64 50 39 51 40 52 49 54 65 55 42 56 31 57
REMARK SMILES IDX 32 58 36 59 33 60 35 61 34 62 53 63 54 64 58 65 55 66 57 67
REMARK SMILES IDX 56 68 43 69 44 70 48 71 45 72 47 73 46 74
REMARK H PARENT 7 12 7 13 63 42 41 53
REMARK Flexibility Score: inf
ROOT
ATOM      1  C   UNL A   1      31.681  30.983  26.442  1.00  0.00     0.274 C 
ENDROOT
BRANCH   1   2
ATOM      2  O   UNL A   1      32.455  29.957  27.092  1.00  0.00    -0.462 OA
BRANCH   2   3
ATOM      3  C   UNL A   1      31.954  28.702  27.058  1.00  0.00     0.309 C 
ATOM      4  O   UNL A   1      31.120  28.265  27.843  1.00  0.00    -0.252 OA
BRANCH   3   5
ATOM      5  C   UNL A   1      32.527  27.841  25.950  1.00  0.00     0.108 C 
ATOM      6  C   UNL A   1      31.671  27.377  24.753  1.00  0.00     0.058 C 
ATOM      7  C   UNL A   1      32.772  26.718  23.903  1.00  0.00     0.010 C 
ATOM      8  C   UNL A   1      33.967  27.662  24.006  1.00  0.00     0.001 C 
ATOM      9  C   UNL A   1      33.781  28.438  25.313  1.00  0.00     0.016 C 
BRANCH   6  10
ATOM     10  C   UNL A   1      30.912  28.505  24.017  1.00  0.00     0.265 C 
BRANCH  10  11
ATOM     11  N   UNL A   1      30.033  28.096  22.928  1.00  0.00    -0.340 N 
ATOM     12  H   UNL A   1      30.420  28.451  22.053  1.00  0.00     0.346 HD
ATOM     13  H   UNL A   1      29.986  27.077  22.954  1.00  0.00     0.346 HD
BRANCH  11  14
ATOM     14  C   UNL A   1      28.655  28.584  23.052  1.00  0.00     0.329 C 
BRANCH  14  15
ATOM     15  C   UNL A   1      28.552  29.999  22.532  1.00  0.00     0.147 A 
ATOM     16  C   UNL A   1      27.947  32.242  19.784  1.00  0.00     0.067 C 
ATOM     17  C   UNL A   1      28.217  31.693  21.136  1.00  0.00     0.049 A 
ATOM     18  C   UNL A   1      28.322  32.400  22.317  1.00  0.00     0.090 A 
ATOM     19  N   UNL A   1      28.372  30.324  21.266  1.00  0.00    -0.241 NA
ATOM     20  S   UNL A   1      28.598  31.329  23.625  1.00  0.00    -0.121 S 
ENDBRANCH  14  15
ENDBRANCH  11  14
ENDBRANCH  10  11
ENDBRANCH   6  10
ENDBRANCH   3   5
ENDBRANCH   2   3
ENDBRANCH   1   2
BRANCH   1  21
ATOM     21  C   UNL A   1      31.608  32.249  27.304  1.00  0.00     0.275 C 
BRANCH  21  22
ATOM     22  O   UNL A   1      32.715  33.135  27.046  1.00  0.00    -0.458 OA
BRANCH  22  23
ATOM     23  C   UNL A   1      33.073  33.924  28.084  1.00  0.00     0.338 C 
ATOM     24  O   UNL A   1      32.436  34.840  28.575  1.00  0.00    -0.246 OA
BRANCH  23  25
ATOM     25  C   UNL A   1      34.329  33.433  28.671  1.00  0.00     0.060 A 
ATOM     26  C   UNL A   1      35.514  33.684  27.974  1.00  0.00     0.016 A 
ATOM     27  C   UNL A   1      34.343  32.671  29.840  1.00  0.00     0.016 A 
ATOM     28  C   UNL A   1      36.722  33.175  28.439  1.00  0.00     0.010 A 
ATOM     29  C   UNL A   1      35.558  32.154  30.305  1.00  0.00     0.010 A 
ATOM     30  C   UNL A   1      36.750  32.396  29.601  1.00  0.00    -0.014 A 
BRANCH  30  31
ATOM     31  C   UNL A   1      38.030  31.792  30.038  1.00  0.00     0.031 A 
ATOM     32  C   UNL A   1      38.864  32.481  31.080  1.00  0.00     0.074 A 
ATOM     33  C   UNL A   1      38.419  30.606  29.537  1.00  0.00     0.049 A 
ATOM     34  N   UNL A   1      40.029  32.138  31.564  1.00  0.00    -0.248 NA
ATOM     35  C   UNL A   1      38.308  33.715  31.656  1.00  0.00     0.031 C 
ATOM     36  C   UNL A   1      37.663  29.808  28.571  1.00  0.00     0.029 A 
ATOM     37  N   UNL A   1      39.545  29.863  29.782  1.00  0.00    -0.354 N 
ATOM     38  C   UNL A   1      40.355  33.120  32.490  1.00  0.00     0.074 A 
ATOM     39  C   UNL A   1      39.272  34.080  32.490  1.00  0.00     0.031 C 
ATOM     40  C   UNL A   1      38.343  28.678  28.314  1.00  0.00     0.029 A 
ATOM     41  C   UNL A   1      39.598  28.696  29.061  1.00  0.00     0.049 A 
ATOM     42  H   UNL A   1      40.247  30.139  30.414  1.00  0.00     0.167 HD
ATOM     43  C   UNL A   1      41.459  33.214  33.270  1.00  0.00     0.031 A 
ATOM     44  C   UNL A   1      40.561  27.759  28.992  1.00  0.00     0.031 A 
ATOM     45  C   UNL A   1      42.539  32.264  33.266  1.00  0.00     0.049 A 
ATOM     46  C   UNL A   1      41.815  27.930  29.804  1.00  0.00     0.074 A 
ATOM     47  C   UNL A   1      43.705  32.278  34.013  1.00  0.00     0.029 A 
ATOM     48  N   UNL A   1      42.586  31.129  32.472  1.00  0.00    -0.354 N 
ATOM     49  N   UNL A   1      42.122  28.875  30.658  1.00  0.00    -0.248 NA
ATOM     50  C   UNL A   1      42.857  26.907  29.634  1.00  0.00     0.031 C 
ATOM     51  C   UNL A   1      44.476  31.171  33.641  1.00  0.00     0.029 A 
ATOM     52  C   UNL A   1      43.769  30.445  32.696  1.00  0.00     0.049 A 
ATOM     53  H   UNL A   1      41.883  30.851  31.843  1.00  0.00     0.167 HD
ATOM     54  C   UNL A   1      43.383  28.554  31.140  1.00  0.00     0.074 A 
ATOM     55  C   UNL A   1      43.777  27.317  30.494  1.00  0.00     0.031 C 
ATOM     56  C   UNL A   1      44.147  29.221  32.039  1.00  0.00     0.031 A 
BRANCH  43  57
ATOM     57  C   UNL A   1      41.564  34.414  34.164  1.00  0.00    -0.014 A 
ATOM     58  C   UNL A   1      41.051  34.398  35.471  1.00  0.00     0.009 A 
ATOM     59  C   UNL A   1      42.202  35.574  33.697  1.00  0.00     0.009 A 
ATOM     60  C   UNL A   1      41.148  35.532  36.280  1.00  0.00     0.001 A 
ATOM     61  C   UNL A   1      42.316  36.698  34.516  1.00  0.00     0.001 A 
ATOM     62  C   UNL A   1      41.781  36.679  35.803  1.00  0.00     0.000 A 
ENDBRANCH  43  57
BRANCH  44  63
ATOM     63  C   UNL A   1      40.391  26.584  28.100  1.00  0.00    -0.014 A 
ATOM     64  C   UNL A   1      39.707  25.445  28.544  1.00  0.00     0.009 A 
ATOM     65  C   UNL A   1      40.917  26.599  26.798  1.00  0.00     0.009 A 
ATOM     66  C   UNL A   1      39.565  24.335  27.708  1.00  0.00     0.001 A 
ATOM     67  C   UNL A   1      40.753  25.498  25.956  1.00  0.00     0.001 A 
ATOM     68  C   UNL A   1      40.084  24.365  26.413  1.00  0.00     0.000 A 
ENDBRANCH  44  63
BRANCH  56  69
ATOM     69  C   UNL A   1      45.472  28.611  32.393  1.00  0.00    -0.014 A 
ATOM     70  C   UNL A   1      45.592  27.704  33.456  1.00  0.00     0.009 A 
ATOM     71  C   UNL A   1      46.608  28.926  31.631  1.00  0.00     0.009 A 
ATOM     72  C   UNL A   1      46.832  27.144  33.768  1.00  0.00     0.001 A 
ATOM     73  C   UNL A   1      47.842  28.348  31.931  1.00  0.00     0.001 A 
ATOM     74  C   UNL A   1      47.955  27.464  33.005  1.00  0.00     0.000 A 
ENDBRANCH  56  69
ENDBRANCH  30  31
ENDBRANCH  23  25
ENDBRANCH  22  23
ENDBRANCH  21  22
ENDBRANCH   1  21
TORSDOF 15
ENDMDL
