MODEL 1
REMARK VINA RESULT:     -14.0      0.000      0.000
REMARK SMILES Cc1ccc(NC(=O)C[C@@H](C(=O)OCCOC(=O)c2ccc(-c3c4nc(c(-c5ccccc5)c5ccc([nH]5)c(-c5ccccc5)c5nc(c(-c6ccccc6)c6ccc3[nH]6)C=C5)C=C4)cc2)[NH+]2CCOCC2)cc1
REMARK SMILES IDX 14 1 13 2 11 3 12 4 10 5 9 6 7 7 6 8 8 10 5 11 1 12 2 13
REMARK SMILES IDX 3 14 74 15 4 16 73 17 67 18 68 19 72 20 69 22 71 23 70 24
REMARK SMILES IDX 15 25 16 26 17 27 18 28 19 29 20 30 66 31 21 32 65 33 22 34
REMARK SMILES IDX 23 35 24 36 59 37 25 38 64 39 58 40 60 41 26 42 63 43 57 44
REMARK SMILES IDX 56 45 27 47 49 48 34 49 48 50 35 51 38 52 47 53 61 54 36 55
REMARK SMILES IDX 37 56 46 58 62 59 39 60 28 61 29 62 33 63 30 64 32 65 31 66
REMARK SMILES IDX 50 67 51 68 55 69 52 70 54 71 53 72 40 73 41 74 45 75 42 76
REMARK SMILES IDX 44 77 43 78
REMARK H PARENT 6 9 67 21 60 46 38 57
REMARK Flexibility Score: inf
ROOT
ATOM      1  C   UNL A   1      33.846  28.163  24.129  1.00  0.00     0.274 C 
ENDROOT
BRANCH   1   2
ATOM      2  O   UNL A   1      32.305  28.956  23.684  1.00  0.00    -0.458 OA
BRANCH   2   3
ATOM      3  C   UNL A   1      31.220  29.449  24.411  1.00  0.00     0.365 C 
ATOM      4  O   UNL A   1      31.295  30.169  25.390  1.00  0.00    -0.245 OA
BRANCH   3   5
ATOM      5  C   UNL A   1      29.867  29.445  23.736  1.00  0.00     0.304 C 
BRANCH   5   6
ATOM      6  C   UNL A   1      29.973  28.204  22.825  1.00  0.00     0.177 C 
BRANCH   6   7
ATOM      7  C   UNL A   1      29.436  26.937  23.446  1.00  0.00     0.231 C 
ATOM      8  N   UNL A   1      30.162  25.794  23.646  1.00  0.00    -0.326 N 
ATOM      9  H   UNL A   1      29.630  24.974  23.531  1.00  0.00     0.169 HD
ATOM     10  O   UNL A   1      28.248  26.900  23.794  1.00  0.00    -0.274 OA
BRANCH   8  11
ATOM     11  C   UNL A   1      31.519  25.537  23.983  1.00  0.00     0.041 A 
ATOM     12  C   UNL A   1      35.538  22.394  24.459  1.00  0.00     0.044 C 
ATOM     13  C   UNL A   1      34.201  23.083  24.281  1.00  0.00    -0.051 A 
ATOM     14  C   UNL A   1      33.451  23.786  25.727  1.00  0.00     0.005 A 
ATOM     15  C   UNL A   1      33.651  23.638  22.765  1.00  0.00     0.005 A 
ATOM     16  C   UNL A   1      32.112  25.105  25.617  1.00  0.00     0.026 A 
ATOM     17  C   UNL A   1      32.383  24.834  22.604  1.00  0.00     0.026 A 
ENDBRANCH   8  11
ENDBRANCH   6   7
ENDBRANCH   5   6
BRANCH   5  18
ATOM     18  N   UNL A   1      29.537  30.729  22.898  1.00  0.00    -0.319 N 
ATOM     19  C   UNL A   1      28.640  30.490  21.735  1.00  0.00     0.291 C 
ATOM     20  C   UNL A   1      28.956  31.887  23.644  1.00  0.00     0.291 C 
ATOM     21  H   UNL A   1      30.479  30.976  22.594  1.00  0.00     0.348 HD
ATOM     22  C   UNL A   1      28.357  31.742  20.871  1.00  0.00     0.221 C 
ATOM     23  C   UNL A   1      28.653  33.117  22.740  1.00  0.00     0.221 C 
ATOM     24  O   UNL A   1      27.776  32.786  21.660  1.00  0.00    -0.370 OA
ENDBRANCH   5  18
ENDBRANCH   3   5
ENDBRANCH   2   3
ENDBRANCH   1   2
BRANCH   1  25
ATOM     25  C   UNL A   1      34.706  28.036  26.133  1.00  0.00     0.275 C 
BRANCH  25  26
ATOM     26  O   UNL A   1      34.681  29.563  27.238  1.00  0.00    -0.458 OA
BRANCH  26  27
ATOM     27  C   UNL A   1      35.532  30.304  28.286  1.00  0.00     0.338 C 
ATOM     28  O   UNL A   1      35.035  31.306  28.802  1.00  0.00    -0.246 OA
BRANCH  27  29
ATOM     29  C   UNL A   1      37.068  29.919  28.796  1.00  0.00     0.060 A 
ATOM     30  C   UNL A   1      37.439  29.016  29.807  1.00  0.00     0.016 A 
ATOM     31  C   UNL A   1      38.148  30.250  28.000  1.00  0.00     0.016 A 
ATOM     32  C   UNL A   1      38.582  28.115  29.635  1.00  0.00     0.010 A 
ATOM     33  C   UNL A   1      38.985  29.177  27.636  1.00  0.00     0.010 A 
ATOM     34  C   UNL A   1      39.232  28.039  28.414  1.00  0.00    -0.014 A 
BRANCH  34  35
ATOM     35  C   UNL A   1      40.361  27.137  27.970  1.00  0.00     0.031 A 
ATOM     36  C   UNL A   1      40.390  25.622  27.825  1.00  0.00     0.074 A 
ATOM     37  C   UNL A   1      41.527  27.838  27.886  1.00  0.00     0.049 A 
ATOM     38  N   UNL A   1      41.288  24.863  28.380  1.00  0.00    -0.248 NA
ATOM     39  C   UNL A   1      39.500  24.814  26.966  1.00  0.00     0.031 C 
ATOM     40  C   UNL A   1      42.918  27.437  27.783  1.00  0.00     0.029 A 
ATOM     41  N   UNL A   1      41.648  29.208  28.216  1.00  0.00    -0.354 N 
ATOM     42  C   UNL A   1      41.263  23.602  27.781  1.00  0.00     0.074 A 
ATOM     43  C   UNL A   1      40.057  23.585  26.998  1.00  0.00     0.031 C 
ATOM     44  C   UNL A   1      43.639  28.348  28.485  1.00  0.00     0.029 A 
ATOM     45  C   UNL A   1      42.702  29.308  29.087  1.00  0.00     0.049 A 
ATOM     46  H   UNL A   1      41.086  29.945  27.884  1.00  0.00     0.167 HD
ATOM     47  C   UNL A   1      42.355  22.774  27.857  1.00  0.00     0.031 A 
ATOM     48  C   UNL A   1      42.425  29.535  30.403  1.00  0.00     0.031 A 
ATOM     49  C   UNL A   1      43.424  23.447  28.572  1.00  0.00     0.049 A 
ATOM     50  C   UNL A   1      42.991  28.443  31.247  1.00  0.00     0.074 A 
ATOM     51  C   UNL A   1      44.477  24.211  28.101  1.00  0.00     0.029 A 
ATOM     52  N   UNL A   1      43.293  23.709  29.923  1.00  0.00    -0.354 N 
ATOM     53  N   UNL A   1      43.111  27.207  30.857  1.00  0.00    -0.248 NA
ATOM     54  C   UNL A   1      43.481  28.681  32.594  1.00  0.00     0.031 C 
ATOM     55  C   UNL A   1      44.912  25.032  29.164  1.00  0.00     0.029 A 
ATOM     56  C   UNL A   1      44.149  24.731  30.279  1.00  0.00     0.049 A 
ATOM     57  H   UNL A   1      42.682  23.239  30.536  1.00  0.00     0.167 HD
ATOM     58  C   UNL A   1      43.785  26.514  31.823  1.00  0.00     0.074 A 
ATOM     59  C   UNL A   1      43.974  27.472  32.898  1.00  0.00     0.031 C 
ATOM     60  C   UNL A   1      44.175  25.221  31.645  1.00  0.00     0.031 A 
BRANCH  47  61
ATOM     61  C   UNL A   1      42.647  21.502  27.066  1.00  0.00    -0.014 A 
ATOM     62  C   UNL A   1      41.958  20.311  27.411  1.00  0.00     0.009 A 
ATOM     63  C   UNL A   1      43.515  21.398  25.969  1.00  0.00     0.009 A 
ATOM     64  C   UNL A   1      42.154  19.086  26.759  1.00  0.00     0.001 A 
ATOM     65  C   UNL A   1      43.715  20.165  25.302  1.00  0.00     0.001 A 
ATOM     66  C   UNL A   1      43.045  19.009  25.703  1.00  0.00     0.000 A 
ENDBRANCH  47  61
BRANCH  48  67
ATOM     67  C   UNL A   1      41.191  30.311  30.808  1.00  0.00    -0.014 A 
ATOM     68  C   UNL A   1      40.406  29.902  31.908  1.00  0.00     0.009 A 
ATOM     69  C   UNL A   1      40.841  31.531  30.203  1.00  0.00     0.009 A 
ATOM     70  C   UNL A   1      39.359  30.696  32.411  1.00  0.00     0.001 A 
ATOM     71  C   UNL A   1      39.784  32.320  30.696  1.00  0.00     0.001 A 
ATOM     72  C   UNL A   1      39.057  31.914  31.812  1.00  0.00     0.000 A 
ENDBRANCH  48  67
BRANCH  60  73
ATOM     73  C   UNL A   1      44.744  24.325  32.705  1.00  0.00    -0.014 A 
ATOM     74  C   UNL A   1      46.009  24.493  33.274  1.00  0.00     0.009 A 
ATOM     75  C   UNL A   1      43.927  23.309  33.249  1.00  0.00     0.009 A 
ATOM     76  C   UNL A   1      46.473  23.634  34.274  1.00  0.00     0.001 A 
ATOM     77  C   UNL A   1      44.359  22.493  34.292  1.00  0.00     0.001 A 
ATOM     78  C   UNL A   1      45.645  22.642  34.788  1.00  0.00     0.000 A 
ENDBRANCH  60  73
ENDBRANCH  34  35
ENDBRANCH  27  29
ENDBRANCH  26  27
ENDBRANCH  25  26
ENDBRANCH   1  25
TORSDOF 15
ENDMDL
MODEL 2
REMARK VINA RESULT:     -13.7      1.431      2.255
REMARK SMILES Cc1ccc(NC(=O)C[C@@H](C(=O)OCCOC(=O)c2ccc(-c3c4nc(c(-c5ccccc5)c5ccc([nH]5)c(-c5ccccc5)c5nc(c(-c6ccccc6)c6ccc3[nH]6)C=C5)C=C4)cc2)[NH+]2CCOCC2)cc1
REMARK SMILES IDX 14 1 13 2 11 3 12 4 10 5 9 6 7 7 6 8 8 10 5 11 1 12 2 13
REMARK SMILES IDX 3 14 74 15 4 16 73 17 67 18 68 19 72 20 69 22 71 23 70 24
REMARK SMILES IDX 15 25 16 26 17 27 18 28 19 29 20 30 66 31 21 32 65 33 22 34
REMARK SMILES IDX 23 35 24 36 59 37 25 38 64 39 58 40 60 41 26 42 63 43 57 44
REMARK SMILES IDX 56 45 27 47 49 48 34 49 48 50 35 51 38 52 47 53 61 54 36 55
REMARK SMILES IDX 37 56 46 58 62 59 39 60 28 61 29 62 33 63 30 64 32 65 31 66
REMARK SMILES IDX 50 67 51 68 55 69 52 70 54 71 53 72 40 73 41 74 45 75 42 76
REMARK SMILES IDX 44 77 43 78
REMARK H PARENT 6 9 67 21 60 46 38 57
REMARK Flexibility Score: inf
ROOT
ATOM      1  C   UNL A   1      31.935  27.852  26.782  1.00  0.00     0.274 C 
ENDROOT
BRANCH   1   2
ATOM      2  O   UNL A   1      31.325  26.172  26.690  1.00  0.00    -0.458 OA
BRANCH   2   3
ATOM      3  C   UNL A   1      30.242  25.564  26.053  1.00  0.00     0.365 C 
ATOM      4  O   UNL A   1      29.193  25.251  26.586  1.00  0.00    -0.245 OA
BRANCH   3   5
ATOM      5  C   UNL A   1      30.176  25.661  24.545  1.00  0.00     0.304 C 
BRANCH   5   6
ATOM      6  C   UNL A   1      31.559  25.117  24.133  1.00  0.00     0.177 C 
BRANCH   6   7
ATOM      7  C   UNL A   1      31.516  23.757  23.479  1.00  0.00     0.231 C 
ATOM      8  N   UNL A   1      32.570  22.887  23.412  1.00  0.00    -0.326 N 
ATOM      9  H   UNL A   1      32.589  22.366  22.577  1.00  0.00     0.169 HD
ATOM     10  O   UNL A   1      30.463  23.386  22.941  1.00  0.00    -0.274 OA
BRANCH   8  11
ATOM     11  C   UNL A   1      33.645  22.573  24.289  1.00  0.00     0.041 A 
ATOM     12  C   UNL A   1      38.466  21.080  25.174  1.00  0.00     0.044 C 
ATOM     13  C   UNL A   1      37.093  21.440  24.644  1.00  0.00    -0.051 A 
ATOM     14  C   UNL A   1      35.741  20.391  25.114  1.00  0.00     0.005 A 
ATOM     15  C   UNL A   1      36.712  23.001  24.074  1.00  0.00     0.005 A 
ATOM     16  C   UNL A   1      33.951  20.963  25.010  1.00  0.00     0.026 A 
ATOM     17  C   UNL A   1      35.063  23.570  23.922  1.00  0.00     0.026 A 
ENDBRANCH   8  11
ENDBRANCH   6   7
ENDBRANCH   5   6
BRANCH   5  18
ATOM     18  N   UNL A   1      29.950  27.106  23.980  1.00  0.00    -0.319 N 
ATOM     19  C   UNL A   1      30.922  27.513  22.929  1.00  0.00     0.291 C 
ATOM     20  C   UNL A   1      28.591  27.410  23.433  1.00  0.00     0.291 C 
ATOM     21  H   UNL A   1      30.084  27.642  24.837  1.00  0.00     0.348 HD
ATOM     22  C   UNL A   1      30.740  28.959  22.409  1.00  0.00     0.221 C 
ATOM     23  C   UNL A   1      28.453  28.860  22.889  1.00  0.00     0.221 C 
ATOM     24  O   UNL A   1      29.423  29.149  21.878  1.00  0.00    -0.370 OA
ENDBRANCH   5  18
ENDBRANCH   3   5
ENDBRANCH   2   3
ENDBRANCH   1   2
BRANCH   1  25
ATOM     25  C   UNL A   1      34.028  28.475  26.732  1.00  0.00     0.275 C 
BRANCH  25  26
ATOM     26  O   UNL A   1      34.600  29.858  27.877  1.00  0.00    -0.458 OA
BRANCH  26  27
ATOM     27  C   UNL A   1      35.847  30.688  28.232  1.00  0.00     0.338 C 
ATOM     28  O   UNL A   1      35.785  31.903  28.034  1.00  0.00    -0.246 OA
BRANCH  27  29
ATOM     29  C   UNL A   1      37.292  30.132  28.841  1.00  0.00     0.060 A 
ATOM     30  C   UNL A   1      37.492  29.102  29.777  1.00  0.00     0.016 A 
ATOM     31  C   UNL A   1      38.468  30.455  28.193  1.00  0.00     0.016 A 
ATOM     32  C   UNL A   1      38.582  28.135  29.615  1.00  0.00     0.010 A 
ATOM     33  C   UNL A   1      39.263  29.363  27.794  1.00  0.00     0.010 A 
ATOM     34  C   UNL A   1      39.348  28.134  28.462  1.00  0.00    -0.014 A 
BRANCH  34  35
ATOM     35  C   UNL A   1      40.452  27.195  28.030  1.00  0.00     0.031 A 
ATOM     36  C   UNL A   1      40.436  25.679  27.893  1.00  0.00     0.074 A 
ATOM     37  C   UNL A   1      41.640  27.860  27.950  1.00  0.00     0.049 A 
ATOM     38  N   UNL A   1      41.306  24.896  28.459  1.00  0.00    -0.248 NA
ATOM     39  C   UNL A   1      39.527  24.895  27.032  1.00  0.00     0.031 C 
ATOM     40  C   UNL A   1      43.018  27.416  27.859  1.00  0.00     0.029 A 
ATOM     41  N   UNL A   1      41.800  29.228  28.274  1.00  0.00    -0.354 N 
ATOM     42  C   UNL A   1      41.247  23.634  27.867  1.00  0.00     0.074 A 
ATOM     43  C   UNL A   1      40.046  23.649  27.075  1.00  0.00     0.031 C 
ATOM     44  C   UNL A   1      43.762  28.309  28.561  1.00  0.00     0.029 A 
ATOM     45  C   UNL A   1      42.850  29.300  29.151  1.00  0.00     0.049 A 
ATOM     46  H   UNL A   1      41.263  29.980  27.934  1.00  0.00     0.167 HD
ATOM     47  C   UNL A   1      42.312  22.773  27.954  1.00  0.00     0.031 A 
ATOM     48  C   UNL A   1      42.572  29.543  30.465  1.00  0.00     0.031 A 
ATOM     49  C   UNL A   1      43.397  23.417  28.673  1.00  0.00     0.049 A 
ATOM     50  C   UNL A   1      43.099  28.439  31.318  1.00  0.00     0.074 A 
ATOM     51  C   UNL A   1      44.475  24.146  28.206  1.00  0.00     0.029 A 
ATOM     52  N   UNL A   1      43.264  23.691  30.021  1.00  0.00    -0.354 N 
ATOM     53  N   UNL A   1      43.183  27.198  30.935  1.00  0.00    -0.248 NA
ATOM     54  C   UNL A   1      43.586  28.670  32.667  1.00  0.00     0.031 C 
ATOM     55  C   UNL A   1      44.928  24.960  29.267  1.00  0.00     0.029 A 
ATOM     56  C   UNL A   1      44.149  24.688  30.378  1.00  0.00     0.049 A 
ATOM     57  H   UNL A   1      42.636  23.243  30.633  1.00  0.00     0.167 HD
ATOM     58  C   UNL A   1      43.830  26.490  31.910  1.00  0.00     0.074 A 
ATOM     59  C   UNL A   1      44.040  27.448  32.981  1.00  0.00     0.031 C 
ATOM     60  C   UNL A   1      44.181  25.185  31.741  1.00  0.00     0.031 A 
BRANCH  47  61
ATOM     61  C   UNL A   1      42.571  21.489  27.173  1.00  0.00    -0.014 A 
ATOM     62  C   UNL A   1      41.858  20.316  27.533  1.00  0.00     0.009 A 
ATOM     63  C   UNL A   1      43.428  21.356  26.070  1.00  0.00     0.009 A 
ATOM     64  C   UNL A   1      42.023  19.081  26.890  1.00  0.00     0.001 A 
ATOM     65  C   UNL A   1      43.596  20.113  25.412  1.00  0.00     0.001 A 
ATOM     66  C   UNL A   1      42.904  18.975  25.828  1.00  0.00     0.000 A 
ENDBRANCH  47  61
BRANCH  48  67
ATOM     67  C   UNL A   1      41.359  30.359  30.857  1.00  0.00    -0.014 A 
ATOM     68  C   UNL A   1      40.466  29.898  31.848  1.00  0.00     0.009 A 
ATOM     69  C   UNL A   1      41.134  31.654  30.357  1.00  0.00     0.009 A 
ATOM     70  C   UNL A   1      39.433  30.709  32.353  1.00  0.00     0.001 A 
ATOM     71  C   UNL A   1      40.091  32.461  30.850  1.00  0.00     0.001 A 
ATOM     72  C   UNL A   1      39.254  31.999  31.863  1.00  0.00     0.000 A 
ENDBRANCH  48  67
BRANCH  60  73
ATOM     73  C   UNL A   1      44.715  24.278  32.810  1.00  0.00    -0.014 A 
ATOM     74  C   UNL A   1      44.038  23.153  33.290  1.00  0.00     0.009 A 
ATOM     75  C   UNL A   1      46.023  24.494  33.298  1.00  0.00     0.009 A 
ATOM     76  C   UNL A   1      44.599  22.336  34.275  1.00  0.00     0.001 A 
ATOM     77  C   UNL A   1      46.614  23.644  34.230  1.00  0.00     0.001 A 
ATOM     78  C   UNL A   1      45.889  22.576  34.736  1.00  0.00     0.000 A 
ENDBRANCH  60  73
ENDBRANCH  34  35
ENDBRANCH  27  29
ENDBRANCH  26  27
ENDBRANCH  25  26
ENDBRANCH   1  25
TORSDOF 15
ENDMDL
MODEL 3
REMARK VINA RESULT:     -13.6      2.596      4.141
REMARK SMILES Cc1ccc(NC(=O)C[C@@H](C(=O)OCCOC(=O)c2ccc(-c3c4nc(c(-c5ccccc5)c5ccc([nH]5)c(-c5ccccc5)c5nc(c(-c6ccccc6)c6ccc3[nH]6)C=C5)C=C4)cc2)[NH+]2CCOCC2)cc1
REMARK SMILES IDX 14 1 13 2 11 3 12 4 10 5 9 6 7 7 6 8 8 10 5 11 1 12 2 13
REMARK SMILES IDX 3 14 74 15 4 16 73 17 67 18 68 19 72 20 69 22 71 23 70 24
REMARK SMILES IDX 15 25 16 26 17 27 18 28 19 29 20 30 66 31 21 32 65 33 22 34
REMARK SMILES IDX 23 35 24 36 59 37 25 38 64 39 58 40 60 41 26 42 63 43 57 44
REMARK SMILES IDX 56 45 27 47 49 48 34 49 48 50 35 51 38 52 47 53 61 54 36 55
REMARK SMILES IDX 37 56 46 58 62 59 39 60 28 61 29 62 33 63 30 64 32 65 31 66
REMARK SMILES IDX 50 67 51 68 55 69 52 70 54 71 53 72 40 73 41 74 45 75 42 76
REMARK SMILES IDX 44 77 43 78
REMARK H PARENT 6 9 67 21 60 46 38 57
REMARK Flexibility Score: inf
ROOT
ATOM      1  C   UNL A   1      33.688  27.113  25.378  1.00  0.00     0.274 C 
ENDROOT
BRANCH   1   2
ATOM      2  O   UNL A   1      34.157  26.711  23.698  1.00  0.00    -0.458 OA
BRANCH   2   3
ATOM      3  C   UNL A   1      33.673  25.815  22.742  1.00  0.00     0.365 C 
ATOM      4  O   UNL A   1      33.488  26.069  21.566  1.00  0.00    -0.245 OA
BRANCH   3   5
ATOM      5  C   UNL A   1      33.764  24.339  23.060  1.00  0.00     0.304 C 
BRANCH   5   6
ATOM      6  C   UNL A   1      32.504  24.124  23.923  1.00  0.00     0.177 C 
BRANCH   6   7
ATOM      7  C   UNL A   1      31.457  23.250  23.277  1.00  0.00     0.231 C 
ATOM      8  N   UNL A   1      31.667  21.972  22.835  1.00  0.00    -0.326 N 
ATOM      9  H   UNL A   1      31.153  21.754  22.025  1.00  0.00     0.169 HD
ATOM     10  O   UNL A   1      30.318  23.709  23.107  1.00  0.00    -0.274 OA
BRANCH   8  11
ATOM     11  C   UNL A   1      32.469  20.892  23.295  1.00  0.00     0.041 A 
ATOM     12  C   UNL A   1      33.075  16.025  24.780  1.00  0.00     0.044 C 
ATOM     13  C   UNL A   1      32.616  17.407  24.360  1.00  0.00    -0.051 A 
ATOM     14  C   UNL A   1      32.830  18.722  25.532  1.00  0.00     0.005 A 
ATOM     15  C   UNL A   1      32.394  17.841  22.727  1.00  0.00     0.005 A 
ATOM     16  C   UNL A   1      32.828  20.532  25.013  1.00  0.00     0.026 A 
ATOM     17  C   UNL A   1      32.347  19.509  22.195  1.00  0.00     0.026 A 
ENDBRANCH   8  11
ENDBRANCH   6   7
ENDBRANCH   5   6
BRANCH   5  18
ATOM     18  N   UNL A   1      35.056  23.904  23.835  1.00  0.00    -0.319 N 
ATOM     19  C   UNL A   1      34.854  23.687  25.293  1.00  0.00     0.291 C 
ATOM     20  C   UNL A   1      35.768  22.691  23.327  1.00  0.00     0.291 C 
ATOM     21  H   UNL A   1      35.639  24.722  23.659  1.00  0.00     0.348 HD
ATOM     22  C   UNL A   1      36.137  23.313  26.073  1.00  0.00     0.221 C 
ATOM     23  C   UNL A   1      37.034  22.324  24.153  1.00  0.00     0.221 C 
ATOM     24  O   UNL A   1      36.733  22.127  25.537  1.00  0.00    -0.370 OA
ENDBRANCH   5  18
ENDBRANCH   3   5
ENDBRANCH   2   3
ENDBRANCH   1   2
BRANCH   1  25
ATOM     25  C   UNL A   1      33.550  29.117  26.239  1.00  0.00     0.275 C 
BRANCH  25  26
ATOM     26  O   UNL A   1      34.592  29.536  27.753  1.00  0.00    -0.458 OA
BRANCH  26  27
ATOM     27  C   UNL A   1      35.763  30.432  28.197  1.00  0.00     0.338 C 
ATOM     28  O   UNL A   1      35.603  31.650  28.099  1.00  0.00    -0.246 OA
BRANCH  27  29
ATOM     29  C   UNL A   1      37.243  29.946  28.780  1.00  0.00     0.060 A 
ATOM     30  C   UNL A   1      37.505  28.952  29.740  1.00  0.00     0.016 A 
ATOM     31  C   UNL A   1      38.388  30.292  28.092  1.00  0.00     0.016 A 
ATOM     32  C   UNL A   1      38.625  28.020  29.576  1.00  0.00     0.010 A 
ATOM     33  C   UNL A   1      39.211  29.216  27.702  1.00  0.00     0.010 A 
ATOM     34  C   UNL A   1      39.359  28.012  28.402  1.00  0.00    -0.014 A 
BRANCH  34  35
ATOM     35  C   UNL A   1      40.485  27.101  27.967  1.00  0.00     0.031 A 
ATOM     36  C   UNL A   1      40.498  25.587  27.808  1.00  0.00     0.074 A 
ATOM     37  C   UNL A   1      41.660  27.789  27.910  1.00  0.00     0.049 A 
ATOM     38  N   UNL A   1      41.378  24.812  28.370  1.00  0.00    -0.248 NA
ATOM     39  C   UNL A   1      39.613  24.799  26.926  1.00  0.00     0.031 C 
ATOM     40  C   UNL A   1      43.048  27.372  27.826  1.00  0.00     0.029 A 
ATOM     41  N   UNL A   1      41.792  29.154  28.256  1.00  0.00    -0.354 N 
ATOM     42  C   UNL A   1      41.347  23.557  27.758  1.00  0.00     0.074 A 
ATOM     43  C   UNL A   1      40.154  23.563  26.954  1.00  0.00     0.031 C 
ATOM     44  C   UNL A   1      43.768  28.267  28.549  1.00  0.00     0.029 A 
ATOM     45  C   UNL A   1      42.832  29.232  29.145  1.00  0.00     0.049 A 
ATOM     46  H   UNL A   1      41.245  29.901  27.923  1.00  0.00     0.167 HD
ATOM     47  C   UNL A   1      42.427  22.716  27.843  1.00  0.00     0.031 A 
ATOM     48  C   UNL A   1      42.536  29.449  30.459  1.00  0.00     0.031 A 
ATOM     49  C   UNL A   1      43.493  23.368  28.582  1.00  0.00     0.049 A 
ATOM     50  C   UNL A   1      43.075  28.342  31.301  1.00  0.00     0.074 A 
ATOM     51  C   UNL A   1      44.562  24.124  28.137  1.00  0.00     0.029 A 
ATOM     52  N   UNL A   1      43.342  23.618  29.934  1.00  0.00    -0.354 N 
ATOM     53  N   UNL A   1      43.186  27.109  30.900  1.00  0.00    -0.248 NA
ATOM     54  C   UNL A   1      43.545  28.561  32.658  1.00  0.00     0.031 C 
ATOM     55  C   UNL A   1      44.989  24.930  29.216  1.00  0.00     0.029 A 
ATOM     56  C   UNL A   1      44.205  24.626  30.315  1.00  0.00     0.049 A 
ATOM     57  H   UNL A   1      42.716  23.150  30.532  1.00  0.00     0.167 HD
ATOM     58  C   UNL A   1      43.836  26.398  31.870  1.00  0.00     0.074 A 
ATOM     59  C   UNL A   1      44.018  27.343  32.958  1.00  0.00     0.031 C 
ATOM     60  C   UNL A   1      44.214  25.103  31.685  1.00  0.00     0.031 A 
BRANCH  47  61
ATOM     61  C   UNL A   1      42.718  21.448  27.045  1.00  0.00    -0.014 A 
ATOM     62  C   UNL A   1      42.019  20.258  27.376  1.00  0.00     0.009 A 
ATOM     63  C   UNL A   1      43.592  21.347  25.952  1.00  0.00     0.009 A 
ATOM     64  C   UNL A   1      42.213  19.037  26.716  1.00  0.00     0.001 A 
ATOM     65  C   UNL A   1      43.789  20.118  25.277  1.00  0.00     0.001 A 
ATOM     66  C   UNL A   1      43.110  18.963  25.665  1.00  0.00     0.000 A 
ENDBRANCH  47  61
BRANCH  48  67
ATOM     67  C   UNL A   1      41.305  30.236  30.851  1.00  0.00    -0.014 A 
ATOM     68  C   UNL A   1      40.452  29.782  31.881  1.00  0.00     0.009 A 
ATOM     69  C   UNL A   1      41.022  31.504  30.311  1.00  0.00     0.009 A 
ATOM     70  C   UNL A   1      39.403  30.574  32.381  1.00  0.00     0.001 A 
ATOM     71  C   UNL A   1      39.963  32.292  30.801  1.00  0.00     0.001 A 
ATOM     72  C   UNL A   1      39.167  31.838  31.849  1.00  0.00     0.000 A 
ENDBRANCH  48  67
BRANCH  60  73
ATOM     73  C   UNL A   1      44.754  24.189  32.745  1.00  0.00    -0.014 A 
ATOM     74  C   UNL A   1      46.056  24.258  33.248  1.00  0.00     0.009 A 
ATOM     75  C   UNL A   1      43.879  23.266  33.361  1.00  0.00     0.009 A 
ATOM     76  C   UNL A   1      46.492  23.389  34.251  1.00  0.00     0.001 A 
ATOM     77  C   UNL A   1      44.290  22.445  34.408  1.00  0.00     0.001 A 
ATOM     78  C   UNL A   1      45.608  22.491  34.837  1.00  0.00     0.000 A 
ENDBRANCH  60  73
ENDBRANCH  34  35
ENDBRANCH  27  29
ENDBRANCH  26  27
ENDBRANCH  25  26
ENDBRANCH   1  25
TORSDOF 15
ENDMDL
