MODEL 1
REMARK VINA RESULT:     -10.9      0.000      0.000
REMARK SMILES COc1ccc(OC)c(/C=N/[NH+]=C2/NC(=O)[C@@H](CC(=O)OCCOC(=O)c3ccc(-c4c5nc(c(-c6ccccc6)c6ccc([nH]6)c(-c6ccccc6)c6nc(c(-c7ccccc7)c7ccc4[nH]7)C=C6)C=C5)cc3)S2)c1
REMARK SMILES IDX 22 1 21 2 19 3 20 4 18 5 17 6 12 7 13 8 14 10 75 11 15 12
REMARK SMILES IDX 16 14 11 15 10 16 9 17 3 18 4 19 76 20 5 21 6 22 2 23 1 24
REMARK SMILES IDX 7 25 8 26 23 27 24 28 25 29 26 30 27 31 28 32 74 33 29 34
REMARK SMILES IDX 73 35 30 36 31 37 32 38 67 39 33 40 72 41 66 42 68 43 34 44
REMARK SMILES IDX 71 45 65 46 64 47 35 49 57 50 42 51 56 52 43 53 46 54 55 55
REMARK SMILES IDX 69 56 44 57 45 58 54 60 70 61 47 62 36 63 37 64 41 65 38 66
REMARK SMILES IDX 40 67 39 68 58 69 59 70 63 71 60 72 62 73 61 74 48 75 49 76
REMARK SMILES IDX 53 77 50 78 52 79 51 80
REMARK H PARENT 12 9 14 13 68 48 46 59
REMARK Flexibility Score: inf
ROOT
ATOM      1  C   UNL A   1      31.576  31.545  26.458  1.00  0.00     0.274 C 
ENDROOT
BRANCH   1   2
ATOM      2  O   UNL A   1      32.245  30.465  25.773  1.00  0.00    -0.462 OA
BRANCH   2   3
ATOM      3  C   UNL A   1      31.782  29.218  26.034  1.00  0.00     0.307 C 
ATOM      4  O   UNL A   1      31.795  28.698  27.145  1.00  0.00    -0.252 OA
BRANCH   3   5
ATOM      5  C   UNL A   1      31.135  28.525  24.853  1.00  0.00     0.150 C 
BRANCH   5   6
ATOM      6  C   UNL A   1      31.939  28.269  23.590  1.00  0.00     0.184 C 
ATOM      7  N   UNL A   1      32.113  24.854  21.822  1.00  0.00    -0.142 N 
ATOM      8  C   UNL A   1      32.069  26.053  22.294  1.00  0.00     0.337 C 
ATOM      9  H   UNL A   1      31.524  24.560  21.090  1.00  0.00     0.343 HD
ATOM     10  N   UNL A   1      31.201  26.946  21.760  1.00  0.00    -0.202 N 
ATOM     11  S   UNL A   1      32.954  26.757  23.614  1.00  0.00    -0.020 SA
ATOM     12  C   UNL A   1      31.049  28.149  22.377  1.00  0.00     0.322 C 
ATOM     13  H   UNL A   1      30.694  26.730  20.946  1.00  0.00     0.316 HD
ATOM     14  O   UNL A   1      30.257  29.007  22.013  1.00  0.00    -0.246 OA
BRANCH   7  15
ATOM     15  N   UNL A   1      33.044  23.999  22.412  1.00  0.00    -0.093 NA
ATOM     16  C   UNL A   1      32.463  23.146  23.195  1.00  0.00     0.170 C 
BRANCH  16  17
ATOM     17  C   UNL A   1      33.144  22.004  23.832  1.00  0.00     0.042 A 
ATOM     18  C   UNL A   1      32.851  19.642  24.405  1.00  0.00     0.119 A 
ATOM     19  C   UNL A   1      34.141  19.618  24.910  1.00  0.00     0.050 A 
ATOM     20  C   UNL A   1      32.360  20.830  23.870  1.00  0.00     0.060 A 
ATOM     21  C   UNL A   1      34.935  20.764  24.848  1.00  0.00     0.051 A 
ATOM     22  C   UNL A   1      34.462  21.973  24.304  1.00  0.00     0.128 A 
BRANCH  18  23
ATOM     23  O   UNL A   1      32.144  18.478  24.520  1.00  0.00    -0.497 OA
ATOM     24  C   UNL A   1      32.614  17.575  25.515  1.00  0.00     0.278 C 
ENDBRANCH  18  23
BRANCH  22  25
ATOM     25  O   UNL A   1      35.448  22.916  24.308  1.00  0.00    -0.496 OA
ATOM     26  C   UNL A   1      36.441  22.951  23.301  1.00  0.00     0.278 C 
ENDBRANCH  22  25
ENDBRANCH  16  17
ENDBRANCH   7  15
ENDBRANCH   5   6
ENDBRANCH   3   5
ENDBRANCH   2   3
ENDBRANCH   1   2
BRANCH   1  27
ATOM     27  C   UNL A   1      32.453  32.146  27.556  1.00  0.00     0.275 C 
BRANCH  27  28
ATOM     28  O   UNL A   1      32.663  33.552  27.344  1.00  0.00    -0.458 OA
BRANCH  28  29
ATOM     29  C   UNL A   1      33.128  34.232  28.415  1.00  0.00     0.338 C 
ATOM     30  O   UNL A   1      32.600  35.182  28.975  1.00  0.00    -0.246 OA
BRANCH  29  31
ATOM     31  C   UNL A   1      34.417  33.692  28.848  1.00  0.00     0.060 A 
ATOM     32  C   UNL A   1      35.533  33.829  28.026  1.00  0.00     0.016 A 
ATOM     33  C   UNL A   1      34.489  32.955  30.032  1.00  0.00     0.016 A 
ATOM     34  C   UNL A   1      36.718  33.184  28.361  1.00  0.00     0.010 A 
ATOM     35  C   UNL A   1      35.704  32.385  30.413  1.00  0.00     0.010 A 
ATOM     36  C   UNL A   1      36.824  32.484  29.572  1.00  0.00    -0.014 A 
BRANCH  36  37
ATOM     37  C   UNL A   1      38.135  31.923  29.974  1.00  0.00     0.031 A 
ATOM     38  C   UNL A   1      39.030  32.645  30.937  1.00  0.00     0.074 A 
ATOM     39  C   UNL A   1      38.509  30.736  29.458  1.00  0.00     0.049 A 
ATOM     40  N   UNL A   1      40.214  32.297  31.377  1.00  0.00    -0.248 NA
ATOM     41  C   UNL A   1      38.543  33.927  31.466  1.00  0.00     0.031 C 
ATOM     42  C   UNL A   1      37.723  29.945  28.506  1.00  0.00     0.029 A 
ATOM     43  N   UNL A   1      39.631  29.981  29.673  1.00  0.00    -0.354 N 
ATOM     44  C   UNL A   1      40.625  33.326  32.213  1.00  0.00     0.074 A 
ATOM     45  C   UNL A   1      39.571  34.320  32.207  1.00  0.00     0.031 C 
ATOM     46  C   UNL A   1      38.369  28.799  28.251  1.00  0.00     0.029 A 
ATOM     47  C   UNL A   1      39.633  28.799  28.975  1.00  0.00     0.049 A 
ATOM     48  H   UNL A   1      40.364  30.258  30.268  1.00  0.00     0.167 HD
ATOM     49  C   UNL A   1      41.776  33.432  32.920  1.00  0.00     0.031 A 
ATOM     50  C   UNL A   1      40.556  27.823  28.913  1.00  0.00     0.031 A 
ATOM     51  C   UNL A   1      42.823  32.443  32.922  1.00  0.00     0.049 A 
ATOM     52  C   UNL A   1      41.815  27.958  29.712  1.00  0.00     0.074 A 
ATOM     53  C   UNL A   1      44.024  32.455  33.610  1.00  0.00     0.029 A 
ATOM     54  N   UNL A   1      42.789  31.260  32.199  1.00  0.00    -0.354 N 
ATOM     55  N   UNL A   1      42.186  28.938  30.500  1.00  0.00    -0.248 NA
ATOM     56  C   UNL A   1      42.778  26.856  29.615  1.00  0.00     0.031 C 
ATOM     57  C   UNL A   1      44.732  31.293  33.276  1.00  0.00     0.029 A 
ATOM     58  C   UNL A   1      43.953  30.538  32.415  1.00  0.00     0.049 A 
ATOM     59  H   UNL A   1      42.048  30.975  31.617  1.00  0.00     0.167 HD
ATOM     60  C   UNL A   1      43.427  28.569  30.999  1.00  0.00     0.074 A 
ATOM     61  C   UNL A   1      43.730  27.264  30.442  1.00  0.00     0.031 C 
ATOM     62  C   UNL A   1      44.243  29.252  31.837  1.00  0.00     0.031 A 
BRANCH  49  63
ATOM     63  C   UNL A   1      41.972  34.688  33.723  1.00  0.00    -0.014 A 
ATOM     64  C   UNL A   1      41.511  34.788  35.045  1.00  0.00     0.009 A 
ATOM     65  C   UNL A   1      42.636  35.784  33.152  1.00  0.00     0.009 A 
ATOM     66  C   UNL A   1      41.678  35.973  35.765  1.00  0.00     0.001 A 
ATOM     67  C   UNL A   1      42.823  36.960  33.881  1.00  0.00     0.001 A 
ATOM     68  C   UNL A   1      42.335  37.057  35.183  1.00  0.00     0.000 A 
ENDBRANCH  49  63
BRANCH  50  69
ATOM     69  C   UNL A   1      40.305  26.639  28.054  1.00  0.00    -0.014 A 
ATOM     70  C   UNL A   1      40.872  26.554  26.775  1.00  0.00     0.009 A 
ATOM     71  C   UNL A   1      39.541  25.565  28.536  1.00  0.00     0.009 A 
ATOM     72  C   UNL A   1      40.674  25.415  25.991  1.00  0.00     0.001 A 
ATOM     73  C   UNL A   1      39.365  24.419  27.760  1.00  0.00     0.001 A 
ATOM     74  C   UNL A   1      39.928  24.347  26.487  1.00  0.00     0.000 A 
ENDBRANCH  50  69
BRANCH  62  75
ATOM     75  C   UNL A   1      45.536  28.583  32.203  1.00  0.00    -0.014 A 
ATOM     76  C   UNL A   1      45.620  27.733  33.317  1.00  0.00     0.009 A 
ATOM     77  C   UNL A   1      46.681  28.807  31.424  1.00  0.00     0.009 A 
ATOM     78  C   UNL A   1      46.840  27.152  33.666  1.00  0.00     0.001 A 
ATOM     79  C   UNL A   1      47.892  28.205  31.762  1.00  0.00     0.001 A 
ATOM     80  C   UNL A   1      47.974  27.386  32.889  1.00  0.00     0.000 A 
ENDBRANCH  62  75
ENDBRANCH  36  37
ENDBRANCH  29  31
ENDBRANCH  28  29
ENDBRANCH  27  28
ENDBRANCH   1  27
TORSDOF 16
ENDMDL
MODEL 2
REMARK VINA RESULT:     -10.8      5.289     10.167
REMARK SMILES COc1ccc(OC)c(/C=N/[NH+]=C2/NC(=O)[C@@H](CC(=O)OCCOC(=O)c3ccc(-c4c5nc(c(-c6ccccc6)c6ccc([nH]6)c(-c6ccccc6)c6nc(c(-c7ccccc7)c7ccc4[nH]7)C=C6)C=C5)cc3)S2)c1
REMARK SMILES IDX 22 1 21 2 19 3 20 4 18 5 17 6 12 7 13 8 14 10 75 11 15 12
REMARK SMILES IDX 16 14 11 15 10 16 9 17 3 18 4 19 76 20 5 21 6 22 2 23 1 24
REMARK SMILES IDX 7 25 8 26 23 27 24 28 25 29 26 30 27 31 28 32 74 33 29 34
REMARK SMILES IDX 73 35 30 36 31 37 32 38 67 39 33 40 72 41 66 42 68 43 34 44
REMARK SMILES IDX 71 45 65 46 64 47 35 49 57 50 42 51 56 52 43 53 46 54 55 55
REMARK SMILES IDX 69 56 44 57 45 58 54 60 70 61 47 62 36 63 37 64 41 65 38 66
REMARK SMILES IDX 40 67 39 68 58 69 59 70 63 71 60 72 62 73 61 74 48 75 49 76
REMARK SMILES IDX 53 77 50 78 52 79 51 80
REMARK H PARENT 12 9 14 13 68 48 46 59
REMARK Flexibility Score: inf
ROOT
ATOM      1  C   UNL A   1      42.608  19.057  26.604  1.00  0.00     0.274 C 
ENDROOT
BRANCH   1   2
ATOM      2  O   UNL A   1      41.975  20.348  26.484  1.00  0.00    -0.462 OA
BRANCH   2   3
ATOM      3  C   UNL A   1      41.135  20.695  27.489  1.00  0.00     0.307 C 
ATOM      4  O   UNL A   1      40.759  19.926  28.367  1.00  0.00    -0.252 OA
BRANCH   3   5
ATOM      5  C   UNL A   1      40.759  22.162  27.519  1.00  0.00     0.150 C 
BRANCH   5   6
ATOM      6  C   UNL A   1      39.894  22.747  26.415  1.00  0.00     0.184 C 
ATOM      7  N   UNL A   1      36.116  22.086  26.086  1.00  0.00    -0.142 N 
ATOM      8  C   UNL A   1      37.358  22.426  26.142  1.00  0.00     0.337 C 
ATOM      9  H   UNL A   1      35.403  22.650  26.466  1.00  0.00     0.343 HD
ATOM     10  N   UNL A   1      37.699  23.601  26.724  1.00  0.00    -0.202 N 
ATOM     11  S   UNL A   1      38.769  21.562  25.609  1.00  0.00    -0.020 SA
ATOM     12  C   UNL A   1      39.019  23.864  26.925  1.00  0.00     0.322 C 
ATOM     13  H   UNL A   1      37.010  24.249  26.995  1.00  0.00     0.316 HD
ATOM     14  O   UNL A   1      39.436  24.868  27.487  1.00  0.00    -0.246 OA
BRANCH   7  15
ATOM     15  N   UNL A   1      35.843  20.872  25.456  1.00  0.00    -0.093 NA
ATOM     16  C   UNL A   1      34.567  20.694  25.320  1.00  0.00     0.170 C 
BRANCH  16  17
ATOM     17  C   UNL A   1      33.959  19.596  24.545  1.00  0.00     0.042 A 
ATOM     18  C   UNL A   1      34.137  17.194  24.113  1.00  0.00     0.119 A 
ATOM     19  C   UNL A   1      33.029  17.274  23.284  1.00  0.00     0.050 A 
ATOM     20  C   UNL A   1      34.594  18.350  24.738  1.00  0.00     0.060 A 
ATOM     21  C   UNL A   1      32.375  18.494  23.112  1.00  0.00     0.051 A 
ATOM     22  C   UNL A   1      32.816  19.674  23.740  1.00  0.00     0.128 A 
BRANCH  18  23
ATOM     23  O   UNL A   1      34.720  15.962  24.211  1.00  0.00    -0.497 OA
ATOM     24  C   UNL A   1      35.558  15.772  25.346  1.00  0.00     0.278 C 
ENDBRANCH  18  23
BRANCH  22  25
ATOM     25  O   UNL A   1      31.973  20.708  23.458  1.00  0.00    -0.496 OA
ATOM     26  C   UNL A   1      32.125  21.489  22.288  1.00  0.00     0.278 C 
ENDBRANCH  22  25
ENDBRANCH  16  17
ENDBRANCH   7  15
ENDBRANCH   5   6
ENDBRANCH   3   5
ENDBRANCH   2   3
ENDBRANCH   1   2
BRANCH   1  27
ATOM     27  C   UNL A   1      43.221  18.603  25.280  1.00  0.00     0.275 C 
BRANCH  27  28
ATOM     28  O   UNL A   1      44.578  19.058  25.149  1.00  0.00    -0.458 OA
BRANCH  28  29
ATOM     29  C   UNL A   1      44.807  19.891  24.111  1.00  0.00     0.338 C 
ATOM     30  O   UNL A   1      44.859  19.599  22.925  1.00  0.00    -0.246 OA
BRANCH  29  31
ATOM     31  C   UNL A   1      45.023  21.258  24.586  1.00  0.00     0.060 A 
ATOM     32  C   UNL A   1      45.606  21.472  25.832  1.00  0.00     0.016 A 
ATOM     33  C   UNL A   1      44.545  22.329  23.827  1.00  0.00     0.016 A 
ATOM     34  C   UNL A   1      45.668  22.760  26.351  1.00  0.00     0.010 A 
ATOM     35  C   UNL A   1      44.693  23.631  24.309  1.00  0.00     0.010 A 
ATOM     36  C   UNL A   1      45.243  23.854  25.582  1.00  0.00    -0.014 A 
BRANCH  36  37
ATOM     37  C   UNL A   1      45.447  25.228  26.097  1.00  0.00     0.031 A 
ATOM     38  C   UNL A   1      44.329  25.994  26.740  1.00  0.00     0.074 A 
ATOM     39  C   UNL A   1      46.671  25.779  25.981  1.00  0.00     0.049 A 
ATOM     40  N   UNL A   1      44.341  27.211  27.226  1.00  0.00    -0.248 NA
ATOM     41  C   UNL A   1      43.029  25.316  26.841  1.00  0.00     0.031 C 
ATOM     42  C   UNL A   1      47.833  25.131  25.366  1.00  0.00     0.029 A 
ATOM     43  N   UNL A   1      47.145  26.998  26.388  1.00  0.00    -0.354 N 
ATOM     44  C   UNL A   1      43.047  27.455  27.667  1.00  0.00     0.074 A 
ATOM     45  C   UNL A   1      42.273  26.265  27.377  1.00  0.00     0.031 C 
ATOM     46  C   UNL A   1      48.895  25.942  25.474  1.00  0.00     0.029 A 
ATOM     47  C   UNL A   1      48.477  27.184  26.112  1.00  0.00     0.049 A 
ATOM     48  H   UNL A   1      46.586  27.675  26.834  1.00  0.00     0.167 HD
ATOM     49  C   UNL A   1      42.552  28.568  28.259  1.00  0.00     0.031 A 
ATOM     50  C   UNL A   1      49.276  28.241  26.337  1.00  0.00     0.031 A 
ATOM     51  C   UNL A   1      43.325  29.749  28.544  1.00  0.00     0.049 A 
ATOM     52  C   UNL A   1      48.707  29.456  27.002  1.00  0.00     0.074 A 
ATOM     53  C   UNL A   1      42.916  30.927  29.147  1.00  0.00     0.029 A 
ATOM     54  N   UNL A   1      44.671  29.900  28.246  1.00  0.00    -0.354 N 
ATOM     55  N   UNL A   1      47.482  29.668  27.416  1.00  0.00    -0.248 NA
ATOM     56  C   UNL A   1      49.630  30.573  27.234  1.00  0.00     0.031 C 
ATOM     57  C   UNL A   1      44.009  31.803  29.183  1.00  0.00     0.029 A 
ATOM     58  C   UNL A   1      45.108  31.154  28.643  1.00  0.00     0.049 A 
ATOM     59  H   UNL A   1      45.234  29.216  27.816  1.00  0.00     0.167 HD
ATOM     60  C   UNL A   1      47.485  30.943  27.962  1.00  0.00     0.074 A 
ATOM     61  C   UNL A   1      48.842  31.443  27.849  1.00  0.00     0.031 C 
ATOM     62  C   UNL A   1      46.456  31.639  28.504  1.00  0.00     0.031 A 
BRANCH  49  63
ATOM     63  C   UNL A   1      41.088  28.566  28.603  1.00  0.00    -0.014 A 
ATOM     64  C   UNL A   1      40.634  28.120  29.854  1.00  0.00     0.009 A 
ATOM     65  C   UNL A   1      40.152  29.026  27.666  1.00  0.00     0.009 A 
ATOM     66  C   UNL A   1      39.268  28.100  30.144  1.00  0.00     0.001 A 
ATOM     67  C   UNL A   1      38.788  29.027  27.966  1.00  0.00     0.001 A 
ATOM     68  C   UNL A   1      38.346  28.555  29.201  1.00  0.00     0.000 A 
ENDBRANCH  49  63
BRANCH  50  69
ATOM     69  C   UNL A   1      50.698  28.178  25.919  1.00  0.00    -0.014 A 
ATOM     70  C   UNL A   1      51.064  28.455  24.594  1.00  0.00     0.009 A 
ATOM     71  C   UNL A   1      51.700  27.896  26.860  1.00  0.00     0.009 A 
ATOM     72  C   UNL A   1      52.408  28.444  24.218  1.00  0.00     0.001 A 
ATOM     73  C   UNL A   1      53.045  27.909  26.486  1.00  0.00     0.001 A 
ATOM     74  C   UNL A   1      53.397  28.180  25.165  1.00  0.00     0.000 A 
ENDBRANCH  50  69
BRANCH  62  75
ATOM     75  C   UNL A   1      46.776  33.011  29.019  1.00  0.00    -0.014 A 
ATOM     76  C   UNL A   1      46.654  34.141  28.194  1.00  0.00     0.009 A 
ATOM     77  C   UNL A   1      47.204  33.176  30.345  1.00  0.00     0.009 A 
ATOM     78  C   UNL A   1      46.994  35.404  28.677  1.00  0.00     0.001 A 
ATOM     79  C   UNL A   1      47.521  34.444  30.831  1.00  0.00     0.001 A 
ATOM     80  C   UNL A   1      47.426  35.556  29.995  1.00  0.00     0.000 A 
ENDBRANCH  62  75
ENDBRANCH  36  37
ENDBRANCH  29  31
ENDBRANCH  28  29
ENDBRANCH  27  28
ENDBRANCH   1  27
TORSDOF 16
ENDMDL
MODEL 3
REMARK VINA RESULT:     -10.8      0.477      5.936
REMARK SMILES COc1ccc(OC)c(/C=N/[NH+]=C2/NC(=O)[C@@H](CC(=O)OCCOC(=O)c3ccc(-c4c5nc(c(-c6ccccc6)c6ccc([nH]6)c(-c6ccccc6)c6nc(c(-c7ccccc7)c7ccc4[nH]7)C=C6)C=C5)cc3)S2)c1
REMARK SMILES IDX 22 1 21 2 19 3 20 4 18 5 17 6 12 7 13 8 14 10 75 11 15 12
REMARK SMILES IDX 16 14 11 15 10 16 9 17 3 18 4 19 76 20 5 21 6 22 2 23 1 24
REMARK SMILES IDX 7 25 8 26 23 27 24 28 25 29 26 30 27 31 28 32 74 33 29 34
REMARK SMILES IDX 73 35 30 36 31 37 32 38 67 39 33 40 72 41 66 42 68 43 34 44
REMARK SMILES IDX 71 45 65 46 64 47 35 49 57 50 42 51 56 52 43 53 46 54 55 55
REMARK SMILES IDX 69 56 44 57 45 58 54 60 70 61 47 62 36 63 37 64 41 65 38 66
REMARK SMILES IDX 40 67 39 68 58 69 59 70 63 71 60 72 62 73 61 74 48 75 49 76
REMARK SMILES IDX 53 77 50 78 52 79 51 80
REMARK H PARENT 12 9 14 13 68 48 46 59
REMARK Flexibility Score: inf
ROOT
ATOM      1  C   UNL A   1      31.645  31.454  26.555  1.00  0.00     0.274 C 
ENDROOT
BRANCH   1   2
ATOM      2  O   UNL A   1      32.159  30.386  25.732  1.00  0.00    -0.462 OA
BRANCH   2   3
ATOM      3  C   UNL A   1      31.723  29.139  26.035  1.00  0.00     0.307 C 
ATOM      4  O   UNL A   1      31.726  28.665  27.166  1.00  0.00    -0.252 OA
BRANCH   3   5
ATOM      5  C   UNL A   1      31.120  28.381  24.870  1.00  0.00     0.150 C 
BRANCH   5   6
ATOM      6  C   UNL A   1      31.944  28.131  23.619  1.00  0.00     0.184 C 
ATOM      7  N   UNL A   1      32.089  24.743  21.798  1.00  0.00    -0.142 N 
ATOM      8  C   UNL A   1      32.059  25.934  22.289  1.00  0.00     0.337 C 
ATOM      9  H   UNL A   1      31.510  24.471  21.050  1.00  0.00     0.343 HD
ATOM     10  N   UNL A   1      31.219  26.852  21.753  1.00  0.00    -0.202 N 
ATOM     11  S   UNL A   1      32.930  26.599  23.638  1.00  0.00    -0.020 SA
ATOM     12  C   UNL A   1      31.078  28.047  22.387  1.00  0.00     0.322 C 
ATOM     13  H   UNL A   1      30.724  26.659  20.925  1.00  0.00     0.316 HD
ATOM     14  O   UNL A   1      30.309  28.927  22.021  1.00  0.00    -0.246 OA
BRANCH   7  15
ATOM     15  N   UNL A   1      32.992  23.860  22.392  1.00  0.00    -0.093 NA
ATOM     16  C   UNL A   1      32.380  23.003  23.146  1.00  0.00     0.170 C 
BRANCH  16  17
ATOM     17  C   UNL A   1      33.026  21.837  23.775  1.00  0.00     0.042 A 
ATOM     18  C   UNL A   1      32.853  19.406  23.999  1.00  0.00     0.119 A 
ATOM     19  C   UNL A   1      34.012  19.405  24.757  1.00  0.00     0.050 A 
ATOM     20  C   UNL A   1      32.367  20.617  23.513  1.00  0.00     0.060 A 
ATOM     21  C   UNL A   1      34.689  20.603  24.996  1.00  0.00     0.051 A 
ATOM     22  C   UNL A   1      34.220  21.836  24.507  1.00  0.00     0.128 A 
BRANCH  18  23
ATOM     23  O   UNL A   1      32.251  18.190  23.829  1.00  0.00    -0.497 OA
ATOM     24  C   UNL A   1      32.990  17.072  24.308  1.00  0.00     0.278 C 
ENDBRANCH  18  23
BRANCH  22  25
ATOM     25  O   UNL A   1      35.090  22.837  24.826  1.00  0.00    -0.496 OA
ATOM     26  C   UNL A   1      34.762  23.825  25.783  1.00  0.00     0.278 C 
ENDBRANCH  22  25
ENDBRANCH  16  17
ENDBRANCH   7  15
ENDBRANCH   5   6
ENDBRANCH   3   5
ENDBRANCH   2   3
ENDBRANCH   1   2
BRANCH   1  27
ATOM     27  C   UNL A   1      32.744  32.091  27.405  1.00  0.00     0.275 C 
BRANCH  27  28
ATOM     28  O   UNL A   1      32.629  33.523  27.420  1.00  0.00    -0.458 OA
BRANCH  28  29
ATOM     29  C   UNL A   1      33.119  34.128  28.523  1.00  0.00     0.338 C 
ATOM     30  O   UNL A   1      32.611  35.045  29.153  1.00  0.00    -0.246 OA
BRANCH  29  31
ATOM     31  C   UNL A   1      34.411  33.551  28.896  1.00  0.00     0.060 A 
ATOM     32  C   UNL A   1      34.511  32.766  30.042  1.00  0.00     0.016 A 
ATOM     33  C   UNL A   1      35.547  33.881  28.155  1.00  0.00     0.016 A 
ATOM     34  C   UNL A   1      35.761  32.348  30.483  1.00  0.00     0.010 A 
ATOM     35  C   UNL A   1      36.791  33.383  28.547  1.00  0.00     0.010 A 
ATOM     36  C   UNL A   1      36.908  32.624  29.723  1.00  0.00    -0.014 A 
BRANCH  36  37
ATOM     37  C   UNL A   1      38.209  32.051  30.137  1.00  0.00     0.031 A 
ATOM     38  C   UNL A   1      38.696  30.743  29.587  1.00  0.00     0.074 A 
ATOM     39  C   UNL A   1      38.958  32.736  31.022  1.00  0.00     0.049 A 
ATOM     40  N   UNL A   1      39.803  30.098  29.860  1.00  0.00    -0.248 NA
ATOM     41  C   UNL A   1      37.827  30.065  28.614  1.00  0.00     0.031 C 
ATOM     42  C   UNL A   1      38.583  34.015  31.632  1.00  0.00     0.029 A 
ATOM     43  N   UNL A   1      40.193  32.465  31.549  1.00  0.00    -0.354 N 
ATOM     44  C   UNL A   1      39.753  28.927  29.115  1.00  0.00     0.074 A 
ATOM     45  C   UNL A   1      38.499  28.943  28.390  1.00  0.00     0.031 C 
ATOM     46  C   UNL A   1      39.585  34.437  32.417  1.00  0.00     0.029 A 
ATOM     47  C   UNL A   1      40.643  33.435  32.410  1.00  0.00     0.049 A 
ATOM     48  H   UNL A   1      40.707  31.653  31.333  1.00  0.00     0.167 HD
ATOM     49  C   UNL A   1      40.669  27.932  29.043  1.00  0.00     0.031 A 
ATOM     50  C   UNL A   1      41.779  33.510  33.125  1.00  0.00     0.031 A 
ATOM     51  C   UNL A   1      41.914  27.919  29.767  1.00  0.00     0.049 A 
ATOM     52  C   UNL A   1      42.780  32.401  33.021  1.00  0.00     0.074 A 
ATOM     53  C   UNL A   1      42.911  26.958  29.757  1.00  0.00     0.029 A 
ATOM     54  N   UNL A   1      42.332  28.919  30.632  1.00  0.00    -0.354 N 
ATOM     55  N   UNL A   1      42.717  31.302  32.309  1.00  0.00    -0.248 NA
ATOM     56  C   UNL A   1      44.006  32.544  33.814  1.00  0.00     0.031 C 
ATOM     57  C   UNL A   1      43.919  27.363  30.642  1.00  0.00     0.029 A 
ATOM     58  C   UNL A   1      43.568  28.595  31.169  1.00  0.00     0.049 A 
ATOM     59  H   UNL A   1      41.825  29.739  30.834  1.00  0.00     0.167 HD
ATOM     60  C   UNL A   1      43.899  30.622  32.564  1.00  0.00     0.074 A 
ATOM     61  C   UNL A   1      44.667  31.447  33.476  1.00  0.00     0.031 C 
ATOM     62  C   UNL A   1      44.307  29.420  32.089  1.00  0.00     0.031 A 
BRANCH  49  63
ATOM     63  C   UNL A   1      40.331  26.753  28.172  1.00  0.00    -0.014 A 
ATOM     64  C   UNL A   1      39.533  25.701  28.645  1.00  0.00     0.009 A 
ATOM     65  C   UNL A   1      40.813  26.701  26.855  1.00  0.00     0.009 A 
ATOM     66  C   UNL A   1      39.254  24.602  27.829  1.00  0.00     0.001 A 
ATOM     67  C   UNL A   1      40.514  25.612  26.033  1.00  0.00     0.001 A 
ATOM     68  C   UNL A   1      39.744  24.559  26.524  1.00  0.00     0.000 A 
ENDBRANCH  49  63
BRANCH  50  69
ATOM     69  C   UNL A   1      42.010  34.685  34.001  1.00  0.00    -0.014 A 
ATOM     70  C   UNL A   1      41.641  34.649  35.353  1.00  0.00     0.009 A 
ATOM     71  C   UNL A   1      42.653  35.827  33.498  1.00  0.00     0.009 A 
ATOM     72  C   UNL A   1      41.907  35.739  36.184  1.00  0.00     0.001 A 
ATOM     73  C   UNL A   1      42.939  36.904  34.336  1.00  0.00     0.001 A 
ATOM     74  C   UNL A   1      42.562  36.861  35.678  1.00  0.00     0.000 A 
ENDBRANCH  50  69
BRANCH  62  75
ATOM     75  C   UNL A   1      45.653  28.942  32.550  1.00  0.00    -0.014 A 
ATOM     76  C   UNL A   1      46.818  29.262  31.835  1.00  0.00     0.009 A 
ATOM     77  C   UNL A   1      45.755  28.163  33.712  1.00  0.00     0.009 A 
ATOM     78  C   UNL A   1      48.056  28.776  32.256  1.00  0.00     0.001 A 
ATOM     79  C   UNL A   1      46.998  27.698  34.142  1.00  0.00     0.001 A 
ATOM     80  C   UNL A   1      48.146  27.996  33.408  1.00  0.00     0.000 A 
ENDBRANCH  62  75
ENDBRANCH  36  37
ENDBRANCH  29  31
ENDBRANCH  28  29
ENDBRANCH  27  28
ENDBRANCH   1  27
TORSDOF 16
ENDMDL
