MODEL 1
REMARK VINA RESULT:     -11.0      0.000      0.000
REMARK SMILES O=C(NC(=S)Nc1cc(C(=O)OCCOC(=O)c2ccc(-c3c4nc(c(-c5ccccc5)c5ccc([nH]5)c(-c5ccccc5)c5nc(c(-c6ccccc6)c6ccc3[nH]6)C=C5)C=C4)cc2)ccc1Br)c1ccc(F)cc1
REMARK SMILES IDX 13 1 12 2 10 3 11 4 9 5 7 6 8 7 68 8 67 9 69 10 66 11 6 12
REMARK SMILES IDX 4 14 5 15 3 16 1 17 2 18 70 20 71 21 76 22 72 23 75 24 73 25
REMARK SMILES IDX 74 26 14 27 15 28 16 29 17 30 18 31 19 32 65 33 20 34 64 35
REMARK SMILES IDX 21 36 22 37 23 38 58 39 24 40 63 41 57 42 59 43 25 44 62 45
REMARK SMILES IDX 56 46 55 47 26 49 48 50 33 51 47 52 34 53 37 54 46 55 60 56
REMARK SMILES IDX 35 57 36 58 45 60 61 61 38 62 27 63 28 64 32 65 29 66 31 67
REMARK SMILES IDX 30 68 49 69 50 70 54 71 51 72 53 73 52 74 39 75 40 76 44 77
REMARK SMILES IDX 41 78 43 79 42 80
REMARK H PARENT 6 13 3 19 59 48 37 59
REMARK Flexibility Score: inf
ROOT
ATOM      1  C   UNL A   1      31.620  31.275  26.251  1.00  0.00     0.275 C 
ENDROOT
BRANCH   1   2
ATOM      2  O   UNL A   1      32.574  30.225  26.506  1.00  0.00    -0.458 OA
BRANCH   2   3
ATOM      3  C   UNL A   1      32.108  28.984  26.784  1.00  0.00     0.338 C 
ATOM      4  O   UNL A   1      31.355  28.642  27.675  1.00  0.00    -0.246 OA
BRANCH   3   5
ATOM      5  C   UNL A   1      32.488  28.132  25.640  1.00  0.00     0.062 A 
ATOM      6  C   UNL A   1      33.741  25.384  24.842  1.00  0.00     0.055 A 
ATOM      7  C   UNL A   1      33.521  26.719  25.977  1.00  0.00     0.043 A 
ATOM      8  C   UNL A   1      32.840  25.419  23.290  1.00  0.00     0.041 A 
ATOM      9  C   UNL A   1      31.761  27.080  22.876  1.00  0.00     0.019 A 
ATOM     10  Br  UNL A   1      33.193  23.543  22.488  1.00  0.00    -0.049 Br
ATOM     11  C   UNL A   1      31.636  28.369  24.123  1.00  0.00     0.017 A 
BRANCH   6  12
ATOM     12  N   UNL A   1      35.033  24.843  24.819  1.00  0.00    -0.331 N 
ATOM     13  H   UNL A   1      35.670  25.285  24.212  1.00  0.00     0.169 HD
BRANCH  12  14
ATOM     14  C   UNL A   1      35.528  23.792  25.522  1.00  0.00     0.177 C 
ATOM     15  S   UNL A   1      37.195  23.585  25.491  1.00  0.00    -0.040 S 
BRANCH  14  16
ATOM     16  N   UNL A   1      34.789  22.810  26.189  1.00  0.00    -0.299 N 
ATOM     17  O   UNL A   1      33.617  21.089  27.198  1.00  0.00    -0.269 OA
ATOM     18  C   UNL A   1      34.212  21.496  26.204  1.00  0.00     0.257 C 
ATOM     19  H   UNL A   1      34.554  23.207  27.059  1.00  0.00     0.172 HD
BRANCH  18  20
ATOM     20  C   UNL A   1      34.241  20.641  25.008  1.00  0.00     0.040 A 
ATOM     21  C   UNL A   1      32.622  20.216  24.420  1.00  0.00     0.017 A 
ATOM     22  C   UNL A   1      35.503  19.405  24.930  1.00  0.00     0.017 A 
ATOM     23  C   UNL A   1      32.254  18.304  23.885  1.00  0.00     0.040 A 
ATOM     24  C   UNL A   1      35.212  17.725  24.375  1.00  0.00     0.040 A 
ATOM     25  C   UNL A   1      33.622  17.146  23.887  1.00  0.00     0.123 A 
ATOM     26  F   UNL A   1      33.433  15.874  23.524  1.00  0.00    -0.207 F 
ENDBRANCH  18  20
ENDBRANCH  14  16
ENDBRANCH  12  14
ENDBRANCH   6  12
ENDBRANCH   3   5
ENDBRANCH   2   3
ENDBRANCH   1   2
BRANCH   1  27
ATOM     27  C   UNL A   1      31.703  32.360  27.329  1.00  0.00     0.275 C 
BRANCH  27  28
ATOM     28  O   UNL A   1      33.017  32.952  27.338  1.00  0.00    -0.458 OA
BRANCH  28  29
ATOM     29  C   UNL A   1      33.220  33.915  28.264  1.00  0.00     0.338 C 
ATOM     30  O   UNL A   1      32.476  34.831  28.568  1.00  0.00    -0.246 OA
BRANCH  29  31
ATOM     31  C   UNL A   1      34.423  33.597  29.048  1.00  0.00     0.060 A 
ATOM     32  C   UNL A   1      35.615  34.110  28.565  1.00  0.00     0.016 A 
ATOM     33  C   UNL A   1      34.442  32.680  30.091  1.00  0.00     0.016 A 
ATOM     34  C   UNL A   1      36.836  33.626  29.008  1.00  0.00     0.010 A 
ATOM     35  C   UNL A   1      35.679  32.298  30.642  1.00  0.00     0.010 A 
ATOM     36  C   UNL A   1      36.898  32.737  30.082  1.00  0.00    -0.014 A 
BRANCH  36  37
ATOM     37  C   UNL A   1      38.224  32.246  30.567  1.00  0.00     0.031 A 
ATOM     38  C   UNL A   1      38.869  31.050  29.911  1.00  0.00     0.074 A 
ATOM     39  C   UNL A   1      38.889  32.881  31.559  1.00  0.00     0.049 A 
ATOM     40  N   UNL A   1      39.880  30.325  30.319  1.00  0.00    -0.248 NA
ATOM     41  C   UNL A   1      38.295  30.606  28.630  1.00  0.00     0.031 C 
ATOM     42  C   UNL A   1      38.462  34.114  32.230  1.00  0.00     0.029 A 
ATOM     43  N   UNL A   1      40.083  32.581  32.173  1.00  0.00    -0.354 N 
ATOM     44  C   UNL A   1      40.020  29.307  29.383  1.00  0.00     0.074 A 
ATOM     45  C   UNL A   1      38.988  29.501  28.389  1.00  0.00     0.031 C 
ATOM     46  C   UNL A   1      39.393  34.484  33.120  1.00  0.00     0.029 A 
ATOM     47  C   UNL A   1      40.418  33.453  33.183  1.00  0.00     0.049 A 
ATOM     48  H   UNL A   1      40.643  31.815  31.915  1.00  0.00     0.167 HD
ATOM     49  C   UNL A   1      40.925  28.299  29.356  1.00  0.00     0.031 A 
ATOM     50  C   UNL A   1      41.396  33.401  34.109  1.00  0.00     0.031 A 
ATOM     51  C   UNL A   1      41.976  28.129  30.326  1.00  0.00     0.049 A 
ATOM     52  C   UNL A   1      42.313  32.210  34.129  1.00  0.00     0.074 A 
ATOM     53  C   UNL A   1      42.924  27.123  30.405  1.00  0.00     0.029 A 
ATOM     54  N   UNL A   1      42.230  29.002  31.372  1.00  0.00    -0.354 N 
ATOM     55  N   UNL A   1      42.374  31.199  33.297  1.00  0.00    -0.248 NA
ATOM     56  C   UNL A   1      43.284  32.144  35.231  1.00  0.00     0.031 C 
ATOM     57  C   UNL A   1      43.721  27.361  31.529  1.00  0.00     0.029 A 
ATOM     58  C   UNL A   1      43.312  28.551  32.108  1.00  0.00     0.049 A 
ATOM     59  H   UNL A   1      41.718  29.821  31.562  1.00  0.00     0.167 HD
ATOM     60  C   UNL A   1      43.412  30.397  33.755  1.00  0.00     0.074 A 
ATOM     61  C   UNL A   1      43.963  31.049  34.924  1.00  0.00     0.031 C 
ATOM     62  C   UNL A   1      43.865  29.223  33.254  1.00  0.00     0.031 A 
BRANCH  49  63
ATOM     63  C   UNL A   1      40.796  27.270  28.266  1.00  0.00    -0.014 A 
ATOM     64  C   UNL A   1      41.451  27.415  27.033  1.00  0.00     0.009 A 
ATOM     65  C   UNL A   1      40.042  26.107  28.500  1.00  0.00     0.009 A 
ATOM     66  C   UNL A   1      41.328  26.432  26.048  1.00  0.00     0.001 A 
ATOM     67  C   UNL A   1      39.947  25.112  27.525  1.00  0.00     0.001 A 
ATOM     68  C   UNL A   1      40.582  25.280  26.297  1.00  0.00     0.000 A 
ENDBRANCH  49  63
BRANCH  50  69
ATOM     69  C   UNL A   1      41.510  34.452  35.162  1.00  0.00    -0.014 A 
ATOM     70  C   UNL A   1      40.813  34.331  36.374  1.00  0.00     0.009 A 
ATOM     71  C   UNL A   1      42.269  35.613  34.934  1.00  0.00     0.009 A 
ATOM     72  C   UNL A   1      40.839  35.366  37.314  1.00  0.00     0.001 A 
ATOM     73  C   UNL A   1      42.328  36.626  35.893  1.00  0.00     0.001 A 
ATOM     74  C   UNL A   1      41.599  36.510  37.074  1.00  0.00     0.000 A 
ENDBRANCH  50  69
BRANCH  62  75
ATOM     75  C   UNL A   1      45.062  28.607  33.923  1.00  0.00    -0.014 A 
ATOM     76  C   UNL A   1      44.928  27.676  34.963  1.00  0.00     0.009 A 
ATOM     77  C   UNL A   1      46.349  28.948  33.474  1.00  0.00     0.009 A 
ATOM     78  C   UNL A   1      46.060  27.127  35.567  1.00  0.00     0.001 A 
ATOM     79  C   UNL A   1      47.478  28.370  34.056  1.00  0.00     0.001 A 
ATOM     80  C   UNL A   1      47.333  27.469  35.108  1.00  0.00     0.000 A 
ENDBRANCH  62  75
ENDBRANCH  36  37
ENDBRANCH  29  31
ENDBRANCH  28  29
ENDBRANCH  27  28
ENDBRANCH   1  27
TORSDOF 15
ENDMDL
MODEL 2
REMARK VINA RESULT:     -10.7      2.916      4.053
REMARK SMILES O=C(NC(=S)Nc1cc(C(=O)OCCOC(=O)c2ccc(-c3c4nc(c(-c5ccccc5)c5ccc([nH]5)c(-c5ccccc5)c5nc(c(-c6ccccc6)c6ccc3[nH]6)C=C5)C=C4)cc2)ccc1Br)c1ccc(F)cc1
REMARK SMILES IDX 13 1 12 2 10 3 11 4 9 5 7 6 8 7 68 8 67 9 69 10 66 11 6 12
REMARK SMILES IDX 4 14 5 15 3 16 1 17 2 18 70 20 71 21 76 22 72 23 75 24 73 25
REMARK SMILES IDX 74 26 14 27 15 28 16 29 17 30 18 31 19 32 65 33 20 34 64 35
REMARK SMILES IDX 21 36 22 37 23 38 58 39 24 40 63 41 57 42 59 43 25 44 62 45
REMARK SMILES IDX 56 46 55 47 26 49 48 50 33 51 47 52 34 53 37 54 46 55 60 56
REMARK SMILES IDX 35 57 36 58 45 60 61 61 38 62 27 63 28 64 32 65 29 66 31 67
REMARK SMILES IDX 30 68 49 69 50 70 54 71 51 72 53 73 52 74 39 75 40 76 44 77
REMARK SMILES IDX 41 78 43 79 42 80
REMARK H PARENT 6 13 3 19 59 48 37 59
REMARK Flexibility Score: inf
ROOT
ATOM      1  C   UNL A   1      31.127  29.761  25.614  1.00  0.00     0.275 C 
ENDROOT
BRANCH   1   2
ATOM      2  O   UNL A   1      31.989  28.640  25.892  1.00  0.00    -0.458 OA
BRANCH   2   3
ATOM      3  C   UNL A   1      31.629  27.777  26.871  1.00  0.00     0.338 C 
ATOM      4  O   UNL A   1      31.028  28.011  27.901  1.00  0.00    -0.246 OA
BRANCH   3   5
ATOM      5  C   UNL A   1      31.884  26.422  26.343  1.00  0.00     0.062 A 
ATOM      6  C   UNL A   1      34.034  24.169  26.099  1.00  0.00     0.055 A 
ATOM      7  C   UNL A   1      33.576  25.862  26.305  1.00  0.00     0.043 A 
ATOM      8  C   UNL A   1      32.735  22.937  25.975  1.00  0.00     0.041 A 
ATOM      9  C   UNL A   1      30.824  23.600  25.910  1.00  0.00     0.019 A 
ATOM     10  Br  UNL A   1      33.766  21.143  26.058  1.00  0.00    -0.049 Br
ATOM     11  C   UNL A   1      30.507  25.357  26.119  1.00  0.00     0.017 A 
BRANCH   6  12
ATOM     12  N   UNL A   1      35.185  23.965  25.327  1.00  0.00    -0.331 N 
ATOM     13  H   UNL A   1      36.027  24.289  25.723  1.00  0.00     0.169 HD
BRANCH  12  14
ATOM     14  C   UNL A   1      35.300  23.380  24.108  1.00  0.00     0.177 C 
ATOM     15  S   UNL A   1      36.553  22.277  23.916  1.00  0.00    -0.040 S 
BRANCH  14  16
ATOM     16  N   UNL A   1      34.544  23.670  22.967  1.00  0.00    -0.299 N 
ATOM     17  O   UNL A   1      33.277  24.284  21.130  1.00  0.00    -0.269 OA
ATOM     18  C   UNL A   1      33.620  24.530  22.283  1.00  0.00     0.257 C 
ATOM     19  H   UNL A   1      34.734  22.939  22.336  1.00  0.00     0.172 HD
BRANCH  18  20
ATOM     20  C   UNL A   1      32.997  25.672  22.969  1.00  0.00     0.040 A 
ATOM     21  C   UNL A   1      31.228  25.673  22.847  1.00  0.00     0.017 A 
ATOM     22  C   UNL A   1      33.837  27.226  22.874  1.00  0.00     0.017 A 
ATOM     23  C   UNL A   1      30.285  27.405  22.409  1.00  0.00     0.040 A 
ATOM     24  C   UNL A   1      33.005  28.785  22.571  1.00  0.00     0.040 A 
ATOM     25  C   UNL A   1      31.267  28.900  22.307  1.00  0.00     0.123 A 
ATOM     26  F   UNL A   1      30.689  30.074  22.037  1.00  0.00    -0.207 F 
ENDBRANCH  18  20
ENDBRANCH  14  16
ENDBRANCH  12  14
ENDBRANCH   6  12
ENDBRANCH   3   5
ENDBRANCH   2   3
ENDBRANCH   1   2
BRANCH   1  27
ATOM     27  C   UNL A   1      31.611  31.017  26.345  1.00  0.00     0.275 C 
BRANCH  27  28
ATOM     28  O   UNL A   1      32.977  30.848  26.772  1.00  0.00    -0.458 OA
BRANCH  28  29
ATOM     29  C   UNL A   1      33.553  31.930  27.340  1.00  0.00     0.338 C 
ATOM     30  O   UNL A   1      33.032  32.997  27.617  1.00  0.00    -0.246 OA
BRANCH  29  31
ATOM     31  C   UNL A   1      34.906  31.583  27.798  1.00  0.00     0.060 A 
ATOM     32  C   UNL A   1      35.103  30.262  28.162  1.00  0.00     0.016 A 
ATOM     33  C   UNL A   1      35.896  32.522  28.059  1.00  0.00     0.016 A 
ATOM     34  C   UNL A   1      36.209  29.879  28.906  1.00  0.00     0.010 A 
ATOM     35  C   UNL A   1      37.086  32.105  28.683  1.00  0.00     0.010 A 
ATOM     36  C   UNL A   1      37.244  30.782  29.152  1.00  0.00    -0.014 A 
BRANCH  36  37
ATOM     37  C   UNL A   1      38.443  30.346  29.930  1.00  0.00     0.031 A 
ATOM     38  C   UNL A   1      39.484  29.469  29.278  1.00  0.00     0.074 A 
ATOM     39  C   UNL A   1      38.644  30.760  31.202  1.00  0.00     0.049 A 
ATOM     40  N   UNL A   1      40.459  28.792  29.828  1.00  0.00    -0.248 NA
ATOM     41  C   UNL A   1      39.411  29.329  27.815  1.00  0.00     0.031 C 
ATOM     42  C   UNL A   1      37.795  31.695  31.948  1.00  0.00     0.029 A 
ATOM     43  N   UNL A   1      39.644  30.454  32.097  1.00  0.00    -0.354 N 
ATOM     44  C   UNL A   1      41.073  28.098  28.792  1.00  0.00     0.074 A 
ATOM     45  C   UNL A   1      40.357  28.429  27.580  1.00  0.00     0.031 C 
ATOM     46  C   UNL A   1      38.331  31.918  33.157  1.00  0.00     0.029 A 
ATOM     47  C   UNL A   1      39.483  31.047  33.328  1.00  0.00     0.049 A 
ATOM     48  H   UNL A   1      40.401  29.864  31.877  1.00  0.00     0.167 HD
ATOM     49  C   UNL A   1      42.135  27.258  28.845  1.00  0.00     0.031 A 
ATOM     50  C   UNL A   1      40.138  30.863  34.490  1.00  0.00     0.031 A 
ATOM     51  C   UNL A   1      42.870  26.959  30.047  1.00  0.00     0.049 A 
ATOM     52  C   UNL A   1      41.236  29.837  34.550  1.00  0.00     0.074 A 
ATOM     53  C   UNL A   1      43.940  26.097  30.212  1.00  0.00     0.029 A 
ATOM     54  N   UNL A   1      42.623  27.534  31.284  1.00  0.00    -0.354 N 
ATOM     55  N   UNL A   1      41.744  29.112  33.584  1.00  0.00    -0.248 NA
ATOM     56  C   UNL A   1      41.837  29.590  35.869  1.00  0.00     0.031 C 
ATOM     57  C   UNL A   1      44.310  26.113  31.560  1.00  0.00     0.029 A 
ATOM     58  C   UNL A   1      43.514  27.035  32.219  1.00  0.00     0.049 A 
ATOM     59  H   UNL A   1      41.920  28.197  31.469  1.00  0.00     0.167 HD
ATOM     60  C   UNL A   1      42.747  28.351  34.172  1.00  0.00     0.074 A 
ATOM     61  C   UNL A   1      42.787  28.717  35.571  1.00  0.00     0.031 C 
ATOM     62  C   UNL A   1      43.559  27.427  33.603  1.00  0.00     0.031 A 
BRANCH  49  63
ATOM     63  C   UNL A   1      42.544  26.564  27.574  1.00  0.00    -0.014 A 
ATOM     64  C   UNL A   1      43.518  27.102  26.720  1.00  0.00     0.009 A 
ATOM     65  C   UNL A   1      41.974  25.319  27.254  1.00  0.00     0.009 A 
ATOM     66  C   UNL A   1      43.891  26.422  25.558  1.00  0.00     0.001 A 
ATOM     67  C   UNL A   1      42.372  24.628  26.109  1.00  0.00     0.001 A 
ATOM     68  C   UNL A   1      43.324  25.184  25.257  1.00  0.00     0.000 A 
ENDBRANCH  49  63
BRANCH  50  69
ATOM     69  C   UNL A   1      39.723  31.586  35.727  1.00  0.00    -0.014 A 
ATOM     70  C   UNL A   1      38.583  31.186  36.443  1.00  0.00     0.009 A 
ATOM     71  C   UNL A   1      40.427  32.722  36.162  1.00  0.00     0.009 A 
ATOM     72  C   UNL A   1      38.137  31.931  37.540  1.00  0.00     0.001 A 
ATOM     73  C   UNL A   1      40.004  33.438  37.284  1.00  0.00     0.001 A 
ATOM     74  C   UNL A   1      38.849  33.053  37.961  1.00  0.00     0.000 A 
ENDBRANCH  50  69
BRANCH  62  75
ATOM     75  C   UNL A   1      44.610  26.805  34.478  1.00  0.00    -0.014 A 
ATOM     76  C   UNL A   1      45.872  27.394  34.646  1.00  0.00     0.009 A 
ATOM     77  C   UNL A   1      44.312  25.621  35.173  1.00  0.00     0.009 A 
ATOM     78  C   UNL A   1      46.829  26.788  35.462  1.00  0.00     0.001 A 
ATOM     79  C   UNL A   1      45.258  25.038  36.016  1.00  0.00     0.001 A 
ATOM     80  C   UNL A   1      46.519  25.615  36.151  1.00  0.00     0.000 A 
ENDBRANCH  62  75
ENDBRANCH  36  37
ENDBRANCH  29  31
ENDBRANCH  28  29
ENDBRANCH  27  28
ENDBRANCH   1  27
TORSDOF 15
ENDMDL
MODEL 3
REMARK VINA RESULT:     -10.6      3.484      7.502
REMARK SMILES O=C(NC(=S)Nc1cc(C(=O)OCCOC(=O)c2ccc(-c3c4nc(c(-c5ccccc5)c5ccc([nH]5)c(-c5ccccc5)c5nc(c(-c6ccccc6)c6ccc3[nH]6)C=C5)C=C4)cc2)ccc1Br)c1ccc(F)cc1
REMARK SMILES IDX 13 1 12 2 10 3 11 4 9 5 7 6 8 7 68 8 67 9 69 10 66 11 6 12
REMARK SMILES IDX 4 14 5 15 3 16 1 17 2 18 70 20 71 21 76 22 72 23 75 24 73 25
REMARK SMILES IDX 74 26 14 27 15 28 16 29 17 30 18 31 19 32 65 33 20 34 64 35
REMARK SMILES IDX 21 36 22 37 23 38 58 39 24 40 63 41 57 42 59 43 25 44 62 45
REMARK SMILES IDX 56 46 55 47 26 49 48 50 33 51 47 52 34 53 37 54 46 55 60 56
REMARK SMILES IDX 35 57 36 58 45 60 61 61 38 62 27 63 28 64 32 65 29 66 31 67
REMARK SMILES IDX 30 68 49 69 50 70 54 71 51 72 53 73 52 74 39 75 40 76 44 77
REMARK SMILES IDX 41 78 43 79 42 80
REMARK H PARENT 6 13 3 19 59 48 37 59
REMARK Flexibility Score: inf
ROOT
ATOM      1  C   UNL A   1      34.529  30.687  27.652  1.00  0.00     0.275 C 
ENDROOT
BRANCH   1   2
ATOM      2  O   UNL A   1      34.567  29.271  27.384  1.00  0.00    -0.458 OA
BRANCH   2   3
ATOM      3  C   UNL A   1      33.411  28.646  27.055  1.00  0.00     0.338 C 
ATOM      4  O   UNL A   1      32.376  28.588  27.689  1.00  0.00    -0.246 OA
BRANCH   3   5
ATOM      5  C   UNL A   1      33.548  28.239  25.643  1.00  0.00     0.062 A 
ATOM      6  C   UNL A   1      33.708  25.777  23.727  1.00  0.00     0.055 A 
ATOM      7  C   UNL A   1      33.907  26.524  25.315  1.00  0.00     0.043 A 
ATOM      8  C   UNL A   1      33.061  26.776  22.383  1.00  0.00     0.041 A 
ATOM      9  C   UNL A   1      32.764  28.745  22.744  1.00  0.00     0.019 A 
ATOM     10  Br  UNL A   1      32.738  25.396  20.873  1.00  0.00    -0.049 Br
ATOM     11  C   UNL A   1      33.021  29.371  24.409  1.00  0.00     0.017 A 
BRANCH   6  12
ATOM     12  N   UNL A   1      34.683  24.823  23.403  1.00  0.00    -0.331 N 
ATOM     13  H   UNL A   1      35.509  25.178  23.002  1.00  0.00     0.169 HD
BRANCH  12  14
ATOM     14  C   UNL A   1      34.643  23.477  23.568  1.00  0.00     0.177 C 
ATOM     15  S   UNL A   1      35.940  22.780  24.378  1.00  0.00    -0.040 S 
BRANCH  14  16
ATOM     16  N   UNL A   1      33.685  22.599  23.053  1.00  0.00    -0.299 N 
ATOM     17  O   UNL A   1      31.997  21.236  22.247  1.00  0.00    -0.269 OA
ATOM     18  C   UNL A   1      32.323  22.149  23.000  1.00  0.00     0.257 C 
ATOM     19  H   UNL A   1      34.176  22.012  22.433  1.00  0.00     0.172 HD
BRANCH  18  20
ATOM     20  C   UNL A   1      31.305  22.707  23.904  1.00  0.00     0.040 A 
ATOM     21  C   UNL A   1      30.400  24.051  23.183  1.00  0.00     0.017 A 
ATOM     22  C   UNL A   1      31.719  22.810  25.620  1.00  0.00     0.017 A 
ATOM     23  C   UNL A   1      30.068  25.705  24.294  1.00  0.00     0.040 A 
ATOM     24  C   UNL A   1      31.354  24.237  26.643  1.00  0.00     0.040 A 
ATOM     25  C   UNL A   1      30.574  25.685  26.013  1.00  0.00     0.123 A 
ATOM     26  F   UNL A   1      30.360  26.747  26.795  1.00  0.00    -0.207 F 
ENDBRANCH  18  20
ENDBRANCH  14  16
ENDBRANCH  12  14
ENDBRANCH   6  12
ENDBRANCH   3   5
ENDBRANCH   2   3
ENDBRANCH   1   2
BRANCH   1  27
ATOM     27  C   UNL A   1      35.765  31.126  28.442  1.00  0.00     0.275 C 
BRANCH  27  28
ATOM     28  O   UNL A   1      35.569  32.448  28.979  1.00  0.00    -0.458 OA
BRANCH  28  29
ATOM     29  C   UNL A   1      35.264  32.510  30.294  1.00  0.00     0.338 C 
ATOM     30  O   UNL A   1      34.173  32.702  30.801  1.00  0.00    -0.246 OA
BRANCH  29  31
ATOM     31  C   UNL A   1      36.429  32.092  31.088  1.00  0.00     0.060 A 
ATOM     32  C   UNL A   1      36.180  31.168  32.089  1.00  0.00     0.016 A 
ATOM     33  C   UNL A   1      37.673  32.706  31.014  1.00  0.00     0.016 A 
ATOM     34  C   UNL A   1      37.100  30.942  33.102  1.00  0.00     0.010 A 
ATOM     35  C   UNL A   1      38.659  32.366  31.957  1.00  0.00     0.010 A 
ATOM     36  C   UNL A   1      38.374  31.507  33.040  1.00  0.00    -0.014 A 
BRANCH  36  37
ATOM     37  C   UNL A   1      39.364  31.230  34.125  1.00  0.00     0.031 A 
ATOM     38  C   UNL A   1      39.432  32.136  35.330  1.00  0.00     0.074 A 
ATOM     39  C   UNL A   1      40.179  30.152  34.076  1.00  0.00     0.049 A 
ATOM     40  N   UNL A   1      40.356  32.220  36.254  1.00  0.00    -0.248 NA
ATOM     41  C   UNL A   1      38.316  33.079  35.515  1.00  0.00     0.031 C 
ATOM     42  C   UNL A   1      40.172  29.114  33.038  1.00  0.00     0.029 A 
ATOM     43  N   UNL A   1      41.172  29.738  34.933  1.00  0.00    -0.354 N 
ATOM     44  C   UNL A   1      39.966  33.261  37.088  1.00  0.00     0.074 A 
ATOM     45  C   UNL A   1      38.726  33.785  36.559  1.00  0.00     0.031 C 
ATOM     46  C   UNL A   1      41.074  28.171  33.343  1.00  0.00     0.029 A 
ATOM     47  C   UNL A   1      41.817  28.595  34.520  1.00  0.00     0.049 A 
ATOM     48  H   UNL A   1      41.399  30.215  35.764  1.00  0.00     0.167 HD
ATOM     49  C   UNL A   1      40.587  33.740  38.193  1.00  0.00     0.031 A 
ATOM     50  C   UNL A   1      42.927  27.989  34.985  1.00  0.00     0.031 A 
ATOM     51  C   UNL A   1      41.802  33.193  38.739  1.00  0.00     0.049 A 
ATOM     52  C   UNL A   1      43.663  28.609  36.140  1.00  0.00     0.074 A 
ATOM     53  C   UNL A   1      42.528  33.626  39.836  1.00  0.00     0.029 A 
ATOM     54  N   UNL A   1      42.456  32.077  38.242  1.00  0.00    -0.354 N 
ATOM     55  N   UNL A   1      43.340  29.654  36.861  1.00  0.00    -0.248 NA
ATOM     56  C   UNL A   1      44.931  27.976  36.530  1.00  0.00     0.031 C 
ATOM     57  C   UNL A   1      43.648  32.801  39.972  1.00  0.00     0.029 A 
ATOM     58  C   UNL A   1      43.582  31.814  39.002  1.00  0.00     0.049 A 
ATOM     59  H   UNL A   1      42.162  31.549  37.465  1.00  0.00     0.167 HD
ATOM     60  C   UNL A   1      44.345  29.781  37.812  1.00  0.00     0.074 A 
ATOM     61  C   UNL A   1      45.276  28.696  37.587  1.00  0.00     0.031 C 
ATOM     62  C   UNL A   1      44.486  30.716  38.782  1.00  0.00     0.031 A 
BRANCH  49  63
ATOM     63  C   UNL A   1      39.990  34.947  38.865  1.00  0.00    -0.014 A 
ATOM     64  C   UNL A   1      39.149  34.828  39.982  1.00  0.00     0.009 A 
ATOM     65  C   UNL A   1      40.319  36.231  38.399  1.00  0.00     0.009 A 
ATOM     66  C   UNL A   1      38.627  35.968  40.597  1.00  0.00     0.001 A 
ATOM     67  C   UNL A   1      39.821  37.369  39.035  1.00  0.00     0.001 A 
ATOM     68  C   UNL A   1      38.967  37.236  40.128  1.00  0.00     0.000 A 
ENDBRANCH  49  63
BRANCH  50  69
ATOM     69  C   UNL A   1      43.479  26.779  34.309  1.00  0.00    -0.014 A 
ATOM     70  C   UNL A   1      43.172  25.492  34.778  1.00  0.00     0.009 A 
ATOM     71  C   UNL A   1      44.367  26.907  33.227  1.00  0.00     0.009 A 
ATOM     72  C   UNL A   1      43.775  24.366  34.208  1.00  0.00     0.001 A 
ATOM     73  C   UNL A   1      44.934  25.778  32.631  1.00  0.00     0.001 A 
ATOM     74  C   UNL A   1      44.651  24.510  33.134  1.00  0.00     0.000 A 
ENDBRANCH  50  69
BRANCH  62  75
ATOM     75  C   UNL A   1      45.649  30.561  39.721  1.00  0.00    -0.014 A 
ATOM     76  C   UNL A   1      46.883  31.182  39.476  1.00  0.00     0.009 A 
ATOM     77  C   UNL A   1      45.489  29.802  40.892  1.00  0.00     0.009 A 
ATOM     78  C   UNL A   1      47.945  31.014  40.365  1.00  0.00     0.001 A 
ATOM     79  C   UNL A   1      46.542  29.664  41.797  1.00  0.00     0.001 A 
ATOM     80  C   UNL A   1      47.772  30.261  41.527  1.00  0.00     0.000 A 
ENDBRANCH  62  75
ENDBRANCH  36  37
ENDBRANCH  29  31
ENDBRANCH  28  29
ENDBRANCH  27  28
ENDBRANCH   1  27
TORSDOF 15
ENDMDL
