MODEL 1
REMARK VINA RESULT:     -11.6      0.000      0.000
REMARK SMILES O=C(OCCOC(=O)[C@H]1C[C@](O)(c2ccccc2Cl)[C@@H](c2ccccc2Cl)O1)c1ccc(-c2c3nc(c(-c4ccccc4)c4ccc([nH]4)c(-c4ccccc4)c4nc(c(-c5ccccc5)c5ccc2[nH]5)C=C4)C=C3)cc1
REMARK SMILES IDX 4 1 3 2 2 3 1 4 29 5 30 6 76 7 31 8 75 9 32 10 33 11 34 12
REMARK SMILES IDX 69 13 35 14 74 15 68 16 70 17 36 18 73 19 67 20 66 21 37 23
REMARK SMILES IDX 59 24 44 25 58 26 45 27 48 28 57 29 71 30 46 31 47 32 56 34
REMARK SMILES IDX 72 35 49 36 38 37 39 38 43 39 40 40 42 41 41 42 60 43 61 44
REMARK SMILES IDX 65 45 62 46 64 47 63 48 50 49 51 50 55 51 52 52 54 53 53 54
REMARK SMILES IDX 5 55 6 56 7 57 8 58 9 59 10 60 28 61 11 62 20 63 13 64 14 65
REMARK SMILES IDX 18 66 15 67 17 68 19 69 16 70 12 71 21 73 22 74 26 75 23 76
REMARK SMILES IDX 25 77 27 78 24 79
REMARK H PARENT 70 22 48 33 12 72
REMARK Flexibility Score: inf
ROOT
ATOM      1  C   UNL A   1      31.652  32.094  27.124  1.00  0.00     0.275 C 
ENDROOT
BRANCH   1   2
ATOM      2  O   UNL A   1      32.478  33.273  27.088  1.00  0.00    -0.458 OA
BRANCH   2   3
ATOM      3  C   UNL A   1      32.980  33.853  28.213  1.00  0.00     0.338 C 
ATOM      4  O   UNL A   1      32.465  34.852  28.702  1.00  0.00    -0.246 OA
BRANCH   3   5
ATOM      5  C   UNL A   1      34.338  33.435  28.665  1.00  0.00     0.060 A 
ATOM      6  C   UNL A   1      35.515  33.783  28.000  1.00  0.00     0.016 A 
ATOM      7  C   UNL A   1      34.421  32.648  29.827  1.00  0.00     0.016 A 
ATOM      8  C   UNL A   1      36.756  33.437  28.528  1.00  0.00     0.010 A 
ATOM      9  C   UNL A   1      35.665  32.312  30.374  1.00  0.00     0.010 A 
ATOM     10  C   UNL A   1      36.837  32.690  29.708  1.00  0.00    -0.014 A 
BRANCH  10  11
ATOM     11  C   UNL A   1      38.140  32.067  30.020  1.00  0.00     0.031 A 
ATOM     12  C   UNL A   1      38.934  32.698  31.127  1.00  0.00     0.074 A 
ATOM     13  C   UNL A   1      38.516  30.900  29.467  1.00  0.00     0.049 A 
ATOM     14  N   UNL A   1      40.001  32.258  31.738  1.00  0.00    -0.248 NA
ATOM     15  C   UNL A   1      38.435  33.989  31.633  1.00  0.00     0.031 C 
ATOM     16  C   UNL A   1      37.771  30.168  28.443  1.00  0.00     0.029 A 
ATOM     17  N   UNL A   1      39.601  30.102  29.724  1.00  0.00    -0.354 N 
ATOM     18  C   UNL A   1      40.289  33.214  32.704  1.00  0.00     0.074 A 
ATOM     19  C   UNL A   1      39.320  34.275  32.569  1.00  0.00     0.031 C 
ATOM     20  C   UNL A   1      38.406  29.012  28.178  1.00  0.00     0.029 A 
ATOM     21  C   UNL A   1      39.610  28.933  29.002  1.00  0.00     0.049 A 
ATOM     22  H   UNL A   1      40.307  30.344  30.365  1.00  0.00     0.167 HD
ATOM     23  C   UNL A   1      41.269  33.206  33.635  1.00  0.00     0.031 A 
ATOM     24  C   UNL A   1      40.488  27.912  29.019  1.00  0.00     0.031 A 
ATOM     25  C   UNL A   1      42.255  32.171  33.728  1.00  0.00     0.049 A 
ATOM     26  C   UNL A   1      41.642  27.979  29.986  1.00  0.00     0.074 A 
ATOM     27  C   UNL A   1      43.331  32.074  34.588  1.00  0.00     0.029 A 
ATOM     28  N   UNL A   1      42.290  31.054  32.904  1.00  0.00    -0.354 N 
ATOM     29  N   UNL A   1      41.901  28.882  30.902  1.00  0.00    -0.248 NA
ATOM     30  C   UNL A   1      42.617  26.882  29.930  1.00  0.00     0.031 C 
ATOM     31  C   UNL A   1      44.052  30.927  34.243  1.00  0.00     0.029 A 
ATOM     32  C   UNL A   1      43.386  30.273  33.215  1.00  0.00     0.049 A 
ATOM     33  H   UNL A   1      41.630  30.849  32.202  1.00  0.00     0.167 HD
ATOM     34  C   UNL A   1      43.049  28.450  31.552  1.00  0.00     0.074 A 
ATOM     35  C   UNL A   1      43.428  27.195  30.931  1.00  0.00     0.031 C 
ATOM     36  C   UNL A   1      43.730  29.029  32.572  1.00  0.00     0.031 A 
BRANCH  23  37
ATOM     37  C   UNL A   1      41.335  34.401  34.543  1.00  0.00    -0.014 A 
ATOM     38  C   UNL A   1      40.622  34.444  35.755  1.00  0.00     0.009 A 
ATOM     39  C   UNL A   1      42.048  35.537  34.135  1.00  0.00     0.009 A 
ATOM     40  C   UNL A   1      40.572  35.621  36.504  1.00  0.00     0.001 A 
ATOM     41  C   UNL A   1      42.023  36.702  34.903  1.00  0.00     0.001 A 
ATOM     42  C   UNL A   1      41.271  36.749  36.077  1.00  0.00     0.000 A 
ENDBRANCH  23  37
BRANCH  24  43
ATOM     43  C   UNL A   1      40.315  26.747  28.108  1.00  0.00    -0.014 A 
ATOM     44  C   UNL A   1      40.899  26.730  26.831  1.00  0.00     0.009 A 
ATOM     45  C   UNL A   1      39.544  25.642  28.507  1.00  0.00     0.009 A 
ATOM     46  C   UNL A   1      40.696  25.647  25.970  1.00  0.00     0.001 A 
ATOM     47  C   UNL A   1      39.366  24.549  27.655  1.00  0.00     0.001 A 
ATOM     48  C   UNL A   1      39.935  24.556  26.383  1.00  0.00     0.000 A 
ENDBRANCH  24  43
BRANCH  36  49
ATOM     49  C   UNL A   1      44.927  28.294  33.103  1.00  0.00    -0.014 A 
ATOM     50  C   UNL A   1      46.221  28.572  32.641  1.00  0.00     0.009 A 
ATOM     51  C   UNL A   1      44.756  27.356  34.134  1.00  0.00     0.009 A 
ATOM     52  C   UNL A   1      47.319  27.899  33.180  1.00  0.00     0.001 A 
ATOM     53  C   UNL A   1      45.857  26.710  34.693  1.00  0.00     0.001 A 
ATOM     54  C   UNL A   1      47.137  26.976  34.210  1.00  0.00     0.000 A 
ENDBRANCH  36  49
ENDBRANCH  10  11
ENDBRANCH   3   5
ENDBRANCH   2   3
ENDBRANCH   1   2
BRANCH   1  55
ATOM     55  C   UNL A   1      32.485  30.809  27.020  1.00  0.00     0.274 C 
BRANCH  55  56
ATOM     56  O   UNL A   1      31.654  29.727  26.581  1.00  0.00    -0.460 OA
BRANCH  56  57
ATOM     57  C   UNL A   1      31.920  28.485  27.085  1.00  0.00     0.335 C 
ATOM     58  O   UNL A   1      31.361  27.992  28.055  1.00  0.00    -0.249 OA
BRANCH  57  59
ATOM     59  C   UNL A   1      32.976  27.803  26.204  1.00  0.00     0.232 C 
ATOM     60  C   UNL A   1      33.108  26.302  26.333  1.00  0.00     0.087 C 
ATOM     61  O   UNL A   1      32.688  28.093  24.848  1.00  0.00    -0.355 OA
ATOM     62  C   UNL A   1      32.780  25.693  24.950  1.00  0.00     0.124 C 
ATOM     63  C   UNL A   1      32.325  26.917  24.114  1.00  0.00     0.187 C 
BRANCH  62  64
ATOM     64  C   UNL A   1      33.945  24.776  24.500  1.00  0.00     0.005 A 
ATOM     65  C   UNL A   1      35.033  24.698  25.419  1.00  0.00     0.008 A 
ATOM     66  C   UNL A   1      34.092  24.004  23.329  1.00  0.00     0.047 A 
ATOM     67  C   UNL A   1      36.156  23.891  25.213  1.00  0.00     0.001 A 
ATOM     68  C   UNL A   1      35.207  23.158  23.149  1.00  0.00     0.021 A 
ATOM     69  Cl  UNL A   1      33.047  24.005  21.957  1.00  0.00    -0.084 Cl
ATOM     70  C   UNL A   1      36.233  23.099  24.084  1.00  0.00     0.002 A 
ENDBRANCH  62  64
BRANCH  62  71
ATOM     71  O   UNL A   1      31.664  24.800  25.156  1.00  0.00    -0.382 OA
ATOM     72  H   UNL A   1      31.983  23.884  25.182  1.00  0.00     0.212 HD
ENDBRANCH  62  71
BRANCH  63  73
ATOM     73  C   UNL A   1      30.872  27.111  23.696  1.00  0.00     0.003 A 
ATOM     74  C   UNL A   1      29.877  26.236  24.168  1.00  0.00     0.008 A 
ATOM     75  C   UNL A   1      30.445  28.240  22.968  1.00  0.00     0.046 A 
ATOM     76  C   UNL A   1      28.519  26.532  24.030  1.00  0.00     0.000 A 
ATOM     77  C   UNL A   1      29.083  28.529  22.820  1.00  0.00     0.021 A 
ATOM     78  Cl  UNL A   1      31.543  29.334  22.201  1.00  0.00    -0.084 Cl
ATOM     79  C   UNL A   1      28.121  27.691  23.376  1.00  0.00     0.002 A 
ENDBRANCH  63  73
ENDBRANCH  57  59
ENDBRANCH  56  57
ENDBRANCH  55  56
ENDBRANCH   1  55
TORSDOF 14
ENDMDL
MODEL 2
REMARK VINA RESULT:     -11.5      4.715      8.350
REMARK SMILES O=C(OCCOC(=O)[C@H]1C[C@](O)(c2ccccc2Cl)[C@@H](c2ccccc2Cl)O1)c1ccc(-c2c3nc(c(-c4ccccc4)c4ccc([nH]4)c(-c4ccccc4)c4nc(c(-c5ccccc5)c5ccc2[nH]5)C=C4)C=C3)cc1
REMARK SMILES IDX 4 1 3 2 2 3 1 4 29 5 30 6 76 7 31 8 75 9 32 10 33 11 34 12
REMARK SMILES IDX 69 13 35 14 74 15 68 16 70 17 36 18 73 19 67 20 66 21 37 23
REMARK SMILES IDX 59 24 44 25 58 26 45 27 48 28 57 29 71 30 46 31 47 32 56 34
REMARK SMILES IDX 72 35 49 36 38 37 39 38 43 39 40 40 42 41 41 42 60 43 61 44
REMARK SMILES IDX 65 45 62 46 64 47 63 48 50 49 51 50 55 51 52 52 54 53 53 54
REMARK SMILES IDX 5 55 6 56 7 57 8 58 9 59 10 60 28 61 11 62 20 63 13 64 14 65
REMARK SMILES IDX 18 66 15 67 17 68 19 69 16 70 12 71 21 73 22 74 26 75 23 76
REMARK SMILES IDX 25 77 27 78 24 79
REMARK H PARENT 70 22 48 33 12 72
REMARK Flexibility Score: inf
ROOT
ATOM      1  C   UNL A   1      34.402  33.788  29.246  1.00  0.00     0.275 C 
ENDROOT
BRANCH   1   2
ATOM      2  O   UNL A   1      34.366  32.364  29.455  1.00  0.00    -0.458 OA
BRANCH   2   3
ATOM      3  C   UNL A   1      34.802  31.474  28.522  1.00  0.00     0.338 C 
ATOM      4  O   UNL A   1      34.086  31.120  27.591  1.00  0.00    -0.246 OA
BRANCH   3   5
ATOM      5  C   UNL A   1      36.047  30.708  28.818  1.00  0.00     0.060 A 
ATOM      6  C   UNL A   1      36.249  29.985  29.994  1.00  0.00     0.016 A 
ATOM      7  C   UNL A   1      37.064  30.725  27.847  1.00  0.00     0.016 A 
ATOM      8  C   UNL A   1      37.398  29.218  30.166  1.00  0.00     0.010 A 
ATOM      9  C   UNL A   1      38.213  29.942  28.004  1.00  0.00     0.010 A 
ATOM     10  C   UNL A   1      38.390  29.202  29.180  1.00  0.00    -0.014 A 
BRANCH  10  11
ATOM     11  C   UNL A   1      39.710  28.664  29.565  1.00  0.00     0.031 A 
ATOM     12  C   UNL A   1      40.359  29.282  30.770  1.00  0.00     0.074 A 
ATOM     13  C   UNL A   1      40.224  27.566  28.981  1.00  0.00     0.049 A 
ATOM     14  N   UNL A   1      41.405  28.888  31.444  1.00  0.00    -0.248 NA
ATOM     15  C   UNL A   1      39.716  30.496  31.304  1.00  0.00     0.031 C 
ATOM     16  C   UNL A   1      39.626  26.845  27.858  1.00  0.00     0.029 A 
ATOM     17  N   UNL A   1      41.347  26.839  29.284  1.00  0.00    -0.354 N 
ATOM     18  C   UNL A   1      41.535  29.801  32.483  1.00  0.00     0.074 A 
ATOM     19  C   UNL A   1      40.497  30.790  32.327  1.00  0.00     0.031 C 
ATOM     20  C   UNL A   1      40.372  25.761  27.583  1.00  0.00     0.029 A 
ATOM     21  C   UNL A   1      41.509  25.722  28.500  1.00  0.00     0.049 A 
ATOM     22  H   UNL A   1      41.976  27.094  29.995  1.00  0.00     0.167 HD
ATOM     23  C   UNL A   1      42.435  29.809  33.492  1.00  0.00     0.031 A 
ATOM     24  C   UNL A   1      42.464  24.774  28.534  1.00  0.00     0.031 A 
ATOM     25  C   UNL A   1      43.492  28.849  33.610  1.00  0.00     0.049 A 
ATOM     26  C   UNL A   1      43.527  24.867  29.597  1.00  0.00     0.074 A 
ATOM     27  C   UNL A   1      44.500  28.781  34.551  1.00  0.00     0.029 A 
ATOM     28  N   UNL A   1      43.685  27.792  32.729  1.00  0.00    -0.354 N 
ATOM     29  N   UNL A   1      43.637  25.728  30.582  1.00  0.00    -0.248 NA
ATOM     30  C   UNL A   1      44.590  23.855  29.562  1.00  0.00     0.031 C 
ATOM     31  C   UNL A   1      45.338  27.717  34.204  1.00  0.00     0.029 A 
ATOM     32  C   UNL A   1      44.812  27.080  33.088  1.00  0.00     0.049 A 
ATOM     33  H   UNL A   1      43.102  27.582  31.964  1.00  0.00     0.167 HD
ATOM     34  C   UNL A   1      44.761  25.345  31.301  1.00  0.00     0.074 A 
ATOM     35  C   UNL A   1      45.290  24.165  30.646  1.00  0.00     0.031 C 
ATOM     36  C   UNL A   1      45.307  25.910  32.408  1.00  0.00     0.031 A 
BRANCH  23  37
ATOM     37  C   UNL A   1      42.330  30.946  34.469  1.00  0.00    -0.014 A 
ATOM     38  C   UNL A   1      41.382  30.937  35.507  1.00  0.00     0.009 A 
ATOM     39  C   UNL A   1      43.130  32.082  34.290  1.00  0.00     0.009 A 
ATOM     40  C   UNL A   1      41.196  32.069  36.304  1.00  0.00     0.001 A 
ATOM     41  C   UNL A   1      42.965  33.200  35.110  1.00  0.00     0.001 A 
ATOM     42  C   UNL A   1      41.986  33.200  36.103  1.00  0.00     0.000 A 
ENDBRANCH  23  37
BRANCH  24  43
ATOM     43  C   UNL A   1      42.460  23.658  27.547  1.00  0.00    -0.014 A 
ATOM     44  C   UNL A   1      43.044  23.809  26.279  1.00  0.00     0.009 A 
ATOM     45  C   UNL A   1      41.853  22.432  27.864  1.00  0.00     0.009 A 
ATOM     46  C   UNL A   1      43.000  22.768  25.346  1.00  0.00     0.001 A 
ATOM     47  C   UNL A   1      41.834  21.383  26.940  1.00  0.00     0.001 A 
ATOM     48  C   UNL A   1      42.401  21.555  25.678  1.00  0.00     0.000 A 
ENDBRANCH  24  43
BRANCH  36  49
ATOM     49  C   UNL A   1      46.514  25.237  32.996  1.00  0.00    -0.014 A 
ATOM     50  C   UNL A   1      47.814  25.627  32.644  1.00  0.00     0.009 A 
ATOM     51  C   UNL A   1      46.339  24.241  33.970  1.00  0.00     0.009 A 
ATOM     52  C   UNL A   1      48.918  25.009  33.236  1.00  0.00     0.001 A 
ATOM     53  C   UNL A   1      47.442  23.649  34.583  1.00  0.00     0.001 A 
ATOM     54  C   UNL A   1      48.730  24.027  34.209  1.00  0.00     0.000 A 
ENDBRANCH  36  49
ENDBRANCH  10  11
ENDBRANCH   3   5
ENDBRANCH   2   3
ENDBRANCH   1   2
BRANCH   1  55
ATOM     55  C   UNL A   1      33.698  34.549  30.378  1.00  0.00     0.274 C 
BRANCH  55  56
ATOM     56  O   UNL A   1      34.613  34.761  31.461  1.00  0.00    -0.460 OA
BRANCH  56  57
ATOM     57  C   UNL A   1      34.520  33.923  32.536  1.00  0.00     0.335 C 
ATOM     58  O   UNL A   1      33.921  32.856  32.538  1.00  0.00    -0.249 OA
BRANCH  57  59
ATOM     59  C   UNL A   1      35.333  34.507  33.699  1.00  0.00     0.232 C 
ATOM     60  C   UNL A   1      35.880  33.527  34.712  1.00  0.00     0.087 C 
ATOM     61  O   UNL A   1      36.428  35.229  33.166  1.00  0.00    -0.355 OA
ATOM     62  C   UNL A   1      37.422  33.648  34.680  1.00  0.00     0.124 C 
ATOM     63  C   UNL A   1      37.683  34.627  33.507  1.00  0.00     0.187 C 
BRANCH  62  64
ATOM     64  C   UNL A   1      37.947  33.920  36.112  1.00  0.00     0.005 A 
ATOM     65  C   UNL A   1      37.368  33.103  37.126  1.00  0.00     0.008 A 
ATOM     66  C   UNL A   1      38.914  34.844  36.564  1.00  0.00     0.047 A 
ATOM     67  C   UNL A   1      37.742  33.167  38.472  1.00  0.00     0.001 A 
ATOM     68  C   UNL A   1      39.318  34.872  37.916  1.00  0.00     0.021 A 
ATOM     69  Cl  UNL A   1      39.674  36.078  35.630  1.00  0.00    -0.084 Cl
ATOM     70  C   UNL A   1      38.739  34.040  38.865  1.00  0.00     0.002 A 
ENDBRANCH  62  64
BRANCH  62  71
ATOM     71  O   UNL A   1      37.924  32.337  34.343  1.00  0.00    -0.382 OA
ATOM     72  H   UNL A   1      38.221  31.887  35.150  1.00  0.00     0.212 HD
ENDBRANCH  62  71
BRANCH  63  73
ATOM     73  C   UNL A   1      38.301  34.162  32.193  1.00  0.00     0.003 A 
ATOM     74  C   UNL A   1      37.482  33.669  31.161  1.00  0.00     0.008 A 
ATOM     75  C   UNL A   1      39.667  34.350  31.898  1.00  0.00     0.046 A 
ATOM     76  C   UNL A   1      37.970  33.489  29.864  1.00  0.00     0.000 A 
ATOM     77  C   UNL A   1      40.156  34.157  30.601  1.00  0.00     0.021 A 
ATOM     78  Cl  UNL A   1      40.831  34.813  33.090  1.00  0.00    -0.084 Cl
ATOM     79  C   UNL A   1      39.302  33.755  29.578  1.00  0.00     0.002 A 
ENDBRANCH  63  73
ENDBRANCH  57  59
ENDBRANCH  56  57
ENDBRANCH  55  56
ENDBRANCH   1  55
TORSDOF 14
ENDMDL
MODEL 3
REMARK VINA RESULT:     -11.4      3.866      8.884
REMARK SMILES O=C(OCCOC(=O)[C@H]1C[C@](O)(c2ccccc2Cl)[C@@H](c2ccccc2Cl)O1)c1ccc(-c2c3nc(c(-c4ccccc4)c4ccc([nH]4)c(-c4ccccc4)c4nc(c(-c5ccccc5)c5ccc2[nH]5)C=C4)C=C3)cc1
REMARK SMILES IDX 4 1 3 2 2 3 1 4 29 5 30 6 76 7 31 8 75 9 32 10 33 11 34 12
REMARK SMILES IDX 69 13 35 14 74 15 68 16 70 17 36 18 73 19 67 20 66 21 37 23
REMARK SMILES IDX 59 24 44 25 58 26 45 27 48 28 57 29 71 30 46 31 47 32 56 34
REMARK SMILES IDX 72 35 49 36 38 37 39 38 43 39 40 40 42 41 41 42 60 43 61 44
REMARK SMILES IDX 65 45 62 46 64 47 63 48 50 49 51 50 55 51 52 52 54 53 53 54
REMARK SMILES IDX 5 55 6 56 7 57 8 58 9 59 10 60 28 61 11 62 20 63 13 64 14 65
REMARK SMILES IDX 18 66 15 67 17 68 19 69 16 70 12 71 21 73 22 74 26 75 23 76
REMARK SMILES IDX 25 77 27 78 24 79
REMARK H PARENT 70 22 48 33 12 72
REMARK Flexibility Score: inf
ROOT
ATOM      1  C   UNL A   1      38.886  20.469  25.684  1.00  0.00     0.275 C 
ENDROOT
BRANCH   1   2
ATOM      2  O   UNL A   1      39.839  19.391  25.757  1.00  0.00    -0.458 OA
BRANCH   2   3
ATOM      3  C   UNL A   1      41.173  19.600  25.923  1.00  0.00     0.338 C 
ATOM      4  O   UNL A   1      41.986  18.694  25.783  1.00  0.00    -0.246 OA
BRANCH   3   5
ATOM      5  C   UNL A   1      41.603  20.872  26.574  1.00  0.00     0.060 A 
ATOM      6  C   UNL A   1      41.534  21.099  27.949  1.00  0.00     0.016 A 
ATOM      7  C   UNL A   1      42.103  21.889  25.741  1.00  0.00     0.016 A 
ATOM      8  C   UNL A   1      42.038  22.274  28.499  1.00  0.00     0.010 A 
ATOM      9  C   UNL A   1      42.629  23.064  26.288  1.00  0.00     0.010 A 
ATOM     10  C   UNL A   1      42.575  23.267  27.672  1.00  0.00    -0.014 A 
BRANCH  10  11
ATOM     11  C   UNL A   1      42.764  24.606  28.267  1.00  0.00     0.031 A 
ATOM     12  C   UNL A   1      44.183  25.033  28.512  1.00  0.00     0.074 A 
ATOM     13  C   UNL A   1      41.740  25.464  28.420  1.00  0.00     0.049 A 
ATOM     14  N   UNL A   1      44.652  26.208  28.834  1.00  0.00    -0.248 NA
ATOM     15  C   UNL A   1      45.215  23.996  28.336  1.00  0.00     0.031 C 
ATOM     16  C   UNL A   1      40.337  25.169  28.130  1.00  0.00     0.029 A 
ATOM     17  N   UNL A   1      41.730  26.777  28.814  1.00  0.00    -0.354 N 
ATOM     18  C   UNL A   1      46.031  26.048  28.889  1.00  0.00     0.074 A 
ATOM     19  C   UNL A   1      46.321  24.662  28.614  1.00  0.00     0.031 C 
ATOM     20  C   UNL A   1      39.603  26.278  28.330  1.00  0.00     0.029 A 
ATOM     21  C   UNL A   1      40.483  27.355  28.776  1.00  0.00     0.049 A 
ATOM     22  H   UNL A   1      42.539  27.260  29.097  1.00  0.00     0.167 HD
ATOM     23  C   UNL A   1      46.980  26.979  29.134  1.00  0.00     0.031 A 
ATOM     24  C   UNL A   1      40.106  28.616  29.060  1.00  0.00     0.031 A 
ATOM     25  C   UNL A   1      46.679  28.343  29.454  1.00  0.00     0.049 A 
ATOM     26  C   UNL A   1      41.170  29.611  29.445  1.00  0.00     0.074 A 
ATOM     27  C   UNL A   1      47.545  29.369  29.777  1.00  0.00     0.029 A 
ATOM     28  N   UNL A   1      45.392  28.862  29.509  1.00  0.00    -0.354 N 
ATOM     29  N   UNL A   1      42.473  29.453  29.484  1.00  0.00    -0.248 NA
ATOM     30  C   UNL A   1      40.716  30.958  29.813  1.00  0.00     0.031 C 
ATOM     31  C   UNL A   1      46.777  30.495  30.087  1.00  0.00     0.029 A 
ATOM     32  C   UNL A   1      45.436  30.189  29.890  1.00  0.00     0.049 A 
ATOM     33  H   UNL A   1      44.570  28.359  29.307  1.00  0.00     0.167 HD
ATOM     34  C   UNL A   1      42.996  30.686  29.851  1.00  0.00     0.074 A 
ATOM     35  C   UNL A   1      41.868  31.584  30.010  1.00  0.00     0.031 C 
ATOM     36  C   UNL A   1      44.290  31.050  30.037  1.00  0.00     0.031 A 
BRANCH  23  37
ATOM     37  C   UNL A   1      48.403  26.495  29.139  1.00  0.00    -0.014 A 
ATOM     38  C   UNL A   1      49.012  26.018  30.313  1.00  0.00     0.009 A 
ATOM     39  C   UNL A   1      49.171  26.607  27.972  1.00  0.00     0.009 A 
ATOM     40  C   UNL A   1      50.378  25.723  30.330  1.00  0.00     0.001 A 
ATOM     41  C   UNL A   1      50.528  26.280  27.985  1.00  0.00     0.001 A 
ATOM     42  C   UNL A   1      51.134  25.856  29.167  1.00  0.00     0.000 A 
ENDBRANCH  23  37
BRANCH  24  43
ATOM     43  C   UNL A   1      38.673  29.014  28.986  1.00  0.00    -0.014 A 
ATOM     44  C   UNL A   1      38.099  29.438  27.776  1.00  0.00     0.009 A 
ATOM     45  C   UNL A   1      37.868  28.989  30.137  1.00  0.00     0.009 A 
ATOM     46  C   UNL A   1      36.763  29.847  27.726  1.00  0.00     0.001 A 
ATOM     47  C   UNL A   1      36.525  29.372  30.079  1.00  0.00     0.001 A 
ATOM     48  C   UNL A   1      35.976  29.809  28.875  1.00  0.00     0.000 A 
ENDBRANCH  24  43
BRANCH  36  49
ATOM     49  C   UNL A   1      44.554  32.485  30.393  1.00  0.00    -0.014 A 
ATOM     50  C   UNL A   1      44.604  32.911  31.728  1.00  0.00     0.009 A 
ATOM     51  C   UNL A   1      44.824  33.409  29.370  1.00  0.00     0.009 A 
ATOM     52  C   UNL A   1      44.889  34.244  32.030  1.00  0.00     0.001 A 
ATOM     53  C   UNL A   1      45.141  34.731  29.676  1.00  0.00     0.001 A 
ATOM     54  C   UNL A   1      45.165  35.150  31.005  1.00  0.00     0.000 A 
ENDBRANCH  36  49
ENDBRANCH  10  11
ENDBRANCH   3   5
ENDBRANCH   2   3
ENDBRANCH   1   2
BRANCH   1  55
ATOM     55  C   UNL A   1      37.693  20.117  24.786  1.00  0.00     0.274 C 
BRANCH  55  56
ATOM     56  O   UNL A   1      36.562  20.923  25.144  1.00  0.00    -0.460 OA
BRANCH  56  57
ATOM     57  C   UNL A   1      36.482  22.171  24.596  1.00  0.00     0.335 C 
ATOM     58  O   UNL A   1      36.991  22.501  23.533  1.00  0.00    -0.249 OA
BRANCH  57  59
ATOM     59  C   UNL A   1      35.605  23.056  25.493  1.00  0.00     0.232 C 
ATOM     60  C   UNL A   1      35.113  24.357  24.899  1.00  0.00     0.087 C 
ATOM     61  O   UNL A   1      34.469  22.310  25.891  1.00  0.00    -0.355 OA
ATOM     62  C   UNL A   1      33.567  24.297  24.883  1.00  0.00     0.124 C 
ATOM     63  C   UNL A   1      33.256  22.854  25.357  1.00  0.00     0.187 C 
BRANCH  62  64
ATOM     64  C   UNL A   1      32.995  25.542  25.607  1.00  0.00     0.005 A 
ATOM     65  C   UNL A   1      33.938  26.587  25.834  1.00  0.00     0.008 A 
ATOM     66  C   UNL A   1      31.687  25.803  26.068  1.00  0.00     0.047 A 
ATOM     67  C   UNL A   1      33.605  27.806  26.432  1.00  0.00     0.001 A 
ATOM     68  C   UNL A   1      31.349  27.052  26.631  1.00  0.00     0.021 A 
ATOM     69  Cl  UNL A   1      30.367  24.694  26.099  1.00  0.00    -0.084 Cl
ATOM     70  C   UNL A   1      32.299  28.049  26.811  1.00  0.00     0.002 A 
ENDBRANCH  62  64
BRANCH  62  71
ATOM     71  O   UNL A   1      33.171  24.455  23.504  1.00  0.00    -0.382 OA
ATOM     72  H   UNL A   1      32.311  24.026  23.364  1.00  0.00     0.212 HD
ENDBRANCH  62  71
BRANCH  63  73
ATOM     73  C   UNL A   1      32.700  21.797  24.409  1.00  0.00     0.003 A 
ATOM     74  C   UNL A   1      32.227  22.167  23.137  1.00  0.00     0.008 A 
ATOM     75  C   UNL A   1      32.781  20.419  24.691  1.00  0.00     0.046 A 
ATOM     76  C   UNL A   1      31.963  21.215  22.150  1.00  0.00     0.000 A 
ATOM     77  C   UNL A   1      32.505  19.465  23.703  1.00  0.00     0.021 A 
ATOM     78  Cl  UNL A   1      33.207  19.801  26.249  1.00  0.00    -0.084 Cl
ATOM     79  C   UNL A   1      32.126  19.863  22.425  1.00  0.00     0.002 A 
ENDBRANCH  63  73
ENDBRANCH  57  59
ENDBRANCH  56  57
ENDBRANCH  55  56
ENDBRANCH   1  55
TORSDOF 14
ENDMDL
