MODEL 1
REMARK VINA RESULT:      -9.4      0.000      0.000
REMARK SMILES CC[C@@](C)(NC(=O)N(C)[C@@H](C)C(C)C)C(=O)OCCOC(=O)c1ccc(-c2c3nc(c(-c4ccccc4)c4ccc([nH]4)c(-c4ccccc4)c4nc(c(-c5ccccc5)c5ccc2[nH]5)C=C4)C=C3)cc1
REMARK SMILES IDX 18 1 17 2 15 3 16 4 3 5 4 6 2 7 1 8 5 9 6 10 7 12 8 13 9 14
REMARK SMILES IDX 10 15 11 16 12 17 13 18 14 19 19 20 20 21 21 22 22 23 23 24
REMARK SMILES IDX 24 25 70 26 25 27 69 28 26 29 27 30 28 31 63 32 29 33 68 34
REMARK SMILES IDX 62 35 64 36 30 37 67 38 61 39 60 40 31 42 53 43 38 44 52 45
REMARK SMILES IDX 39 46 42 47 51 48 65 49 40 50 41 51 50 53 66 54 43 55 32 56
REMARK SMILES IDX 33 57 37 58 34 59 36 60 35 61 54 62 55 63 59 64 56 65 58 66
REMARK SMILES IDX 57 67 44 68 45 69 49 70 46 71 48 72 47 73
REMARK H PARENT 5 11 64 41 42 52
REMARK Flexibility Score: inf
ROOT
ATOM      1  C   UNL A   1      31.890  29.295  26.798  1.00  0.00     0.274 C 
ENDROOT
BRANCH   1   2
ATOM      2  O   UNL A   1      31.695  28.483  25.617  1.00  0.00    -0.460 OA
BRANCH   2   3
ATOM      3  C   UNL A   1      31.350  27.186  25.773  1.00  0.00     0.331 C 
ATOM      4  O   UNL A   1      31.338  26.649  26.877  1.00  0.00    -0.249 OA
BRANCH   3   5
ATOM      5  C   UNL A   1      31.169  26.398  24.425  1.00  0.00     0.136 C 
ATOM      6  C   UNL A   1      30.596  25.015  24.790  1.00  0.00     0.047 C 
BRANCH   5   7
ATOM      7  C   UNL A   1      30.063  27.128  23.548  1.00  0.00     0.037 C 
ATOM      8  C   UNL A   1      30.469  28.111  22.455  1.00  0.00     0.007 C 
ENDBRANCH   5   7
BRANCH   5   9
ATOM      9  N   UNL A   1      32.315  26.251  23.438  1.00  0.00    -0.322 N 
ATOM     10  C   UNL A   1      33.162  25.450  22.780  1.00  0.00     0.318 C 
ATOM     11  H   UNL A   1      32.538  27.167  23.151  1.00  0.00     0.166 HD
ATOM     12  O   UNL A   1      33.831  26.046  21.926  1.00  0.00    -0.249 OA
BRANCH  10  13
ATOM     13  N   UNL A   1      33.364  24.135  23.040  1.00  0.00    -0.325 N 
ATOM     14  C   UNL A   1      33.169  23.093  22.050  1.00  0.00     0.149 C 
BRANCH  13  15
ATOM     15  C   UNL A   1      34.112  23.693  24.261  1.00  0.00     0.086 C 
ATOM     16  C   UNL A   1      33.870  22.192  24.512  1.00  0.00     0.031 C 
BRANCH  15  17
ATOM     17  C   UNL A   1      35.658  23.983  24.382  1.00  0.00     0.005 C 
ATOM     18  C   UNL A   1      36.267  23.821  25.771  1.00  0.00     0.009 C 
ATOM     19  C   UNL A   1      36.464  23.055  23.449  1.00  0.00     0.009 C 
ENDBRANCH  15  17
ENDBRANCH  13  15
ENDBRANCH  10  13
ENDBRANCH   5   9
ENDBRANCH   3   5
ENDBRANCH   2   3
ENDBRANCH   1   2
BRANCH   1  20
ATOM     20  C   UNL A   1      33.171  30.128  26.669  1.00  0.00     0.275 C 
BRANCH  20  21
ATOM     21  O   UNL A   1      34.233  29.558  27.460  1.00  0.00    -0.458 OA
BRANCH  21  22
ATOM     22  C   UNL A   1      34.940  30.488  28.129  1.00  0.00     0.338 C 
ATOM     23  O   UNL A   1      34.521  31.548  28.566  1.00  0.00    -0.246 OA
BRANCH  22  24
ATOM     24  C   UNL A   1      36.259  30.003  28.503  1.00  0.00     0.060 A 
ATOM     25  C   UNL A   1      37.230  30.031  27.503  1.00  0.00     0.016 A 
ATOM     26  C   UNL A   1      36.514  29.426  29.741  1.00  0.00     0.016 A 
ATOM     27  C   UNL A   1      38.478  29.480  27.727  1.00  0.00     0.010 A 
ATOM     28  C   UNL A   1      37.791  28.921  29.991  1.00  0.00     0.010 A 
ATOM     29  C   UNL A   1      38.780  28.963  28.991  1.00  0.00    -0.014 A 
BRANCH  29  30
ATOM     30  C   UNL A   1      40.171  28.567  29.278  1.00  0.00     0.031 A 
ATOM     31  C   UNL A   1      41.096  29.493  29.998  1.00  0.00     0.074 A 
ATOM     32  C   UNL A   1      40.574  27.343  28.889  1.00  0.00     0.049 A 
ATOM     33  N   UNL A   1      42.380  29.365  30.210  1.00  0.00    -0.248 NA
ATOM     34  C   UNL A   1      40.507  30.719  30.555  1.00  0.00     0.031 C 
ATOM     35  C   UNL A   1      39.722  26.338  28.245  1.00  0.00     0.029 A 
ATOM     36  N   UNL A   1      41.794  26.731  28.984  1.00  0.00    -0.354 N 
ATOM     37  C   UNL A   1      42.762  30.509  30.894  1.00  0.00     0.074 A 
ATOM     38  C   UNL A   1      41.573  31.317  31.070  1.00  0.00     0.031 C 
ATOM     39  C   UNL A   1      40.439  25.228  28.025  1.00  0.00     0.029 A 
ATOM     40  C   UNL A   1      41.817  25.474  28.433  1.00  0.00     0.049 A 
ATOM     41  H   UNL A   1      42.579  27.150  29.408  1.00  0.00     0.167 HD
ATOM     42  C   UNL A   1      44.001  30.852  31.319  1.00  0.00     0.031 A 
ATOM     43  C   UNL A   1      42.844  24.632  28.232  1.00  0.00     0.031 A 
ATOM     44  C   UNL A   1      45.170  30.035  31.126  1.00  0.00     0.049 A 
ATOM     45  C   UNL A   1      44.216  25.069  28.645  1.00  0.00     0.074 A 
ATOM     46  C   UNL A   1      46.480  30.298  31.485  1.00  0.00     0.029 A 
ATOM     47  N   UNL A   1      45.165  28.787  30.518  1.00  0.00    -0.354 N 
ATOM     48  N   UNL A   1      44.581  26.180  29.238  1.00  0.00    -0.248 NA
ATOM     49  C   UNL A   1      45.320  24.150  28.344  1.00  0.00     0.031 C 
ATOM     50  C   UNL A   1      47.273  29.227  31.058  1.00  0.00     0.029 A 
ATOM     51  C   UNL A   1      46.450  28.275  30.476  1.00  0.00     0.049 A 
ATOM     52  H   UNL A   1      44.364  28.333  30.169  1.00  0.00     0.167 HD
ATOM     53  C   UNL A   1      45.957  26.094  29.387  1.00  0.00     0.074 A 
ATOM     54  C   UNL A   1      46.356  24.811  28.843  1.00  0.00     0.031 C 
ATOM     55  C   UNL A   1      46.815  26.997  29.920  1.00  0.00     0.031 A 
BRANCH  42  56
ATOM     56  C   UNL A   1      44.157  32.197  31.968  1.00  0.00    -0.014 A 
ATOM     57  C   UNL A   1      44.207  33.377  31.212  1.00  0.00     0.009 A 
ATOM     58  C   UNL A   1      44.247  32.281  33.367  1.00  0.00     0.009 A 
ATOM     59  C   UNL A   1      44.376  34.613  31.843  1.00  0.00     0.001 A 
ATOM     60  C   UNL A   1      44.394  33.519  33.996  1.00  0.00     0.001 A 
ATOM     61  C   UNL A   1      44.467  34.683  33.232  1.00  0.00     0.000 A 
ENDBRANCH  42  56
BRANCH  43  62
ATOM     62  C   UNL A   1      42.612  23.332  27.553  1.00  0.00    -0.014 A 
ATOM     63  C   UNL A   1      42.188  22.210  28.277  1.00  0.00     0.009 A 
ATOM     64  C   UNL A   1      42.788  23.216  26.163  1.00  0.00     0.009 A 
ATOM     65  C   UNL A   1      41.956  20.996  27.626  1.00  0.00     0.001 A 
ATOM     66  C   UNL A   1      42.529  22.011  25.511  1.00  0.00     0.001 A 
ATOM     67  C   UNL A   1      42.120  20.899  26.245  1.00  0.00     0.000 A 
ENDBRANCH  43  62
BRANCH  55  68
ATOM     68  C   UNL A   1      48.262  26.607  29.951  1.00  0.00    -0.014 A 
ATOM     69  C   UNL A   1      49.131  26.965  28.911  1.00  0.00     0.009 A 
ATOM     70  C   UNL A   1      48.764  25.891  31.049  1.00  0.00     0.009 A 
ATOM     71  C   UNL A   1      50.474  26.587  28.954  1.00  0.00     0.001 A 
ATOM     72  C   UNL A   1      50.111  25.534  31.101  1.00  0.00     0.001 A 
ATOM     73  C   UNL A   1      50.963  25.876  30.051  1.00  0.00     0.000 A 
ENDBRANCH  55  68
ENDBRANCH  29  30
ENDBRANCH  22  24
ENDBRANCH  21  22
ENDBRANCH  20  21
ENDBRANCH   1  20
TORSDOF 16
ENDMDL
MODEL 2
REMARK VINA RESULT:      -9.4      2.816      7.824
REMARK SMILES CC[C@@](C)(NC(=O)N(C)[C@@H](C)C(C)C)C(=O)OCCOC(=O)c1ccc(-c2c3nc(c(-c4ccccc4)c4ccc([nH]4)c(-c4ccccc4)c4nc(c(-c5ccccc5)c5ccc2[nH]5)C=C4)C=C3)cc1
REMARK SMILES IDX 18 1 17 2 15 3 16 4 3 5 4 6 2 7 1 8 5 9 6 10 7 12 8 13 9 14
REMARK SMILES IDX 10 15 11 16 12 17 13 18 14 19 19 20 20 21 21 22 22 23 23 24
REMARK SMILES IDX 24 25 70 26 25 27 69 28 26 29 27 30 28 31 63 32 29 33 68 34
REMARK SMILES IDX 62 35 64 36 30 37 67 38 61 39 60 40 31 42 53 43 38 44 52 45
REMARK SMILES IDX 39 46 42 47 51 48 65 49 40 50 41 51 50 53 66 54 43 55 32 56
REMARK SMILES IDX 33 57 37 58 34 59 36 60 35 61 54 62 55 63 59 64 56 65 58 66
REMARK SMILES IDX 57 67 44 68 45 69 49 70 46 71 48 72 47 73
REMARK H PARENT 5 11 64 41 42 52
REMARK Flexibility Score: inf
ROOT
ATOM      1  C   UNL A   1      38.640  19.677  24.913  1.00  0.00     0.274 C 
ENDROOT
BRANCH   1   2
ATOM      2  O   UNL A   1      37.574  20.471  25.484  1.00  0.00    -0.460 OA
BRANCH   2   3
ATOM      3  C   UNL A   1      37.757  21.803  25.611  1.00  0.00     0.331 C 
ATOM      4  O   UNL A   1      38.867  22.286  25.819  1.00  0.00    -0.249 OA
BRANCH   3   5
ATOM      5  C   UNL A   1      36.426  22.637  25.672  1.00  0.00     0.136 C 
ATOM      6  C   UNL A   1      36.822  24.085  26.018  1.00  0.00     0.047 C 
BRANCH   5   7
ATOM      7  C   UNL A   1      35.780  22.680  24.222  1.00  0.00     0.037 C 
ATOM      8  C   UNL A   1      36.653  22.916  22.994  1.00  0.00     0.007 C 
ENDBRANCH   5   7
BRANCH   5   9
ATOM      9  N   UNL A   1      35.256  22.191  26.532  1.00  0.00    -0.322 N 
ATOM     10  C   UNL A   1      33.932  22.151  26.732  1.00  0.00     0.318 C 
ATOM     11  H   UNL A   1      35.654  21.709  27.294  1.00  0.00     0.166 HD
ATOM     12  O   UNL A   1      33.605  21.420  27.676  1.00  0.00    -0.249 OA
BRANCH  10  13
ATOM     13  N   UNL A   1      33.012  22.879  26.054  1.00  0.00    -0.325 N 
ATOM     14  C   UNL A   1      33.010  24.330  26.033  1.00  0.00     0.149 C 
BRANCH  13  15
ATOM     15  C   UNL A   1      32.132  22.245  25.020  1.00  0.00     0.086 C 
ATOM     16  C   UNL A   1      31.491  23.333  24.136  1.00  0.00     0.031 C 
BRANCH  15  17
ATOM     17  C   UNL A   1      32.710  21.111  24.087  1.00  0.00     0.005 C 
ATOM     18  C   UNL A   1      32.465  19.676  24.541  1.00  0.00     0.009 C 
ATOM     19  C   UNL A   1      32.121  21.219  22.665  1.00  0.00     0.009 C 
ENDBRANCH  15  17
ENDBRANCH  13  15
ENDBRANCH  10  13
ENDBRANCH   5   9
ENDBRANCH   3   5
ENDBRANCH   2   3
ENDBRANCH   1   2
BRANCH   1  20
ATOM     20  C   UNL A   1      39.619  19.233  26.006  1.00  0.00     0.275 C 
BRANCH  20  21
ATOM     21  O   UNL A   1      40.965  19.173  25.493  1.00  0.00    -0.458 OA
BRANCH  21  22
ATOM     22  C   UNL A   1      41.896  19.331  26.453  1.00  0.00     0.338 C 
ATOM     23  O   UNL A   1      42.586  18.456  26.950  1.00  0.00    -0.246 OA
BRANCH  22  24
ATOM     24  C   UNL A   1      42.185  20.734  26.703  1.00  0.00     0.060 A 
ATOM     25  C   UNL A   1      42.107  21.150  28.032  1.00  0.00     0.016 A 
ATOM     26  C   UNL A   1      42.402  21.642  25.674  1.00  0.00     0.016 A 
ATOM     27  C   UNL A   1      42.247  22.487  28.353  1.00  0.00     0.010 A 
ATOM     28  C   UNL A   1      42.602  22.985  26.001  1.00  0.00     0.010 A 
ATOM     29  C   UNL A   1      42.541  23.406  27.342  1.00  0.00    -0.014 A 
BRANCH  29  30
ATOM     30  C   UNL A   1      42.889  24.788  27.723  1.00  0.00     0.031 A 
ATOM     31  C   UNL A   1      44.315  25.199  27.888  1.00  0.00     0.074 A 
ATOM     32  C   UNL A   1      41.886  25.667  27.898  1.00  0.00     0.049 A 
ATOM     33  N   UNL A   1      44.793  26.325  28.350  1.00  0.00    -0.248 NA
ATOM     34  C   UNL A   1      45.338  24.225  27.482  1.00  0.00     0.031 C 
ATOM     35  C   UNL A   1      40.463  25.379  27.686  1.00  0.00     0.029 A 
ATOM     36  N   UNL A   1      41.903  26.980  28.282  1.00  0.00    -0.354 N 
ATOM     37  C   UNL A   1      46.172  26.185  28.324  1.00  0.00     0.074 A 
ATOM     38  C   UNL A   1      46.457  24.868  27.793  1.00  0.00     0.031 C 
ATOM     39  C   UNL A   1      39.749  26.488  27.921  1.00  0.00     0.029 A 
ATOM     40  C   UNL A   1      40.652  27.536  28.380  1.00  0.00     0.049 A 
ATOM     41  H   UNL A   1      42.733  27.478  28.469  1.00  0.00     0.167 HD
ATOM     42  C   UNL A   1      47.109  27.077  28.724  1.00  0.00     0.031 A 
ATOM     43  C   UNL A   1      40.270  28.741  28.837  1.00  0.00     0.031 A 
ATOM     44  C   UNL A   1      46.802  28.379  29.256  1.00  0.00     0.049 A 
ATOM     45  C   UNL A   1      41.322  29.678  29.344  1.00  0.00     0.074 A 
ATOM     46  C   UNL A   1      47.669  29.350  29.724  1.00  0.00     0.029 A 
ATOM     47  N   UNL A   1      45.518  28.891  29.388  1.00  0.00    -0.354 N 
ATOM     48  N   UNL A   1      42.623  29.516  29.373  1.00  0.00    -0.248 NA
ATOM     49  C   UNL A   1      40.857  30.954  29.900  1.00  0.00     0.031 C 
ATOM     50  C   UNL A   1      46.907  30.434  30.176  1.00  0.00     0.029 A 
ATOM     51  C   UNL A   1      45.568  30.157  29.946  1.00  0.00     0.049 A 
ATOM     52  H   UNL A   1      44.695  28.423  29.122  1.00  0.00     0.167 HD
ATOM     53  C   UNL A   1      43.135  30.670  29.945  1.00  0.00     0.074 A 
ATOM     54  C   UNL A   1      42.004  31.533  30.225  1.00  0.00     0.031 C 
ATOM     55  C   UNL A   1      44.424  30.987  30.219  1.00  0.00     0.031 A 
BRANCH  42  56
ATOM     56  C   UNL A   1      48.544  26.639  28.665  1.00  0.00    -0.014 A 
ATOM     57  C   UNL A   1      49.114  25.849  29.675  1.00  0.00     0.009 A 
ATOM     58  C   UNL A   1      49.337  27.021  27.572  1.00  0.00     0.009 A 
ATOM     59  C   UNL A   1      50.459  25.476  29.604  1.00  0.00     0.001 A 
ATOM     60  C   UNL A   1      50.675  26.628  27.493  1.00  0.00     0.001 A 
ATOM     61  C   UNL A   1      51.237  25.864  28.514  1.00  0.00     0.000 A 
ENDBRANCH  42  56
BRANCH  43  62
ATOM     62  C   UNL A   1      38.826  29.085  28.894  1.00  0.00    -0.014 A 
ATOM     63  C   UNL A   1      38.076  28.841  30.052  1.00  0.00     0.009 A 
ATOM     64  C   UNL A   1      38.198  29.690  27.792  1.00  0.00     0.009 A 
ATOM     65  C   UNL A   1      36.723  29.184  30.100  1.00  0.00     0.001 A 
ATOM     66  C   UNL A   1      36.853  30.057  27.853  1.00  0.00     0.001 A 
ATOM     67  C   UNL A   1      36.115  29.797  29.005  1.00  0.00     0.000 A 
ENDBRANCH  43  62
BRANCH  55  68
ATOM     68  C   UNL A   1      44.665  32.332  30.837  1.00  0.00    -0.014 A 
ATOM     69  C   UNL A   1      44.754  33.485  30.045  1.00  0.00     0.009 A 
ATOM     70  C   UNL A   1      44.782  32.445  32.230  1.00  0.00     0.009 A 
ATOM     71  C   UNL A   1      44.985  34.728  30.636  1.00  0.00     0.001 A 
ATOM     72  C   UNL A   1      44.990  33.691  32.821  1.00  0.00     0.001 A 
ATOM     73  C   UNL A   1      45.098  34.830  32.023  1.00  0.00     0.000 A 
ENDBRANCH  55  68
ENDBRANCH  29  30
ENDBRANCH  22  24
ENDBRANCH  21  22
ENDBRANCH  20  21
ENDBRANCH   1  20
TORSDOF 16
ENDMDL
MODEL 3
REMARK VINA RESULT:      -9.4      2.679      7.873
REMARK SMILES CC[C@@](C)(NC(=O)N(C)[C@@H](C)C(C)C)C(=O)OCCOC(=O)c1ccc(-c2c3nc(c(-c4ccccc4)c4ccc([nH]4)c(-c4ccccc4)c4nc(c(-c5ccccc5)c5ccc2[nH]5)C=C4)C=C3)cc1
REMARK SMILES IDX 18 1 17 2 15 3 16 4 3 5 4 6 2 7 1 8 5 9 6 10 7 12 8 13 9 14
REMARK SMILES IDX 10 15 11 16 12 17 13 18 14 19 19 20 20 21 21 22 22 23 23 24
REMARK SMILES IDX 24 25 70 26 25 27 69 28 26 29 27 30 28 31 63 32 29 33 68 34
REMARK SMILES IDX 62 35 64 36 30 37 67 38 61 39 60 40 31 42 53 43 38 44 52 45
REMARK SMILES IDX 39 46 42 47 51 48 65 49 40 50 41 51 50 53 66 54 43 55 32 56
REMARK SMILES IDX 33 57 37 58 34 59 36 60 35 61 54 62 55 63 59 64 56 65 58 66
REMARK SMILES IDX 57 67 44 68 45 69 49 70 46 71 48 72 47 73
REMARK H PARENT 5 11 64 41 42 52
REMARK Flexibility Score: inf
ROOT
ATOM      1  C   UNL A   1      36.607  20.911  25.387  1.00  0.00     0.274 C 
ENDROOT
BRANCH   1   2
ATOM      2  O   UNL A   1      35.302  21.422  25.027  1.00  0.00    -0.460 OA
BRANCH   2   3
ATOM      3  C   UNL A   1      34.546  21.999  25.986  1.00  0.00     0.331 C 
ATOM      4  O   UNL A   1      34.434  21.506  27.105  1.00  0.00    -0.249 OA
BRANCH   3   5
ATOM      5  C   UNL A   1      33.684  23.215  25.486  1.00  0.00     0.136 C 
ATOM      6  C   UNL A   1      34.646  24.408  25.325  1.00  0.00     0.047 C 
BRANCH   5   7
ATOM      7  C   UNL A   1      33.125  22.886  24.035  1.00  0.00     0.037 C 
ATOM      8  C   UNL A   1      33.782  23.493  22.799  1.00  0.00     0.007 C 
ENDBRANCH   5   7
BRANCH   5   9
ATOM      9  N   UNL A   1      32.428  23.647  26.224  1.00  0.00    -0.322 N 
ATOM     10  C   UNL A   1      31.452  24.549  26.392  1.00  0.00     0.318 C 
ATOM     11  H   UNL A   1      32.249  22.936  26.882  1.00  0.00     0.166 HD
ATOM     12  O   UNL A   1      30.567  24.168  27.169  1.00  0.00    -0.249 OA
BRANCH  10  13
ATOM     13  N   UNL A   1      31.431  25.793  25.856  1.00  0.00    -0.325 N 
ATOM     14  C   UNL A   1      31.729  26.989  26.620  1.00  0.00     0.149 C 
BRANCH  13  15
ATOM     15  C   UNL A   1      31.418  25.996  24.372  1.00  0.00     0.086 C 
ATOM     16  C   UNL A   1      30.094  25.473  23.780  1.00  0.00     0.031 C 
BRANCH  15  17
ATOM     17  C   UNL A   1      31.708  27.427  23.773  1.00  0.00     0.005 C 
ATOM     18  C   UNL A   1      32.819  27.509  22.731  1.00  0.00     0.009 C 
ATOM     19  C   UNL A   1      30.445  28.006  23.100  1.00  0.00     0.009 C 
ENDBRANCH  15  17
ENDBRANCH  13  15
ENDBRANCH  10  13
ENDBRANCH   5   9
ENDBRANCH   3   5
ENDBRANCH   2   3
ENDBRANCH   1   2
BRANCH   1  20
ATOM     20  C   UNL A   1      37.702  21.896  24.961  1.00  0.00     0.275 C 
BRANCH  20  21
ATOM     21  O   UNL A   1      37.981  22.837  26.017  1.00  0.00    -0.458 OA
BRANCH  21  22
ATOM     22  C   UNL A   1      39.289  22.890  26.335  1.00  0.00     0.338 C 
ATOM     23  O   UNL A   1      40.140  22.062  26.058  1.00  0.00    -0.246 OA
BRANCH  22  24
ATOM     24  C   UNL A   1      39.665  24.189  26.869  1.00  0.00     0.060 A 
ATOM     25  C   UNL A   1      39.231  24.471  28.163  1.00  0.00     0.016 A 
ATOM     26  C   UNL A   1      40.310  25.149  26.099  1.00  0.00     0.016 A 
ATOM     27  C   UNL A   1      39.436  25.723  28.711  1.00  0.00     0.010 A 
ATOM     28  C   UNL A   1      40.570  26.397  26.669  1.00  0.00     0.010 A 
ATOM     29  C   UNL A   1      40.149  26.679  27.982  1.00  0.00    -0.014 A 
BRANCH  29  30
ATOM     30  C   UNL A   1      40.538  27.934  28.653  1.00  0.00     0.031 A 
ATOM     31  C   UNL A   1      41.913  28.109  29.210  1.00  0.00     0.074 A 
ATOM     32  C   UNL A   1      39.624  28.919  28.731  1.00  0.00     0.049 A 
ATOM     33  N   UNL A   1      42.378  29.083  29.946  1.00  0.00    -0.248 NA
ATOM     34  C   UNL A   1      42.893  27.059  28.899  1.00  0.00     0.031 C 
ATOM     35  C   UNL A   1      38.277  28.870  28.151  1.00  0.00     0.029 A 
ATOM     36  N   UNL A   1      39.687  30.153  29.318  1.00  0.00    -0.354 N 
ATOM     37  C   UNL A   1      43.696  28.750  30.218  1.00  0.00     0.074 A 
ATOM     38  C   UNL A   1      43.960  27.487  29.561  1.00  0.00     0.031 C 
ATOM     39  C   UNL A   1      37.652  30.030  28.392  1.00  0.00     0.029 A 
ATOM     40  C   UNL A   1      38.519  30.867  29.212  1.00  0.00     0.049 A 
ATOM     41  H   UNL A   1      40.492  30.497  29.771  1.00  0.00     0.167 HD
ATOM     42  C   UNL A   1      44.594  29.436  30.966  1.00  0.00     0.031 A 
ATOM     43  C   UNL A   1      38.167  32.043  29.758  1.00  0.00     0.031 A 
ATOM     44  C   UNL A   1      44.305  30.687  31.617  1.00  0.00     0.049 A 
ATOM     45  C   UNL A   1      39.154  32.743  30.641  1.00  0.00     0.074 A 
ATOM     46  C   UNL A   1      45.127  31.453  32.424  1.00  0.00     0.029 A 
ATOM     47  N   UNL A   1      43.094  31.358  31.528  1.00  0.00    -0.354 N 
ATOM     48  N   UNL A   1      40.380  32.392  30.944  1.00  0.00    -0.248 NA
ATOM     49  C   UNL A   1      38.705  33.989  31.274  1.00  0.00     0.031 C 
ATOM     50  C   UNL A   1      44.398  32.566  32.858  1.00  0.00     0.029 A 
ATOM     51  C   UNL A   1      43.139  32.518  32.281  1.00  0.00     0.049 A 
ATOM     52  H   UNL A   1      42.317  31.053  31.006  1.00  0.00     0.167 HD
ATOM     53  C   UNL A   1      40.854  33.375  31.799  1.00  0.00     0.074 A 
ATOM     54  C   UNL A   1      39.789  34.348  31.947  1.00  0.00     0.031 C 
ATOM     55  C   UNL A   1      42.058  33.462  32.413  1.00  0.00     0.031 A 
BRANCH  42  56
ATOM     56  C   UNL A   1      45.941  28.807  31.171  1.00  0.00    -0.014 A 
ATOM     57  C   UNL A   1      46.185  27.920  32.230  1.00  0.00     0.009 A 
ATOM     58  C   UNL A   1      46.984  29.104  30.279  1.00  0.00     0.009 A 
ATOM     59  C   UNL A   1      47.456  27.368  32.409  1.00  0.00     0.001 A 
ATOM     60  C   UNL A   1      48.247  28.533  30.448  1.00  0.00     0.001 A 
ATOM     61  C   UNL A   1      48.485  27.672  31.518  1.00  0.00     0.000 A 
ENDBRANCH  42  56
BRANCH  43  62
ATOM     62  C   UNL A   1      36.802  32.582  29.533  1.00  0.00    -0.014 A 
ATOM     63  C   UNL A   1      35.781  32.359  30.466  1.00  0.00     0.009 A 
ATOM     64  C   UNL A   1      36.522  33.352  28.391  1.00  0.00     0.009 A 
ATOM     65  C   UNL A   1      34.504  32.884  30.253  1.00  0.00     0.001 A 
ATOM     66  C   UNL A   1      35.254  33.900  28.195  1.00  0.00     0.001 A 
ATOM     67  C   UNL A   1      34.244  33.659  29.124  1.00  0.00     0.000 A 
ENDBRANCH  43  62
BRANCH  55  68
ATOM     68  C   UNL A   1      42.281  34.665  33.280  1.00  0.00    -0.014 A 
ATOM     69  C   UNL A   1      42.905  35.815  32.775  1.00  0.00     0.009 A 
ATOM     70  C   UNL A   1      41.840  34.652  34.612  1.00  0.00     0.009 A 
ATOM     71  C   UNL A   1      43.110  36.923  33.599  1.00  0.00     0.001 A 
ATOM     72  C   UNL A   1      42.024  35.769  35.426  1.00  0.00     0.001 A 
ATOM     73  C   UNL A   1      42.666  36.900  34.922  1.00  0.00     0.000 A 
ENDBRANCH  55  68
ENDBRANCH  29  30
ENDBRANCH  22  24
ENDBRANCH  21  22
ENDBRANCH  20  21
ENDBRANCH   1  20
TORSDOF 16
ENDMDL
