MODEL 1
REMARK VINA RESULT:     -11.2      0.000      0.000
REMARK SMILES Cc1ccnc(C(=O)c2[nH]c3cc(F)ccc3c2CC(=O)OCCOC(=O)c2ccc(-c3c4nc(c(-c5ccccc5)c5ccc([nH]5)c(-c5ccccc5)c5nc(c(-c6ccccc6)c6ccc3[nH]6)C=C5)C=C4)cc2)c1
REMARK SMILES IDX 23 1 22 2 20 3 21 4 19 5 18 6 9 7 10 8 11 9 17 11 12 12
REMARK SMILES IDX 16 13 13 14 15 15 14 16 7 17 8 18 6 19 1 20 2 21 3 22 76 23
REMARK SMILES IDX 4 24 5 25 24 26 25 27 26 28 27 29 28 30 29 31 75 32 30 33
REMARK SMILES IDX 74 34 31 35 32 36 33 37 68 38 34 39 73 40 67 41 69 42 35 43
REMARK SMILES IDX 72 44 66 45 65 46 36 48 58 49 43 50 57 51 44 52 47 53 56 54
REMARK SMILES IDX 70 55 45 56 46 57 55 59 71 60 48 61 37 62 38 63 42 64 39 65
REMARK SMILES IDX 41 66 40 67 59 68 60 69 64 70 61 71 63 72 62 73 49 74 50 75
REMARK SMILES IDX 54 76 51 77 53 78 52 79
REMARK H PARENT 10 10 69 47 47 58
REMARK Flexibility Score: inf
ROOT
ATOM      1  C   UNL A   1      35.552  22.610  24.471  1.00  0.00     0.274 C 
ENDROOT
BRANCH   1   2
ATOM      2  O   UNL A   1      35.165  23.615  23.505  1.00  0.00    -0.462 OA
BRANCH   2   3
ATOM      3  C   UNL A   1      34.471  24.673  23.991  1.00  0.00     0.310 C 
ATOM      4  O   UNL A   1      33.883  25.488  23.281  1.00  0.00    -0.252 OA
BRANCH   3   5
ATOM      5  C   UNL A   1      34.335  24.735  25.495  1.00  0.00     0.161 C 
BRANCH   5   6
ATOM      6  C   UNL A   1      33.215  25.497  26.130  1.00  0.00     0.000 A 
ATOM      7  C   UNL A   1      31.931  25.058  26.453  1.00  0.00     0.093 A 
ATOM      8  N   UNL A   1      31.245  26.141  26.951  1.00  0.00    -0.351 N 
ATOM      9  C   UNL A   1      31.974  27.289  26.815  1.00  0.00     0.049 A 
ATOM     10  H   UNL A   1      30.347  26.096  27.351  1.00  0.00     0.167 HD
ATOM     11  C   UNL A   1      33.242  26.917  26.376  1.00  0.00     0.004 A 
ATOM     12  C   UNL A   1      31.607  28.616  27.058  1.00  0.00     0.066 A 
ATOM     13  C   UNL A   1      34.218  27.927  26.217  1.00  0.00     0.013 A 
ATOM     14  C   UNL A   1      32.584  29.588  26.866  1.00  0.00     0.125 A 
ATOM     15  C   UNL A   1      33.873  29.262  26.468  1.00  0.00     0.040 A 
ATOM     16  F   UNL A   1      32.268  30.874  27.072  1.00  0.00    -0.207 F 
BRANCH   7  17
ATOM     17  C   UNL A   1      31.260  23.765  26.422  1.00  0.00     0.227 C 
ATOM     18  O   UNL A   1      30.367  23.520  27.231  1.00  0.00    -0.285 OA
BRANCH  17  19
ATOM     19  C   UNL A   1      31.435  22.850  25.228  1.00  0.00     0.113 A 
ATOM     20  C   UNL A   1      33.098  19.565  24.292  1.00  0.00     0.044 C 
ATOM     21  C   UNL A   1      32.387  20.883  24.212  1.00  0.00    -0.047 A 
ATOM     22  C   UNL A   1      32.185  21.479  22.966  1.00  0.00     0.023 A 
ATOM     23  C   UNL A   1      31.987  21.574  25.364  1.00  0.00     0.036 A 
ATOM     24  C   UNL A   1      31.604  22.732  22.919  1.00  0.00     0.112 A 
ATOM     25  N   UNL A   1      31.233  23.426  24.012  1.00  0.00    -0.253 NA
ENDBRANCH  17  19
ENDBRANCH   7  17
ENDBRANCH   5   6
ENDBRANCH   3   5
ENDBRANCH   2   3
ENDBRANCH   1   2
BRANCH   1  26
ATOM     26  C   UNL A   1      37.078  22.516  24.634  1.00  0.00     0.275 C 
BRANCH  26  27
ATOM     27  O   UNL A   1      37.639  23.595  25.416  1.00  0.00    -0.458 OA
BRANCH  27  28
ATOM     28  C   UNL A   1      38.739  23.235  26.101  1.00  0.00     0.338 C 
ATOM     29  O   UNL A   1      39.276  22.133  26.087  1.00  0.00    -0.246 OA
BRANCH  28  30
ATOM     30  C   UNL A   1      39.394  24.332  26.808  1.00  0.00     0.060 A 
ATOM     31  C   UNL A   1      38.981  24.565  28.120  1.00  0.00     0.016 A 
ATOM     32  C   UNL A   1      40.157  25.278  26.123  1.00  0.00     0.016 A 
ATOM     33  C   UNL A   1      39.253  25.780  28.726  1.00  0.00     0.010 A 
ATOM     34  C   UNL A   1      40.500  26.474  26.767  1.00  0.00     0.010 A 
ATOM     35  C   UNL A   1      40.023  26.744  28.060  1.00  0.00    -0.014 A 
BRANCH  35  36
ATOM     36  C   UNL A   1      40.349  27.993  28.786  1.00  0.00     0.031 A 
ATOM     37  C   UNL A   1      39.377  29.135  28.866  1.00  0.00     0.074 A 
ATOM     38  C   UNL A   1      41.505  28.042  29.474  1.00  0.00     0.049 A 
ATOM     39  N   UNL A   1      39.463  30.240  29.563  1.00  0.00    -0.248 NA
ATOM     40  C   UNL A   1      38.143  29.019  28.076  1.00  0.00     0.031 C 
ATOM     41  C   UNL A   1      42.509  26.973  29.506  1.00  0.00     0.029 A 
ATOM     42  N   UNL A   1      42.014  29.005  30.302  1.00  0.00    -0.354 N 
ATOM     43  C   UNL A   1      38.290  30.940  29.315  1.00  0.00     0.074 A 
ATOM     44  C   UNL A   1      37.518  30.150  28.379  1.00  0.00     0.031 C 
ATOM     45  C   UNL A   1      43.493  27.323  30.347  1.00  0.00     0.029 A 
ATOM     46  C   UNL A   1      43.218  28.658  30.865  1.00  0.00     0.049 A 
ATOM     47  H   UNL A   1      41.563  29.862  30.477  1.00  0.00     0.167 HD
ATOM     48  C   UNL A   1      37.894  32.132  29.823  1.00  0.00     0.031 A 
ATOM     49  C   UNL A   1      44.022  29.344  31.694  1.00  0.00     0.031 A 
ATOM     50  C   UNL A   1      38.685  32.943  30.710  1.00  0.00     0.049 A 
ATOM     51  C   UNL A   1      43.610  30.713  32.141  1.00  0.00     0.074 A 
ATOM     52  C   UNL A   1      38.380  34.181  31.252  1.00  0.00     0.029 A 
ATOM     53  N   UNL A   1      39.948  32.606  31.170  1.00  0.00    -0.354 N 
ATOM     54  N   UNL A   1      42.493  31.356  31.904  1.00  0.00    -0.248 NA
ATOM     55  C   UNL A   1      44.576  31.454  32.961  1.00  0.00     0.031 C 
ATOM     56  C   UNL A   1      39.481  34.613  32.002  1.00  0.00     0.029 A 
ATOM     57  C   UNL A   1      40.451  33.626  31.961  1.00  0.00     0.049 A 
ATOM     58  H   UNL A   1      40.418  31.766  30.963  1.00  0.00     0.167 HD
ATOM     59  C   UNL A   1      42.619  32.576  32.549  1.00  0.00     0.074 A 
ATOM     60  C   UNL A   1      43.910  32.573  33.207  1.00  0.00     0.031 C 
ATOM     61  C   UNL A   1      41.746  33.613  32.587  1.00  0.00     0.031 A 
BRANCH  48  62
ATOM     62  C   UNL A   1      36.546  32.646  29.407  1.00  0.00    -0.014 A 
ATOM     63  C   UNL A   1      35.388  32.271  30.106  1.00  0.00     0.009 A 
ATOM     64  C   UNL A   1      36.439  33.557  28.347  1.00  0.00     0.009 A 
ATOM     65  C   UNL A   1      34.144  32.789  29.738  1.00  0.00     0.001 A 
ATOM     66  C   UNL A   1      35.196  34.084  27.990  1.00  0.00     0.001 A 
ATOM     67  C   UNL A   1      34.049  33.697  28.683  1.00  0.00     0.000 A 
ENDBRANCH  48  62
BRANCH  49  68
ATOM     68  C   UNL A   1      45.319  28.759  32.111  1.00  0.00    -0.014 A 
ATOM     69  C   UNL A   1      45.419  27.995  33.282  1.00  0.00     0.009 A 
ATOM     70  C   UNL A   1      46.465  28.954  31.322  1.00  0.00     0.009 A 
ATOM     71  C   UNL A   1      46.647  27.450  33.663  1.00  0.00     0.001 A 
ATOM     72  C   UNL A   1      47.684  28.386  31.692  1.00  0.00     0.001 A 
ATOM     73  C   UNL A   1      47.776  27.641  32.866  1.00  0.00     0.000 A 
ENDBRANCH  49  68
BRANCH  61  74
ATOM     74  C   UNL A   1      42.174  34.818  33.371  1.00  0.00    -0.014 A 
ATOM     75  C   UNL A   1      41.826  34.956  34.723  1.00  0.00     0.009 A 
ATOM     76  C   UNL A   1      42.922  35.828  32.748  1.00  0.00     0.009 A 
ATOM     77  C   UNL A   1      42.188  36.106  35.428  1.00  0.00     0.001 A 
ATOM     78  C   UNL A   1      43.301  36.964  33.462  1.00  0.00     0.001 A 
ATOM     79  C   UNL A   1      42.925  37.107  34.798  1.00  0.00     0.000 A 
ENDBRANCH  61  74
ENDBRANCH  35  36
ENDBRANCH  28  30
ENDBRANCH  27  28
ENDBRANCH  26  27
ENDBRANCH   1  26
TORSDOF 14
ENDMDL
MODEL 2
REMARK VINA RESULT:     -10.9      3.149      7.597
REMARK SMILES Cc1ccnc(C(=O)c2[nH]c3cc(F)ccc3c2CC(=O)OCCOC(=O)c2ccc(-c3c4nc(c(-c5ccccc5)c5ccc([nH]5)c(-c5ccccc5)c5nc(c(-c6ccccc6)c6ccc3[nH]6)C=C5)C=C4)cc2)c1
REMARK SMILES IDX 23 1 22 2 20 3 21 4 19 5 18 6 9 7 10 8 11 9 17 11 12 12
REMARK SMILES IDX 16 13 13 14 15 15 14 16 7 17 8 18 6 19 1 20 2 21 3 22 76 23
REMARK SMILES IDX 4 24 5 25 24 26 25 27 26 28 27 29 28 30 29 31 75 32 30 33
REMARK SMILES IDX 74 34 31 35 32 36 33 37 68 38 34 39 73 40 67 41 69 42 35 43
REMARK SMILES IDX 72 44 66 45 65 46 36 48 58 49 43 50 57 51 44 52 47 53 56 54
REMARK SMILES IDX 70 55 45 56 46 57 55 59 71 60 48 61 37 62 38 63 42 64 39 65
REMARK SMILES IDX 41 66 40 67 59 68 60 69 64 70 61 71 63 72 62 73 49 74 50 75
REMARK SMILES IDX 54 76 51 77 53 78 52 79
REMARK H PARENT 10 10 69 47 47 58
REMARK Flexibility Score: inf
ROOT
ATOM      1  C   UNL A   1      31.691  27.889  27.241  1.00  0.00     0.274 C 
ENDROOT
BRANCH   1   2
ATOM      2  O   UNL A   1      31.831  27.059  26.064  1.00  0.00    -0.462 OA
BRANCH   2   3
ATOM      3  C   UNL A   1      30.776  26.262  25.769  1.00  0.00     0.310 C 
ATOM      4  O   UNL A   1      30.012  25.800  26.615  1.00  0.00    -0.252 OA
BRANCH   3   5
ATOM      5  C   UNL A   1      30.490  26.068  24.297  1.00  0.00     0.161 C 
BRANCH   5   6
ATOM      6  C   UNL A   1      30.644  27.201  23.332  1.00  0.00     0.000 A 
ATOM      7  C   UNL A   1      31.802  27.665  22.706  1.00  0.00     0.093 A 
ATOM      8  N   UNL A   1      31.449  28.770  21.969  1.00  0.00    -0.351 N 
ATOM      9  C   UNL A   1      30.154  29.134  22.216  1.00  0.00     0.049 A 
ATOM     10  H   UNL A   1      32.049  29.240  21.345  1.00  0.00     0.167 HD
ATOM     11  C   UNL A   1      29.594  28.132  23.005  1.00  0.00     0.004 A 
ATOM     12  C   UNL A   1      29.444  30.261  21.793  1.00  0.00     0.066 A 
ATOM     13  C   UNL A   1      28.228  28.239  23.351  1.00  0.00     0.013 A 
ATOM     14  C   UNL A   1      28.109  30.348  22.173  1.00  0.00     0.125 A 
ATOM     15  C   UNL A   1      27.496  29.355  22.925  1.00  0.00     0.040 A 
ATOM     16  F   UNL A   1      27.397  31.420  21.801  1.00  0.00    -0.207 F 
BRANCH   7  17
ATOM     17  C   UNL A   1      33.181  27.200  22.645  1.00  0.00     0.227 C 
ATOM     18  O   UNL A   1      34.092  28.010  22.481  1.00  0.00    -0.285 OA
BRANCH  17  19
ATOM     19  C   UNL A   1      33.526  25.792  23.081  1.00  0.00     0.113 A 
ATOM     20  C   UNL A   1      35.662  23.974  25.644  1.00  0.00     0.044 C 
ATOM     21  C   UNL A   1      34.779  24.271  24.468  1.00  0.00    -0.047 A 
ATOM     22  C   UNL A   1      34.543  23.275  23.519  1.00  0.00     0.023 A 
ATOM     23  C   UNL A   1      34.243  25.549  24.255  1.00  0.00     0.036 A 
ATOM     24  C   UNL A   1      33.795  23.592  22.401  1.00  0.00     0.112 A 
ATOM     25  N   UNL A   1      33.291  24.818  22.160  1.00  0.00    -0.253 NA
ENDBRANCH  17  19
ENDBRANCH   7  17
ENDBRANCH   5   6
ENDBRANCH   3   5
ENDBRANCH   2   3
ENDBRANCH   1   2
BRANCH   1  26
ATOM     26  C   UNL A   1      32.534  29.172  27.153  1.00  0.00     0.275 C 
BRANCH  26  27
ATOM     27  O   UNL A   1      33.891  28.999  27.622  1.00  0.00    -0.458 OA
BRANCH  27  28
ATOM     28  C   UNL A   1      34.494  30.161  27.933  1.00  0.00     0.338 C 
ATOM     29  O   UNL A   1      33.967  31.267  27.969  1.00  0.00    -0.246 OA
BRANCH  28  30
ATOM     30  C   UNL A   1      35.873  30.020  28.391  1.00  0.00     0.060 A 
ATOM     31  C   UNL A   1      36.870  30.140  27.423  1.00  0.00     0.016 A 
ATOM     32  C   UNL A   1      36.164  29.494  29.651  1.00  0.00     0.016 A 
ATOM     33  C   UNL A   1      38.142  29.656  27.675  1.00  0.00     0.010 A 
ATOM     34  C   UNL A   1      37.472  29.080  29.932  1.00  0.00     0.010 A 
ATOM     35  C   UNL A   1      38.460  29.130  28.935  1.00  0.00    -0.014 A 
BRANCH  35  36
ATOM     36  C   UNL A   1      39.858  28.699  29.174  1.00  0.00     0.031 A 
ATOM     37  C   UNL A   1      40.340  27.333  28.781  1.00  0.00     0.074 A 
ATOM     38  C   UNL A   1      40.725  29.609  29.657  1.00  0.00     0.049 A 
ATOM     39  N   UNL A   1      41.558  26.852  28.810  1.00  0.00    -0.248 NA
ATOM     40  C   UNL A   1      39.333  26.389  28.277  1.00  0.00     0.031 C 
ATOM     41  C   UNL A   1      40.379  30.983  30.033  1.00  0.00     0.029 A 
ATOM     42  N   UNL A   1      42.074  29.529  29.879  1.00  0.00    -0.354 N 
ATOM     43  C   UNL A   1      41.468  25.560  28.310  1.00  0.00     0.074 A 
ATOM     44  C   UNL A   1      40.073  25.319  28.011  1.00  0.00     0.031 C 
ATOM     45  C   UNL A   1      41.495  31.630  30.399  1.00  0.00     0.029 A 
ATOM     46  C   UNL A   1      42.619  30.703  30.338  1.00  0.00     0.049 A 
ATOM     47  H   UNL A   1      42.600  28.712  29.725  1.00  0.00     0.167 HD
ATOM     48  C   UNL A   1      42.462  24.659  28.116  1.00  0.00     0.031 A 
ATOM     49  C   UNL A   1      43.882  30.999  30.688  1.00  0.00     0.031 A 
ATOM     50  C   UNL A   1      43.841  24.878  28.464  1.00  0.00     0.049 A 
ATOM     51  C   UNL A   1      44.935  29.940  30.576  1.00  0.00     0.074 A 
ATOM     52  C   UNL A   1      44.913  24.011  28.335  1.00  0.00     0.029 A 
ATOM     53  N   UNL A   1      44.334  26.043  29.030  1.00  0.00    -0.354 N 
ATOM     54  N   UNL A   1      44.836  28.726  30.092  1.00  0.00    -0.248 NA
ATOM     55  C   UNL A   1      46.273  30.290  31.071  1.00  0.00     0.031 C 
ATOM     56  C   UNL A   1      46.048  24.637  28.867  1.00  0.00     0.029 A 
ATOM     57  C   UNL A   1      45.689  25.907  29.288  1.00  0.00     0.049 A 
ATOM     58  H   UNL A   1      43.801  26.848  29.222  1.00  0.00     0.167 HD
ATOM     59  C   UNL A   1      46.098  28.167  30.219  1.00  0.00     0.074 A 
ATOM     60  C   UNL A   1      46.951  29.183  30.802  1.00  0.00     0.031 C 
ATOM     61  C   UNL A   1      46.513  26.920  29.889  1.00  0.00     0.031 A 
BRANCH  48  62
ATOM     62  C   UNL A   1      42.085  23.334  27.520  1.00  0.00    -0.014 A 
ATOM     63  C   UNL A   1      42.327  23.061  26.165  1.00  0.00     0.009 A 
ATOM     64  C   UNL A   1      41.538  22.329  28.331  1.00  0.00     0.009 A 
ATOM     65  C   UNL A   1      42.013  21.809  25.630  1.00  0.00     0.001 A 
ATOM     66  C   UNL A   1      41.238  21.074  27.797  1.00  0.00     0.001 A 
ATOM     67  C   UNL A   1      41.472  20.816  26.447  1.00  0.00     0.000 A 
ENDBRANCH  48  62
BRANCH  49  68
ATOM     68  C   UNL A   1      44.201  32.345  31.221  1.00  0.00    -0.014 A 
ATOM     69  C   UNL A   1      44.609  33.378  30.367  1.00  0.00     0.009 A 
ATOM     70  C   UNL A   1      44.081  32.602  32.597  1.00  0.00     0.009 A 
ATOM     71  C   UNL A   1      44.907  34.641  30.883  1.00  0.00     0.001 A 
ATOM     72  C   UNL A   1      44.354  33.872  33.106  1.00  0.00     0.001 A 
ATOM     73  C   UNL A   1      44.774  34.888  32.250  1.00  0.00     0.000 A 
ENDBRANCH  49  68
BRANCH  61  74
ATOM     74  C   UNL A   1      47.955  26.604  30.157  1.00  0.00    -0.014 A 
ATOM     75  C   UNL A   1      48.920  26.739  29.147  1.00  0.00     0.009 A 
ATOM     76  C   UNL A   1      48.349  26.156  31.426  1.00  0.00     0.009 A 
ATOM     77  C   UNL A   1      50.250  26.394  29.394  1.00  0.00     0.001 A 
ATOM     78  C   UNL A   1      49.683  25.834  31.676  1.00  0.00     0.001 A 
ATOM     79  C   UNL A   1      50.630  25.943  30.657  1.00  0.00     0.000 A 
ENDBRANCH  61  74
ENDBRANCH  35  36
ENDBRANCH  28  30
ENDBRANCH  27  28
ENDBRANCH  26  27
ENDBRANCH   1  26
TORSDOF 14
ENDMDL
MODEL 3
REMARK VINA RESULT:     -10.9      3.027      7.696
REMARK SMILES Cc1ccnc(C(=O)c2[nH]c3cc(F)ccc3c2CC(=O)OCCOC(=O)c2ccc(-c3c4nc(c(-c5ccccc5)c5ccc([nH]5)c(-c5ccccc5)c5nc(c(-c6ccccc6)c6ccc3[nH]6)C=C5)C=C4)cc2)c1
REMARK SMILES IDX 23 1 22 2 20 3 21 4 19 5 18 6 9 7 10 8 11 9 17 11 12 12
REMARK SMILES IDX 16 13 13 14 15 15 14 16 7 17 8 18 6 19 1 20 2 21 3 22 76 23
REMARK SMILES IDX 4 24 5 25 24 26 25 27 26 28 27 29 28 30 29 31 75 32 30 33
REMARK SMILES IDX 74 34 31 35 32 36 33 37 68 38 34 39 73 40 67 41 69 42 35 43
REMARK SMILES IDX 72 44 66 45 65 46 36 48 58 49 43 50 57 51 44 52 47 53 56 54
REMARK SMILES IDX 70 55 45 56 46 57 55 59 71 60 48 61 37 62 38 63 42 64 39 65
REMARK SMILES IDX 41 66 40 67 59 68 60 69 64 70 61 71 63 72 62 73 49 74 50 75
REMARK SMILES IDX 54 76 51 77 53 78 52 79
REMARK H PARENT 10 10 69 47 47 58
REMARK Flexibility Score: inf
ROOT
ATOM      1  C   UNL A   1      38.430  21.417  25.586  1.00  0.00     0.274 C 
ENDROOT
BRANCH   1   2
ATOM      2  O   UNL A   1      37.499  21.767  24.536  1.00  0.00    -0.462 OA
BRANCH   2   3
ATOM      3  C   UNL A   1      36.454  22.548  24.902  1.00  0.00     0.310 C 
ATOM      4  O   UNL A   1      36.175  23.615  24.356  1.00  0.00    -0.252 OA
BRANCH   3   5
ATOM      5  C   UNL A   1      35.537  21.968  25.955  1.00  0.00     0.161 C 
BRANCH   5   6
ATOM      6  C   UNL A   1      34.270  21.272  25.566  1.00  0.00     0.000 A 
ATOM      7  C   UNL A   1      32.951  21.692  25.746  1.00  0.00     0.093 A 
ATOM      8  N   UNL A   1      32.139  20.681  25.291  1.00  0.00    -0.351 N 
ATOM      9  C   UNL A   1      32.868  19.568  24.975  1.00  0.00     0.049 A 
ATOM     10  H   UNL A   1      31.160  20.748  25.204  1.00  0.00     0.167 HD
ATOM     11  C   UNL A   1      34.211  19.924  25.061  1.00  0.00     0.004 A 
ATOM     12  C   UNL A   1      32.436  18.289  24.612  1.00  0.00     0.066 A 
ATOM     13  C   UNL A   1      35.182  18.957  24.716  1.00  0.00     0.013 A 
ATOM     14  C   UNL A   1      33.419  17.353  24.305  1.00  0.00     0.125 A 
ATOM     15  C   UNL A   1      34.770  17.672  24.338  1.00  0.00     0.040 A 
ATOM     16  F   UNL A   1      33.048  16.110  23.968  1.00  0.00    -0.207 F 
BRANCH   7  17
ATOM     17  C   UNL A   1      32.331  22.919  26.226  1.00  0.00     0.227 C 
ATOM     18  O   UNL A   1      31.758  22.929  27.315  1.00  0.00    -0.285 OA
BRANCH  17  19
ATOM     19  C   UNL A   1      32.645  24.239  25.555  1.00  0.00     0.113 A 
ATOM     20  C   UNL A   1      33.212  25.685  22.087  1.00  0.00     0.044 C 
ATOM     21  C   UNL A   1      33.141  25.524  23.577  1.00  0.00    -0.047 A 
ATOM     22  C   UNL A   1      33.718  26.492  24.400  1.00  0.00     0.023 A 
ATOM     23  C   UNL A   1      32.576  24.385  24.167  1.00  0.00     0.036 A 
ATOM     24  C   UNL A   1      33.717  26.284  25.766  1.00  0.00     0.112 A 
ATOM     25  N   UNL A   1      33.202  25.188  26.356  1.00  0.00    -0.253 NA
ENDBRANCH  17  19
ENDBRANCH   7  17
ENDBRANCH   5   6
ENDBRANCH   3   5
ENDBRANCH   2   3
ENDBRANCH   1   2
BRANCH   1  26
ATOM     26  C   UNL A   1      39.135  20.077  25.317  1.00  0.00     0.275 C 
BRANCH  26  27
ATOM     27  O   UNL A   1      40.018  19.669  26.388  1.00  0.00    -0.458 OA
BRANCH  27  28
ATOM     28  C   UNL A   1      41.321  19.789  26.073  1.00  0.00     0.338 C 
ATOM     29  O   UNL A   1      41.959  19.055  25.328  1.00  0.00    -0.246 OA
BRANCH  28  30
ATOM     30  C   UNL A   1      41.955  21.000  26.587  1.00  0.00     0.060 A 
ATOM     31  C   UNL A   1      41.875  21.212  27.963  1.00  0.00     0.016 A 
ATOM     32  C   UNL A   1      42.345  22.029  25.729  1.00  0.00     0.016 A 
ATOM     33  C   UNL A   1      42.098  22.476  28.483  1.00  0.00     0.010 A 
ATOM     34  C   UNL A   1      42.650  23.286  26.267  1.00  0.00     0.010 A 
ATOM     35  C   UNL A   1      42.498  23.524  27.643  1.00  0.00    -0.014 A 
BRANCH  35  36
ATOM     36  C   UNL A   1      42.800  24.835  28.264  1.00  0.00     0.031 A 
ATOM     37  C   UNL A   1      44.201  25.233  28.624  1.00  0.00     0.074 A 
ATOM     38  C   UNL A   1      41.791  25.716  28.400  1.00  0.00     0.049 A 
ATOM     39  N   UNL A   1      44.642  26.388  29.058  1.00  0.00    -0.248 NA
ATOM     40  C   UNL A   1      45.248  24.214  28.464  1.00  0.00     0.031 C 
ATOM     41  C   UNL A   1      40.393  25.455  28.042  1.00  0.00     0.029 A 
ATOM     42  N   UNL A   1      41.789  27.013  28.837  1.00  0.00    -0.354 N 
ATOM     43  C   UNL A   1      46.015  26.242  29.202  1.00  0.00     0.074 A 
ATOM     44  C   UNL A   1      46.335  24.878  28.838  1.00  0.00     0.031 C 
ATOM     45  C   UNL A   1      39.677  26.573  28.235  1.00  0.00     0.029 A 
ATOM     46  C   UNL A   1      40.551  27.604  28.781  1.00  0.00     0.049 A 
ATOM     47  H   UNL A   1      42.595  27.476  29.161  1.00  0.00     0.167 HD
ATOM     48  C   UNL A   1      46.925  27.163  29.600  1.00  0.00     0.031 A 
ATOM     49  C   UNL A   1      40.156  28.836  29.145  1.00  0.00     0.031 A 
ATOM     50  C   UNL A   1      46.601  28.503  30.016  1.00  0.00     0.049 A 
ATOM     51  C   UNL A   1      41.168  29.792  29.697  1.00  0.00     0.074 A 
ATOM     52  C   UNL A   1      47.452  29.498  30.466  1.00  0.00     0.029 A 
ATOM     53  N   UNL A   1      45.319  29.028  30.049  1.00  0.00    -0.354 N 
ATOM     54  N   UNL A   1      42.464  29.641  29.817  1.00  0.00    -0.248 NA
ATOM     55  C   UNL A   1      40.658  31.084  30.172  1.00  0.00     0.031 C 
ATOM     56  C   UNL A   1      46.677  30.610  30.817  1.00  0.00     0.029 A 
ATOM     57  C   UNL A   1      45.351  30.322  30.545  1.00  0.00     0.049 A 
ATOM     58  H   UNL A   1      44.506  28.552  29.764  1.00  0.00     0.167 HD
ATOM     59  C   UNL A   1      42.928  30.820  30.380  1.00  0.00     0.074 A 
ATOM     60  C   UNL A   1      41.778  31.685  30.552  1.00  0.00     0.031 C 
ATOM     61  C   UNL A   1      44.194  31.156  30.730  1.00  0.00     0.031 A 
BRANCH  48  62
ATOM     62  C   UNL A   1      48.365  26.742  29.633  1.00  0.00    -0.014 A 
ATOM     63  C   UNL A   1      49.206  26.976  28.534  1.00  0.00     0.009 A 
ATOM     64  C   UNL A   1      48.901  26.160  30.791  1.00  0.00     0.009 A 
ATOM     65  C   UNL A   1      50.556  26.619  28.591  1.00  0.00     0.001 A 
ATOM     66  C   UNL A   1      50.254  25.818  30.850  1.00  0.00     0.001 A 
ATOM     67  C   UNL A   1      51.079  26.045  29.749  1.00  0.00     0.000 A 
ENDBRANCH  48  62
BRANCH  49  68
ATOM     68  C   UNL A   1      38.725  29.209  29.039  1.00  0.00    -0.014 A 
ATOM     69  C   UNL A   1      37.856  29.041  30.126  1.00  0.00     0.009 A 
ATOM     70  C   UNL A   1      38.227  29.752  27.843  1.00  0.00     0.009 A 
ATOM     71  C   UNL A   1      36.510  29.397  30.011  1.00  0.00     0.001 A 
ATOM     72  C   UNL A   1      36.888  30.131  27.741  1.00  0.00     0.001 A 
ATOM     73  C   UNL A   1      36.029  29.945  28.822  1.00  0.00     0.000 A 
ENDBRANCH  49  68
BRANCH  61  74
ATOM     74  C   UNL A   1      44.381  32.517  31.331  1.00  0.00    -0.014 A 
ATOM     75  C   UNL A   1      44.275  32.711  32.717  1.00  0.00     0.009 A 
ATOM     76  C   UNL A   1      44.653  33.616  30.503  1.00  0.00     0.009 A 
ATOM     77  C   UNL A   1      44.403  33.991  33.260  1.00  0.00     0.001 A 
ATOM     78  C   UNL A   1      44.802  34.890  31.052  1.00  0.00     0.001 A 
ATOM     79  C   UNL A   1      44.666  35.078  32.427  1.00  0.00     0.000 A 
ENDBRANCH  61  74
ENDBRANCH  35  36
ENDBRANCH  28  30
ENDBRANCH  27  28
ENDBRANCH  26  27
ENDBRANCH   1  26
TORSDOF 14
ENDMDL
