MODEL 1
REMARK VINA RESULT:     -10.5      0.000      0.000
REMARK SMILES O=C(OCCOC(=O)c1ccc(OCc2sccc2Br)cn1)c1ccc(-c2c3nc(c(-c4ccccc4)c4ccc([nH]4)c(-c4ccccc4)c4nc(c(-c5ccccc5)c5ccc2[nH]5)C=C4)C=C3)cc1
REMARK SMILES IDX 5 1 4 2 3 3 2 4 1 5 23 6 24 7 70 8 25 9 69 10 26 11 27 12
REMARK SMILES IDX 28 13 63 14 29 15 68 16 62 17 64 18 30 19 67 20 61 21 60 22
REMARK SMILES IDX 31 24 53 25 38 26 52 27 39 28 42 29 51 30 65 31 40 32 41 33
REMARK SMILES IDX 50 35 66 36 43 37 32 38 33 39 37 40 34 41 36 42 35 43 54 44
REMARK SMILES IDX 55 45 59 46 56 47 58 48 57 49 44 50 45 51 49 52 46 53 48 54
REMARK SMILES IDX 47 55 6 56 7 57 8 58 9 59 10 60 22 61 11 62 21 63 12 64
REMARK SMILES IDX 13 65 14 66 15 67 16 68 19 69 17 70 18 71 20 72
REMARK H PARENT 64 23 42 34
REMARK Flexibility Score: inf
ROOT
ATOM      1  C   UNL A   1      42.665  20.509  26.043  1.00  0.00     0.275 C 
ENDROOT
BRANCH   1   2
ATOM      2  C   UNL A   1      43.844  21.226  25.376  1.00  0.00     0.275 C 
BRANCH   2   3
ATOM      3  O   UNL A   1      43.481  22.402  24.637  1.00  0.00    -0.458 OA
BRANCH   3   4
ATOM      4  C   UNL A   1      44.008  23.640  24.812  1.00  0.00     0.338 C 
ATOM      5  O   UNL A   1      45.022  23.976  24.206  1.00  0.00    -0.246 OA
BRANCH   4   6
ATOM      6  C   UNL A   1      43.512  24.525  25.903  1.00  0.00     0.060 A 
ATOM      7  C   UNL A   1      42.482  24.218  26.798  1.00  0.00     0.016 A 
ATOM      8  C   UNL A   1      44.110  25.790  25.988  1.00  0.00     0.016 A 
ATOM      9  C   UNL A   1      42.123  25.109  27.818  1.00  0.00     0.010 A 
ATOM     10  C   UNL A   1      43.746  26.684  26.995  1.00  0.00     0.010 A 
ATOM     11  C   UNL A   1      42.759  26.345  27.932  1.00  0.00    -0.014 A 
BRANCH  11  12
ATOM     12  C   UNL A   1      42.342  27.337  28.953  1.00  0.00     0.031 A 
ATOM     13  C   UNL A   1      43.007  27.307  30.298  1.00  0.00     0.074 A 
ATOM     14  C   UNL A   1      41.332  28.193  28.707  1.00  0.00     0.049 A 
ATOM     15  N   UNL A   1      42.736  28.007  31.369  1.00  0.00    -0.248 NA
ATOM     16  C   UNL A   1      44.134  26.372  30.456  1.00  0.00     0.031 C 
ATOM     17  C   UNL A   1      40.648  28.345  27.425  1.00  0.00     0.029 A 
ATOM     18  N   UNL A   1      40.659  29.052  29.542  1.00  0.00    -0.354 N 
ATOM     19  C   UNL A   1      43.652  27.594  32.326  1.00  0.00     0.074 A 
ATOM     20  C   UNL A   1      44.478  26.576  31.719  1.00  0.00     0.031 C 
ATOM     21  C   UNL A   1      39.583  29.151  27.584  1.00  0.00     0.029 A 
ATOM     22  C   UNL A   1      39.515  29.572  28.980  1.00  0.00     0.049 A 
ATOM     23  H   UNL A   1      40.966  29.274  30.451  1.00  0.00     0.167 HD
ATOM     24  C   UNL A   1      43.775  28.017  33.606  1.00  0.00     0.031 A 
ATOM     25  C   UNL A   1      38.502  30.259  29.542  1.00  0.00     0.031 A 
ATOM     26  C   UNL A   1      42.896  28.971  34.221  1.00  0.00     0.049 A 
ATOM     27  C   UNL A   1      38.609  30.640  30.997  1.00  0.00     0.074 A 
ATOM     28  C   UNL A   1      42.940  29.481  35.506  1.00  0.00     0.029 A 
ATOM     29  N   UNL A   1      41.788  29.531  33.602  1.00  0.00    -0.354 N 
ATOM     30  N   UNL A   1      39.579  30.387  31.845  1.00  0.00    -0.248 NA
ATOM     31  C   UNL A   1      37.498  31.410  31.575  1.00  0.00     0.031 C 
ATOM     32  C   UNL A   1      41.809  30.282  35.692  1.00  0.00     0.029 A 
ATOM     33  C   UNL A   1      41.092  30.313  34.506  1.00  0.00     0.049 A 
ATOM     34  H   UNL A   1      41.534  29.392  32.661  1.00  0.00     0.167 HD
ATOM     35  C   UNL A   1      39.207  30.988  33.040  1.00  0.00     0.074 A 
ATOM     36  C   UNL A   1      37.936  31.638  32.805  1.00  0.00     0.031 C 
ATOM     37  C   UNL A   1      39.850  30.984  34.232  1.00  0.00     0.031 A 
BRANCH  24  38
ATOM     38  C   UNL A   1      44.863  27.396  34.433  1.00  0.00    -0.014 A 
ATOM     39  C   UNL A   1      46.130  27.991  34.532  1.00  0.00     0.009 A 
ATOM     40  C   UNL A   1      44.609  26.211  35.140  1.00  0.00     0.009 A 
ATOM     41  C   UNL A   1      47.131  27.395  35.302  1.00  0.00     0.001 A 
ATOM     42  C   UNL A   1      45.604  25.629  35.927  1.00  0.00     0.001 A 
ATOM     43  C   UNL A   1      46.866  26.217  36.001  1.00  0.00     0.000 A 
ENDBRANCH  24  38
BRANCH  25  44
ATOM     44  C   UNL A   1      37.250  30.538  28.779  1.00  0.00    -0.014 A 
ATOM     45  C   UNL A   1      36.893  31.836  28.388  1.00  0.00     0.009 A 
ATOM     46  C   UNL A   1      36.347  29.492  28.524  1.00  0.00     0.009 A 
ATOM     47  C   UNL A   1      35.636  32.086  27.826  1.00  0.00     0.001 A 
ATOM     48  C   UNL A   1      35.098  29.741  27.951  1.00  0.00     0.001 A 
ATOM     49  C   UNL A   1      34.735  31.042  27.619  1.00  0.00     0.000 A 
ENDBRANCH  25  44
BRANCH  37  50
ATOM     50  C   UNL A   1      39.208  31.736  35.361  1.00  0.00    -0.014 A 
ATOM     51  C   UNL A   1      39.371  33.125  35.485  1.00  0.00     0.009 A 
ATOM     52  C   UNL A   1      38.370  31.060  36.260  1.00  0.00     0.009 A 
ATOM     53  C   UNL A   1      38.719  33.819  36.506  1.00  0.00     0.001 A 
ATOM     54  C   UNL A   1      37.699  31.762  37.262  1.00  0.00     0.001 A 
ATOM     55  C   UNL A   1      37.878  33.140  37.386  1.00  0.00     0.000 A 
ENDBRANCH  37  50
ENDBRANCH  11  12
ENDBRANCH   4   6
ENDBRANCH   3   4
ENDBRANCH   2   3
ENDBRANCH   1   2
BRANCH   1  56
ATOM     56  O   UNL A   1      41.386  21.026  25.641  1.00  0.00    -0.457 OA
BRANCH  56  57
ATOM     57  C   UNL A   1      40.441  21.053  26.625  1.00  0.00     0.357 C 
ATOM     58  O   UNL A   1      40.498  20.473  27.697  1.00  0.00    -0.244 OA
BRANCH  57  59
ATOM     59  C   UNL A   1      39.339  21.964  26.212  1.00  0.00     0.148 A 
ATOM     60  C   UNL A   1      39.252  23.253  26.722  1.00  0.00     0.040 A 
ATOM     61  N   UNL A   1      38.428  21.446  25.354  1.00  0.00    -0.245 NA
ATOM     62  C   UNL A   1      38.146  24.042  26.371  1.00  0.00     0.050 A 
ATOM     63  C   UNL A   1      37.367  22.235  25.052  1.00  0.00     0.158 A 
ATOM     64  C   UNL A   1      37.162  23.524  25.539  1.00  0.00     0.138 A 
BRANCH  64  65
ATOM     65  O   UNL A   1      35.987  24.106  25.169  1.00  0.00    -0.486 OA
BRANCH  65  66
ATOM     66  C   UNL A   1      34.926  23.333  24.604  1.00  0.00     0.277 C 
BRANCH  66  67
ATOM     67  C   UNL A   1      33.675  23.412  25.442  1.00  0.00     0.056 A 
ATOM     68  S   UNL A   1      32.744  22.026  25.850  1.00  0.00    -0.144 S 
ATOM     69  C   UNL A   1      33.063  24.543  25.949  1.00  0.00     0.035 A 
ATOM     70  C   UNL A   1      31.643  22.931  26.786  1.00  0.00     0.066 A 
ATOM     71  C   UNL A   1      31.924  24.276  26.750  1.00  0.00     0.028 A 
ATOM     72  Br  UNL A   1      33.599  26.330  25.642  1.00  0.00    -0.049 Br
ENDBRANCH  66  67
ENDBRANCH  65  66
ENDBRANCH  64  65
ENDBRANCH  57  59
ENDBRANCH  56  57
ENDBRANCH   1  56
TORSDOF 14
ENDMDL
MODEL 2
REMARK VINA RESULT:     -10.4      4.454      8.556
REMARK SMILES O=C(OCCOC(=O)c1ccc(OCc2sccc2Br)cn1)c1ccc(-c2c3nc(c(-c4ccccc4)c4ccc([nH]4)c(-c4ccccc4)c4nc(c(-c5ccccc5)c5ccc2[nH]5)C=C4)C=C3)cc1
REMARK SMILES IDX 5 1 4 2 3 3 2 4 1 5 23 6 24 7 70 8 25 9 69 10 26 11 27 12
REMARK SMILES IDX 28 13 63 14 29 15 68 16 62 17 64 18 30 19 67 20 61 21 60 22
REMARK SMILES IDX 31 24 53 25 38 26 52 27 39 28 42 29 51 30 65 31 40 32 41 33
REMARK SMILES IDX 50 35 66 36 43 37 32 38 33 39 37 40 34 41 36 42 35 43 54 44
REMARK SMILES IDX 55 45 59 46 56 47 58 48 57 49 44 50 45 51 49 52 46 53 48 54
REMARK SMILES IDX 47 55 6 56 7 57 8 58 9 59 10 60 22 61 11 62 21 63 12 64
REMARK SMILES IDX 13 65 14 66 15 67 16 68 19 69 17 70 18 71 20 72
REMARK H PARENT 64 23 42 34
REMARK Flexibility Score: inf
ROOT
ATOM      1  C   UNL A   1      44.159  18.447  25.028  1.00  0.00     0.275 C 
ENDROOT
BRANCH   1   2
ATOM      2  C   UNL A   1      43.062  18.852  26.018  1.00  0.00     0.275 C 
BRANCH   2   3
ATOM      3  O   UNL A   1      41.835  19.274  25.403  1.00  0.00    -0.458 OA
BRANCH   3   4
ATOM      4  C   UNL A   1      40.870  20.020  25.995  1.00  0.00     0.338 C 
ATOM      5  O   UNL A   1      39.686  19.833  25.725  1.00  0.00    -0.246 OA
BRANCH   4   6
ATOM      6  C   UNL A   1      41.229  21.224  26.796  1.00  0.00     0.060 A 
ATOM      7  C   UNL A   1      41.192  21.316  28.191  1.00  0.00     0.016 A 
ATOM      8  C   UNL A   1      41.580  22.367  26.065  1.00  0.00     0.016 A 
ATOM      9  C   UNL A   1      41.594  22.486  28.848  1.00  0.00     0.010 A 
ATOM     10  C   UNL A   1      41.969  23.538  26.716  1.00  0.00     0.010 A 
ATOM     11  C   UNL A   1      41.996  23.604  28.116  1.00  0.00    -0.014 A 
BRANCH  11  12
ATOM     12  C   UNL A   1      42.349  24.879  28.786  1.00  0.00     0.031 A 
ATOM     13  C   UNL A   1      41.329  25.978  28.824  1.00  0.00     0.074 A 
ATOM     14  C   UNL A   1      43.586  25.075  29.280  1.00  0.00     0.049 A 
ATOM     15  N   UNL A   1      41.451  27.203  29.265  1.00  0.00    -0.248 NA
ATOM     16  C   UNL A   1      39.989  25.653  28.306  1.00  0.00     0.031 C 
ATOM     17  C   UNL A   1      44.641  24.065  29.343  1.00  0.00     0.029 A 
ATOM     18  N   UNL A   1      44.191  26.210  29.763  1.00  0.00    -0.354 N 
ATOM     19  C   UNL A   1      40.211  27.795  29.072  1.00  0.00     0.074 A 
ATOM     20  C   UNL A   1      39.352  26.804  28.464  1.00  0.00     0.031 C 
ATOM     21  C   UNL A   1      45.790  24.648  29.725  1.00  0.00     0.029 A 
ATOM     22  C   UNL A   1      45.550  26.072  29.934  1.00  0.00     0.049 A 
ATOM     23  H   UNL A   1      43.701  27.040  29.968  1.00  0.00     0.167 HD
ATOM     24  C   UNL A   1      39.832  29.061  29.361  1.00  0.00     0.031 A 
ATOM     25  C   UNL A   1      46.498  27.000  30.175  1.00  0.00     0.031 A 
ATOM     26  C   UNL A   1      40.718  30.060  29.890  1.00  0.00     0.049 A 
ATOM     27  C   UNL A   1      46.068  28.427  30.398  1.00  0.00     0.074 A 
ATOM     28  C   UNL A   1      40.434  31.370  30.233  1.00  0.00     0.029 A 
ATOM     29  N   UNL A   1      42.072  29.868  30.116  1.00  0.00    -0.354 N 
ATOM     30  N   UNL A   1      44.857  28.935  30.386  1.00  0.00    -0.248 NA
ATOM     31  C   UNL A   1      47.123  29.411  30.683  1.00  0.00     0.031 C 
ATOM     32  C   UNL A   1      41.634  31.994  30.585  1.00  0.00     0.029 A 
ATOM     33  C   UNL A   1      42.654  31.058  30.512  1.00  0.00     0.049 A 
ATOM     34  H   UNL A   1      42.548  29.013  30.011  1.00  0.00     0.167 HD
ATOM     35  C   UNL A   1      45.005  30.282  30.686  1.00  0.00     0.074 A 
ATOM     36  C   UNL A   1      46.418  30.512  30.899  1.00  0.00     0.031 C 
ATOM     37  C   UNL A   1      44.058  31.249  30.759  1.00  0.00     0.031 A 
BRANCH  24  38
ATOM     38  C   UNL A   1      38.415  29.444  29.046  1.00  0.00    -0.014 A 
ATOM     39  C   UNL A   1      38.031  29.803  27.744  1.00  0.00     0.009 A 
ATOM     40  C   UNL A   1      37.447  29.426  30.061  1.00  0.00     0.009 A 
ATOM     41  C   UNL A   1      36.709  30.163  27.473  1.00  0.00     0.001 A 
ATOM     42  C   UNL A   1      36.122  29.764  29.782  1.00  0.00     0.001 A 
ATOM     43  C   UNL A   1      35.756  30.139  28.490  1.00  0.00     0.000 A 
ENDBRANCH  24  38
BRANCH  25  44
ATOM     44  C   UNL A   1      47.946  26.648  30.108  1.00  0.00    -0.014 A 
ATOM     45  C   UNL A   1      48.655  26.650  28.899  1.00  0.00     0.009 A 
ATOM     46  C   UNL A   1      48.606  26.205  31.267  1.00  0.00     0.009 A 
ATOM     47  C   UNL A   1      49.962  26.152  28.842  1.00  0.00     0.001 A 
ATOM     48  C   UNL A   1      49.914  25.721  31.213  1.00  0.00     0.001 A 
ATOM     49  C   UNL A   1      50.586  25.677  29.995  1.00  0.00     0.000 A 
ENDBRANCH  25  44
BRANCH  37  50
ATOM     50  C   UNL A   1      44.515  32.632  31.118  1.00  0.00    -0.014 A 
ATOM     51  C   UNL A   1      44.623  33.028  32.460  1.00  0.00     0.009 A 
ATOM     52  C   UNL A   1      44.916  33.518  30.107  1.00  0.00     0.009 A 
ATOM     53  C   UNL A   1      45.107  34.298  32.780  1.00  0.00     0.001 A 
ATOM     54  C   UNL A   1      45.423  34.775  30.432  1.00  0.00     0.001 A 
ATOM     55  C   UNL A   1      45.514  35.166  31.768  1.00  0.00     0.000 A 
ENDBRANCH  37  50
ENDBRANCH  11  12
ENDBRANCH   4   6
ENDBRANCH   3   4
ENDBRANCH   2   3
ENDBRANCH   1   2
BRANCH   1  56
ATOM     56  O   UNL A   1      44.488  19.484  24.089  1.00  0.00    -0.457 OA
BRANCH  56  57
ATOM     57  C   UNL A   1      45.684  20.102  24.311  1.00  0.00     0.357 C 
ATOM     58  O   UNL A   1      46.790  19.620  24.130  1.00  0.00    -0.244 OA
BRANCH  57  59
ATOM     59  C   UNL A   1      45.431  21.500  24.755  1.00  0.00     0.148 A 
ATOM     60  C   UNL A   1      44.829  22.419  23.904  1.00  0.00     0.040 A 
ATOM     61  N   UNL A   1      45.853  21.815  26.002  1.00  0.00    -0.245 NA
ATOM     62  C   UNL A   1      44.692  23.747  24.336  1.00  0.00     0.050 A 
ATOM     63  C   UNL A   1      45.716  23.112  26.376  1.00  0.00     0.158 A 
ATOM     64  C   UNL A   1      45.166  24.120  25.588  1.00  0.00     0.138 A 
BRANCH  64  65
ATOM     65  O   UNL A   1      45.200  25.368  26.131  1.00  0.00    -0.486 OA
BRANCH  65  66
ATOM     66  C   UNL A   1      44.256  26.369  25.741  1.00  0.00     0.277 C 
BRANCH  66  67
ATOM     67  C   UNL A   1      44.675  27.739  26.211  1.00  0.00     0.056 A 
ATOM     68  S   UNL A   1      46.296  28.114  26.642  1.00  0.00    -0.144 S 
ATOM     69  C   UNL A   1      43.875  28.847  26.420  1.00  0.00     0.035 A 
ATOM     70  C   UNL A   1      45.927  29.748  26.963  1.00  0.00     0.066 A 
ATOM     71  C   UNL A   1      44.586  30.010  26.812  1.00  0.00     0.028 A 
ATOM     72  Br  UNL A   1      41.994  28.907  26.251  1.00  0.00    -0.049 Br
ENDBRANCH  66  67
ENDBRANCH  65  66
ENDBRANCH  64  65
ENDBRANCH  57  59
ENDBRANCH  56  57
ENDBRANCH   1  56
TORSDOF 14
ENDMDL
MODEL 3
REMARK VINA RESULT:     -10.3      4.551      9.787
REMARK SMILES O=C(OCCOC(=O)c1ccc(OCc2sccc2Br)cn1)c1ccc(-c2c3nc(c(-c4ccccc4)c4ccc([nH]4)c(-c4ccccc4)c4nc(c(-c5ccccc5)c5ccc2[nH]5)C=C4)C=C3)cc1
REMARK SMILES IDX 5 1 4 2 3 3 2 4 1 5 23 6 24 7 70 8 25 9 69 10 26 11 27 12
REMARK SMILES IDX 28 13 63 14 29 15 68 16 62 17 64 18 30 19 67 20 61 21 60 22
REMARK SMILES IDX 31 24 53 25 38 26 52 27 39 28 42 29 51 30 65 31 40 32 41 33
REMARK SMILES IDX 50 35 66 36 43 37 32 38 33 39 37 40 34 41 36 42 35 43 54 44
REMARK SMILES IDX 55 45 59 46 56 47 58 48 57 49 44 50 45 51 49 52 46 53 48 54
REMARK SMILES IDX 47 55 6 56 7 57 8 58 9 59 10 60 22 61 11 62 21 63 12 64
REMARK SMILES IDX 13 65 14 66 15 67 16 68 19 69 17 70 18 71 20 72
REMARK H PARENT 64 23 42 34
REMARK Flexibility Score: inf
ROOT
ATOM      1  C   UNL A   1      34.172  34.339  30.034  1.00  0.00     0.275 C 
ENDROOT
BRANCH   1   2
ATOM      2  C   UNL A   1      34.140  34.158  31.556  1.00  0.00     0.275 C 
BRANCH   2   3
ATOM      3  O   UNL A   1      34.432  32.824  32.000  1.00  0.00    -0.458 OA
BRANCH   3   4
ATOM      4  C   UNL A   1      35.534  32.444  32.693  1.00  0.00     0.338 C 
ATOM      5  O   UNL A   1      35.642  32.715  33.887  1.00  0.00    -0.246 OA
BRANCH   4   6
ATOM      6  C   UNL A   1      36.728  31.906  31.982  1.00  0.00     0.060 A 
ATOM      7  C   UNL A   1      36.970  32.003  30.608  1.00  0.00     0.016 A 
ATOM      8  C   UNL A   1      37.647  31.201  32.770  1.00  0.00     0.016 A 
ATOM      9  C   UNL A   1      38.151  31.499  30.046  1.00  0.00     0.010 A 
ATOM     10  C   UNL A   1      38.817  30.686  32.211  1.00  0.00     0.010 A 
ATOM     11  C   UNL A   1      39.089  30.845  30.845  1.00  0.00    -0.014 A 
BRANCH  11  12
ATOM     12  C   UNL A   1      40.307  30.233  30.261  1.00  0.00     0.031 A 
ATOM     13  C   UNL A   1      41.488  31.112  29.974  1.00  0.00     0.074 A 
ATOM     14  C   UNL A   1      40.324  28.930  29.920  1.00  0.00     0.049 A 
ATOM     15  N   UNL A   1      42.613  30.816  29.377  1.00  0.00    -0.248 NA
ATOM     16  C   UNL A   1      41.395  32.510  30.429  1.00  0.00     0.031 C 
ATOM     17  C   UNL A   1      39.257  27.970  30.194  1.00  0.00     0.029 A 
ATOM     18  N   UNL A   1      41.246  28.200  29.208  1.00  0.00    -0.354 N 
ATOM     19  C   UNL A   1      43.356  31.988  29.380  1.00  0.00     0.074 A 
ATOM     20  C   UNL A   1      42.555  33.004  30.023  1.00  0.00     0.031 C 
ATOM     21  C   UNL A   1      39.527  26.815  29.562  1.00  0.00     0.029 A 
ATOM     22  C   UNL A   1      40.787  26.955  28.840  1.00  0.00     0.049 A 
ATOM     23  H   UNL A   1      42.145  28.534  28.984  1.00  0.00     0.167 HD
ATOM     24  C   UNL A   1      44.592  32.198  28.870  1.00  0.00     0.031 A 
ATOM     25  C   UNL A   1      41.300  26.058  27.975  1.00  0.00     0.031 A 
ATOM     26  C   UNL A   1      45.345  31.201  28.161  1.00  0.00     0.049 A 
ATOM     27  C   UNL A   1      42.634  26.351  27.339  1.00  0.00     0.074 A 
ATOM     28  C   UNL A   1      46.612  31.303  27.616  1.00  0.00     0.029 A 
ATOM     29  N   UNL A   1      44.879  29.929  27.865  1.00  0.00    -0.354 N 
ATOM     30  N   UNL A   1      43.409  27.398  27.496  1.00  0.00    -0.248 NA
ATOM     31  C   UNL A   1      43.177  25.341  26.418  1.00  0.00     0.031 C 
ATOM     32  C   UNL A   1      46.878  30.122  26.917  1.00  0.00     0.029 A 
ATOM     33  C   UNL A   1      45.798  29.267  27.072  1.00  0.00     0.049 A 
ATOM     34  H   UNL A   1      44.023  29.554  28.174  1.00  0.00     0.167 HD
ATOM     35  C   UNL A   1      44.536  27.160  26.720  1.00  0.00     0.074 A 
ATOM     36  C   UNL A   1      44.357  25.860  26.110  1.00  0.00     0.031 C 
ATOM     37  C   UNL A   1      45.613  27.954  26.513  1.00  0.00     0.031 A 
BRANCH  24  38
ATOM     38  C   UNL A   1      45.169  33.577  29.009  1.00  0.00    -0.014 A 
ATOM     39  C   UNL A   1      44.892  34.579  28.066  1.00  0.00     0.009 A 
ATOM     40  C   UNL A   1      45.984  33.882  30.109  1.00  0.00     0.009 A 
ATOM     41  C   UNL A   1      45.443  35.854  28.210  1.00  0.00     0.001 A 
ATOM     42  C   UNL A   1      46.516  35.164  30.263  1.00  0.00     0.001 A 
ATOM     43  C   UNL A   1      46.250  36.146  29.310  1.00  0.00     0.000 A 
ENDBRANCH  24  38
BRANCH  25  44
ATOM     44  C   UNL A   1      40.514  24.856  27.566  1.00  0.00    -0.014 A 
ATOM     45  C   UNL A   1      40.904  23.558  27.923  1.00  0.00     0.009 A 
ATOM     46  C   UNL A   1      39.407  25.010  26.715  1.00  0.00     0.009 A 
ATOM     47  C   UNL A   1      40.247  22.447  27.383  1.00  0.00     0.001 A 
ATOM     48  C   UNL A   1      38.743  23.901  26.187  1.00  0.00     0.001 A 
ATOM     49  C   UNL A   1      39.176  22.618  26.507  1.00  0.00     0.000 A 
ENDBRANCH  25  44
BRANCH  37  50
ATOM     50  C   UNL A   1      46.697  27.424  25.622  1.00  0.00    -0.014 A 
ATOM     51  C   UNL A   1      46.786  27.825  24.280  1.00  0.00     0.009 A 
ATOM     52  C   UNL A   1      47.683  26.579  26.152  1.00  0.00     0.009 A 
ATOM     53  C   UNL A   1      47.835  27.370  23.479  1.00  0.00     0.001 A 
ATOM     54  C   UNL A   1      48.745  26.148  25.356  1.00  0.00     0.001 A 
ATOM     55  C   UNL A   1      48.817  26.541  24.019  1.00  0.00     0.000 A 
ENDBRANCH  37  50
ENDBRANCH  11  12
ENDBRANCH   4   6
ENDBRANCH   3   4
ENDBRANCH   2   3
ENDBRANCH   1   2
BRANCH   1  56
ATOM     56  O   UNL A   1      33.783  33.158  29.314  1.00  0.00    -0.457 OA
BRANCH  56  57
ATOM     57  C   UNL A   1      34.500  32.915  28.179  1.00  0.00     0.357 C 
ATOM     58  O   UNL A   1      35.212  33.711  27.590  1.00  0.00    -0.244 OA
BRANCH  57  59
ATOM     59  C   UNL A   1      34.327  31.487  27.795  1.00  0.00     0.148 A 
ATOM     60  C   UNL A   1      35.397  30.602  27.848  1.00  0.00     0.040 A 
ATOM     61  N   UNL A   1      33.094  31.130  27.365  1.00  0.00    -0.245 NA
ATOM     62  C   UNL A   1      35.207  29.289  27.392  1.00  0.00     0.050 A 
ATOM     63  C   UNL A   1      32.955  29.857  26.919  1.00  0.00     0.158 A 
ATOM     64  C   UNL A   1      33.970  28.902  26.890  1.00  0.00     0.138 A 
BRANCH  64  65
ATOM     65  O   UNL A   1      33.632  27.709  26.327  1.00  0.00    -0.486 OA
BRANCH  65  66
ATOM     66  C   UNL A   1      33.453  27.585  24.913  1.00  0.00     0.277 C 
BRANCH  66  67
ATOM     67  C   UNL A   1      32.190  26.833  24.579  1.00  0.00     0.056 A 
ATOM     68  S   UNL A   1      32.106  25.117  24.581  1.00  0.00    -0.144 S 
ATOM     69  C   UNL A   1      30.972  27.353  24.181  1.00  0.00     0.035 A 
ATOM     70  C   UNL A   1      30.445  25.109  24.189  1.00  0.00     0.066 A 
ATOM     71  C   UNL A   1      29.959  26.379  23.994  1.00  0.00     0.028 A 
ATOM     72  Br  UNL A   1      30.594  29.178  23.862  1.00  0.00    -0.049 Br
ENDBRANCH  66  67
ENDBRANCH  65  66
ENDBRANCH  64  65
ENDBRANCH  57  59
ENDBRANCH  56  57
ENDBRANCH   1  56
TORSDOF 14
ENDMDL
