MODEL 1
REMARK VINA RESULT:      -9.7      0.000      0.000
REMARK SMILES CCN(Cc1cccc(C)n1)C(=O)[C@@H]([NH3+])CC(=O)OCCOC(=O)c1ccc(-c2c3nc(c(-c4ccccc4)c4ccc([nH]4)c(-c4ccccc4)c4nc(c(-c5ccccc5)c5ccc2[nH]5)C=C4)C=C3)cc1
REMARK SMILES IDX 19 1 17 2 18 3 16 4 14 5 12 6 13 7 3 8 2 9 1 10 4 11 5 12
REMARK SMILES IDX 6 13 11 14 7 15 9 16 8 17 10 18 15 19 20 23 21 24 22 25
REMARK SMILES IDX 23 26 24 27 25 28 26 29 72 30 27 31 71 32 28 33 29 34 30 35
REMARK SMILES IDX 65 36 31 37 70 38 64 39 66 40 32 41 69 42 63 43 62 44 33 46
REMARK SMILES IDX 55 47 40 48 54 49 41 50 44 51 53 52 67 53 42 54 43 55 52 57
REMARK SMILES IDX 68 58 45 59 34 60 35 61 39 62 36 63 38 64 37 65 56 66 57 67
REMARK SMILES IDX 61 68 58 69 60 70 59 71 46 72 47 73 51 74 48 75 50 76 49 77
REMARK H PARENT 15 20 15 21 15 22 66 45 44 56
REMARK Flexibility Score: inf
ROOT
ATOM      1  O   UNL A   1      32.255  30.861  26.453  1.00  0.00    -0.462 OA
ENDROOT
BRANCH   1   2
ATOM      2  C   UNL A   1      31.478  30.133  25.614  1.00  0.00     0.312 C 
ATOM      3  O   UNL A   1      30.600  30.592  24.894  1.00  0.00    -0.252 OA
BRANCH   2   4
ATOM      4  C   UNL A   1      31.769  28.659  25.683  1.00  0.00     0.198 C 
BRANCH   4   5
ATOM      5  C   UNL A   1      33.094  28.250  25.053  1.00  0.00     0.282 C 
BRANCH   5   6
ATOM      6  C   UNL A   1      33.061  28.292  23.514  1.00  0.00     0.281 C 
ATOM      7  O   UNL A   1      33.546  29.311  22.993  1.00  0.00    -0.268 OA
BRANCH   6   8
ATOM      8  N   UNL A   1      32.513  27.310  22.694  1.00  0.00    -0.332 N 
BRANCH   8   9
ATOM      9  C   UNL A   1      33.515  26.353  22.189  1.00  0.00     0.116 C 
ATOM     10  C   UNL A   1      33.823  25.228  23.163  1.00  0.00     0.027 C 
ENDBRANCH   8   9
BRANCH   8  11
ATOM     11  C   UNL A   1      31.126  26.840  22.448  1.00  0.00     0.175 C 
BRANCH  11  12
ATOM     12  C   UNL A   1      29.875  27.659  22.633  1.00  0.00     0.060 A 
ATOM     13  C   UNL A   1      28.851  27.311  23.497  1.00  0.00     0.026 A 
ATOM     14  N   UNL A   1      29.862  28.844  21.960  1.00  0.00    -0.256 NA
ATOM     15  C   UNL A   1      27.721  28.129  23.556  1.00  0.00     0.004 A 
ATOM     16  C   UNL A   1      28.796  29.668  22.085  1.00  0.00     0.038 A 
ATOM     17  C   UNL A   1      27.687  29.323  22.841  1.00  0.00     0.023 A 
ATOM     18  C   UNL A   1      28.889  31.018  21.437  1.00  0.00     0.067 C 
ENDBRANCH  11  12
ENDBRANCH   8  11
ENDBRANCH   6   8
ENDBRANCH   5   6
BRANCH   5  19
ATOM     19  N   UNL A   1      34.302  28.914  25.582  1.00  0.00    -0.347 N 
ATOM     20  H   UNL A   1      34.697  28.351  26.336  1.00  0.00     0.345 HD
ATOM     21  H   UNL A   1      34.053  29.836  25.941  1.00  0.00     0.345 HD
ATOM     22  H   UNL A   1      34.989  29.014  24.836  1.00  0.00     0.345 HD
ENDBRANCH   5  19
ENDBRANCH   4   5
ENDBRANCH   2   4
ENDBRANCH   1   2
BRANCH   1  23
ATOM     23  C   UNL A   1      31.701  32.112  26.889  1.00  0.00     0.274 C 
BRANCH  23  24
ATOM     24  C   UNL A   1      32.757  32.923  27.640  1.00  0.00     0.275 C 
BRANCH  24  25
ATOM     25  O   UNL A   1      32.329  34.293  27.791  1.00  0.00    -0.458 OA
BRANCH  25  26
ATOM     26  C   UNL A   1      32.903  34.990  28.792  1.00  0.00     0.338 C 
ATOM     27  O   UNL A   1      32.526  36.057  29.273  1.00  0.00    -0.246 OA
BRANCH  26  28
ATOM     28  C   UNL A   1      34.114  34.304  29.261  1.00  0.00     0.060 A 
ATOM     29  C   UNL A   1      34.069  33.503  30.402  1.00  0.00     0.016 A 
ATOM     30  C   UNL A   1      35.334  34.561  28.636  1.00  0.00     0.016 A 
ATOM     31  C   UNL A   1      35.244  32.996  30.953  1.00  0.00     0.010 A 
ATOM     32  C   UNL A   1      36.504  33.992  29.149  1.00  0.00     0.010 A 
ATOM     33  C   UNL A   1      36.476  33.222  30.327  1.00  0.00    -0.014 A 
BRANCH  33  34
ATOM     34  C   UNL A   1      37.735  32.680  30.904  1.00  0.00     0.031 A 
ATOM     35  C   UNL A   1      38.434  31.523  30.242  1.00  0.00     0.074 A 
ATOM     36  C   UNL A   1      38.251  33.210  32.030  1.00  0.00     0.049 A 
ATOM     37  N   UNL A   1      39.420  30.786  30.690  1.00  0.00    -0.248 NA
ATOM     38  C   UNL A   1      37.953  31.136  28.906  1.00  0.00     0.031 C 
ATOM     39  C   UNL A   1      37.712  34.363  32.753  1.00  0.00     0.029 A 
ATOM     40  N   UNL A   1      39.348  32.840  32.768  1.00  0.00    -0.354 N 
ATOM     41  C   UNL A   1      39.637  29.814  29.722  1.00  0.00     0.074 A 
ATOM     42  C   UNL A   1      38.685  30.058  28.659  1.00  0.00     0.031 C 
ATOM     43  C   UNL A   1      38.489  34.618  33.816  1.00  0.00     0.029 A 
ATOM     44  C   UNL A   1      39.531  33.601  33.897  1.00  0.00     0.049 A 
ATOM     45  H   UNL A   1      39.945  32.099  32.514  1.00  0.00     0.167 HD
ATOM     46  C   UNL A   1      40.539  28.804  29.723  1.00  0.00     0.031 A 
ATOM     47  C   UNL A   1      40.406  33.471  34.911  1.00  0.00     0.031 A 
ATOM     48  C   UNL A   1      41.508  28.581  30.764  1.00  0.00     0.049 A 
ATOM     49  C   UNL A   1      41.372  32.324  34.910  1.00  0.00     0.074 A 
ATOM     50  C   UNL A   1      42.477  27.594  30.844  1.00  0.00     0.029 A 
ATOM     51  N   UNL A   1      41.640  29.363  31.901  1.00  0.00    -0.354 N 
ATOM     52  N   UNL A   1      41.534  31.384  34.013  1.00  0.00    -0.248 NA
ATOM     53  C   UNL A   1      42.265  32.211  36.073  1.00  0.00     0.031 C 
ATOM     54  C   UNL A   1      43.171  27.759  32.049  1.00  0.00     0.029 A 
ATOM     55  C   UNL A   1      42.662  28.872  32.696  1.00  0.00     0.049 A 
ATOM     56  H   UNL A   1      41.088  30.150  32.111  1.00  0.00     0.167 HD
ATOM     57  C   UNL A   1      42.549  30.570  34.497  1.00  0.00     0.074 A 
ATOM     58  C   UNL A   1      42.980  31.141  35.757  1.00  0.00     0.031 C 
ATOM     59  C   UNL A   1      43.072  29.447  33.950  1.00  0.00     0.031 A 
BRANCH  46  60
ATOM     60  C   UNL A   1      40.488  27.830  28.580  1.00  0.00    -0.014 A 
ATOM     61  C   UNL A   1      41.231  28.031  27.408  1.00  0.00     0.009 A 
ATOM     62  C   UNL A   1      39.699  26.674  28.697  1.00  0.00     0.009 A 
ATOM     63  C   UNL A   1      41.159  27.109  26.361  1.00  0.00     0.001 A 
ATOM     64  C   UNL A   1      39.648  25.742  27.658  1.00  0.00     0.001 A 
ATOM     65  C   UNL A   1      40.371  25.965  26.488  1.00  0.00     0.000 A 
ENDBRANCH  46  60
BRANCH  47  66
ATOM     66  C   UNL A   1      40.366  34.432  36.044  1.00  0.00    -0.014 A 
ATOM     67  C   UNL A   1      39.600  34.157  37.184  1.00  0.00     0.009 A 
ATOM     68  C   UNL A   1      41.114  35.619  35.995  1.00  0.00     0.009 A 
ATOM     69  C   UNL A   1      39.575  35.058  38.252  1.00  0.00     0.001 A 
ATOM     70  C   UNL A   1      41.109  36.504  37.075  1.00  0.00     0.001 A 
ATOM     71  C   UNL A   1      40.335  36.225  38.199  1.00  0.00     0.000 A 
ENDBRANCH  47  66
BRANCH  59  72
ATOM     72  C   UNL A   1      44.185  28.779  34.704  1.00  0.00    -0.014 A 
ATOM     73  C   UNL A   1      45.524  29.143  34.489  1.00  0.00     0.009 A 
ATOM     74  C   UNL A   1      43.888  27.791  35.654  1.00  0.00     0.009 A 
ATOM     75  C   UNL A   1      46.547  28.504  35.191  1.00  0.00     0.001 A 
ATOM     76  C   UNL A   1      44.912  27.170  36.370  1.00  0.00     0.001 A 
ATOM     77  C   UNL A   1      46.240  27.521  36.133  1.00  0.00     0.000 A 
ENDBRANCH  59  72
ENDBRANCH  33  34
ENDBRANCH  26  28
ENDBRANCH  25  26
ENDBRANCH  24  25
ENDBRANCH  23  24
ENDBRANCH   1  23
TORSDOF 18
ENDMDL
MODEL 2
REMARK VINA RESULT:      -9.7      4.332      8.573
REMARK SMILES CCN(Cc1cccc(C)n1)C(=O)[C@@H]([NH3+])CC(=O)OCCOC(=O)c1ccc(-c2c3nc(c(-c4ccccc4)c4ccc([nH]4)c(-c4ccccc4)c4nc(c(-c5ccccc5)c5ccc2[nH]5)C=C4)C=C3)cc1
REMARK SMILES IDX 19 1 17 2 18 3 16 4 14 5 12 6 13 7 3 8 2 9 1 10 4 11 5 12
REMARK SMILES IDX 6 13 11 14 7 15 9 16 8 17 10 18 15 19 20 23 21 24 22 25
REMARK SMILES IDX 23 26 24 27 25 28 26 29 72 30 27 31 71 32 28 33 29 34 30 35
REMARK SMILES IDX 65 36 31 37 70 38 64 39 66 40 32 41 69 42 63 43 62 44 33 46
REMARK SMILES IDX 55 47 40 48 54 49 41 50 44 51 53 52 67 53 42 54 43 55 52 57
REMARK SMILES IDX 68 58 45 59 34 60 35 61 39 62 36 63 38 64 37 65 56 66 57 67
REMARK SMILES IDX 61 68 58 69 60 70 59 71 46 72 47 73 51 74 48 75 50 76 49 77
REMARK H PARENT 15 20 15 21 15 22 66 45 44 56
REMARK Flexibility Score: inf
ROOT
ATOM      1  O   UNL A   1      32.480  29.230  25.001  1.00  0.00    -0.462 OA
ENDROOT
BRANCH   1   2
ATOM      2  C   UNL A   1      31.706  28.121  24.912  1.00  0.00     0.312 C 
ATOM      3  O   UNL A   1      30.653  28.046  24.290  1.00  0.00    -0.252 OA
BRANCH   2   4
ATOM      4  C   UNL A   1      32.248  26.966  25.709  1.00  0.00     0.198 C 
BRANCH   4   5
ATOM      5  C   UNL A   1      32.794  25.822  24.865  1.00  0.00     0.282 C 
BRANCH   5   6
ATOM      6  C   UNL A   1      32.134  24.470  25.194  1.00  0.00     0.281 C 
ATOM      7  O   UNL A   1      30.985  24.532  25.663  1.00  0.00    -0.268 OA
BRANCH   6   8
ATOM      8  N   UNL A   1      32.732  23.223  25.035  1.00  0.00    -0.332 N 
BRANCH   8   9
ATOM      9  C   UNL A   1      31.854  22.106  25.429  1.00  0.00     0.116 C 
ATOM     10  C   UNL A   1      32.154  20.810  24.695  1.00  0.00     0.027 C 
ENDBRANCH   8   9
BRANCH   8  11
ATOM     11  C   UNL A   1      33.930  22.750  24.296  1.00  0.00     0.175 C 
BRANCH  11  12
ATOM     12  C   UNL A   1      35.339  22.730  24.829  1.00  0.00     0.060 A 
ATOM     13  C   UNL A   1      35.900  23.767  25.553  1.00  0.00     0.026 A 
ATOM     14  N   UNL A   1      36.006  21.557  24.639  1.00  0.00    -0.256 NA
ATOM     15  C   UNL A   1      37.231  23.653  25.962  1.00  0.00     0.004 A 
ATOM     16  C   UNL A   1      37.269  21.426  25.109  1.00  0.00     0.038 A 
ATOM     17  C   UNL A   1      37.929  22.470  25.737  1.00  0.00     0.023 A 
ATOM     18  C   UNL A   1      37.909  20.073  24.997  1.00  0.00     0.067 C 
ENDBRANCH  11  12
ENDBRANCH   8  11
ENDBRANCH   6   8
ENDBRANCH   5   6
BRANCH   5  19
ATOM     19  N   UNL A   1      32.848  26.053  23.408  1.00  0.00    -0.347 N 
ATOM     20  H   UNL A   1      32.498  25.228  22.920  1.00  0.00     0.345 HD
ATOM     21  H   UNL A   1      33.813  26.231  23.128  1.00  0.00     0.345 HD
ATOM     22  H   UNL A   1      32.271  26.859  23.170  1.00  0.00     0.345 HD
ENDBRANCH   5  19
ENDBRANCH   4   5
ENDBRANCH   2   4
ENDBRANCH   1   2
BRANCH   1  23
ATOM     23  C   UNL A   1      32.123  30.158  26.036  1.00  0.00     0.274 C 
BRANCH  23  24
ATOM     24  C   UNL A   1      33.003  29.939  27.267  1.00  0.00     0.275 C 
BRANCH  24  25
ATOM     25  O   UNL A   1      34.209  30.727  27.172  1.00  0.00    -0.458 OA
BRANCH  25  26
ATOM     26  C   UNL A   1      34.815  31.032  28.338  1.00  0.00     0.338 C 
ATOM     27  O   UNL A   1      34.404  31.783  29.220  1.00  0.00    -0.246 OA
BRANCH  26  28
ATOM     28  C   UNL A   1      36.107  30.342  28.436  1.00  0.00     0.060 A 
ATOM     29  C   UNL A   1      36.565  29.883  29.671  1.00  0.00     0.016 A 
ATOM     30  C   UNL A   1      36.931  30.264  27.313  1.00  0.00     0.016 A 
ATOM     31  C   UNL A   1      37.862  29.390  29.802  1.00  0.00     0.010 A 
ATOM     32  C   UNL A   1      38.206  29.703  27.432  1.00  0.00     0.010 A 
ATOM     33  C   UNL A   1      38.696  29.281  28.682  1.00  0.00    -0.014 A 
BRANCH  33  34
ATOM     34  C   UNL A   1      40.079  28.751  28.810  1.00  0.00     0.031 A 
ATOM     35  C   UNL A   1      41.204  29.663  29.222  1.00  0.00     0.074 A 
ATOM     36  C   UNL A   1      40.339  27.456  28.544  1.00  0.00     0.049 A 
ATOM     37  N   UNL A   1      42.496  29.444  29.199  1.00  0.00    -0.248 NA
ATOM     38  C   UNL A   1      40.828  30.998  29.711  1.00  0.00     0.031 C 
ATOM     39  C   UNL A   1      39.343  26.445  28.183  1.00  0.00     0.029 A 
ATOM     40  N   UNL A   1      41.528  26.769  28.533  1.00  0.00    -0.354 N 
ATOM     41  C   UNL A   1      43.087  30.632  29.612  1.00  0.00     0.074 A 
ATOM     42  C   UNL A   1      42.015  31.565  29.886  1.00  0.00     0.031 C 
ATOM     43  C   UNL A   1      39.958  25.266  28.006  1.00  0.00     0.029 A 
ATOM     44  C   UNL A   1      41.397  25.453  28.161  1.00  0.00     0.049 A 
ATOM     45  H   UNL A   1      42.391  27.181  28.767  1.00  0.00     0.167 HD
ATOM     46  C   UNL A   1      44.404  30.922  29.742  1.00  0.00     0.031 A 
ATOM     47  C   UNL A   1      42.327  24.512  27.921  1.00  0.00     0.031 A 
ATOM     48  C   UNL A   1      45.470  29.985  29.503  1.00  0.00     0.049 A 
ATOM     49  C   UNL A   1      43.781  24.865  28.035  1.00  0.00     0.074 A 
ATOM     50  C   UNL A   1      46.835  30.181  29.626  1.00  0.00     0.029 A 
ATOM     51  N   UNL A   1      45.290  28.670  29.102  1.00  0.00    -0.354 N 
ATOM     52  N   UNL A   1      44.328  26.004  28.380  1.00  0.00    -0.248 NA
ATOM     53  C   UNL A   1      44.746  23.804  27.710  1.00  0.00     0.031 C 
ATOM     54  C   UNL A   1      47.483  28.994  29.264  1.00  0.00     0.029 A 
ATOM     55  C   UNL A   1      46.519  28.048  28.958  1.00  0.00     0.049 A 
ATOM     56  H   UNL A   1      44.417  28.242  28.944  1.00  0.00     0.167 HD
ATOM     57  C   UNL A   1      45.699  25.799  28.318  1.00  0.00     0.074 A 
ATOM     58  C   UNL A   1      45.900  24.419  27.925  1.00  0.00     0.031 C 
ATOM     59  C   UNL A   1      46.701  26.677  28.559  1.00  0.00     0.031 A 
BRANCH  46  60
ATOM     60  C   UNL A   1      44.768  32.331  30.117  1.00  0.00    -0.014 A 
ATOM     61  C   UNL A   1      44.927  33.332  29.147  1.00  0.00     0.009 A 
ATOM     62  C   UNL A   1      44.925  32.663  31.472  1.00  0.00     0.009 A 
ATOM     63  C   UNL A   1      45.269  34.633  29.527  1.00  0.00     0.001 A 
ATOM     64  C   UNL A   1      45.243  33.970  31.850  1.00  0.00     0.001 A 
ATOM     65  C   UNL A   1      45.423  34.950  30.877  1.00  0.00     0.000 A 
ENDBRANCH  46  60
BRANCH  47  66
ATOM     66  C   UNL A   1      41.905  23.153  27.494  1.00  0.00    -0.014 A 
ATOM     67  C   UNL A   1      41.830  22.825  26.134  1.00  0.00     0.009 A 
ATOM     68  C   UNL A   1      41.597  22.171  28.449  1.00  0.00     0.009 A 
ATOM     69  C   UNL A   1      41.444  21.542  25.737  1.00  0.00     0.001 A 
ATOM     70  C   UNL A   1      41.239  20.882  28.050  1.00  0.00     0.001 A 
ATOM     71  C   UNL A   1      41.157  20.571  26.695  1.00  0.00     0.000 A 
ENDBRANCH  47  66
BRANCH  59  72
ATOM     72  C   UNL A   1      48.104  26.160  28.426  1.00  0.00    -0.014 A 
ATOM     73  C   UNL A   1      48.757  26.152  27.184  1.00  0.00     0.009 A 
ATOM     74  C   UNL A   1      48.786  25.695  29.561  1.00  0.00     0.009 A 
ATOM     75  C   UNL A   1      50.058  25.658  27.076  1.00  0.00     0.001 A 
ATOM     76  C   UNL A   1      50.094  25.222  29.453  1.00  0.00     0.001 A 
ATOM     77  C   UNL A   1      50.726  25.196  28.211  1.00  0.00     0.000 A 
ENDBRANCH  59  72
ENDBRANCH  33  34
ENDBRANCH  26  28
ENDBRANCH  25  26
ENDBRANCH  24  25
ENDBRANCH  23  24
ENDBRANCH   1  23
TORSDOF 18
ENDMDL
MODEL 3
REMARK VINA RESULT:      -9.7      3.574      8.050
REMARK SMILES CCN(Cc1cccc(C)n1)C(=O)[C@@H]([NH3+])CC(=O)OCCOC(=O)c1ccc(-c2c3nc(c(-c4ccccc4)c4ccc([nH]4)c(-c4ccccc4)c4nc(c(-c5ccccc5)c5ccc2[nH]5)C=C4)C=C3)cc1
REMARK SMILES IDX 19 1 17 2 18 3 16 4 14 5 12 6 13 7 3 8 2 9 1 10 4 11 5 12
REMARK SMILES IDX 6 13 11 14 7 15 9 16 8 17 10 18 15 19 20 23 21 24 22 25
REMARK SMILES IDX 23 26 24 27 25 28 26 29 72 30 27 31 71 32 28 33 29 34 30 35
REMARK SMILES IDX 65 36 31 37 70 38 64 39 66 40 32 41 69 42 63 43 62 44 33 46
REMARK SMILES IDX 55 47 40 48 54 49 41 50 44 51 53 52 67 53 42 54 43 55 52 57
REMARK SMILES IDX 68 58 45 59 34 60 35 61 39 62 36 63 38 64 37 65 56 66 57 67
REMARK SMILES IDX 61 68 58 69 60 70 59 71 46 72 47 73 51 74 48 75 50 76 49 77
REMARK H PARENT 15 20 15 21 15 22 66 45 44 56
REMARK Flexibility Score: inf
ROOT
ATOM      1  O   UNL A   1      32.278  27.740  26.475  1.00  0.00    -0.462 OA
ENDROOT
BRANCH   1   2
ATOM      2  C   UNL A   1      31.151  27.158  25.997  1.00  0.00     0.312 C 
ATOM      3  O   UNL A   1      30.492  26.311  26.588  1.00  0.00    -0.252 OA
BRANCH   2   4
ATOM      4  C   UNL A   1      30.797  27.626  24.612  1.00  0.00     0.198 C 
BRANCH   4   5
ATOM      5  C   UNL A   1      30.331  26.520  23.675  1.00  0.00     0.282 C 
BRANCH   5   6
ATOM      6  C   UNL A   1      31.414  25.454  23.426  1.00  0.00     0.281 C 
ATOM      7  O   UNL A   1      31.017  24.276  23.413  1.00  0.00    -0.268 OA
BRANCH   6   8
ATOM      8  N   UNL A   1      32.770  25.711  23.250  1.00  0.00    -0.332 N 
BRANCH   8   9
ATOM      9  C   UNL A   1      33.066  26.428  21.996  1.00  0.00     0.116 C 
ATOM     10  C   UNL A   1      33.698  27.792  22.212  1.00  0.00     0.027 C 
ENDBRANCH   8   9
BRANCH   8  11
ATOM     11  C   UNL A   1      33.943  25.686  24.162  1.00  0.00     0.175 C 
BRANCH  11  12
ATOM     12  C   UNL A   1      34.431  24.486  24.931  1.00  0.00     0.060 A 
ATOM     13  C   UNL A   1      35.706  23.962  24.805  1.00  0.00     0.026 A 
ATOM     14  N   UNL A   1      33.555  24.003  25.856  1.00  0.00    -0.256 NA
ATOM     15  C   UNL A   1      36.034  22.821  25.541  1.00  0.00     0.004 A 
ATOM     16  C   UNL A   1      33.911  22.946  26.622  1.00  0.00     0.038 A 
ATOM     17  C   UNL A   1      35.127  22.301  26.461  1.00  0.00     0.023 A 
ATOM     18  C   UNL A   1      32.969  22.540  27.717  1.00  0.00     0.067 C 
ENDBRANCH  11  12
ENDBRANCH   8  11
ENDBRANCH   6   8
ENDBRANCH   5   6
BRANCH   5  19
ATOM     19  N   UNL A   1      29.029  25.899  23.993  1.00  0.00    -0.347 N 
ATOM     20  H   UNL A   1      28.280  26.438  23.559  1.00  0.00     0.345 HD
ATOM     21  H   UNL A   1      28.898  25.886  25.005  1.00  0.00     0.345 HD
ATOM     22  H   UNL A   1      29.013  24.944  23.636  1.00  0.00     0.345 HD
ENDBRANCH   5  19
ENDBRANCH   4   5
ENDBRANCH   2   4
ENDBRANCH   1   2
BRANCH   1  23
ATOM     23  C   UNL A   1      32.085  28.714  27.512  1.00  0.00     0.274 C 
BRANCH  23  24
ATOM     24  C   UNL A   1      32.596  30.080  27.054  1.00  0.00     0.275 C 
BRANCH  24  25
ATOM     25  O   UNL A   1      34.039  30.086  26.998  1.00  0.00    -0.458 OA
BRANCH  25  26
ATOM     26  C   UNL A   1      34.671  30.737  27.995  1.00  0.00     0.338 C 
ATOM     27  O   UNL A   1      34.280  31.729  28.607  1.00  0.00    -0.246 OA
BRANCH  26  28
ATOM     28  C   UNL A   1      35.967  30.105  28.276  1.00  0.00     0.060 A 
ATOM     29  C   UNL A   1      36.212  29.533  29.524  1.00  0.00     0.016 A 
ATOM     30  C   UNL A   1      36.992  30.194  27.335  1.00  0.00     0.016 A 
ATOM     31  C   UNL A   1      37.492  29.093  29.857  1.00  0.00     0.010 A 
ATOM     32  C   UNL A   1      38.258  29.687  27.645  1.00  0.00     0.010 A 
ATOM     33  C   UNL A   1      38.529  29.152  28.918  1.00  0.00    -0.014 A 
BRANCH  33  34
ATOM     34  C   UNL A   1      39.896  28.679  29.262  1.00  0.00     0.031 A 
ATOM     35  C   UNL A   1      40.838  29.574  30.022  1.00  0.00     0.074 A 
ATOM     36  C   UNL A   1      40.308  27.453  28.882  1.00  0.00     0.049 A 
ATOM     37  N   UNL A   1      42.121  29.427  30.243  1.00  0.00    -0.248 NA
ATOM     38  C   UNL A   1      40.264  30.800  30.599  1.00  0.00     0.031 C 
ATOM     39  C   UNL A   1      39.490  26.459  28.184  1.00  0.00     0.029 A 
ATOM     40  N   UNL A   1      41.526  26.837  29.028  1.00  0.00    -0.354 N 
ATOM     41  C   UNL A   1      42.519  30.568  30.929  1.00  0.00     0.074 A 
ATOM     42  C   UNL A   1      41.342  31.393  31.095  1.00  0.00     0.031 C 
ATOM     43  C   UNL A   1      40.221  25.353  27.982  1.00  0.00     0.029 A 
ATOM     44  C   UNL A   1      41.579  25.587  28.460  1.00  0.00     0.049 A 
ATOM     45  H   UNL A   1      42.289  27.252  29.493  1.00  0.00     0.167 HD
ATOM     46  C   UNL A   1      43.755  30.901  31.372  1.00  0.00     0.031 A 
ATOM     47  C   UNL A   1      42.612  24.741  28.296  1.00  0.00     0.031 A 
ATOM     48  C   UNL A   1      44.919  30.066  31.238  1.00  0.00     0.049 A 
ATOM     49  C   UNL A   1      43.980  25.146  28.762  1.00  0.00     0.074 A 
ATOM     50  C   UNL A   1      46.212  30.311  31.672  1.00  0.00     0.029 A 
ATOM     51  N   UNL A   1      44.931  28.819  30.633  1.00  0.00    -0.354 N 
ATOM     52  N   UNL A   1      44.352  26.247  29.366  1.00  0.00    -0.248 NA
ATOM     53  C   UNL A   1      45.073  24.197  28.505  1.00  0.00     0.031 C 
ATOM     54  C   UNL A   1      47.012  29.225  31.296  1.00  0.00     0.029 A 
ATOM     55  C   UNL A   1      46.210  28.288  30.667  1.00  0.00     0.049 A 
ATOM     56  H   UNL A   1      44.145  28.376  30.237  1.00  0.00     0.167 HD
ATOM     57  C   UNL A   1      45.720  26.123  29.567  1.00  0.00     0.074 A 
ATOM     58  C   UNL A   1      46.107  24.830  29.041  1.00  0.00     0.031 C 
ATOM     59  C   UNL A   1      46.579  27.005  30.132  1.00  0.00     0.031 A 
BRANCH  46  60
ATOM     60  C   UNL A   1      43.921  32.255  32.004  1.00  0.00    -0.014 A 
ATOM     61  C   UNL A   1      43.824  32.435  33.392  1.00  0.00     0.009 A 
ATOM     62  C   UNL A   1      44.207  33.363  31.191  1.00  0.00     0.009 A 
ATOM     63  C   UNL A   1      43.979  33.707  33.949  1.00  0.00     0.001 A 
ATOM     64  C   UNL A   1      44.386  34.628  31.754  1.00  0.00     0.001 A 
ATOM     65  C   UNL A   1      44.263  34.801  33.131  1.00  0.00     0.000 A 
ENDBRANCH  46  60
BRANCH  47  66
ATOM     66  C   UNL A   1      42.396  23.442  27.608  1.00  0.00    -0.014 A 
ATOM     67  C   UNL A   1      41.961  22.320  28.326  1.00  0.00     0.009 A 
ATOM     68  C   UNL A   1      42.605  23.326  26.225  1.00  0.00     0.009 A 
ATOM     69  C   UNL A   1      41.749  21.103  27.674  1.00  0.00     0.001 A 
ATOM     70  C   UNL A   1      42.365  22.117  25.571  1.00  0.00     0.001 A 
ATOM     71  C   UNL A   1      41.943  21.005  26.296  1.00  0.00     0.000 A 
ENDBRANCH  47  66
BRANCH  59  72
ATOM     72  C   UNL A   1      48.016  26.585  30.229  1.00  0.00    -0.014 A 
ATOM     73  C   UNL A   1      48.943  26.946  29.238  1.00  0.00     0.009 A 
ATOM     74  C   UNL A   1      48.451  25.838  31.334  1.00  0.00     0.009 A 
ATOM     75  C   UNL A   1      50.274  26.538  29.339  1.00  0.00     0.001 A 
ATOM     76  C   UNL A   1      49.788  25.451  31.442  1.00  0.00     0.001 A 
ATOM     77  C   UNL A   1      50.696  25.794  30.442  1.00  0.00     0.000 A 
ENDBRANCH  59  72
ENDBRANCH  33  34
ENDBRANCH  26  28
ENDBRANCH  25  26
ENDBRANCH  24  25
ENDBRANCH  23  24
ENDBRANCH   1  23
TORSDOF 18
ENDMDL
