MODEL 1
REMARK VINA RESULT:     -12.0      0.000      0.000
REMARK SMILES O=C1C[C@@H](C(=O)OCCOC(=O)c2ccc(-c3c4nc(c(-c5ccccc5)c5ccc([nH]5)c(-c5ccccc5)c5nc(c(-c6ccccc6)c6ccc3[nH]6)C=C5)C=C4)cc2)C2(CC[NH+](Cc3c[nH]nc3-c3ccc(Cl)cc3)CC2)N1
REMARK SMILES IDX 8 1 7 2 5 3 6 4 4 5 1 6 2 7 3 8 80 9 61 10 62 12 79 13 63 14
REMARK SMILES IDX 78 15 64 16 65 18 66 19 67 20 70 21 68 22 69 23 71 25 72 26
REMARK SMILES IDX 77 27 73 28 76 29 74 30 75 31 9 32 10 33 11 34 12 35 13 36
REMARK SMILES IDX 14 37 60 38 15 39 59 40 16 41 17 42 18 43 53 44 19 45 58 46
REMARK SMILES IDX 52 47 54 48 20 49 57 50 51 51 50 52 21 54 43 55 28 56 42 57
REMARK SMILES IDX 29 58 32 59 41 60 55 61 30 62 31 63 40 65 56 66 33 67 22 68
REMARK SMILES IDX 23 69 27 70 24 71 26 72 25 73 44 74 45 75 49 76 46 77 48 78
REMARK SMILES IDX 47 79 34 80 35 81 39 82 36 83 38 84 37 85
REMARK H PARENT 80 11 64 17 68 24 54 53 32 64
REMARK Flexibility Score: inf
ROOT
ATOM      1  C   UNL A   1      35.940  19.916  24.997  1.00  0.00     0.274 C 
ENDROOT
BRANCH   1   2
ATOM      2  O   UNL A   1      35.331  21.121  25.508  1.00  0.00    -0.462 OA
BRANCH   2   3
ATOM      3  C   UNL A   1      34.648  21.856  24.603  1.00  0.00     0.311 C 
ATOM      4  O   UNL A   1      35.178  22.541  23.732  1.00  0.00    -0.252 OA
BRANCH   3   5
ATOM      5  C   UNL A   1      33.137  21.840  24.754  1.00  0.00     0.134 C 
ATOM      6  O   UNL A   1      31.827  21.021  21.547  1.00  0.00    -0.275 OA
ATOM      7  C   UNL A   1      32.122  21.483  22.629  1.00  0.00     0.221 C 
ATOM      8  C   UNL A   1      32.640  20.720  23.818  1.00  0.00     0.117 C 
ATOM      9  N   UNL A   1      31.983  22.800  22.996  1.00  0.00    -0.349 N 
ATOM     10  C   UNL A   1      32.240  23.051  24.407  1.00  0.00     0.064 C 
ATOM     11  H   UNL A   1      31.732  23.511  22.362  1.00  0.00     0.164 HD
ATOM     12  C   UNL A   1      32.811  24.466  24.570  1.00  0.00     0.091 C 
ATOM     13  C   UNL A   1      30.875  22.916  25.160  1.00  0.00     0.091 C 
ATOM     14  C   UNL A   1      32.651  25.069  25.958  1.00  0.00     0.264 C 
ATOM     15  C   UNL A   1      30.731  23.714  26.461  1.00  0.00     0.264 C 
ATOM     16  N   UNL A   1      31.286  25.054  26.441  1.00  0.00    -0.331 N 
ATOM     17  H   UNL A   1      31.326  25.301  27.431  1.00  0.00     0.348 HD
BRANCH  16  18
ATOM     18  C   UNL A   1      30.431  26.182  26.047  1.00  0.00     0.303 C 
BRANCH  18  19
ATOM     19  C   UNL A   1      30.775  26.820  24.741  1.00  0.00     0.052 A 
ATOM     20  C   UNL A   1      30.256  26.481  23.505  1.00  0.00     0.115 A 
ATOM     21  C   UNL A   1      31.577  27.983  24.464  1.00  0.00     0.101 A 
ATOM     22  N   UNL A   1      30.860  27.282  22.590  1.00  0.00    -0.285 N 
ATOM     23  N   UNL A   1      31.648  28.208  23.140  1.00  0.00    -0.175 NA
ATOM     24  H   UNL A   1      30.731  27.189  21.619  1.00  0.00     0.189 HD
BRANCH  21  25
ATOM     25  C   UNL A   1      32.234  28.926  25.372  1.00  0.00     0.003 A 
ATOM     26  C   UNL A   1      33.541  28.648  25.800  1.00  0.00     0.012 A 
ATOM     27  C   UNL A   1      31.592  30.060  25.878  1.00  0.00     0.012 A 
ATOM     28  C   UNL A   1      34.195  29.494  26.700  1.00  0.00     0.021 A 
ATOM     29  C   UNL A   1      32.244  30.912  26.777  1.00  0.00     0.021 A 
ATOM     30  C   UNL A   1      33.544  30.625  27.183  1.00  0.00     0.041 A 
ATOM     31  Cl  UNL A   1      34.340  31.664  28.299  1.00  0.00    -0.084 Cl
ENDBRANCH  21  25
ENDBRANCH  18  19
ENDBRANCH  16  18
ENDBRANCH   3   5
ENDBRANCH   2   3
ENDBRANCH   1   2
BRANCH   1  32
ATOM     32  C   UNL A   1      37.452  20.084  24.825  1.00  0.00     0.275 C 
BRANCH  32  33
ATOM     33  O   UNL A   1      37.943  21.152  25.659  1.00  0.00    -0.458 OA
BRANCH  33  34
ATOM     34  C   UNL A   1      39.192  20.986  26.148  1.00  0.00     0.338 C 
ATOM     35  O   UNL A   1      39.851  19.959  26.151  1.00  0.00    -0.246 OA
BRANCH  34  36
ATOM     36  C   UNL A   1      39.737  22.261  26.658  1.00  0.00     0.060 A 
ATOM     37  C   UNL A   1      39.216  23.480  26.225  1.00  0.00     0.016 A 
ATOM     38  C   UNL A   1      40.897  22.238  27.431  1.00  0.00     0.016 A 
ATOM     39  C   UNL A   1      39.891  24.669  26.490  1.00  0.00     0.010 A 
ATOM     40  C   UNL A   1      41.514  23.440  27.788  1.00  0.00     0.010 A 
ATOM     41  C   UNL A   1      41.031  24.669  27.305  1.00  0.00    -0.014 A 
BRANCH  41  42
ATOM     42  C   UNL A   1      41.679  25.944  27.712  1.00  0.00     0.031 A 
ATOM     43  C   UNL A   1      40.961  26.938  28.584  1.00  0.00     0.074 A 
ATOM     44  C   UNL A   1      42.902  26.241  27.233  1.00  0.00     0.049 A 
ATOM     45  N   UNL A   1      41.289  28.174  28.865  1.00  0.00    -0.248 NA
ATOM     46  C   UNL A   1      39.706  26.491  29.207  1.00  0.00     0.031 C 
ATOM     47  C   UNL A   1      43.720  25.364  26.392  1.00  0.00     0.029 A 
ATOM     48  N   UNL A   1      43.662  27.375  27.367  1.00  0.00    -0.354 N 
ATOM     49  C   UNL A   1      40.259  28.671  29.655  1.00  0.00     0.074 A 
ATOM     50  C   UNL A   1      39.296  27.600  29.807  1.00  0.00     0.031 C 
ATOM     51  C   UNL A   1      44.868  25.987  26.092  1.00  0.00     0.029 A 
ATOM     52  C   UNL A   1      44.831  27.334  26.646  1.00  0.00     0.049 A 
ATOM     53  H   UNL A   1      43.397  28.143  27.924  1.00  0.00     0.167 HD
ATOM     54  C   UNL A   1      40.125  29.909  30.191  1.00  0.00     0.031 A 
ATOM     55  C   UNL A   1      45.750  28.285  26.400  1.00  0.00     0.031 A 
ATOM     56  C   UNL A   1      41.094  30.968  30.051  1.00  0.00     0.049 A 
ATOM     57  C   UNL A   1      45.562  29.657  26.968  1.00  0.00     0.074 A 
ATOM     58  C   UNL A   1      41.068  32.239  30.601  1.00  0.00     0.029 A 
ATOM     59  N   UNL A   1      42.258  30.883  29.303  1.00  0.00    -0.354 N 
ATOM     60  N   UNL A   1      44.585  30.112  27.713  1.00  0.00    -0.248 NA
ATOM     61  C   UNL A   1      46.601  30.647  26.657  1.00  0.00     0.031 C 
ATOM     62  C   UNL A   1      42.188  32.940  30.139  1.00  0.00     0.029 A 
ATOM     63  C   UNL A   1      42.941  32.088  29.350  1.00  0.00     0.049 A 
ATOM     64  H   UNL A   1      42.556  30.083  28.810  1.00  0.00     0.167 HD
ATOM     65  C   UNL A   1      44.894  31.441  27.968  1.00  0.00     0.074 A 
ATOM     66  C   UNL A   1      46.160  31.710  27.316  1.00  0.00     0.031 C 
ATOM     67  C   UNL A   1      44.189  32.352  28.681  1.00  0.00     0.031 A 
BRANCH  54  68
ATOM     68  C   UNL A   1      38.856  30.208  30.942  1.00  0.00    -0.014 A 
ATOM     69  C   UNL A   1      37.710  30.697  30.296  1.00  0.00     0.009 A 
ATOM     70  C   UNL A   1      38.798  29.957  32.323  1.00  0.00     0.009 A 
ATOM     71  C   UNL A   1      36.547  30.964  31.023  1.00  0.00     0.001 A 
ATOM     72  C   UNL A   1      37.626  30.198  33.043  1.00  0.00     0.001 A 
ATOM     73  C   UNL A   1      36.505  30.711  32.395  1.00  0.00     0.000 A 
ENDBRANCH  54  68
BRANCH  55  74
ATOM     74  C   UNL A   1      46.906  27.962  25.526  1.00  0.00    -0.014 A 
ATOM     75  C   UNL A   1      48.117  27.522  26.080  1.00  0.00     0.009 A 
ATOM     76  C   UNL A   1      46.780  28.031  24.129  1.00  0.00     0.009 A 
ATOM     77  C   UNL A   1      49.180  27.161  25.250  1.00  0.00     0.001 A 
ATOM     78  C   UNL A   1      47.834  27.642  23.302  1.00  0.00     0.001 A 
ATOM     79  C   UNL A   1      49.035  27.212  23.863  1.00  0.00     0.000 A 
ENDBRANCH  55  74
BRANCH  67  80
ATOM     80  C   UNL A   1      44.788  33.724  28.806  1.00  0.00    -0.014 A 
ATOM     81  C   UNL A   1      45.669  34.041  29.852  1.00  0.00     0.009 A 
ATOM     82  C   UNL A   1      44.478  34.709  27.855  1.00  0.00     0.009 A 
ATOM     83  C   UNL A   1      46.202  35.328  29.962  1.00  0.00     0.001 A 
ATOM     84  C   UNL A   1      45.032  35.986  27.952  1.00  0.00     0.001 A 
ATOM     85  C   UNL A   1      45.885  36.297  29.010  1.00  0.00     0.000 A 
ENDBRANCH  67  80
ENDBRANCH  41  42
ENDBRANCH  34  36
ENDBRANCH  33  34
ENDBRANCH  32  33
ENDBRANCH   1  32
TORSDOF 14
ENDMDL
MODEL 2
REMARK VINA RESULT:     -12.0      2.972      6.248
REMARK SMILES O=C1C[C@@H](C(=O)OCCOC(=O)c2ccc(-c3c4nc(c(-c5ccccc5)c5ccc([nH]5)c(-c5ccccc5)c5nc(c(-c6ccccc6)c6ccc3[nH]6)C=C5)C=C4)cc2)C2(CC[NH+](Cc3c[nH]nc3-c3ccc(Cl)cc3)CC2)N1
REMARK SMILES IDX 8 1 7 2 5 3 6 4 4 5 1 6 2 7 3 8 80 9 61 10 62 12 79 13 63 14
REMARK SMILES IDX 78 15 64 16 65 18 66 19 67 20 70 21 68 22 69 23 71 25 72 26
REMARK SMILES IDX 77 27 73 28 76 29 74 30 75 31 9 32 10 33 11 34 12 35 13 36
REMARK SMILES IDX 14 37 60 38 15 39 59 40 16 41 17 42 18 43 53 44 19 45 58 46
REMARK SMILES IDX 52 47 54 48 20 49 57 50 51 51 50 52 21 54 43 55 28 56 42 57
REMARK SMILES IDX 29 58 32 59 41 60 55 61 30 62 31 63 40 65 56 66 33 67 22 68
REMARK SMILES IDX 23 69 27 70 24 71 26 72 25 73 44 74 45 75 49 76 46 77 48 78
REMARK SMILES IDX 47 79 34 80 35 81 39 82 36 83 38 84 37 85
REMARK H PARENT 80 11 64 17 68 24 54 53 32 64
REMARK Flexibility Score: inf
ROOT
ATOM      1  C   UNL A   1      35.948  22.225  26.249  1.00  0.00     0.274 C 
ENDROOT
BRANCH   1   2
ATOM      2  O   UNL A   1      35.973  21.499  25.003  1.00  0.00    -0.462 OA
BRANCH   2   3
ATOM      3  C   UNL A   1      35.229  20.371  24.972  1.00  0.00     0.311 C 
ATOM      4  O   UNL A   1      35.675  19.259  24.699  1.00  0.00    -0.252 OA
BRANCH   3   5
ATOM      5  C   UNL A   1      33.747  20.559  25.244  1.00  0.00     0.134 C 
ATOM      6  O   UNL A   1      32.053  18.204  23.180  1.00  0.00    -0.275 OA
ATOM      7  C   UNL A   1      32.481  19.164  23.786  1.00  0.00     0.221 C 
ATOM      8  C   UNL A   1      33.128  19.151  25.145  1.00  0.00     0.117 C 
ATOM      9  N   UNL A   1      32.404  20.470  23.365  1.00  0.00    -0.349 N 
ATOM     10  C   UNL A   1      32.830  21.440  24.363  1.00  0.00     0.064 C 
ATOM     11  H   UNL A   1      32.088  20.727  22.468  1.00  0.00     0.164 HD
ATOM     12  C   UNL A   1      33.435  22.659  23.654  1.00  0.00     0.091 C 
ATOM     13  C   UNL A   1      31.564  21.850  25.184  1.00  0.00     0.091 C 
ATOM     14  C   UNL A   1      33.449  23.940  24.476  1.00  0.00     0.264 C 
ATOM     15  C   UNL A   1      31.586  23.244  25.823  1.00  0.00     0.264 C 
ATOM     16  N   UNL A   1      32.152  24.301  25.007  1.00  0.00    -0.331 N 
ATOM     17  H   UNL A   1      32.313  25.051  25.680  1.00  0.00     0.348 HD
BRANCH  16  18
ATOM     18  C   UNL A   1      31.271  25.083  24.130  1.00  0.00     0.303 C 
BRANCH  18  19
ATOM     19  C   UNL A   1      31.963  25.880  23.072  1.00  0.00     0.052 A 
ATOM     20  C   UNL A   1      31.920  25.639  21.710  1.00  0.00     0.115 A 
ATOM     21  C   UNL A   1      32.690  27.117  23.174  1.00  0.00     0.101 A 
ATOM     22  N   UNL A   1      32.710  26.572  21.121  1.00  0.00    -0.285 N 
ATOM     23  N   UNL A   1      33.172  27.487  21.975  1.00  0.00    -0.175 NA
ATOM     24  H   UNL A   1      32.920  26.575  20.159  1.00  0.00     0.189 HD
BRANCH  21  25
ATOM     25  C   UNL A   1      32.910  28.001  24.321  1.00  0.00     0.003 A 
ATOM     26  C   UNL A   1      32.047  29.093  24.505  1.00  0.00     0.012 A 
ATOM     27  C   UNL A   1      33.979  27.837  25.207  1.00  0.00     0.012 A 
ATOM     28  C   UNL A   1      32.241  29.990  25.559  1.00  0.00     0.021 A 
ATOM     29  C   UNL A   1      34.175  28.731  26.267  1.00  0.00     0.021 A 
ATOM     30  C   UNL A   1      33.303  29.803  26.438  1.00  0.00     0.041 A 
ATOM     31  Cl  UNL A   1      33.553  30.909  27.731  1.00  0.00    -0.084 Cl
ENDBRANCH  21  25
ENDBRANCH  18  19
ENDBRANCH  16  18
ENDBRANCH   3   5
ENDBRANCH   2   3
ENDBRANCH   1   2
BRANCH   1  32
ATOM     32  C   UNL A   1      36.618  23.596  26.112  1.00  0.00     0.275 C 
BRANCH  32  33
ATOM     33  O   UNL A   1      37.906  23.470  25.478  1.00  0.00    -0.458 OA
BRANCH  33  34
ATOM     34  C   UNL A   1      38.935  23.166  26.300  1.00  0.00     0.338 C 
ATOM     35  O   UNL A   1      39.438  22.068  26.475  1.00  0.00    -0.246 OA
BRANCH  34  36
ATOM     36  C   UNL A   1      39.461  24.376  26.964  1.00  0.00     0.060 A 
ATOM     37  C   UNL A   1      39.173  24.632  28.305  1.00  0.00     0.016 A 
ATOM     38  C   UNL A   1      40.091  25.351  26.192  1.00  0.00     0.016 A 
ATOM     39  C   UNL A   1      39.436  25.885  28.855  1.00  0.00     0.010 A 
ATOM     40  C   UNL A   1      40.452  26.569  26.774  1.00  0.00     0.010 A 
ATOM     41  C   UNL A   1      40.111  26.858  28.107  1.00  0.00    -0.014 A 
BRANCH  41  42
ATOM     42  C   UNL A   1      40.524  28.146  28.726  1.00  0.00     0.031 A 
ATOM     43  C   UNL A   1      41.895  28.321  29.318  1.00  0.00     0.074 A 
ATOM     44  C   UNL A   1      39.627  29.147  28.817  1.00  0.00     0.049 A 
ATOM     45  N   UNL A   1      42.350  29.292  30.070  1.00  0.00    -0.248 NA
ATOM     46  C   UNL A   1      42.878  27.262  29.043  1.00  0.00     0.031 C 
ATOM     47  C   UNL A   1      38.268  29.122  28.273  1.00  0.00     0.029 A 
ATOM     48  N   UNL A   1      39.718  30.375  29.424  1.00  0.00    -0.354 N 
ATOM     49  C   UNL A   1      43.652  28.940  30.401  1.00  0.00     0.074 A 
ATOM     50  C   UNL A   1      43.914  27.664  29.767  1.00  0.00     0.031 C 
ATOM     51  C   UNL A   1      37.656  30.278  28.561  1.00  0.00     0.029 A 
ATOM     52  C   UNL A   1      38.545  31.089  29.382  1.00  0.00     0.049 A 
ATOM     53  H   UNL A   1      40.541  30.710  29.848  1.00  0.00     0.167 HD
ATOM     54  C   UNL A   1      44.542  29.612  31.173  1.00  0.00     0.031 A 
ATOM     55  C   UNL A   1      38.192  32.241  29.980  1.00  0.00     0.031 A 
ATOM     56  C   UNL A   1      44.284  30.890  31.790  1.00  0.00     0.049 A 
ATOM     57  C   UNL A   1      39.175  32.946  30.861  1.00  0.00     0.074 A 
ATOM     58  C   UNL A   1      45.142  31.671  32.547  1.00  0.00     0.029 A 
ATOM     59  N   UNL A   1      43.078  31.571  31.727  1.00  0.00    -0.354 N 
ATOM     60  N   UNL A   1      40.403  32.603  31.164  1.00  0.00    -0.248 NA
ATOM     61  C   UNL A   1      38.723  34.196  31.486  1.00  0.00     0.031 C 
ATOM     62  C   UNL A   1      44.436  32.796  32.989  1.00  0.00     0.029 A 
ATOM     63  C   UNL A   1      43.158  32.745  32.458  1.00  0.00     0.049 A 
ATOM     64  H   UNL A   1      42.281  31.265  31.235  1.00  0.00     0.167 HD
ATOM     65  C   UNL A   1      40.874  33.597  32.010  1.00  0.00     0.074 A 
ATOM     66  C   UNL A   1      39.807  34.567  32.152  1.00  0.00     0.031 C 
ATOM     67  C   UNL A   1      42.085  33.694  32.611  1.00  0.00     0.031 A 
BRANCH  54  68
ATOM     68  C   UNL A   1      45.868  28.953  31.440  1.00  0.00    -0.014 A 
ATOM     69  C   UNL A   1      46.980  29.162  30.609  1.00  0.00     0.009 A 
ATOM     70  C   UNL A   1      46.014  28.137  32.573  1.00  0.00     0.009 A 
ATOM     71  C   UNL A   1      48.198  28.535  30.886  1.00  0.00     0.001 A 
ATOM     72  C   UNL A   1      47.240  27.533  32.864  1.00  0.00     0.001 A 
ATOM     73  C   UNL A   1      48.327  27.724  32.015  1.00  0.00     0.000 A 
ENDBRANCH  54  68
BRANCH  55  74
ATOM     74  C   UNL A   1      36.814  32.759  29.791  1.00  0.00    -0.014 A 
ATOM     75  C   UNL A   1      35.818  32.498  30.743  1.00  0.00     0.009 A 
ATOM     76  C   UNL A   1      36.506  33.570  28.686  1.00  0.00     0.009 A 
ATOM     77  C   UNL A   1      34.540  33.038  30.590  1.00  0.00     0.001 A 
ATOM     78  C   UNL A   1      35.236  34.133  28.552  1.00  0.00     0.001 A 
ATOM     79  C   UNL A   1      34.253  33.862  29.501  1.00  0.00     0.000 A 
ENDBRANCH  55  74
BRANCH  67  80
ATOM     80  C   UNL A   1      42.322  34.907  33.464  1.00  0.00    -0.014 A 
ATOM     81  C   UNL A   1      41.881  34.958  34.796  1.00  0.00     0.009 A 
ATOM     82  C   UNL A   1      43.011  36.009  32.932  1.00  0.00     0.009 A 
ATOM     83  C   UNL A   1      42.095  36.103  35.568  1.00  0.00     0.001 A 
ATOM     84  C   UNL A   1      43.247  37.140  33.714  1.00  0.00     0.001 A 
ATOM     85  C   UNL A   1      42.781  37.190  35.027  1.00  0.00     0.000 A 
ENDBRANCH  67  80
ENDBRANCH  41  42
ENDBRANCH  34  36
ENDBRANCH  33  34
ENDBRANCH  32  33
ENDBRANCH   1  32
TORSDOF 14
ENDMDL
MODEL 3
REMARK VINA RESULT:     -12.0      2.986      7.413
REMARK SMILES O=C1C[C@@H](C(=O)OCCOC(=O)c2ccc(-c3c4nc(c(-c5ccccc5)c5ccc([nH]5)c(-c5ccccc5)c5nc(c(-c6ccccc6)c6ccc3[nH]6)C=C5)C=C4)cc2)C2(CC[NH+](Cc3c[nH]nc3-c3ccc(Cl)cc3)CC2)N1
REMARK SMILES IDX 8 1 7 2 5 3 6 4 4 5 1 6 2 7 3 8 80 9 61 10 62 12 79 13 63 14
REMARK SMILES IDX 78 15 64 16 65 18 66 19 67 20 70 21 68 22 69 23 71 25 72 26
REMARK SMILES IDX 77 27 73 28 76 29 74 30 75 31 9 32 10 33 11 34 12 35 13 36
REMARK SMILES IDX 14 37 60 38 15 39 59 40 16 41 17 42 18 43 53 44 19 45 58 46
REMARK SMILES IDX 52 47 54 48 20 49 57 50 51 51 50 52 21 54 43 55 28 56 42 57
REMARK SMILES IDX 29 58 32 59 41 60 55 61 30 62 31 63 40 65 56 66 33 67 22 68
REMARK SMILES IDX 23 69 27 70 24 71 26 72 25 73 44 74 45 75 49 76 46 77 48 78
REMARK SMILES IDX 47 79 34 80 35 81 39 82 36 83 38 84 37 85
REMARK H PARENT 80 11 64 17 68 24 54 53 32 64
REMARK Flexibility Score: inf
ROOT
ATOM      1  C   UNL A   1      32.480  29.615  27.051  1.00  0.00     0.274 C 
ENDROOT
BRANCH   1   2
ATOM      2  O   UNL A   1      31.725  30.082  25.914  1.00  0.00    -0.462 OA
BRANCH   2   3
ATOM      3  C   UNL A   1      31.753  29.279  24.827  1.00  0.00     0.311 C 
ATOM      4  O   UNL A   1      30.941  29.337  23.907  1.00  0.00    -0.252 OA
BRANCH   3   5
ATOM      5  C   UNL A   1      32.844  28.223  24.824  1.00  0.00     0.134 C 
ATOM      6  O   UNL A   1      34.025  28.027  21.471  1.00  0.00    -0.275 OA
ATOM      7  C   UNL A   1      33.600  27.858  22.595  1.00  0.00     0.221 C 
ATOM      8  C   UNL A   1      33.888  28.711  23.800  1.00  0.00     0.117 C 
ATOM      9  N   UNL A   1      32.810  26.808  22.996  1.00  0.00    -0.349 N 
ATOM     10  C   UNL A   1      32.592  26.747  24.435  1.00  0.00     0.064 C 
ATOM     11  H   UNL A   1      32.424  26.155  22.367  1.00  0.00     0.164 HD
ATOM     12  C   UNL A   1      31.212  26.135  24.709  1.00  0.00     0.091 C 
ATOM     13  C   UNL A   1      33.724  25.852  25.039  1.00  0.00     0.091 C 
ATOM     14  C   UNL A   1      31.039  25.533  26.096  1.00  0.00     0.264 C 
ATOM     15  C   UNL A   1      33.394  25.126  26.348  1.00  0.00     0.264 C 
ATOM     16  N   UNL A   1      32.059  24.564  26.437  1.00  0.00    -0.331 N 
ATOM     17  H   UNL A   1      31.956  24.373  27.434  1.00  0.00     0.348 HD
BRANCH  16  18
ATOM     18  C   UNL A   1      31.831  23.180  26.001  1.00  0.00     0.303 C 
BRANCH  18  19
ATOM     19  C   UNL A   1      32.058  22.920  24.548  1.00  0.00     0.052 A 
ATOM     20  C   UNL A   1      31.166  23.178  23.523  1.00  0.00     0.115 A 
ATOM     21  C   UNL A   1      33.249  22.496  23.861  1.00  0.00     0.101 A 
ATOM     22  N   UNL A   1      31.755  22.762  22.373  1.00  0.00    -0.285 N 
ATOM     23  N   UNL A   1      33.017  22.364  22.543  1.00  0.00    -0.175 NA
ATOM     24  H   UNL A   1      31.299  22.756  21.501  1.00  0.00     0.189 HD
BRANCH  21  25
ATOM     25  C   UNL A   1      34.606  22.262  24.361  1.00  0.00     0.003 A 
ATOM     26  C   UNL A   1      35.665  22.993  23.802  1.00  0.00     0.012 A 
ATOM     27  C   UNL A   1      34.897  21.298  25.331  1.00  0.00     0.012 A 
ATOM     28  C   UNL A   1      36.983  22.775  24.215  1.00  0.00     0.021 A 
ATOM     29  C   UNL A   1      36.215  21.079  25.751  1.00  0.00     0.021 A 
ATOM     30  C   UNL A   1      37.251  21.821  25.191  1.00  0.00     0.041 A 
ATOM     31  Cl  UNL A   1      38.872  21.541  25.696  1.00  0.00    -0.084 Cl
ENDBRANCH  21  25
ENDBRANCH  18  19
ENDBRANCH  16  18
ENDBRANCH   3   5
ENDBRANCH   2   3
ENDBRANCH   1   2
BRANCH   1  32
ATOM     32  C   UNL A   1      33.639  30.561  27.379  1.00  0.00     0.275 C 
BRANCH  32  33
ATOM     33  O   UNL A   1      34.840  29.815  27.659  1.00  0.00    -0.458 OA
BRANCH  33  34
ATOM     34  C   UNL A   1      35.597  30.284  28.675  1.00  0.00     0.338 C 
ATOM     35  O   UNL A   1      35.248  31.044  29.563  1.00  0.00    -0.246 OA
BRANCH  34  36
ATOM     36  C   UNL A   1      36.957  29.708  28.635  1.00  0.00     0.060 A 
ATOM     37  C   UNL A   1      37.592  29.307  29.811  1.00  0.00     0.016 A 
ATOM     38  C   UNL A   1      37.670  29.741  27.438  1.00  0.00     0.016 A 
ATOM     39  C   UNL A   1      38.955  29.019  29.811  1.00  0.00     0.010 A 
ATOM     40  C   UNL A   1      39.011  29.346  27.419  1.00  0.00     0.010 A 
ATOM     41  C   UNL A   1      39.675  29.000  28.609  1.00  0.00    -0.014 A 
BRANCH  41  42
ATOM     42  C   UNL A   1      41.094  28.556  28.575  1.00  0.00     0.031 A 
ATOM     43  C   UNL A   1      42.221  29.537  28.750  1.00  0.00     0.074 A 
ATOM     44  C   UNL A   1      41.372  27.265  28.315  1.00  0.00     0.049 A 
ATOM     45  N   UNL A   1      43.503  29.364  28.549  1.00  0.00    -0.248 NA
ATOM     46  C   UNL A   1      41.859  30.892  29.194  1.00  0.00     0.031 C 
ATOM     47  C   UNL A   1      40.380  26.201  28.140  1.00  0.00     0.029 A 
ATOM     48  N   UNL A   1      42.574  26.630  28.128  1.00  0.00    -0.354 N 
ATOM     49  C   UNL A   1      44.097  30.596  28.790  1.00  0.00     0.074 A 
ATOM     50  C   UNL A   1      43.032  31.509  29.153  1.00  0.00     0.031 C 
ATOM     51  C   UNL A   1      41.010  25.048  27.881  1.00  0.00     0.029 A 
ATOM     52  C   UNL A   1      42.441  25.306  27.785  1.00  0.00     0.049 A 
ATOM     53  H   UNL A   1      43.445  27.078  28.228  1.00  0.00     0.167 HD
ATOM     54  C   UNL A   1      45.406  30.937  28.703  1.00  0.00     0.031 A 
ATOM     55  C   UNL A   1      43.353  24.403  27.381  1.00  0.00     0.031 A 
ATOM     56  C   UNL A   1      46.466  30.022  28.357  1.00  0.00     0.049 A 
ATOM     57  C   UNL A   1      44.788  24.811  27.253  1.00  0.00     0.074 A 
ATOM     58  C   UNL A   1      47.828  30.264  28.294  1.00  0.00     0.029 A 
ATOM     59  N   UNL A   1      46.282  28.692  28.009  1.00  0.00    -0.354 N 
ATOM     60  N   UNL A   1      45.335  25.978  27.485  1.00  0.00    -0.248 NA
ATOM     61  C   UNL A   1      45.729  23.778  26.802  1.00  0.00     0.031 C 
ATOM     62  C   UNL A   1      48.462  29.097  27.853  1.00  0.00     0.029 A 
ATOM     63  C   UNL A   1      47.501  28.111  27.698  1.00  0.00     0.049 A 
ATOM     64  H   UNL A   1      45.413  28.229  27.986  1.00  0.00     0.167 HD
ATOM     65  C   UNL A   1      46.688  25.820  27.217  1.00  0.00     0.074 A 
ATOM     66  C   UNL A   1      46.879  24.438  26.826  1.00  0.00     0.031 C 
ATOM     67  C   UNL A   1      47.679  26.741  27.291  1.00  0.00     0.031 A 
BRANCH  54  68
ATOM     68  C   UNL A   1      45.767  32.379  28.939  1.00  0.00    -0.014 A 
ATOM     69  C   UNL A   1      45.775  33.320  27.898  1.00  0.00     0.009 A 
ATOM     70  C   UNL A   1      46.069  32.808  30.242  1.00  0.00     0.009 A 
ATOM     71  C   UNL A   1      46.115  34.652  28.151  1.00  0.00     0.001 A 
ATOM     72  C   UNL A   1      46.382  34.145  30.498  1.00  0.00     0.001 A 
ATOM     73  C   UNL A   1      46.414  35.063  29.451  1.00  0.00     0.000 A 
ENDBRANCH  54  68
BRANCH  55  74
ATOM     74  C   UNL A   1      42.903  23.035  27.022  1.00  0.00    -0.014 A 
ATOM     75  C   UNL A   1      42.984  22.584  25.697  1.00  0.00     0.009 A 
ATOM     76  C   UNL A   1      42.450  22.153  28.017  1.00  0.00     0.009 A 
ATOM     77  C   UNL A   1      42.616  21.275  25.376  1.00  0.00     0.001 A 
ATOM     78  C   UNL A   1      42.113  20.837  27.698  1.00  0.00     0.001 A 
ATOM     79  C   UNL A   1      42.191  20.401  26.376  1.00  0.00     0.000 A 
ENDBRANCH  55  74
BRANCH  67  80
ATOM     80  C   UNL A   1      49.066  26.270  26.958  1.00  0.00    -0.014 A 
ATOM     81  C   UNL A   1      49.592  26.413  25.665  1.00  0.00     0.009 A 
ATOM     82  C   UNL A   1      49.864  25.691  27.958  1.00  0.00     0.009 A 
ATOM     83  C   UNL A   1      50.878  25.952  25.371  1.00  0.00     0.001 A 
ATOM     84  C   UNL A   1      51.158  25.256  27.668  1.00  0.00     0.001 A 
ATOM     85  C   UNL A   1      51.660  25.378  26.373  1.00  0.00     0.000 A 
ENDBRANCH  67  80
ENDBRANCH  41  42
ENDBRANCH  34  36
ENDBRANCH  33  34
ENDBRANCH  32  33
ENDBRANCH   1  32
TORSDOF 14
ENDMDL
