MODEL 1
REMARK VINA RESULT:     -11.0      0.000      0.000
REMARK SMILES O=C(OCCOC(=O)[C@H]1CS[C@]2(c3ccccc3)CCC(=O)N12)c1ccc(-c2c3nc(c(-c4ccccc4)c4ccc([nH]4)c(-c4ccccc4)c4nc(c(-c5ccccc5)c5ccc2[nH]5)C=C4)C=C3)cc1
REMARK SMILES IDX 4 1 3 2 2 3 1 4 24 5 25 6 71 7 26 8 70 9 27 10 28 11 29 12
REMARK SMILES IDX 64 13 30 14 69 15 63 16 65 17 31 18 68 19 62 20 61 21 32 23
REMARK SMILES IDX 54 24 39 25 53 26 40 27 43 28 52 29 66 30 41 31 42 32 51 34
REMARK SMILES IDX 67 35 44 36 33 37 34 38 38 39 35 40 37 41 36 42 55 43 56 44
REMARK SMILES IDX 60 45 57 46 59 47 58 48 45 49 46 50 50 51 47 52 49 53 48 54
REMARK SMILES IDX 5 55 6 56 7 57 8 58 9 59 10 60 23 61 11 62 12 63 21 64 19 65
REMARK SMILES IDX 20 66 22 67 13 68 14 69 18 70 15 71 17 72 16 73
REMARK H PARENT 65 22 43 33
REMARK Flexibility Score: inf
ROOT
ATOM      1  C   UNL A   1      31.425  32.315  26.928  1.00  0.00     0.275 C 
ENDROOT
BRANCH   1   2
ATOM      2  O   UNL A   1      32.432  33.352  26.871  1.00  0.00    -0.458 OA
BRANCH   2   3
ATOM      3  C   UNL A   1      33.018  33.813  27.992  1.00  0.00     0.338 C 
ATOM      4  O   UNL A   1      32.533  34.715  28.666  1.00  0.00    -0.246 OA
BRANCH   3   5
ATOM      5  C   UNL A   1      34.285  33.100  28.342  1.00  0.00     0.060 A 
ATOM      6  C   UNL A   1      35.530  33.676  28.069  1.00  0.00     0.016 A 
ATOM      7  C   UNL A   1      34.230  31.943  29.130  1.00  0.00     0.016 A 
ATOM      8  C   UNL A   1      36.680  33.191  28.678  1.00  0.00     0.010 A 
ATOM      9  C   UNL A   1      35.382  31.464  29.765  1.00  0.00     0.010 A 
ATOM     10  C   UNL A   1      36.612  32.101  29.550  1.00  0.00    -0.014 A 
BRANCH  10  11
ATOM     11  C   UNL A   1      37.894  31.567  30.057  1.00  0.00     0.031 A 
ATOM     12  C   UNL A   1      38.267  31.905  31.466  1.00  0.00     0.074 A 
ATOM     13  C   UNL A   1      38.591  30.651  29.355  1.00  0.00     0.049 A 
ATOM     14  N   UNL A   1      39.157  31.339  32.236  1.00  0.00    -0.248 NA
ATOM     15  C   UNL A   1      37.495  32.979  32.116  1.00  0.00     0.031 C 
ATOM     16  C   UNL A   1      38.265  30.180  28.008  1.00  0.00     0.029 A 
ATOM     17  N   UNL A   1      39.701  29.918  29.695  1.00  0.00    -0.354 N 
ATOM     18  C   UNL A   1      39.003  31.943  33.475  1.00  0.00     0.074 A 
ATOM     19  C   UNL A   1      37.996  32.970  33.338  1.00  0.00     0.031 C 
ATOM     20  C   UNL A   1      39.166  29.260  27.625  1.00  0.00     0.029 A 
ATOM     21  C   UNL A   1      40.114  29.047  28.713  1.00  0.00     0.049 A 
ATOM     22  H   UNL A   1      40.161  30.009  30.560  1.00  0.00     0.167 HD
ATOM     23  C   UNL A   1      39.617  31.639  34.639  1.00  0.00     0.031 A 
ATOM     24  C   UNL A   1      41.123  28.156  28.709  1.00  0.00     0.031 A 
ATOM     25  C   UNL A   1      40.658  30.660  34.757  1.00  0.00     0.049 A 
ATOM     26  C   UNL A   1      41.904  27.955  29.981  1.00  0.00     0.074 A 
ATOM     27  C   UNL A   1      41.394  30.316  35.874  1.00  0.00     0.029 A 
ATOM     28  N   UNL A   1      41.121  29.882  33.707  1.00  0.00    -0.354 N 
ATOM     29  N   UNL A   1      41.711  28.497  31.161  1.00  0.00    -0.248 NA
ATOM     30  C   UNL A   1      43.012  26.992  29.934  1.00  0.00     0.031 C 
ATOM     31  C   UNL A   1      42.347  29.370  35.485  1.00  0.00     0.029 A 
ATOM     32  C   UNL A   1      42.160  29.078  34.142  1.00  0.00     0.049 A 
ATOM     33  H   UNL A   1      40.765  29.898  32.790  1.00  0.00     0.167 HD
ATOM     34  C   UNL A   1      42.650  27.914  32.003  1.00  0.00     0.074 A 
ATOM     35  C   UNL A   1      43.391  26.961  31.203  1.00  0.00     0.031 C 
ATOM     36  C   UNL A   1      42.879  28.142  33.319  1.00  0.00     0.031 A 
BRANCH  23  37
ATOM     37  C   UNL A   1      39.182  32.409  35.848  1.00  0.00    -0.014 A 
ATOM     38  C   UNL A   1      39.794  33.628  36.184  1.00  0.00     0.009 A 
ATOM     39  C   UNL A   1      38.171  31.901  36.675  1.00  0.00     0.009 A 
ATOM     40  C   UNL A   1      39.421  34.307  37.345  1.00  0.00     0.001 A 
ATOM     41  C   UNL A   1      37.786  32.594  37.822  1.00  0.00     0.001 A 
ATOM     42  C   UNL A   1      38.415  33.791  38.160  1.00  0.00     0.000 A 
ENDBRANCH  23  37
BRANCH  24  43
ATOM     43  C   UNL A   1      41.463  27.380  27.482  1.00  0.00    -0.014 A 
ATOM     44  C   UNL A   1      40.953  26.090  27.266  1.00  0.00     0.009 A 
ATOM     45  C   UNL A   1      42.372  27.908  26.550  1.00  0.00     0.009 A 
ATOM     46  C   UNL A   1      41.387  25.327  26.176  1.00  0.00     0.001 A 
ATOM     47  C   UNL A   1      42.780  27.155  25.446  1.00  0.00     0.001 A 
ATOM     48  C   UNL A   1      42.301  25.860  25.268  1.00  0.00     0.000 A 
ENDBRANCH  24  43
BRANCH  36  49
ATOM     49  C   UNL A   1      43.960  27.329  33.973  1.00  0.00    -0.014 A 
ATOM     50  C   UNL A   1      45.279  27.800  34.050  1.00  0.00     0.009 A 
ATOM     51  C   UNL A   1      43.641  26.093  34.557  1.00  0.00     0.009 A 
ATOM     52  C   UNL A   1      46.267  27.027  34.663  1.00  0.00     0.001 A 
ATOM     53  C   UNL A   1      44.622  25.340  35.201  1.00  0.00     0.001 A 
ATOM     54  C   UNL A   1      45.936  25.803  35.243  1.00  0.00     0.000 A 
ENDBRANCH  36  49
ENDBRANCH  10  11
ENDBRANCH   3   5
ENDBRANCH   2   3
ENDBRANCH   1   2
BRANCH   1  55
ATOM     55  C   UNL A   1      31.779  30.834  26.682  1.00  0.00     0.274 C 
BRANCH  55  56
ATOM     56  O   UNL A   1      33.134  30.615  26.266  1.00  0.00    -0.461 OA
BRANCH  56  57
ATOM     57  C   UNL A   1      33.386  29.358  25.775  1.00  0.00     0.329 C 
ATOM     58  O   UNL A   1      33.993  28.503  26.403  1.00  0.00    -0.250 OA
BRANCH  57  59
ATOM     59  C   UNL A   1      32.794  29.200  24.368  1.00  0.00     0.206 C 
ATOM     60  C   UNL A   1      33.804  28.908  23.257  1.00  0.00     0.109 C 
ATOM     61  N   UNL A   1      31.684  28.261  24.223  1.00  0.00    -0.309 N 
ATOM     62  S   UNL A   1      33.217  27.432  22.341  1.00  0.00    -0.126 SA
ATOM     63  C   UNL A   1      31.995  26.963  23.655  1.00  0.00     0.116 C 
ATOM     64  C   UNL A   1      30.486  28.779  23.709  1.00  0.00     0.224 C 
ATOM     65  C   UNL A   1      30.646  26.542  23.039  1.00  0.00     0.055 C 
ATOM     66  C   UNL A   1      29.942  27.833  22.682  1.00  0.00     0.104 C 
ATOM     67  O   UNL A   1      30.038  29.900  23.888  1.00  0.00    -0.275 OA
BRANCH  63  68
ATOM     68  C   UNL A   1      32.609  25.939  24.628  1.00  0.00    -0.012 A 
ATOM     69  C   UNL A   1      33.955  25.518  24.531  1.00  0.00     0.007 A 
ATOM     70  C   UNL A   1      31.859  25.338  25.658  1.00  0.00     0.007 A 
ATOM     71  C   UNL A   1      34.515  24.573  25.395  1.00  0.00     0.000 A 
ATOM     72  C   UNL A   1      32.413  24.381  26.519  1.00  0.00     0.000 A 
ATOM     73  C   UNL A   1      33.740  23.999  26.389  1.00  0.00     0.000 A 
ENDBRANCH  63  68
ENDBRANCH  57  59
ENDBRANCH  56  57
ENDBRANCH  55  56
ENDBRANCH   1  55
TORSDOF 12
ENDMDL
MODEL 2
REMARK VINA RESULT:     -10.9      5.220      9.955
REMARK SMILES O=C(OCCOC(=O)[C@H]1CS[C@]2(c3ccccc3)CCC(=O)N12)c1ccc(-c2c3nc(c(-c4ccccc4)c4ccc([nH]4)c(-c4ccccc4)c4nc(c(-c5ccccc5)c5ccc2[nH]5)C=C4)C=C3)cc1
REMARK SMILES IDX 4 1 3 2 2 3 1 4 24 5 25 6 71 7 26 8 70 9 27 10 28 11 29 12
REMARK SMILES IDX 64 13 30 14 69 15 63 16 65 17 31 18 68 19 62 20 61 21 32 23
REMARK SMILES IDX 54 24 39 25 53 26 40 27 43 28 52 29 66 30 41 31 42 32 51 34
REMARK SMILES IDX 67 35 44 36 33 37 34 38 38 39 35 40 37 41 36 42 55 43 56 44
REMARK SMILES IDX 60 45 57 46 59 47 58 48 45 49 46 50 50 51 47 52 49 53 48 54
REMARK SMILES IDX 5 55 6 56 7 57 8 58 9 59 10 60 23 61 11 62 12 63 21 64 19 65
REMARK SMILES IDX 20 66 22 67 13 68 14 69 18 70 15 71 17 72 16 73
REMARK H PARENT 65 22 43 33
REMARK Flexibility Score: inf
ROOT
ATOM      1  C   UNL A   1      39.415  19.619  25.980  1.00  0.00     0.275 C 
ENDROOT
BRANCH   1   2
ATOM      2  O   UNL A   1      40.568  18.852  25.564  1.00  0.00    -0.458 OA
BRANCH   2   3
ATOM      3  C   UNL A   1      41.814  19.227  25.912  1.00  0.00     0.338 C 
ATOM      4  O   UNL A   1      42.784  18.488  25.782  1.00  0.00    -0.246 OA
BRANCH   3   5
ATOM      5  C   UNL A   1      41.894  20.625  26.434  1.00  0.00     0.060 A 
ATOM      6  C   UNL A   1      41.861  20.880  27.809  1.00  0.00     0.016 A 
ATOM      7  C   UNL A   1      42.208  21.672  25.556  1.00  0.00     0.016 A 
ATOM      8  C   UNL A   1      42.264  22.112  28.306  1.00  0.00     0.010 A 
ATOM      9  C   UNL A   1      42.638  22.908  26.054  1.00  0.00     0.010 A 
ATOM     10  C   UNL A   1      42.681  23.124  27.439  1.00  0.00    -0.014 A 
BRANCH  10  11
ATOM     11  C   UNL A   1      42.972  24.444  28.038  1.00  0.00     0.031 A 
ATOM     12  C   UNL A   1      44.406  24.866  28.098  1.00  0.00     0.074 A 
ATOM     13  C   UNL A   1      41.980  25.311  28.324  1.00  0.00     0.049 A 
ATOM     14  N   UNL A   1      44.901  26.059  28.290  1.00  0.00    -0.248 NA
ATOM     15  C   UNL A   1      45.415  23.821  27.850  1.00  0.00     0.031 C 
ATOM     16  C   UNL A   1      40.547  25.035  28.212  1.00  0.00     0.029 A 
ATOM     17  N   UNL A   1      42.027  26.621  28.731  1.00  0.00    -0.354 N 
ATOM     18  C   UNL A   1      46.270  25.917  28.118  1.00  0.00     0.074 A 
ATOM     19  C   UNL A   1      46.538  24.516  27.888  1.00  0.00     0.031 C 
ATOM     20  C   UNL A   1      39.852  26.129  28.566  1.00  0.00     0.029 A 
ATOM     21  C   UNL A   1      40.788  27.197  28.895  1.00  0.00     0.049 A 
ATOM     22  H   UNL A   1      42.869  27.104  28.892  1.00  0.00     0.167 HD
ATOM     23  C   UNL A   1      47.219  26.878  28.109  1.00  0.00     0.031 A 
ATOM     24  C   UNL A   1      40.452  28.454  29.239  1.00  0.00     0.031 A 
ATOM     25  C   UNL A   1      46.957  28.258  28.396  1.00  0.00     0.049 A 
ATOM     26  C   UNL A   1      41.551  29.473  29.385  1.00  0.00     0.074 A 
ATOM     27  C   UNL A   1      47.852  29.306  28.479  1.00  0.00     0.029 A 
ATOM     28  N   UNL A   1      45.699  28.773  28.670  1.00  0.00    -0.354 N 
ATOM     29  N   UNL A   1      42.838  29.335  29.167  1.00  0.00    -0.248 NA
ATOM     30  C   UNL A   1      41.150  30.829  29.783  1.00  0.00     0.031 C 
ATOM     31  C   UNL A   1      47.143  30.448  28.862  1.00  0.00     0.029 A 
ATOM     32  C   UNL A   1      45.797  30.123  28.954  1.00  0.00     0.049 A 
ATOM     33  H   UNL A   1      44.862  28.256  28.663  1.00  0.00     0.167 HD
ATOM     34  C   UNL A   1      43.393  30.592  29.367  1.00  0.00     0.074 A 
ATOM     35  C   UNL A   1      42.299  31.482  29.699  1.00  0.00     0.031 C 
ATOM     36  C   UNL A   1      44.689  30.980  29.284  1.00  0.00     0.031 A 
BRANCH  23  37
ATOM     37  C   UNL A   1      48.619  26.436  27.807  1.00  0.00    -0.014 A 
ATOM     38  C   UNL A   1      49.100  26.415  26.488  1.00  0.00     0.009 A 
ATOM     39  C   UNL A   1      49.456  26.009  28.847  1.00  0.00     0.009 A 
ATOM     40  C   UNL A   1      50.385  25.945  26.214  1.00  0.00     0.001 A 
ATOM     41  C   UNL A   1      50.748  25.561  28.571  1.00  0.00     0.001 A 
ATOM     42  C   UNL A   1      51.209  25.522  27.256  1.00  0.00     0.000 A 
ENDBRANCH  23  37
BRANCH  24  43
ATOM     43  C   UNL A   1      39.029  28.838  29.466  1.00  0.00    -0.014 A 
ATOM     44  C   UNL A   1      38.245  29.391  28.441  1.00  0.00     0.009 A 
ATOM     45  C   UNL A   1      38.470  28.721  30.750  1.00  0.00     0.009 A 
ATOM     46  C   UNL A   1      36.957  29.866  28.707  1.00  0.00     0.001 A 
ATOM     47  C   UNL A   1      37.171  29.168  31.006  1.00  0.00     0.001 A 
ATOM     48  C   UNL A   1      36.422  29.755  29.990  1.00  0.00     0.000 A 
ENDBRANCH  24  43
BRANCH  36  49
ATOM     49  C   UNL A   1      44.983  32.432  29.533  1.00  0.00    -0.014 A 
ATOM     50  C   UNL A   1      44.937  33.373  28.493  1.00  0.00     0.009 A 
ATOM     51  C   UNL A   1      45.268  32.868  30.836  1.00  0.00     0.009 A 
ATOM     52  C   UNL A   1      45.214  34.717  28.748  1.00  0.00     0.001 A 
ATOM     53  C   UNL A   1      45.508  34.218  31.094  1.00  0.00     0.001 A 
ATOM     54  C   UNL A   1      45.492  35.138  30.048  1.00  0.00     0.000 A 
ENDBRANCH  36  49
ENDBRANCH  10  11
ENDBRANCH   3   5
ENDBRANCH   2   3
ENDBRANCH   1   2
BRANCH   1  55
ATOM     55  C   UNL A   1      38.318  20.033  24.976  1.00  0.00     0.274 C 
BRANCH  55  56
ATOM     56  O   UNL A   1      38.038  21.439  24.959  1.00  0.00    -0.461 OA
BRANCH  56  57
ATOM     57  C   UNL A   1      36.795  21.770  24.479  1.00  0.00     0.329 C 
ATOM     58  O   UNL A   1      36.621  22.508  23.522  1.00  0.00    -0.250 OA
BRANCH  57  59
ATOM     59  C   UNL A   1      35.698  21.077  25.300  1.00  0.00     0.206 C 
ATOM     60  C   UNL A   1      35.324  21.765  26.614  1.00  0.00     0.109 C 
ATOM     61  N   UNL A   1      34.460  20.747  24.598  1.00  0.00    -0.309 N 
ATOM     62  S   UNL A   1      33.503  21.975  26.636  1.00  0.00    -0.126 SA
ATOM     63  C   UNL A   1      33.327  21.624  24.824  1.00  0.00     0.116 C 
ATOM     64  C   UNL A   1      34.080  19.397  24.595  1.00  0.00     0.224 C 
ATOM     65  C   UNL A   1      32.130  20.692  24.548  1.00  0.00     0.055 C 
ATOM     66  C   UNL A   1      32.614  19.299  24.889  1.00  0.00     0.104 C 
ATOM     67  O   UNL A   1      34.822  18.428  24.569  1.00  0.00    -0.275 OA
BRANCH  63  68
ATOM     68  C   UNL A   1      33.325  22.934  24.013  1.00  0.00    -0.012 A 
ATOM     69  C   UNL A   1      33.074  22.960  22.622  1.00  0.00     0.007 A 
ATOM     70  C   UNL A   1      33.601  24.183  24.602  1.00  0.00     0.007 A 
ATOM     71  C   UNL A   1      33.093  24.140  21.874  1.00  0.00     0.000 A 
ATOM     72  C   UNL A   1      33.634  25.367  23.854  1.00  0.00     0.000 A 
ATOM     73  C   UNL A   1      33.379  25.347  22.490  1.00  0.00     0.000 A 
ENDBRANCH  63  68
ENDBRANCH  57  59
ENDBRANCH  56  57
ENDBRANCH  55  56
ENDBRANCH   1  55
TORSDOF 12
ENDMDL
MODEL 3
REMARK VINA RESULT:     -10.9      1.165      2.661
REMARK SMILES O=C(OCCOC(=O)[C@H]1CS[C@]2(c3ccccc3)CCC(=O)N12)c1ccc(-c2c3nc(c(-c4ccccc4)c4ccc([nH]4)c(-c4ccccc4)c4nc(c(-c5ccccc5)c5ccc2[nH]5)C=C4)C=C3)cc1
REMARK SMILES IDX 4 1 3 2 2 3 1 4 24 5 25 6 71 7 26 8 70 9 27 10 28 11 29 12
REMARK SMILES IDX 64 13 30 14 69 15 63 16 65 17 31 18 68 19 62 20 61 21 32 23
REMARK SMILES IDX 54 24 39 25 53 26 40 27 43 28 52 29 66 30 41 31 42 32 51 34
REMARK SMILES IDX 67 35 44 36 33 37 34 38 38 39 35 40 37 41 36 42 55 43 56 44
REMARK SMILES IDX 60 45 57 46 59 47 58 48 45 49 46 50 50 51 47 52 49 53 48 54
REMARK SMILES IDX 5 55 6 56 7 57 8 58 9 59 10 60 23 61 11 62 12 63 21 64 19 65
REMARK SMILES IDX 20 66 22 67 13 68 14 69 18 70 15 71 17 72 16 73
REMARK H PARENT 65 22 43 33
REMARK Flexibility Score: inf
ROOT
ATOM      1  C   UNL A   1      32.066  31.750  26.892  1.00  0.00     0.275 C 
ENDROOT
BRANCH   1   2
ATOM      2  O   UNL A   1      32.967  32.882  26.884  1.00  0.00    -0.458 OA
BRANCH   2   3
ATOM      3  C   UNL A   1      33.199  33.593  28.003  1.00  0.00     0.338 C 
ATOM      4  O   UNL A   1      32.408  34.427  28.430  1.00  0.00    -0.246 OA
BRANCH   3   5
ATOM      5  C   UNL A   1      34.486  33.242  28.679  1.00  0.00     0.060 A 
ATOM      6  C   UNL A   1      34.535  32.240  29.654  1.00  0.00     0.016 A 
ATOM      7  C   UNL A   1      35.687  33.775  28.191  1.00  0.00     0.016 A 
ATOM      8  C   UNL A   1      35.749  31.687  30.036  1.00  0.00     0.010 A 
ATOM      9  C   UNL A   1      36.913  33.204  28.555  1.00  0.00     0.010 A 
ATOM     10  C   UNL A   1      36.943  32.143  29.472  1.00  0.00    -0.014 A 
BRANCH  10  11
ATOM     11  C   UNL A   1      38.199  31.591  30.023  1.00  0.00     0.031 A 
ATOM     12  C   UNL A   1      38.554  31.971  31.426  1.00  0.00     0.074 A 
ATOM     13  C   UNL A   1      38.882  30.630  29.369  1.00  0.00     0.049 A 
ATOM     14  N   UNL A   1      39.412  31.409  32.234  1.00  0.00    -0.248 NA
ATOM     15  C   UNL A   1      37.803  33.091  32.020  1.00  0.00     0.031 C 
ATOM     16  C   UNL A   1      38.567  30.118  28.035  1.00  0.00     0.029 A 
ATOM     17  N   UNL A   1      39.963  29.879  29.759  1.00  0.00    -0.354 N 
ATOM     18  C   UNL A   1      39.253  32.063  33.447  1.00  0.00     0.074 A 
ATOM     19  C   UNL A   1      38.280  33.113  33.252  1.00  0.00     0.031 C 
ATOM     20  C   UNL A   1      39.448  29.158  27.705  1.00  0.00     0.029 A 
ATOM     21  C   UNL A   1      40.368  28.959  28.818  1.00  0.00     0.049 A 
ATOM     22  H   UNL A   1      40.408  29.988  30.629  1.00  0.00     0.167 HD
ATOM     23  C   UNL A   1      39.835  31.785  34.633  1.00  0.00     0.031 A 
ATOM     24  C   UNL A   1      41.350  28.040  28.868  1.00  0.00     0.031 A 
ATOM     25  C   UNL A   1      40.844  30.782  34.808  1.00  0.00     0.049 A 
ATOM     26  C   UNL A   1      42.100  27.865  30.162  1.00  0.00     0.074 A 
ATOM     27  C   UNL A   1      41.549  30.459  35.951  1.00  0.00     0.029 A 
ATOM     28  N   UNL A   1      41.304  29.952  33.798  1.00  0.00    -0.354 N 
ATOM     29  N   UNL A   1      41.901  28.455  31.317  1.00  0.00    -0.248 NA
ATOM     30  C   UNL A   1      43.179  26.868  30.173  1.00  0.00     0.031 C 
ATOM     31  C   UNL A   1      42.480  29.472  35.618  1.00  0.00     0.029 A 
ATOM     32  C   UNL A   1      42.310  29.135  34.283  1.00  0.00     0.049 A 
ATOM     33  H   UNL A   1      40.966  29.944  32.874  1.00  0.00     0.167 HD
ATOM     34  C   UNL A   1      42.806  27.878  32.199  1.00  0.00     0.074 A 
ATOM     35  C   UNL A   1      43.534  26.874  31.449  1.00  0.00     0.031 C 
ATOM     36  C   UNL A   1      43.017  28.148  33.510  1.00  0.00     0.031 A 
BRANCH  23  37
ATOM     37  C   UNL A   1      39.401  32.613  35.804  1.00  0.00    -0.014 A 
ATOM     38  C   UNL A   1      38.304  32.227  36.592  1.00  0.00     0.009 A 
ATOM     39  C   UNL A   1      40.075  33.804  36.107  1.00  0.00     0.009 A 
ATOM     40  C   UNL A   1      37.872  33.037  37.643  1.00  0.00     0.001 A 
ATOM     41  C   UNL A   1      39.653  34.599  37.173  1.00  0.00     0.001 A 
ATOM     42  C   UNL A   1      38.550  34.220  37.935  1.00  0.00     0.000 A 
ENDBRANCH  23  37
BRANCH  24  43
ATOM     43  C   UNL A   1      41.689  27.209  27.677  1.00  0.00    -0.014 A 
ATOM     44  C   UNL A   1      42.576  27.669  26.690  1.00  0.00     0.009 A 
ATOM     45  C   UNL A   1      41.056  25.969  27.486  1.00  0.00     0.009 A 
ATOM     46  C   UNL A   1      42.779  26.933  25.518  1.00  0.00     0.001 A 
ATOM     47  C   UNL A   1      41.285  25.222  26.328  1.00  0.00     0.001 A 
ATOM     48  C   UNL A   1      42.132  25.711  25.338  1.00  0.00     0.000 A 
ENDBRANCH  24  43
BRANCH  36  49
ATOM     49  C   UNL A   1      44.061  27.329  34.215  1.00  0.00    -0.014 A 
ATOM     50  C   UNL A   1      45.391  27.766  34.303  1.00  0.00     0.009 A 
ATOM     51  C   UNL A   1      43.694  26.125  34.835  1.00  0.00     0.009 A 
ATOM     52  C   UNL A   1      46.344  26.989  34.964  1.00  0.00     0.001 A 
ATOM     53  C   UNL A   1      44.641  25.369  35.526  1.00  0.00     0.001 A 
ATOM     54  C   UNL A   1      45.966  25.795  35.580  1.00  0.00     0.000 A 
ENDBRANCH  36  49
ENDBRANCH  10  11
ENDBRANCH   3   5
ENDBRANCH   2   3
ENDBRANCH   1   2
BRANCH   1  55
ATOM     55  C   UNL A   1      32.589  30.303  26.774  1.00  0.00     0.274 C 
BRANCH  55  56
ATOM     56  O   UNL A   1      31.736  29.430  26.021  1.00  0.00    -0.461 OA
BRANCH  56  57
ATOM     57  C   UNL A   1      31.434  28.245  26.645  1.00  0.00     0.329 C 
ATOM     58  O   UNL A   1      31.036  28.178  27.798  1.00  0.00    -0.250 OA
BRANCH  57  59
ATOM     59  C   UNL A   1      31.656  27.062  25.693  1.00  0.00     0.206 C 
ATOM     60  C   UNL A   1      30.609  25.950  25.769  1.00  0.00     0.109 C 
ATOM     61  N   UNL A   1      31.870  27.382  24.283  1.00  0.00    -0.309 N 
ATOM     62  S   UNL A   1      30.011  25.628  24.065  1.00  0.00    -0.126 SA
ATOM     63  C   UNL A   1      30.741  27.194  23.392  1.00  0.00     0.116 C 
ATOM     64  C   UNL A   1      33.066  26.927  23.710  1.00  0.00     0.224 C 
ATOM     65  C   UNL A   1      31.431  26.952  22.035  1.00  0.00     0.055 C 
ATOM     66  C   UNL A   1      32.771  26.333  22.366  1.00  0.00     0.104 C 
ATOM     67  O   UNL A   1      34.149  26.824  24.263  1.00  0.00    -0.275 OA
BRANCH  63  68
ATOM     68  C   UNL A   1      29.695  28.326  23.393  1.00  0.00    -0.012 A 
ATOM     69  C   UNL A   1      28.313  28.076  23.230  1.00  0.00     0.007 A 
ATOM     70  C   UNL A   1      30.054  29.681  23.528  1.00  0.00     0.007 A 
ATOM     71  C   UNL A   1      27.359  29.098  23.206  1.00  0.00     0.000 A 
ATOM     72  C   UNL A   1      29.103  30.709  23.492  1.00  0.00     0.000 A 
ATOM     73  C   UNL A   1      27.756  30.418  23.332  1.00  0.00     0.000 A 
ENDBRANCH  63  68
ENDBRANCH  57  59
ENDBRANCH  56  57
ENDBRANCH  55  56
ENDBRANCH   1  55
TORSDOF 12
ENDMDL
