MODEL 1
REMARK VINA RESULT:     -11.0      0.000      0.000
REMARK SMILES O=C(OCCOC(=O)[C@@H]1C=C[C@H](NS(=O)(=O)c2ccc(Cl)cc2)C1)c1ccc(-c2c3nc(c(-c4ccccc4)c4ccc([nH]4)c(-c4ccccc4)c4nc(c(-c5ccccc5)c5ccc2[nH]5)C=C4)C=C3)cc1
REMARK SMILES IDX 5 1 4 2 3 3 2 4 1 5 25 6 26 7 72 8 27 9 71 10 28 11 29 12
REMARK SMILES IDX 30 13 65 14 31 15 70 16 64 17 66 18 32 19 69 20 63 21 62 22
REMARK SMILES IDX 33 24 55 25 40 26 54 27 41 28 44 29 53 30 67 31 42 32 43 33
REMARK SMILES IDX 52 35 68 36 45 37 34 38 35 39 39 40 36 41 38 42 37 43 56 44
REMARK SMILES IDX 57 45 61 46 58 47 60 48 59 49 46 50 47 51 51 52 48 53 50 54
REMARK SMILES IDX 49 55 6 56 7 57 8 58 9 59 10 60 24 61 11 62 12 63 13 64
REMARK SMILES IDX 14 66 15 67 16 68 17 69 18 70 23 71 19 72 22 73 20 74 21 75
REMARK H PARENT 66 23 44 34 13 65
REMARK Flexibility Score: inf
ROOT
ATOM      1  C   UNL A   1      33.392  30.240  26.538  1.00  0.00     0.274 C 
ENDROOT
BRANCH   1   2
ATOM      2  C   UNL A   1      32.234  31.038  27.117  1.00  0.00     0.275 C 
BRANCH   2   3
ATOM      3  O   UNL A   1      32.414  32.462  27.009  1.00  0.00    -0.458 OA
BRANCH   3   4
ATOM      4  C   UNL A   1      32.987  33.350  27.850  1.00  0.00     0.338 C 
ATOM      5  O   UNL A   1      32.373  34.391  28.089  1.00  0.00    -0.246 OA
BRANCH   4   6
ATOM      6  C   UNL A   1      34.349  33.215  28.474  1.00  0.00     0.060 A 
ATOM      7  C   UNL A   1      35.588  33.453  27.866  1.00  0.00     0.016 A 
ATOM      8  C   UNL A   1      34.366  32.733  29.798  1.00  0.00     0.016 A 
ATOM      9  C   UNL A   1      36.802  33.259  28.564  1.00  0.00     0.010 A 
ATOM     10  C   UNL A   1      35.568  32.527  30.492  1.00  0.00     0.010 A 
ATOM     11  C   UNL A   1      36.803  32.779  29.877  1.00  0.00    -0.014 A 
BRANCH  11  12
ATOM     12  C   UNL A   1      38.028  32.254  30.540  1.00  0.00     0.031 A 
ATOM     13  C   UNL A   1      38.550  30.938  30.074  1.00  0.00     0.074 A 
ATOM     14  C   UNL A   1      38.631  32.850  31.586  1.00  0.00     0.049 A 
ATOM     15  N   UNL A   1      39.607  30.299  30.491  1.00  0.00    -0.248 NA
ATOM     16  C   UNL A   1      37.840  30.296  28.957  1.00  0.00     0.031 C 
ATOM     17  C   UNL A   1      38.411  34.215  31.984  1.00  0.00     0.029 A 
ATOM     18  N   UNL A   1      39.544  32.414  32.509  1.00  0.00    -0.354 N 
ATOM     19  C   UNL A   1      39.734  29.219  29.640  1.00  0.00     0.074 A 
ATOM     20  C   UNL A   1      38.613  29.248  28.727  1.00  0.00     0.031 C 
ATOM     21  C   UNL A   1      38.979  34.479  33.166  1.00  0.00     0.029 A 
ATOM     22  C   UNL A   1      39.737  33.302  33.547  1.00  0.00     0.049 A 
ATOM     23  H   UNL A   1      40.015  31.553  32.438  1.00  0.00     0.167 HD
ATOM     24  C   UNL A   1      40.725  28.304  29.613  1.00  0.00     0.031 A 
ATOM     25  C   UNL A   1      40.504  33.222  34.648  1.00  0.00     0.031 A 
ATOM     26  C   UNL A   1      41.779  28.241  30.583  1.00  0.00     0.049 A 
ATOM     27  C   UNL A   1      41.474  32.087  34.707  1.00  0.00     0.074 A 
ATOM     28  C   UNL A   1      42.815  27.333  30.673  1.00  0.00     0.029 A 
ATOM     29  N   UNL A   1      41.902  29.105  31.665  1.00  0.00    -0.354 N 
ATOM     30  N   UNL A   1      41.654  31.132  33.829  1.00  0.00    -0.248 NA
ATOM     31  C   UNL A   1      42.400  32.061  35.843  1.00  0.00     0.031 C 
ATOM     32  C   UNL A   1      43.524  27.604  31.850  1.00  0.00     0.029 A 
ATOM     33  C   UNL A   1      42.954  28.707  32.470  1.00  0.00     0.049 A 
ATOM     34  H   UNL A   1      41.325  29.885  31.832  1.00  0.00     0.167 HD
ATOM     35  C   UNL A   1      42.748  30.415  34.273  1.00  0.00     0.074 A 
ATOM     36  C   UNL A   1      43.189  31.049  35.504  1.00  0.00     0.031 C 
ATOM     37  C   UNL A   1      43.343  29.339  33.705  1.00  0.00     0.031 A 
BRANCH  24  38
ATOM     38  C   UNL A   1      40.636  27.290  28.519  1.00  0.00    -0.014 A 
ATOM     39  C   UNL A   1      41.185  27.553  27.252  1.00  0.00     0.009 A 
ATOM     40  C   UNL A   1      39.914  26.108  28.725  1.00  0.00     0.009 A 
ATOM     41  C   UNL A   1      40.980  26.658  26.200  1.00  0.00     0.001 A 
ATOM     42  C   UNL A   1      39.723  25.211  27.674  1.00  0.00     0.001 A 
ATOM     43  C   UNL A   1      40.247  25.492  26.412  1.00  0.00     0.000 A 
ENDBRANCH  24  38
BRANCH  25  44
ATOM     44  C   UNL A   1      40.464  34.289  35.684  1.00  0.00    -0.014 A 
ATOM     45  C   UNL A   1      39.521  34.255  36.721  1.00  0.00     0.009 A 
ATOM     46  C   UNL A   1      41.390  35.345  35.648  1.00  0.00     0.009 A 
ATOM     47  C   UNL A   1      39.487  35.270  37.684  1.00  0.00     0.001 A 
ATOM     48  C   UNL A   1      41.364  36.350  36.621  1.00  0.00     0.001 A 
ATOM     49  C   UNL A   1      40.408  36.315  37.633  1.00  0.00     0.000 A 
ENDBRANCH  25  44
BRANCH  37  50
ATOM     50  C   UNL A   1      44.506  28.762  34.448  1.00  0.00    -0.014 A 
ATOM     51  C   UNL A   1      45.807  29.225  34.197  1.00  0.00     0.009 A 
ATOM     52  C   UNL A   1      44.299  27.776  35.423  1.00  0.00     0.009 A 
ATOM     53  C   UNL A   1      46.888  28.690  34.894  1.00  0.00     0.001 A 
ATOM     54  C   UNL A   1      45.381  27.262  36.137  1.00  0.00     0.001 A 
ATOM     55  C   UNL A   1      46.673  27.714  35.867  1.00  0.00     0.000 A 
ENDBRANCH  37  50
ENDBRANCH  11  12
ENDBRANCH   4   6
ENDBRANCH   3   4
ENDBRANCH   2   3
ENDBRANCH   1   2
BRANCH   1  56
ATOM     56  O   UNL A   1      32.919  29.034  25.930  1.00  0.00    -0.462 OA
BRANCH  56  57
ATOM     57  C   UNL A   1      32.600  29.094  24.608  1.00  0.00     0.312 C 
ATOM     58  O   UNL A   1      33.394  29.340  23.709  1.00  0.00    -0.252 OA
BRANCH  57  59
ATOM     59  C   UNL A   1      31.138  28.731  24.370  1.00  0.00     0.123 C 
ATOM     60  C   UNL A   1      30.817  27.344  24.846  1.00  0.00    -0.015 C 
ATOM     61  C   UNL A   1      30.716  28.673  22.900  1.00  0.00     0.043 C 
ATOM     62  C   UNL A   1      30.501  26.518  23.843  1.00  0.00    -0.011 C 
ATOM     63  C   UNL A   1      30.523  27.212  22.547  1.00  0.00     0.093 C 
BRANCH  63  64
ATOM     64  N   UNL A   1      31.443  26.679  21.540  1.00  0.00    -0.204 NA
ATOM     65  H   UNL A   1      31.479  27.438  20.859  1.00  0.00     0.142 HD
BRANCH  64  66
ATOM     66  S   UNL A   1      33.002  26.097  21.501  1.00  0.00     0.241 S 
ATOM     67  O   UNL A   1      33.118  25.281  20.322  1.00  0.00    -0.207 OA
ATOM     68  O   UNL A   1      33.808  27.304  21.628  1.00  0.00    -0.207 OA
BRANCH  66  69
ATOM     69  C   UNL A   1      33.334  25.100  22.891  1.00  0.00     0.082 A 
ATOM     70  C   UNL A   1      33.974  25.628  24.003  1.00  0.00     0.023 A 
ATOM     71  C   UNL A   1      32.969  23.753  22.843  1.00  0.00     0.023 A 
ATOM     72  C   UNL A   1      34.423  24.763  24.997  1.00  0.00     0.022 A 
ATOM     73  C   UNL A   1      33.384  22.894  23.855  1.00  0.00     0.022 A 
ATOM     74  C   UNL A   1      34.148  23.397  24.906  1.00  0.00     0.041 A 
ATOM     75  Cl  UNL A   1      34.766  22.322  26.095  1.00  0.00    -0.084 Cl
ENDBRANCH  66  69
ENDBRANCH  64  66
ENDBRANCH  63  64
ENDBRANCH  57  59
ENDBRANCH  56  57
ENDBRANCH   1  56
TORSDOF 14
ENDMDL
MODEL 2
REMARK VINA RESULT:     -11.0      4.502      9.688
REMARK SMILES O=C(OCCOC(=O)[C@@H]1C=C[C@H](NS(=O)(=O)c2ccc(Cl)cc2)C1)c1ccc(-c2c3nc(c(-c4ccccc4)c4ccc([nH]4)c(-c4ccccc4)c4nc(c(-c5ccccc5)c5ccc2[nH]5)C=C4)C=C3)cc1
REMARK SMILES IDX 5 1 4 2 3 3 2 4 1 5 25 6 26 7 72 8 27 9 71 10 28 11 29 12
REMARK SMILES IDX 30 13 65 14 31 15 70 16 64 17 66 18 32 19 69 20 63 21 62 22
REMARK SMILES IDX 33 24 55 25 40 26 54 27 41 28 44 29 53 30 67 31 42 32 43 33
REMARK SMILES IDX 52 35 68 36 45 37 34 38 35 39 39 40 36 41 38 42 37 43 56 44
REMARK SMILES IDX 57 45 61 46 58 47 60 48 59 49 46 50 47 51 51 52 48 53 50 54
REMARK SMILES IDX 49 55 6 56 7 57 8 58 9 59 10 60 24 61 11 62 12 63 13 64
REMARK SMILES IDX 14 66 15 67 16 68 17 69 18 70 23 71 19 72 22 73 20 74 21 75
REMARK H PARENT 66 23 44 34 13 65
REMARK Flexibility Score: inf
ROOT
ATOM      1  C   UNL A   1      33.247  34.016  28.198  1.00  0.00     0.274 C 
ENDROOT
BRANCH   1   2
ATOM      2  C   UNL A   1      34.342  32.976  28.010  1.00  0.00     0.275 C 
BRANCH   2   3
ATOM      3  O   UNL A   1      33.838  31.677  27.654  1.00  0.00    -0.458 OA
BRANCH   3   4
ATOM      4  C   UNL A   1      34.443  30.469  27.625  1.00  0.00     0.338 C 
ATOM      5  O   UNL A   1      33.789  29.512  27.206  1.00  0.00    -0.246 OA
BRANCH   4   6
ATOM      6  C   UNL A   1      35.828  30.168  28.126  1.00  0.00     0.060 A 
ATOM      7  C   UNL A   1      37.024  30.229  27.400  1.00  0.00     0.016 A 
ATOM      8  C   UNL A   1      35.908  29.713  29.457  1.00  0.00     0.016 A 
ATOM      9  C   UNL A   1      38.263  29.889  27.990  1.00  0.00     0.010 A 
ATOM     10  C   UNL A   1      37.133  29.363  30.044  1.00  0.00     0.010 A 
ATOM     11  C   UNL A   1      38.327  29.438  29.312  1.00  0.00    -0.014 A 
BRANCH  11  12
ATOM     12  C   UNL A   1      39.531  28.769  29.877  1.00  0.00     0.031 A 
ATOM     13  C   UNL A   1      40.243  29.464  30.986  1.00  0.00     0.074 A 
ATOM     14  C   UNL A   1      40.058  27.631  29.388  1.00  0.00     0.049 A 
ATOM     15  N   UNL A   1      41.297  29.062  31.641  1.00  0.00    -0.248 NA
ATOM     16  C   UNL A   1      39.661  30.727  31.466  1.00  0.00     0.031 C 
ATOM     17  C   UNL A   1      39.367  26.725  28.508  1.00  0.00     0.029 A 
ATOM     18  N   UNL A   1      41.276  27.026  29.543  1.00  0.00    -0.354 N 
ATOM     19  C   UNL A   1      41.462  29.982  32.657  1.00  0.00     0.074 A 
ATOM     20  C   UNL A   1      40.445  30.998  32.496  1.00  0.00     0.031 C 
ATOM     21  C   UNL A   1      40.191  25.790  28.021  1.00  0.00     0.029 A 
ATOM     22  C   UNL A   1      41.471  25.963  28.684  1.00  0.00     0.049 A 
ATOM     23  H   UNL A   1      41.946  27.319  30.202  1.00  0.00     0.167 HD
ATOM     24  C   UNL A   1      42.370  29.954  33.654  1.00  0.00     0.031 A 
ATOM     25  C   UNL A   1      42.530  25.156  28.502  1.00  0.00     0.031 A 
ATOM     26  C   UNL A   1      43.425  28.987  33.744  1.00  0.00     0.049 A 
ATOM     27  C   UNL A   1      43.633  25.263  29.503  1.00  0.00     0.074 A 
ATOM     28  C   UNL A   1      44.424  28.886  34.692  1.00  0.00     0.029 A 
ATOM     29  N   UNL A   1      43.642  27.974  32.818  1.00  0.00    -0.354 N 
ATOM     30  N   UNL A   1      43.716  26.071  30.531  1.00  0.00    -0.248 NA
ATOM     31  C   UNL A   1      44.734  24.303  29.387  1.00  0.00     0.031 C 
ATOM     32  C   UNL A   1      45.288  27.855  34.300  1.00  0.00     0.029 A 
ATOM     33  C   UNL A   1      44.802  27.287  33.131  1.00  0.00     0.049 A 
ATOM     34  H   UNL A   1      43.056  27.774  32.052  1.00  0.00     0.167 HD
ATOM     35  C   UNL A   1      44.851  25.690  31.219  1.00  0.00     0.074 A 
ATOM     36  C   UNL A   1      45.426  24.574  30.487  1.00  0.00     0.031 C 
ATOM     37  C   UNL A   1      45.363  26.206  32.362  1.00  0.00     0.031 A 
BRANCH  24  38
ATOM     38  C   UNL A   1      42.254  31.049  34.663  1.00  0.00    -0.014 A 
ATOM     39  C   UNL A   1      43.032  32.214  34.551  1.00  0.00     0.009 A 
ATOM     40  C   UNL A   1      41.435  30.874  35.786  1.00  0.00     0.009 A 
ATOM     41  C   UNL A   1      43.016  33.170  35.569  1.00  0.00     0.001 A 
ATOM     42  C   UNL A   1      41.412  31.837  36.794  1.00  0.00     0.001 A 
ATOM     43  C   UNL A   1      42.208  32.978  36.689  1.00  0.00     0.000 A 
ENDBRANCH  24  38
BRANCH  25  44
ATOM     44  C   UNL A   1      42.528  24.128  27.427  1.00  0.00    -0.014 A 
ATOM     45  C   UNL A   1      41.999  22.848  27.649  1.00  0.00     0.009 A 
ATOM     46  C   UNL A   1      43.044  24.433  26.155  1.00  0.00     0.009 A 
ATOM     47  C   UNL A   1      42.013  21.888  26.632  1.00  0.00     0.001 A 
ATOM     48  C   UNL A   1      43.042  23.475  25.136  1.00  0.00     0.001 A 
ATOM     49  C   UNL A   1      42.533  22.201  25.378  1.00  0.00     0.000 A 
ENDBRANCH  25  44
BRANCH  37  50
ATOM     50  C   UNL A   1      46.634  25.587  32.851  1.00  0.00    -0.014 A 
ATOM     51  C   UNL A   1      47.868  25.986  32.314  1.00  0.00     0.009 A 
ATOM     52  C   UNL A   1      46.601  24.626  33.871  1.00  0.00     0.009 A 
ATOM     53  C   UNL A   1      49.051  25.411  32.776  1.00  0.00     0.001 A 
ATOM     54  C   UNL A   1      47.788  24.073  34.347  1.00  0.00     0.001 A 
ATOM     55  C   UNL A   1      49.010  24.460  33.795  1.00  0.00     0.000 A 
ENDBRANCH  37  50
ENDBRANCH  11  12
ENDBRANCH   4   6
ENDBRANCH   3   4
ENDBRANCH   2   3
ENDBRANCH   1   2
BRANCH   1  56
ATOM     56  O   UNL A   1      33.215  34.475  29.553  1.00  0.00    -0.462 OA
BRANCH  56  57
ATOM     57  C   UNL A   1      32.941  35.794  29.750  1.00  0.00     0.312 C 
ATOM     58  O   UNL A   1      32.905  36.639  28.864  1.00  0.00    -0.252 OA
BRANCH  57  59
ATOM     59  C   UNL A   1      32.595  36.081  31.207  1.00  0.00     0.123 C 
ATOM     60  C   UNL A   1      33.059  37.443  31.638  1.00  0.00    -0.015 C 
ATOM     61  C   UNL A   1      33.281  35.170  32.228  1.00  0.00     0.043 C 
ATOM     62  C   UNL A   1      34.022  37.387  32.565  1.00  0.00    -0.011 C 
ATOM     63  C   UNL A   1      34.338  35.998  32.930  1.00  0.00     0.093 C 
BRANCH  63  64
ATOM     64  N   UNL A   1      35.721  35.568  32.717  1.00  0.00    -0.204 NA
ATOM     65  H   UNL A   1      36.243  36.225  33.297  1.00  0.00     0.142 HD
BRANCH  64  66
ATOM     66  S   UNL A   1      36.602  34.167  32.893  1.00  0.00     0.241 S 
ATOM     67  O   UNL A   1      36.520  33.789  34.278  1.00  0.00    -0.207 OA
ATOM     68  O   UNL A   1      36.041  33.294  31.870  1.00  0.00    -0.207 OA
BRANCH  66  69
ATOM     69  C   UNL A   1      38.279  34.426  32.496  1.00  0.00     0.082 A 
ATOM     70  C   UNL A   1      38.692  34.475  31.172  1.00  0.00     0.023 A 
ATOM     71  C   UNL A   1      39.196  34.551  33.541  1.00  0.00     0.023 A 
ATOM     72  C   UNL A   1      40.055  34.459  30.889  1.00  0.00     0.022 A 
ATOM     73  C   UNL A   1      40.558  34.572  33.258  1.00  0.00     0.022 A 
ATOM     74  C   UNL A   1      40.981  34.482  31.934  1.00  0.00     0.041 A 
ATOM     75  Cl  UNL A   1      42.661  34.387  31.585  1.00  0.00    -0.084 Cl
ENDBRANCH  66  69
ENDBRANCH  64  66
ENDBRANCH  63  64
ENDBRANCH  57  59
ENDBRANCH  56  57
ENDBRANCH   1  56
TORSDOF 14
ENDMDL
MODEL 3
REMARK VINA RESULT:     -10.9      4.529      9.402
REMARK SMILES O=C(OCCOC(=O)[C@@H]1C=C[C@H](NS(=O)(=O)c2ccc(Cl)cc2)C1)c1ccc(-c2c3nc(c(-c4ccccc4)c4ccc([nH]4)c(-c4ccccc4)c4nc(c(-c5ccccc5)c5ccc2[nH]5)C=C4)C=C3)cc1
REMARK SMILES IDX 5 1 4 2 3 3 2 4 1 5 25 6 26 7 72 8 27 9 71 10 28 11 29 12
REMARK SMILES IDX 30 13 65 14 31 15 70 16 64 17 66 18 32 19 69 20 63 21 62 22
REMARK SMILES IDX 33 24 55 25 40 26 54 27 41 28 44 29 53 30 67 31 42 32 43 33
REMARK SMILES IDX 52 35 68 36 45 37 34 38 35 39 39 40 36 41 38 42 37 43 56 44
REMARK SMILES IDX 57 45 61 46 58 47 60 48 59 49 46 50 47 51 51 52 48 53 50 54
REMARK SMILES IDX 49 55 6 56 7 57 8 58 9 59 10 60 24 61 11 62 12 63 13 64
REMARK SMILES IDX 14 66 15 67 16 68 17 69 18 70 23 71 19 72 22 73 20 74 21 75
REMARK H PARENT 66 23 44 34 13 65
REMARK Flexibility Score: inf
ROOT
ATOM      1  C   UNL A   1      33.554  34.502  28.511  1.00  0.00     0.274 C 
ENDROOT
BRANCH   1   2
ATOM      2  C   UNL A   1      34.337  33.200  28.612  1.00  0.00     0.275 C 
BRANCH   2   3
ATOM      3  O   UNL A   1      33.853  32.176  27.725  1.00  0.00    -0.458 OA
BRANCH   3   4
ATOM      4  C   UNL A   1      34.152  30.861  27.643  1.00  0.00     0.338 C 
ATOM      5  O   UNL A   1      33.304  30.110  27.159  1.00  0.00    -0.246 OA
BRANCH   4   6
ATOM      6  C   UNL A   1      35.409  30.212  28.154  1.00  0.00     0.060 A 
ATOM      7  C   UNL A   1      35.694  29.840  29.474  1.00  0.00     0.016 A 
ATOM      8  C   UNL A   1      36.428  30.023  27.199  1.00  0.00     0.016 A 
ATOM      9  C   UNL A   1      36.935  29.261  29.825  1.00  0.00     0.010 A 
ATOM     10  C   UNL A   1      37.665  29.459  27.544  1.00  0.00     0.010 A 
ATOM     11  C   UNL A   1      37.937  29.081  28.867  1.00  0.00    -0.014 A 
BRANCH  11  12
ATOM     12  C   UNL A   1      39.351  28.786  29.227  1.00  0.00     0.031 A 
ATOM     13  C   UNL A   1      40.155  29.895  29.813  1.00  0.00     0.074 A 
ATOM     14  C   UNL A   1      39.963  27.614  28.972  1.00  0.00     0.049 A 
ATOM     15  N   UNL A   1      41.394  29.863  30.218  1.00  0.00    -0.248 NA
ATOM     16  C   UNL A   1      39.464  31.174  30.039  1.00  0.00     0.031 C 
ATOM     17  C   UNL A   1      39.278  26.389  28.651  1.00  0.00     0.029 A 
ATOM     18  N   UNL A   1      41.279  27.237  28.937  1.00  0.00    -0.354 N 
ATOM     19  C   UNL A   1      41.610  31.089  30.813  1.00  0.00     0.074 A 
ATOM     20  C   UNL A   1      40.402  31.869  30.660  1.00  0.00     0.031 C 
ATOM     21  C   UNL A   1      40.132  25.441  28.248  1.00  0.00     0.029 A 
ATOM     22  C   UNL A   1      41.471  25.972  28.421  1.00  0.00     0.049 A 
ATOM     23  H   UNL A   1      42.015  27.812  29.249  1.00  0.00     0.167 HD
ATOM     24  C   UNL A   1      42.719  31.508  31.458  1.00  0.00     0.031 A 
ATOM     25  C   UNL A   1      42.595  25.273  28.187  1.00  0.00     0.031 A 
ATOM     26  C   UNL A   1      43.937  30.755  31.521  1.00  0.00     0.049 A 
ATOM     27  C   UNL A   1      43.863  25.841  28.739  1.00  0.00     0.074 A 
ATOM     28  C   UNL A   1      45.135  31.098  32.117  1.00  0.00     0.029 A 
ATOM     29  N   UNL A   1      44.123  29.514  30.923  1.00  0.00    -0.354 N 
ATOM     30  N   UNL A   1      44.026  26.959  29.402  1.00  0.00    -0.248 NA
ATOM     31  C   UNL A   1      45.074  25.027  28.598  1.00  0.00     0.031 C 
ATOM     32  C   UNL A   1      46.068  30.097  31.818  1.00  0.00     0.029 A 
ATOM     33  C   UNL A   1      45.439  29.110  31.073  1.00  0.00     0.049 A 
ATOM     34  H   UNL A   1      43.423  28.998  30.462  1.00  0.00     0.167 HD
ATOM     35  C   UNL A   1      45.346  26.966  29.807  1.00  0.00     0.074 A 
ATOM     36  C   UNL A   1      45.940  25.736  29.310  1.00  0.00     0.031 C 
ATOM     37  C   UNL A   1      46.004  27.899  30.536  1.00  0.00     0.031 A 
BRANCH  24  38
ATOM     38  C   UNL A   1      42.631  32.865  32.077  1.00  0.00    -0.014 A 
ATOM     39  C   UNL A   1      42.977  34.012  31.343  1.00  0.00     0.009 A 
ATOM     40  C   UNL A   1      42.295  32.989  33.431  1.00  0.00     0.009 A 
ATOM     41  C   UNL A   1      43.021  35.259  31.970  1.00  0.00     0.001 A 
ATOM     42  C   UNL A   1      42.328  34.239  34.049  1.00  0.00     0.001 A 
ATOM     43  C   UNL A   1      42.700  35.370  33.322  1.00  0.00     0.000 A 
ENDBRANCH  24  38
BRANCH  25  44
ATOM     44  C   UNL A   1      42.542  23.944  27.523  1.00  0.00    -0.014 A 
ATOM     45  C   UNL A   1      42.312  22.774  28.262  1.00  0.00     0.009 A 
ATOM     46  C   UNL A   1      42.703  23.841  26.131  1.00  0.00     0.009 A 
ATOM     47  C   UNL A   1      42.274  21.528  27.626  1.00  0.00     0.001 A 
ATOM     48  C   UNL A   1      42.649  22.596  25.496  1.00  0.00     0.001 A 
ATOM     49  C   UNL A   1      42.442  21.440  26.245  1.00  0.00     0.000 A 
ENDBRANCH  25  44
BRANCH  37  50
ATOM     50  C   UNL A   1      47.454  27.631  30.792  1.00  0.00    -0.014 A 
ATOM     51  C   UNL A   1      48.430  28.120  29.911  1.00  0.00     0.009 A 
ATOM     52  C   UNL A   1      47.846  26.916  31.932  1.00  0.00     0.009 A 
ATOM     53  C   UNL A   1      49.780  27.873  30.155  1.00  0.00     0.001 A 
ATOM     54  C   UNL A   1      49.198  26.693  32.186  1.00  0.00     0.001 A 
ATOM     55  C   UNL A   1      50.162  27.166  31.294  1.00  0.00     0.000 A 
ENDBRANCH  37  50
ENDBRANCH  11  12
ENDBRANCH   4   6
ENDBRANCH   3   4
ENDBRANCH   2   3
ENDBRANCH   1   2
BRANCH   1  56
ATOM     56  O   UNL A   1      33.066  34.898  29.797  1.00  0.00    -0.462 OA
BRANCH  56  57
ATOM     57  C   UNL A   1      32.963  36.234  30.031  1.00  0.00     0.312 C 
ATOM     58  O   UNL A   1      33.123  37.105  29.185  1.00  0.00    -0.252 OA
BRANCH  57  59
ATOM     59  C   UNL A   1      32.535  36.518  31.467  1.00  0.00     0.123 C 
ATOM     60  C   UNL A   1      33.383  37.578  32.108  1.00  0.00    -0.015 C 
ATOM     61  C   UNL A   1      32.699  35.345  32.436  1.00  0.00     0.043 C 
ATOM     62  C   UNL A   1      34.119  37.104  33.119  1.00  0.00    -0.011 C 
ATOM     63  C   UNL A   1      33.868  35.673  33.344  1.00  0.00     0.093 C 
BRANCH  63  64
ATOM     64  N   UNL A   1      35.025  34.783  33.229  1.00  0.00    -0.204 NA
ATOM     65  H   UNL A   1      35.069  34.366  34.159  1.00  0.00     0.142 HD
BRANCH  64  66
ATOM     66  S   UNL A   1      35.498  33.520  32.254  1.00  0.00     0.241 S 
ATOM     67  O   UNL A   1      34.346  32.682  32.061  1.00  0.00    -0.207 OA
ATOM     68  O   UNL A   1      36.103  34.194  31.113  1.00  0.00    -0.207 OA
BRANCH  66  69
ATOM     69  C   UNL A   1      36.743  32.570  33.019  1.00  0.00     0.082 A 
ATOM     70  C   UNL A   1      37.763  33.184  33.732  1.00  0.00     0.023 A 
ATOM     71  C   UNL A   1      36.704  31.182  32.870  1.00  0.00     0.023 A 
ATOM     72  C   UNL A   1      38.855  32.423  34.139  1.00  0.00     0.022 A 
ATOM     73  C   UNL A   1      37.778  30.416  33.309  1.00  0.00     0.022 A 
ATOM     74  C   UNL A   1      38.869  31.046  33.902  1.00  0.00     0.041 A 
ATOM     75  Cl  UNL A   1      40.249  30.121  34.338  1.00  0.00    -0.084 Cl
ENDBRANCH  66  69
ENDBRANCH  64  66
ENDBRANCH  63  64
ENDBRANCH  57  59
ENDBRANCH  56  57
ENDBRANCH   1  56
TORSDOF 14
ENDMDL
