MODEL 1
REMARK VINA RESULT:     -10.9      0.000      0.000
REMARK SMILES CCc1c(C)nn(CC(=O)N[C@H](C(=O)OCCOC(=O)c2ccc(-c3c4nc(c(-c5ccccc5)c5ccc([nH]5)c(-c5ccccc5)c5nc(c(-c6ccccc6)c6ccc3[nH]6)C=C5)C=C4)cc2)c2c(C)n[nH]c2C)c1C
REMARK SMILES IDX 16 1 15 2 13 3 14 4 12 5 11 6 9 7 10 8 8 10 7 11 3 12 4 13
REMARK SMILES IDX 76 14 5 15 6 16 77 17 2 18 1 19 69 20 70 21 74 22 71 23
REMARK SMILES IDX 72 24 73 25 75 26 17 28 18 29 19 30 20 31 21 32 22 33 68 34
REMARK SMILES IDX 23 35 67 36 24 37 25 38 26 39 61 40 27 41 66 42 60 43 62 44
REMARK SMILES IDX 28 45 65 46 59 47 58 48 29 50 51 51 36 52 50 53 37 54 40 55
REMARK SMILES IDX 49 56 63 57 38 58 39 59 48 61 64 62 41 63 30 64 31 65 35 66
REMARK SMILES IDX 32 67 34 68 33 69 52 70 53 71 57 72 54 73 56 74 55 75 42 76
REMARK SMILES IDX 43 77 47 78 44 79 46 80 45 81
REMARK H PARENT 11 9 73 27 62 49 40 60
REMARK Flexibility Score: inf
ROOT
ATOM      1  C   UNL A   1      35.676  20.887  25.257  1.00  0.00     0.274 C 
ENDROOT
BRANCH   1   2
ATOM      2  O   UNL A   1      35.668  22.322  25.139  1.00  0.00    -0.460 OA
BRANCH   2   3
ATOM      3  C   UNL A   1      34.771  23.009  25.899  1.00  0.00     0.333 C 
ATOM      4  O   UNL A   1      34.632  22.837  27.110  1.00  0.00    -0.249 OA
BRANCH   3   5
ATOM      5  C   UNL A   1      33.990  24.090  25.119  1.00  0.00     0.227 C 
BRANCH   5   6
ATOM      6  N   UNL A   1      33.648  23.593  23.787  1.00  0.00    -0.337 N 
ATOM      7  C   UNL A   1      33.540  24.169  22.566  1.00  0.00     0.242 C 
ATOM      8  O   UNL A   1      33.364  23.376  21.626  1.00  0.00    -0.273 OA
ATOM      9  H   UNL A   1      33.453  22.628  23.776  1.00  0.00     0.164 HD
BRANCH   7  10
ATOM     10  C   UNL A   1      33.557  25.648  22.233  1.00  0.00     0.244 C 
BRANCH  10  11
ATOM     11  N   UNL A   1      32.433  26.459  22.644  1.00  0.00    -0.260 N 
ATOM     12  C   UNL A   1      31.162  28.072  23.423  1.00  0.00    -0.004 A 
ATOM     13  C   UNL A   1      30.485  26.819  23.394  1.00  0.00     0.063 A 
ATOM     14  C   UNL A   1      32.393  27.819  22.831  1.00  0.00     0.039 A 
ATOM     15  C   UNL A   1      29.128  26.467  23.885  1.00  0.00     0.069 C 
ATOM     16  N   UNL A   1      31.256  25.858  22.877  1.00  0.00    -0.177 NA
ATOM     17  C   UNL A   1      33.541  28.711  22.525  1.00  0.00     0.066 C 
BRANCH  12  18
ATOM     18  C   UNL A   1      30.684  29.357  24.014  1.00  0.00     0.036 C 
ATOM     19  C   UNL A   1      31.419  29.745  25.283  1.00  0.00     0.009 C 
ENDBRANCH  12  18
ENDBRANCH  10  11
ENDBRANCH   7  10
ENDBRANCH   5   6
BRANCH   5  20
ATOM     20  C   UNL A   1      32.801  24.661  25.828  1.00  0.00     0.029 A 
ATOM     21  C   UNL A   1      32.680  26.020  26.259  1.00  0.00     0.065 A 
ATOM     22  C   UNL A   1      31.566  24.104  26.134  1.00  0.00     0.038 A 
ATOM     23  C   UNL A   1      33.670  27.122  26.129  1.00  0.00     0.069 C 
ATOM     24  N   UNL A   1      31.498  26.263  26.832  1.00  0.00    -0.180 NA
ATOM     25  N   UNL A   1      30.840  25.103  26.718  1.00  0.00    -0.282 N 
ATOM     26  C   UNL A   1      30.965  22.769  25.893  1.00  0.00     0.066 C 
ATOM     27  H   UNL A   1      29.914  24.981  27.028  1.00  0.00     0.190 HD
ENDBRANCH   5  20
ENDBRANCH   3   5
ENDBRANCH   2   3
ENDBRANCH   1   2
BRANCH   1  28
ATOM     28  C   UNL A   1      37.079  20.317  25.027  1.00  0.00     0.275 C 
BRANCH  28  29
ATOM     29  O   UNL A   1      38.091  21.336  25.114  1.00  0.00    -0.458 OA
BRANCH  29  30
ATOM     30  C   UNL A   1      39.094  21.084  25.984  1.00  0.00     0.338 C 
ATOM     31  O   UNL A   1      39.625  20.010  26.221  1.00  0.00    -0.246 OA
BRANCH  30  32
ATOM     32  C   UNL A   1      39.601  22.347  26.536  1.00  0.00     0.060 A 
ATOM     33  C   UNL A   1      38.958  23.525  26.146  1.00  0.00     0.016 A 
ATOM     34  C   UNL A   1      40.741  22.390  27.336  1.00  0.00     0.016 A 
ATOM     35  C   UNL A   1      39.481  24.758  26.496  1.00  0.00     0.010 A 
ATOM     36  C   UNL A   1      41.253  23.633  27.715  1.00  0.00     0.010 A 
ATOM     37  C   UNL A   1      40.640  24.819  27.272  1.00  0.00    -0.014 A 
BRANCH  37  38
ATOM     38  C   UNL A   1      41.243  26.136  27.554  1.00  0.00     0.031 A 
ATOM     39  C   UNL A   1      42.557  26.491  26.926  1.00  0.00     0.074 A 
ATOM     40  C   UNL A   1      40.592  27.012  28.338  1.00  0.00     0.049 A 
ATOM     41  N   UNL A   1      43.310  27.540  27.127  1.00  0.00    -0.248 NA
ATOM     42  C   UNL A   1      43.097  25.536  25.942  1.00  0.00     0.031 C 
ATOM     43  C   UNL A   1      39.274  26.797  28.940  1.00  0.00     0.029 A 
ATOM     44  N   UNL A   1      40.955  28.263  28.764  1.00  0.00    -0.354 N 
ATOM     45  C   UNL A   1      44.429  27.354  26.325  1.00  0.00     0.074 A 
ATOM     46  C   UNL A   1      44.261  26.092  25.639  1.00  0.00     0.031 C 
ATOM     47  C   UNL A   1      38.938  27.883  29.654  1.00  0.00     0.029 A 
ATOM     48  C   UNL A   1      40.039  28.840  29.607  1.00  0.00     0.049 A 
ATOM     49  H   UNL A   1      41.791  28.705  28.491  1.00  0.00     0.167 HD
ATOM     50  C   UNL A   1      45.501  28.167  26.183  1.00  0.00     0.031 A 
ATOM     51  C   UNL A   1      40.101  29.995  30.292  1.00  0.00     0.031 A 
ATOM     52  C   UNL A   1      45.646  29.430  26.855  1.00  0.00     0.049 A 
ATOM     53  C   UNL A   1      41.330  30.850  30.160  1.00  0.00     0.074 A 
ATOM     54  C   UNL A   1      46.688  30.336  26.776  1.00  0.00     0.029 A 
ATOM     55  N   UNL A   1      44.709  29.967  27.726  1.00  0.00    -0.354 N 
ATOM     56  N   UNL A   1      42.395  30.655  29.421  1.00  0.00    -0.248 NA
ATOM     57  C   UNL A   1      41.366  32.080  30.961  1.00  0.00     0.031 C 
ATOM     58  C   UNL A   1      46.401  31.404  27.633  1.00  0.00     0.029 A 
ATOM     59  C   UNL A   1      45.159  31.184  28.206  1.00  0.00     0.049 A 
ATOM     60  H   UNL A   1      43.853  29.545  27.967  1.00  0.00     0.167 HD
ATOM     61  C   UNL A   1      43.217  31.751  29.646  1.00  0.00     0.074 A 
ATOM     62  C   UNL A   1      42.520  32.611  30.581  1.00  0.00     0.031 C 
ATOM     63  C   UNL A   1      44.439  32.023  29.128  1.00  0.00     0.031 A 
BRANCH  50  64
ATOM     64  C   UNL A   1      46.619  27.695  25.299  1.00  0.00    -0.014 A 
ATOM     65  C   UNL A   1      46.708  28.082  23.954  1.00  0.00     0.009 A 
ATOM     66  C   UNL A   1      47.621  26.871  25.838  1.00  0.00     0.009 A 
ATOM     67  C   UNL A   1      47.766  27.635  23.159  1.00  0.00     0.001 A 
ATOM     68  C   UNL A   1      48.689  26.445  25.047  1.00  0.00     0.001 A 
ATOM     69  C   UNL A   1      48.758  26.821  23.707  1.00  0.00     0.000 A 
ENDBRANCH  50  64
BRANCH  51  70
ATOM     70  C   UNL A   1      38.988  30.392  31.192  1.00  0.00    -0.014 A 
ATOM     71  C   UNL A   1      37.903  31.133  30.703  1.00  0.00     0.009 A 
ATOM     72  C   UNL A   1      39.015  30.044  32.552  1.00  0.00     0.009 A 
ATOM     73  C   UNL A   1      36.881  31.542  31.563  1.00  0.00     0.001 A 
ATOM     74  C   UNL A   1      37.980  30.430  33.404  1.00  0.00     0.001 A 
ATOM     75  C   UNL A   1      36.919  31.187  32.912  1.00  0.00     0.000 A 
ENDBRANCH  51  70
BRANCH  63  76
ATOM     76  C   UNL A   1      45.071  33.323  29.527  1.00  0.00    -0.014 A 
ATOM     77  C   UNL A   1      45.927  33.407  30.636  1.00  0.00     0.009 A 
ATOM     78  C   UNL A   1      44.833  34.473  28.759  1.00  0.00     0.009 A 
ATOM     79  C   UNL A   1      46.507  34.628  30.986  1.00  0.00     0.001 A 
ATOM     80  C   UNL A   1      45.435  35.686  29.096  1.00  0.00     0.001 A 
ATOM     81  C   UNL A   1      46.264  35.763  30.213  1.00  0.00     0.000 A 
ENDBRANCH  63  76
ENDBRANCH  37  38
ENDBRANCH  30  32
ENDBRANCH  29  30
ENDBRANCH  28  29
ENDBRANCH   1  28
TORSDOF 16
ENDMDL
MODEL 2
REMARK VINA RESULT:     -10.7      0.450      5.902
REMARK SMILES CCc1c(C)nn(CC(=O)N[C@H](C(=O)OCCOC(=O)c2ccc(-c3c4nc(c(-c5ccccc5)c5ccc([nH]5)c(-c5ccccc5)c5nc(c(-c6ccccc6)c6ccc3[nH]6)C=C5)C=C4)cc2)c2c(C)n[nH]c2C)c1C
REMARK SMILES IDX 16 1 15 2 13 3 14 4 12 5 11 6 9 7 10 8 8 10 7 11 3 12 4 13
REMARK SMILES IDX 76 14 5 15 6 16 77 17 2 18 1 19 69 20 70 21 74 22 71 23
REMARK SMILES IDX 72 24 73 25 75 26 17 28 18 29 19 30 20 31 21 32 22 33 68 34
REMARK SMILES IDX 23 35 67 36 24 37 25 38 26 39 61 40 27 41 66 42 60 43 62 44
REMARK SMILES IDX 28 45 65 46 59 47 58 48 29 50 51 51 36 52 50 53 37 54 40 55
REMARK SMILES IDX 49 56 63 57 38 58 39 59 48 61 64 62 41 63 30 64 31 65 35 66
REMARK SMILES IDX 32 67 34 68 33 69 52 70 53 71 57 72 54 73 56 74 55 75 42 76
REMARK SMILES IDX 43 77 47 78 44 79 46 80 45 81
REMARK H PARENT 11 9 73 27 62 49 40 60
REMARK Flexibility Score: inf
ROOT
ATOM      1  C   UNL A   1      35.712  21.193  24.680  1.00  0.00     0.274 C 
ENDROOT
BRANCH   1   2
ATOM      2  O   UNL A   1      35.698  22.632  24.739  1.00  0.00    -0.460 OA
BRANCH   2   3
ATOM      3  C   UNL A   1      34.771  23.217  25.546  1.00  0.00     0.333 C 
ATOM      4  O   UNL A   1      34.651  22.958  26.743  1.00  0.00    -0.249 OA
BRANCH   3   5
ATOM      5  C   UNL A   1      33.927  24.304  24.843  1.00  0.00     0.227 C 
BRANCH   5   6
ATOM      6  N   UNL A   1      33.556  23.856  23.502  1.00  0.00    -0.337 N 
ATOM      7  C   UNL A   1      33.409  24.478  22.308  1.00  0.00     0.242 C 
ATOM      8  O   UNL A   1      33.218  23.721  21.342  1.00  0.00    -0.273 OA
ATOM      9  H   UNL A   1      33.374  22.889  23.457  1.00  0.00     0.164 HD
BRANCH   7  10
ATOM     10  C   UNL A   1      33.397  25.969  22.035  1.00  0.00     0.244 C 
BRANCH  10  11
ATOM     11  N   UNL A   1      32.303  26.756  22.558  1.00  0.00    -0.260 N 
ATOM     12  C   UNL A   1      31.089  28.310  23.525  1.00  0.00    -0.004 A 
ATOM     13  C   UNL A   1      30.388  27.076  23.405  1.00  0.00     0.063 A 
ATOM     14  C   UNL A   1      32.294  28.094  22.870  1.00  0.00     0.039 A 
ATOM     15  C   UNL A   1      29.042  26.701  23.910  1.00  0.00     0.069 C 
ATOM     16  N   UNL A   1      31.123  26.155  22.776  1.00  0.00    -0.177 NA
ATOM     17  C   UNL A   1      33.447  28.992  22.607  1.00  0.00     0.066 C 
BRANCH  12  18
ATOM     18  C   UNL A   1      30.654  29.542  24.247  1.00  0.00     0.036 C 
ATOM     19  C   UNL A   1      31.512  29.864  25.456  1.00  0.00     0.009 C 
ENDBRANCH  12  18
ENDBRANCH  10  11
ENDBRANCH   7  10
ENDBRANCH   5   6
BRANCH   5  20
ATOM     20  C   UNL A   1      32.744  24.798  25.617  1.00  0.00     0.029 A 
ATOM     21  C   UNL A   1      32.639  26.097  26.209  1.00  0.00     0.065 A 
ATOM     22  C   UNL A   1      31.502  24.223  25.854  1.00  0.00     0.038 A 
ATOM     23  C   UNL A   1      33.641  27.195  26.212  1.00  0.00     0.069 C 
ATOM     24  N   UNL A   1      31.458  26.283  26.807  1.00  0.00    -0.180 NA
ATOM     25  N   UNL A   1      30.787  25.152  26.555  1.00  0.00    -0.282 N 
ATOM     26  C   UNL A   1      30.886  22.934  25.455  1.00  0.00     0.066 C 
ATOM     27  H   UNL A   1      29.860  25.004  26.849  1.00  0.00     0.190 HD
ENDBRANCH   5  20
ENDBRANCH   3   5
ENDBRANCH   2   3
ENDBRANCH   1   2
BRANCH   1  28
ATOM     28  C   UNL A   1      37.047  20.629  25.176  1.00  0.00     0.275 C 
BRANCH  28  29
ATOM     29  O   UNL A   1      38.045  21.657  25.312  1.00  0.00    -0.458 OA
BRANCH  29  30
ATOM     30  C   UNL A   1      39.072  21.361  26.140  1.00  0.00     0.338 C 
ATOM     31  O   UNL A   1      39.578  20.268  26.341  1.00  0.00    -0.246 OA
BRANCH  30  32
ATOM     32  C   UNL A   1      39.639  22.600  26.688  1.00  0.00     0.060 A 
ATOM     33  C   UNL A   1      39.162  23.809  26.176  1.00  0.00     0.016 A 
ATOM     34  C   UNL A   1      40.684  22.580  27.610  1.00  0.00     0.016 A 
ATOM     35  C   UNL A   1      39.764  25.005  26.528  1.00  0.00     0.010 A 
ATOM     36  C   UNL A   1      41.273  23.789  27.989  1.00  0.00     0.010 A 
ATOM     37  C   UNL A   1      40.833  25.001  27.427  1.00  0.00    -0.014 A 
BRANCH  37  38
ATOM     38  C   UNL A   1      41.529  26.268  27.717  1.00  0.00     0.031 A 
ATOM     39  C   UNL A   1      40.879  27.274  28.619  1.00  0.00     0.074 A 
ATOM     40  C   UNL A   1      42.750  26.490  27.201  1.00  0.00     0.049 A 
ATOM     41  N   UNL A   1      41.263  28.488  28.913  1.00  0.00    -0.248 NA
ATOM     42  C   UNL A   1      39.628  26.858  29.276  1.00  0.00     0.031 C 
ATOM     43  C   UNL A   1      43.506  25.547  26.372  1.00  0.00     0.029 A 
ATOM     44  N   UNL A   1      43.571  27.583  27.299  1.00  0.00    -0.354 N 
ATOM     45  C   UNL A   1      40.283  28.994  29.757  1.00  0.00     0.074 A 
ATOM     46  C   UNL A   1      39.285  27.962  29.924  1.00  0.00     0.031 C 
ATOM     47  C   UNL A   1      44.682  26.103  26.040  1.00  0.00     0.029 A 
ATOM     48  C   UNL A   1      44.735  27.457  26.584  1.00  0.00     0.049 A 
ATOM     49  H   UNL A   1      43.348  28.380  27.832  1.00  0.00     0.167 HD
ATOM     50  C   UNL A   1      40.226  30.218  30.334  1.00  0.00     0.031 A 
ATOM     51  C   UNL A   1      45.716  28.350  26.364  1.00  0.00     0.031 A 
ATOM     52  C   UNL A   1      41.236  31.228  30.175  1.00  0.00     0.049 A 
ATOM     53  C   UNL A   1      45.597  29.720  26.969  1.00  0.00     0.074 A 
ATOM     54  C   UNL A   1      41.280  32.498  30.721  1.00  0.00     0.029 A 
ATOM     55  N   UNL A   1      42.388  31.074  29.417  1.00  0.00    -0.354 N 
ATOM     56  N   UNL A   1      44.655  30.201  27.744  1.00  0.00    -0.248 NA
ATOM     57  C   UNL A   1      46.673  30.671  26.664  1.00  0.00     0.031 C 
ATOM     58  C   UNL A   1      42.441  33.130  30.259  1.00  0.00     0.029 A 
ATOM     59  C   UNL A   1      43.140  32.234  29.466  1.00  0.00     0.049 A 
ATOM     60  H   UNL A   1      42.632  30.261  28.918  1.00  0.00     0.167 HD
ATOM     61  C   UNL A   1      45.038  31.502  28.042  1.00  0.00     0.074 A 
ATOM     62  C   UNL A   1      46.304  31.728  27.374  1.00  0.00     0.031 C 
ATOM     63  C   UNL A   1      44.401  32.427  28.799  1.00  0.00     0.031 A 
BRANCH  50  64
ATOM     64  C   UNL A   1      39.011  30.543  31.153  1.00  0.00    -0.014 A 
ATOM     65  C   UNL A   1      38.964  30.291  32.532  1.00  0.00     0.009 A 
ATOM     66  C   UNL A   1      37.903  31.145  30.533  1.00  0.00     0.009 A 
ATOM     67  C   UNL A   1      37.823  30.614  33.270  1.00  0.00     0.001 A 
ATOM     68  C   UNL A   1      36.774  31.488  31.278  1.00  0.00     0.001 A 
ATOM     69  C   UNL A   1      36.732  31.216  32.644  1.00  0.00     0.000 A 
ENDBRANCH  50  64
BRANCH  51  70
ATOM     70  C   UNL A   1      46.873  27.994  25.504  1.00  0.00    -0.014 A 
ATOM     71  C   UNL A   1      48.116  27.677  26.071  1.00  0.00     0.009 A 
ATOM     72  C   UNL A   1      46.744  27.986  24.106  1.00  0.00     0.009 A 
ATOM     73  C   UNL A   1      49.212  27.385  25.256  1.00  0.00     0.001 A 
ATOM     74  C   UNL A   1      47.833  27.668  23.294  1.00  0.00     0.001 A 
ATOM     75  C   UNL A   1      49.069  27.378  23.869  1.00  0.00     0.000 A 
ENDBRANCH  51  70
BRANCH  63  76
ATOM     76  C   UNL A   1      45.090  33.747  28.980  1.00  0.00    -0.014 A 
ATOM     77  C   UNL A   1      44.843  34.822  28.113  1.00  0.00     0.009 A 
ATOM     78  C   UNL A   1      45.973  33.926  30.056  1.00  0.00     0.009 A 
ATOM     79  C   UNL A   1      45.493  36.043  28.303  1.00  0.00     0.001 A 
ATOM     80  C   UNL A   1      46.602  35.154  30.258  1.00  0.00     0.001 A 
ATOM     81  C   UNL A   1      46.367  36.208  29.377  1.00  0.00     0.000 A 
ENDBRANCH  63  76
ENDBRANCH  37  38
ENDBRANCH  30  32
ENDBRANCH  29  30
ENDBRANCH  28  29
ENDBRANCH   1  28
TORSDOF 16
ENDMDL
MODEL 3
REMARK VINA RESULT:     -10.5      3.005      7.599
REMARK SMILES CCc1c(C)nn(CC(=O)N[C@H](C(=O)OCCOC(=O)c2ccc(-c3c4nc(c(-c5ccccc5)c5ccc([nH]5)c(-c5ccccc5)c5nc(c(-c6ccccc6)c6ccc3[nH]6)C=C5)C=C4)cc2)c2c(C)n[nH]c2C)c1C
REMARK SMILES IDX 16 1 15 2 13 3 14 4 12 5 11 6 9 7 10 8 8 10 7 11 3 12 4 13
REMARK SMILES IDX 76 14 5 15 6 16 77 17 2 18 1 19 69 20 70 21 74 22 71 23
REMARK SMILES IDX 72 24 73 25 75 26 17 28 18 29 19 30 20 31 21 32 22 33 68 34
REMARK SMILES IDX 23 35 67 36 24 37 25 38 26 39 61 40 27 41 66 42 60 43 62 44
REMARK SMILES IDX 28 45 65 46 59 47 58 48 29 50 51 51 36 52 50 53 37 54 40 55
REMARK SMILES IDX 49 56 63 57 38 58 39 59 48 61 64 62 41 63 30 64 31 65 35 66
REMARK SMILES IDX 32 67 34 68 33 69 52 70 53 71 57 72 54 73 56 74 55 75 42 76
REMARK SMILES IDX 43 77 47 78 44 79 46 80 45 81
REMARK H PARENT 11 9 73 27 62 49 40 60
REMARK Flexibility Score: inf
ROOT
ATOM      1  C   UNL A   1      31.851  28.911  26.049  1.00  0.00     0.274 C 
ENDROOT
BRANCH   1   2
ATOM      2  O   UNL A   1      31.240  28.718  24.760  1.00  0.00    -0.460 OA
BRANCH   2   3
ATOM      3  C   UNL A   1      30.795  27.468  24.458  1.00  0.00     0.333 C 
ATOM      4  O   UNL A   1      29.647  27.225  24.088  1.00  0.00    -0.249 OA
BRANCH   3   5
ATOM      5  C   UNL A   1      31.888  26.379  24.542  1.00  0.00     0.227 C 
BRANCH   5   6
ATOM      6  N   UNL A   1      31.504  25.364  25.522  1.00  0.00    -0.337 N 
ATOM      7  C   UNL A   1      32.186  24.623  26.428  1.00  0.00     0.242 C 
ATOM      8  O   UNL A   1      31.479  23.955  27.199  1.00  0.00    -0.273 OA
ATOM      9  H   UNL A   1      30.537  25.178  25.523  1.00  0.00     0.164 HD
BRANCH   7  10
ATOM     10  C   UNL A   1      33.690  24.482  26.566  1.00  0.00     0.244 C 
BRANCH  10  11
ATOM     11  N   UNL A   1      34.366  23.496  25.753  1.00  0.00    -0.260 N 
ATOM     12  C   UNL A   1      35.414  21.702  25.039  1.00  0.00    -0.004 A 
ATOM     13  C   UNL A   1      35.602  22.816  24.172  1.00  0.00     0.063 A 
ATOM     14  C   UNL A   1      34.519  22.154  26.002  1.00  0.00     0.039 A 
ATOM     15  C   UNL A   1      36.450  22.936  22.959  1.00  0.00     0.069 C 
ATOM     16  N   UNL A   1      34.924  23.886  24.596  1.00  0.00    -0.177 NA
ATOM     17  C   UNL A   1      33.891  21.470  27.161  1.00  0.00     0.066 C 
BRANCH  12  18
ATOM     18  C   UNL A   1      36.076  20.366  24.969  1.00  0.00     0.036 C 
ATOM     19  C   UNL A   1      37.591  20.446  24.970  1.00  0.00     0.009 C 
ENDBRANCH  12  18
ENDBRANCH  10  11
ENDBRANCH   7  10
ENDBRANCH   5   6
BRANCH   5  20
ATOM     20  C   UNL A   1      32.292  25.771  23.233  1.00  0.00     0.029 A 
ATOM     21  C   UNL A   1      33.128  26.406  22.261  1.00  0.00     0.065 A 
ATOM     22  C   UNL A   1      32.073  24.505  22.708  1.00  0.00     0.038 A 
ATOM     23  C   UNL A   1      33.742  27.759  22.312  1.00  0.00     0.069 C 
ATOM     24  N   UNL A   1      33.356  25.620  21.204  1.00  0.00    -0.180 NA
ATOM     25  N   UNL A   1      32.733  24.476  21.513  1.00  0.00    -0.282 N 
ATOM     26  C   UNL A   1      31.370  23.301  23.216  1.00  0.00     0.066 C 
ATOM     27  H   UNL A   1      32.749  23.685  20.928  1.00  0.00     0.190 HD
ENDBRANCH   5  20
ENDBRANCH   3   5
ENDBRANCH   2   3
ENDBRANCH   1   2
BRANCH   1  28
ATOM     28  C   UNL A   1      33.291  29.414  25.914  1.00  0.00     0.275 C 
BRANCH  28  29
ATOM     29  O   UNL A   1      34.060  29.162  27.104  1.00  0.00    -0.458 OA
BRANCH  29  30
ATOM     30  C   UNL A   1      34.549  30.260  27.721  1.00  0.00     0.338 C 
ATOM     31  O   UNL A   1      33.951  31.288  28.001  1.00  0.00    -0.246 OA
BRANCH  30  32
ATOM     32  C   UNL A   1      35.921  30.003  28.177  1.00  0.00     0.060 A 
ATOM     33  C   UNL A   1      36.950  30.154  27.244  1.00  0.00     0.016 A 
ATOM     34  C   UNL A   1      36.188  29.528  29.460  1.00  0.00     0.016 A 
ATOM     35  C   UNL A   1      38.243  29.773  27.559  1.00  0.00     0.010 A 
ATOM     36  C   UNL A   1      37.498  29.171  29.788  1.00  0.00     0.010 A 
ATOM     37  C   UNL A   1      38.522  29.266  28.829  1.00  0.00    -0.014 A 
BRANCH  37  38
ATOM     38  C   UNL A   1      39.881  28.771  29.119  1.00  0.00     0.031 A 
ATOM     39  C   UNL A   1      40.850  29.663  29.836  1.00  0.00     0.074 A 
ATOM     40  C   UNL A   1      40.221  27.518  28.772  1.00  0.00     0.049 A 
ATOM     41  N   UNL A   1      42.117  29.469  30.089  1.00  0.00    -0.248 NA
ATOM     42  C   UNL A   1      40.322  30.945  30.333  1.00  0.00     0.031 C 
ATOM     43  C   UNL A   1      39.331  26.542  28.138  1.00  0.00     0.029 A 
ATOM     44  N   UNL A   1      41.411  26.851  28.905  1.00  0.00    -0.354 N 
ATOM     45  C   UNL A   1      42.548  30.618  30.738  1.00  0.00     0.074 A 
ATOM     46  C   UNL A   1      41.412  31.507  30.837  1.00  0.00     0.031 C 
ATOM     47  C   UNL A   1      40.008  25.399  27.941  1.00  0.00     0.029 A 
ATOM     48  C   UNL A   1      41.387  25.584  28.380  1.00  0.00     0.049 A 
ATOM     49  H   UNL A   1      42.204  27.243  29.336  1.00  0.00     0.167 HD
ATOM     50  C   UNL A   1      43.787  30.902  31.204  1.00  0.00     0.031 A 
ATOM     51  C   UNL A   1      42.381  24.688  28.238  1.00  0.00     0.031 A 
ATOM     52  C   UNL A   1      44.903  30.000  31.118  1.00  0.00     0.049 A 
ATOM     53  C   UNL A   1      43.759  25.054  28.711  1.00  0.00     0.074 A 
ATOM     54  C   UNL A   1      46.198  30.186  31.565  1.00  0.00     0.029 A 
ATOM     55  N   UNL A   1      44.848  28.735  30.551  1.00  0.00    -0.354 N 
ATOM     56  N   UNL A   1      44.165  26.152  29.300  1.00  0.00    -0.248 NA
ATOM     57  C   UNL A   1      44.816  24.058  28.494  1.00  0.00     0.031 C 
ATOM     58  C   UNL A   1      46.941  29.047  31.230  1.00  0.00     0.029 A 
ATOM     59  C   UNL A   1      46.093  28.136  30.620  1.00  0.00     0.049 A 
ATOM     60  H   UNL A   1      44.044  28.326  30.158  1.00  0.00     0.167 HD
ATOM     61  C   UNL A   1      45.518  25.970  29.550  1.00  0.00     0.074 A 
ATOM     62  C   UNL A   1      45.859  24.650  29.059  1.00  0.00     0.031 C 
ATOM     63  C   UNL A   1      46.401  26.817  30.132  1.00  0.00     0.031 A 
BRANCH  50  64
ATOM     64  C   UNL A   1      44.007  32.258  31.809  1.00  0.00    -0.014 A 
ATOM     65  C   UNL A   1      43.802  32.496  33.176  1.00  0.00     0.009 A 
ATOM     66  C   UNL A   1      44.461  33.310  30.996  1.00  0.00     0.009 A 
ATOM     67  C   UNL A   1      44.026  33.766  33.713  1.00  0.00     0.001 A 
ATOM     68  C   UNL A   1      44.707  34.571  31.539  1.00  0.00     0.001 A 
ATOM     69  C   UNL A   1      44.482  34.801  32.895  1.00  0.00     0.000 A 
ENDBRANCH  50  64
BRANCH  51  70
ATOM     70  C   UNL A   1      42.120  23.379  27.586  1.00  0.00    -0.014 A 
ATOM     71  C   UNL A   1      41.570  22.314  28.315  1.00  0.00     0.009 A 
ATOM     72  C   UNL A   1      42.436  23.183  26.233  1.00  0.00     0.009 A 
ATOM     73  C   UNL A   1      41.368  21.072  27.709  1.00  0.00     0.001 A 
ATOM     74  C   UNL A   1      42.207  21.950  25.622  1.00  0.00     0.001 A 
ATOM     75  C   UNL A   1      41.684  20.892  26.363  1.00  0.00     0.000 A 
ENDBRANCH  51  70
BRANCH  63  76
ATOM     76  C   UNL A   1      47.804  26.318  30.309  1.00  0.00    -0.014 A 
ATOM     77  C   UNL A   1      48.233  25.770  31.527  1.00  0.00     0.009 A 
ATOM     78  C   UNL A   1      48.698  26.367  29.228  1.00  0.00     0.009 A 
ATOM     79  C   UNL A   1      49.544  25.309  31.667  1.00  0.00     0.001 A 
ATOM     80  C   UNL A   1      49.999  25.882  29.364  1.00  0.00     0.001 A 
ATOM     81  C   UNL A   1      50.422  25.361  30.585  1.00  0.00     0.000 A 
ENDBRANCH  63  76
ENDBRANCH  37  38
ENDBRANCH  30  32
ENDBRANCH  29  30
ENDBRANCH  28  29
ENDBRANCH   1  28
TORSDOF 16
ENDMDL
