MODEL 1
REMARK VINA RESULT:     -13.0      0.000      0.000
REMARK SMILES Cc1cccc(C(=O)Nc2cc(C(=O)OCCOC(=O)c3ccc(-c4c5nc(c(-c6ccccc6)c6ccc([nH]6)c(-c6ccccc6)c6nc(c(-c7ccccc7)c7ccc4[nH]7)C=C6)C=C5)cc3)ccc2N2CC[NH+](CC(=O)NC(C)(C)C)CC2)c1
REMARK SMILES IDX 16 1 15 2 13 3 14 4 12 5 10 6 11 7 71 8 70 9 69 10 9 11 7 12
REMARK SMILES IDX 8 13 6 15 1 16 2 17 3 18 86 19 4 20 5 21 72 22 73 23 85 24
REMARK SMILES IDX 74 25 84 26 75 27 76 29 77 30 78 31 79 32 80 34 81 35 82 36
REMARK SMILES IDX 83 37 17 38 18 39 19 40 20 41 21 42 22 43 68 44 23 45 67 46
REMARK SMILES IDX 24 47 25 48 26 49 61 50 27 51 66 52 60 53 62 54 28 55 65 56
REMARK SMILES IDX 59 57 58 58 29 60 51 61 36 62 50 63 37 64 40 65 49 66 63 67
REMARK SMILES IDX 38 68 39 69 48 71 64 72 41 73 30 74 31 75 35 76 32 77 34 78
REMARK SMILES IDX 33 79 52 80 53 81 57 82 54 83 56 84 55 85 42 86 43 87 47 88
REMARK SMILES IDX 44 89 46 90 45 91
REMARK H PARENT 9 14 75 28 79 33 62 59 40 70
REMARK Flexibility Score: inf
ROOT
ATOM      1  C   UNL A   1      33.593  32.281  27.934  1.00  0.00     0.275 C 
ENDROOT
BRANCH   1   2
ATOM      2  O   UNL A   1      33.362  31.557  26.720  1.00  0.00    -0.458 OA
BRANCH   2   3
ATOM      3  C   UNL A   1      32.089  31.139  26.626  1.00  0.00     0.338 C 
ATOM      4  O   UNL A   1      31.087  31.838  26.646  1.00  0.00    -0.246 OA
BRANCH   3   5
ATOM      5  C   UNL A   1      31.934  29.695  26.599  1.00  0.00     0.062 A 
ATOM      6  C   UNL A   1      31.913  27.889  25.029  1.00  0.00     0.065 A 
ATOM      7  C   UNL A   1      31.643  29.204  25.334  1.00  0.00     0.044 A 
ATOM      8  C   UNL A   1      32.312  26.970  26.057  1.00  0.00     0.061 A 
ATOM      9  C   UNL A   1      32.498  27.492  27.355  1.00  0.00     0.029 A 
ATOM     10  C   UNL A   1      32.354  28.858  27.626  1.00  0.00     0.018 A 
BRANCH   6  11
ATOM     11  N   UNL A   1      31.770  27.457  23.702  1.00  0.00    -0.320 N 
ATOM     12  C   UNL A   1      30.936  27.751  22.641  1.00  0.00     0.255 C 
ATOM     13  O   UNL A   1      31.219  27.172  21.582  1.00  0.00    -0.269 OA
ATOM     14  H   UNL A   1      32.431  26.768  23.468  1.00  0.00     0.170 HD
BRANCH  12  15
ATOM     15  C   UNL A   1      29.777  28.704  22.600  1.00  0.00     0.040 A 
ATOM     16  C   UNL A   1      28.639  32.302  21.949  1.00  0.00     0.044 C 
ATOM     17  C   UNL A   1      28.614  30.828  22.234  1.00  0.00    -0.050 A 
ATOM     18  C   UNL A   1      27.428  30.284  22.726  1.00  0.00     0.003 A 
ATOM     19  C   UNL A   1      29.767  30.014  22.104  1.00  0.00     0.017 A 
ATOM     20  C   UNL A   1      27.391  28.960  23.127  1.00  0.00     0.001 A 
ATOM     21  C   UNL A   1      28.556  28.189  23.084  1.00  0.00     0.014 A 
ENDBRANCH  12  15
ENDBRANCH   6  11
BRANCH   8  22
ATOM     22  N   UNL A   1      32.568  25.626  25.804  1.00  0.00    -0.359 N 
ATOM     23  C   UNL A   1      31.894  24.491  26.476  1.00  0.00     0.178 C 
ATOM     24  C   UNL A   1      33.881  25.227  25.311  1.00  0.00     0.178 C 
ATOM     25  C   UNL A   1      31.918  23.199  25.579  1.00  0.00     0.284 C 
ATOM     26  C   UNL A   1      33.644  24.197  24.194  1.00  0.00     0.284 C 
ATOM     27  N   UNL A   1      33.075  22.943  24.687  1.00  0.00    -0.324 N 
ATOM     28  H   UNL A   1      32.678  22.438  23.894  1.00  0.00     0.348 HD
BRANCH  27  29
ATOM     29  C   UNL A   1      34.079  21.971  25.153  1.00  0.00     0.363 C 
BRANCH  29  30
ATOM     30  C   UNL A   1      33.629  21.037  26.269  1.00  0.00     0.275 C 
ATOM     31  O   UNL A   1      33.652  21.430  27.444  1.00  0.00    -0.268 OA
ATOM     32  N   UNL A   1      33.184  19.765  26.075  1.00  0.00    -0.347 N 
ATOM     33  H   UNL A   1      32.770  19.421  26.899  1.00  0.00     0.164 HD
BRANCH  32  34
ATOM     34  C   UNL A   1      33.129  18.729  25.003  1.00  0.00     0.032 C 
ATOM     35  C   UNL A   1      32.459  19.287  23.732  1.00  0.00     0.034 C 
ATOM     36  C   UNL A   1      34.594  18.424  24.619  1.00  0.00     0.034 C 
ATOM     37  C   UNL A   1      32.482  17.397  25.396  1.00  0.00     0.034 C 
ENDBRANCH  32  34
ENDBRANCH  29  30
ENDBRANCH  27  29
ENDBRANCH   8  22
ENDBRANCH   3   5
ENDBRANCH   2   3
ENDBRANCH   1   2
BRANCH   1  38
ATOM     38  C   UNL A   1      34.987  32.020  28.487  1.00  0.00     0.275 C 
BRANCH  38  39
ATOM     39  O   UNL A   1      35.427  30.642  28.664  1.00  0.00    -0.458 OA
BRANCH  39  40
ATOM     40  C   UNL A   1      36.054  29.793  27.814  1.00  0.00     0.338 C 
ATOM     41  O   UNL A   1      35.498  29.383  26.812  1.00  0.00    -0.246 OA
BRANCH  40  42
ATOM     42  C   UNL A   1      37.426  29.313  28.129  1.00  0.00     0.060 A 
ATOM     43  C   UNL A   1      38.444  29.440  27.158  1.00  0.00     0.016 A 
ATOM     44  C   UNL A   1      37.718  28.744  29.358  1.00  0.00     0.016 A 
ATOM     45  C   UNL A   1      39.759  29.044  27.436  1.00  0.00     0.010 A 
ATOM     46  C   UNL A   1      39.031  28.459  29.671  1.00  0.00     0.010 A 
ATOM     47  C   UNL A   1      40.053  28.551  28.703  1.00  0.00    -0.014 A 
BRANCH  47  48
ATOM     48  C   UNL A   1      41.270  27.828  29.089  1.00  0.00     0.031 A 
ATOM     49  C   UNL A   1      41.621  26.453  28.683  1.00  0.00     0.074 A 
ATOM     50  C   UNL A   1      42.194  28.651  29.635  1.00  0.00     0.049 A 
ATOM     51  N   UNL A   1      42.834  26.122  28.385  1.00  0.00    -0.248 NA
ATOM     52  C   UNL A   1      40.676  25.333  28.547  1.00  0.00     0.031 C 
ATOM     53  C   UNL A   1      43.627  28.495  29.818  1.00  0.00     0.029 A 
ATOM     54  N   UNL A   1      41.888  29.811  30.357  1.00  0.00    -0.354 N 
ATOM     55  C   UNL A   1      42.842  24.800  28.036  1.00  0.00     0.074 A 
ATOM     56  C   UNL A   1      41.468  24.351  28.077  1.00  0.00     0.031 C 
ATOM     57  C   UNL A   1      44.009  29.285  30.840  1.00  0.00     0.029 A 
ATOM     58  C   UNL A   1      42.791  29.831  31.427  1.00  0.00     0.049 A 
ATOM     59  H   UNL A   1      41.187  30.472  30.156  1.00  0.00     0.167 HD
ATOM     60  C   UNL A   1      43.992  24.085  28.107  1.00  0.00     0.031 A 
ATOM     61  C   UNL A   1      42.309  29.510  32.665  1.00  0.00     0.031 A 
ATOM     62  C   UNL A   1      44.842  24.613  29.152  1.00  0.00     0.049 A 
ATOM     63  C   UNL A   1      42.918  28.230  33.192  1.00  0.00     0.074 A 
ATOM     64  C   UNL A   1      45.874  25.529  29.218  1.00  0.00     0.029 A 
ATOM     65  N   UNL A   1      44.404  24.404  30.450  1.00  0.00    -0.354 N 
ATOM     66  N   UNL A   1      43.371  27.262  32.440  1.00  0.00    -0.248 NA
ATOM     67  C   UNL A   1      43.106  27.970  34.614  1.00  0.00     0.031 C 
ATOM     68  C   UNL A   1      45.956  25.972  30.573  1.00  0.00     0.029 A 
ATOM     69  C   UNL A   1      45.007  25.286  31.314  1.00  0.00     0.049 A 
ATOM     70  H   UNL A   1      43.751  23.718  30.716  1.00  0.00     0.167 HD
ATOM     71  C   UNL A   1      43.984  26.326  33.229  1.00  0.00     0.074 A 
ATOM     72  C   UNL A   1      43.763  26.797  34.585  1.00  0.00     0.031 C 
ATOM     73  C   UNL A   1      44.649  25.248  32.725  1.00  0.00     0.031 A 
BRANCH  60  74
ATOM     74  C   UNL A   1      44.420  23.154  27.012  1.00  0.00    -0.014 A 
ATOM     75  C   UNL A   1      45.704  23.311  26.451  1.00  0.00     0.009 A 
ATOM     76  C   UNL A   1      43.569  22.221  26.395  1.00  0.00     0.009 A 
ATOM     77  C   UNL A   1      46.105  22.602  25.311  1.00  0.00     0.001 A 
ATOM     78  C   UNL A   1      43.975  21.498  25.262  1.00  0.00     0.001 A 
ATOM     79  C   UNL A   1      45.237  21.697  24.713  1.00  0.00     0.000 A 
ENDBRANCH  60  74
BRANCH  61  80
ATOM     80  C   UNL A   1      40.900  29.976  32.902  1.00  0.00    -0.014 A 
ATOM     81  C   UNL A   1      40.571  31.305  32.540  1.00  0.00     0.009 A 
ATOM     82  C   UNL A   1      39.843  29.093  33.164  1.00  0.00     0.009 A 
ATOM     83  C   UNL A   1      39.245  31.704  32.341  1.00  0.00     0.001 A 
ATOM     84  C   UNL A   1      38.510  29.507  32.993  1.00  0.00     0.001 A 
ATOM     85  C   UNL A   1      38.213  30.798  32.553  1.00  0.00     0.000 A 
ENDBRANCH  61  80
BRANCH  73  86
ATOM     86  C   UNL A   1      45.051  24.034  33.522  1.00  0.00    -0.014 A 
ATOM     87  C   UNL A   1      46.305  23.892  34.128  1.00  0.00     0.009 A 
ATOM     88  C   UNL A   1      44.072  23.066  33.843  1.00  0.00     0.009 A 
ATOM     89  C   UNL A   1      46.586  22.811  34.972  1.00  0.00     0.001 A 
ATOM     90  C   UNL A   1      44.332  22.017  34.725  1.00  0.00     0.001 A 
ATOM     91  C   UNL A   1      45.597  21.882  35.280  1.00  0.00     0.000 A 
ENDBRANCH  73  86
ENDBRANCH  47  48
ENDBRANCH  40  42
ENDBRANCH  39  40
ENDBRANCH  38  39
ENDBRANCH   1  38
TORSDOF 17
ENDMDL
MODEL 2
REMARK VINA RESULT:     -12.7      3.431      9.939
REMARK SMILES Cc1cccc(C(=O)Nc2cc(C(=O)OCCOC(=O)c3ccc(-c4c5nc(c(-c6ccccc6)c6ccc([nH]6)c(-c6ccccc6)c6nc(c(-c7ccccc7)c7ccc4[nH]7)C=C6)C=C5)cc3)ccc2N2CC[NH+](CC(=O)NC(C)(C)C)CC2)c1
REMARK SMILES IDX 16 1 15 2 13 3 14 4 12 5 10 6 11 7 71 8 70 9 69 10 9 11 7 12
REMARK SMILES IDX 8 13 6 15 1 16 2 17 3 18 86 19 4 20 5 21 72 22 73 23 85 24
REMARK SMILES IDX 74 25 84 26 75 27 76 29 77 30 78 31 79 32 80 34 81 35 82 36
REMARK SMILES IDX 83 37 17 38 18 39 19 40 20 41 21 42 22 43 68 44 23 45 67 46
REMARK SMILES IDX 24 47 25 48 26 49 61 50 27 51 66 52 60 53 62 54 28 55 65 56
REMARK SMILES IDX 59 57 58 58 29 60 51 61 36 62 50 63 37 64 40 65 49 66 63 67
REMARK SMILES IDX 38 68 39 69 48 71 64 72 41 73 30 74 31 75 35 76 32 77 34 78
REMARK SMILES IDX 33 79 52 80 53 81 57 82 54 83 56 84 55 85 42 86 43 87 47 88
REMARK SMILES IDX 44 89 46 90 45 91
REMARK H PARENT 9 14 75 28 79 33 62 59 40 70
REMARK Flexibility Score: inf
ROOT
ATOM      1  C   UNL A   1      39.242  21.132  26.183  1.00  0.00     0.275 C 
ENDROOT
BRANCH   1   2
ATOM      2  O   UNL A   1      38.671  21.415  24.900  1.00  0.00    -0.458 OA
BRANCH   2   3
ATOM      3  C   UNL A   1      37.422  20.934  24.797  1.00  0.00     0.338 C 
ATOM      4  O   UNL A   1      37.056  19.793  25.036  1.00  0.00    -0.246 OA
BRANCH   3   5
ATOM      5  C   UNL A   1      36.461  21.875  24.246  1.00  0.00     0.062 A 
ATOM      6  C   UNL A   1      34.184  22.546  24.545  1.00  0.00     0.065 A 
ATOM      7  C   UNL A   1      35.149  21.563  24.572  1.00  0.00     0.044 A 
ATOM      8  C   UNL A   1      34.477  23.840  23.998  1.00  0.00     0.061 A 
ATOM      9  C   UNL A   1      35.804  24.081  23.582  1.00  0.00     0.029 A 
ATOM     10  C   UNL A   1      36.811  23.122  23.741  1.00  0.00     0.018 A 
BRANCH   6  11
ATOM     11  N   UNL A   1      32.904  22.253  25.038  1.00  0.00    -0.320 N 
ATOM     12  C   UNL A   1      32.104  21.131  25.135  1.00  0.00     0.255 C 
ATOM     13  O   UNL A   1      31.034  21.306  25.736  1.00  0.00    -0.269 OA
ATOM     14  H   UNL A   1      32.462  23.050  25.408  1.00  0.00     0.170 HD
BRANCH  12  15
ATOM     15  C   UNL A   1      32.385  19.738  24.651  1.00  0.00     0.040 A 
ATOM     16  C   UNL A   1      33.629  16.238  25.583  1.00  0.00     0.044 C 
ATOM     17  C   UNL A   1      33.046  17.385  24.809  1.00  0.00    -0.050 A 
ATOM     18  C   UNL A   1      32.934  17.242  23.426  1.00  0.00     0.003 A 
ATOM     19  C   UNL A   1      32.701  18.613  25.425  1.00  0.00     0.017 A 
ATOM     20  C   UNL A   1      32.525  18.315  22.653  1.00  0.00     0.001 A 
ATOM     21  C   UNL A   1      32.277  19.551  23.258  1.00  0.00     0.014 A 
ENDBRANCH  12  15
ENDBRANCH   6  11
BRANCH   8  22
ATOM     22  N   UNL A   1      33.528  24.855  23.922  1.00  0.00    -0.359 N 
ATOM     23  C   UNL A   1      33.093  25.521  22.672  1.00  0.00     0.178 C 
ATOM     24  C   UNL A   1      33.320  25.729  25.070  1.00  0.00     0.178 C 
ATOM     25  C   UNL A   1      31.646  26.119  22.815  1.00  0.00     0.284 C 
ATOM     26  C   UNL A   1      31.800  25.903  25.228  1.00  0.00     0.284 C 
ATOM     27  N   UNL A   1      31.194  26.647  24.125  1.00  0.00    -0.324 N 
ATOM     28  H   UNL A   1      30.188  26.474  24.136  1.00  0.00     0.348 HD
BRANCH  27  29
ATOM     29  C   UNL A   1      31.220  28.110  24.302  1.00  0.00     0.363 C 
BRANCH  29  30
ATOM     30  C   UNL A   1      31.458  28.927  23.040  1.00  0.00     0.275 C 
ATOM     31  O   UNL A   1      32.597  28.992  22.557  1.00  0.00    -0.268 OA
ATOM     32  N   UNL A   1      30.488  29.610  22.372  1.00  0.00    -0.347 N 
ATOM     33  H   UNL A   1      30.822  29.900  21.492  1.00  0.00     0.164 HD
BRANCH  32  34
ATOM     34  C   UNL A   1      29.078  30.059  22.557  1.00  0.00     0.032 C 
ATOM     35  C   UNL A   1      28.484  30.572  21.230  1.00  0.00     0.034 C 
ATOM     36  C   UNL A   1      28.267  28.798  22.933  1.00  0.00     0.034 C 
ATOM     37  C   UNL A   1      28.846  31.088  23.667  1.00  0.00     0.034 C 
ENDBRANCH  32  34
ENDBRANCH  29  30
ENDBRANCH  27  29
ENDBRANCH   8  22
ENDBRANCH   3   5
ENDBRANCH   2   3
ENDBRANCH   1   2
BRANCH   1  38
ATOM     38  C   UNL A   1      40.250  22.195  26.596  1.00  0.00     0.275 C 
BRANCH  38  39
ATOM     39  O   UNL A   1      39.823  23.256  27.499  1.00  0.00    -0.458 OA
BRANCH  39  40
ATOM     40  C   UNL A   1      39.030  24.334  27.293  1.00  0.00     0.338 C 
ATOM     41  O   UNL A   1      38.075  24.277  26.540  1.00  0.00    -0.246 OA
BRANCH  40  42
ATOM     42  C   UNL A   1      39.352  25.626  27.957  1.00  0.00     0.060 A 
ATOM     43  C   UNL A   1      38.878  25.869  29.265  1.00  0.00     0.016 A 
ATOM     44  C   UNL A   1      40.108  26.590  27.311  1.00  0.00     0.016 A 
ATOM     45  C   UNL A   1      39.203  27.053  29.940  1.00  0.00     0.010 A 
ATOM     46  C   UNL A   1      40.520  27.703  28.014  1.00  0.00     0.010 A 
ATOM     47  C   UNL A   1      40.031  27.976  29.309  1.00  0.00    -0.014 A 
BRANCH  47  48
ATOM     48  C   UNL A   1      40.243  29.369  29.716  1.00  0.00     0.031 A 
ATOM     49  C   UNL A   1      39.251  30.457  29.616  1.00  0.00     0.074 A 
ATOM     50  C   UNL A   1      41.358  29.510  30.468  1.00  0.00     0.049 A 
ATOM     51  N   UNL A   1      39.131  31.354  30.537  1.00  0.00    -0.248 NA
ATOM     52  C   UNL A   1      38.295  30.643  28.512  1.00  0.00     0.031 C 
ATOM     53  C   UNL A   1      41.773  30.565  31.379  1.00  0.00     0.029 A 
ATOM     54  N   UNL A   1      42.497  28.702  30.350  1.00  0.00    -0.354 N 
ATOM     55  C   UNL A   1      38.129  32.210  30.171  1.00  0.00     0.074 A 
ATOM     56  C   UNL A   1      37.577  31.700  28.937  1.00  0.00     0.031 C 
ATOM     57  C   UNL A   1      43.117  30.541  31.466  1.00  0.00     0.029 A 
ATOM     58  C   UNL A   1      43.585  29.573  30.480  1.00  0.00     0.049 A 
ATOM     59  H   UNL A   1      42.525  27.729  30.207  1.00  0.00     0.167 HD
ATOM     60  C   UNL A   1      38.077  33.460  30.696  1.00  0.00     0.031 A 
ATOM     61  C   UNL A   1      44.279  29.888  29.345  1.00  0.00     0.031 A 
ATOM     62  C   UNL A   1      39.412  33.922  31.011  1.00  0.00     0.049 A 
ATOM     63  C   UNL A   1      44.148  31.353  28.993  1.00  0.00     0.074 A 
ATOM     64  C   UNL A   1      40.221  33.916  32.130  1.00  0.00     0.029 A 
ATOM     65  N   UNL A   1      40.226  34.201  29.925  1.00  0.00    -0.354 N 
ATOM     66  N   UNL A   1      43.128  32.104  29.317  1.00  0.00    -0.248 NA
ATOM     67  C   UNL A   1      45.188  32.094  28.290  1.00  0.00     0.031 C 
ATOM     68  C   UNL A   1      41.567  34.061  31.676  1.00  0.00     0.029 A 
ATOM     69  C   UNL A   1      41.549  34.200  30.296  1.00  0.00     0.049 A 
ATOM     70  H   UNL A   1      39.901  34.377  29.013  1.00  0.00     0.167 HD
ATOM     71  C   UNL A   1      43.397  33.402  28.976  1.00  0.00     0.074 A 
ATOM     72  C   UNL A   1      44.684  33.340  28.306  1.00  0.00     0.031 C 
ATOM     73  C   UNL A   1      42.567  34.439  29.284  1.00  0.00     0.031 A 
BRANCH  60  74
ATOM     74  C   UNL A   1      36.798  34.063  31.193  1.00  0.00    -0.014 A 
ATOM     75  C   UNL A   1      36.763  34.603  32.495  1.00  0.00     0.009 A 
ATOM     76  C   UNL A   1      35.574  33.993  30.504  1.00  0.00     0.009 A 
ATOM     77  C   UNL A   1      35.566  35.018  33.092  1.00  0.00     0.001 A 
ATOM     78  C   UNL A   1      34.376  34.423  31.095  1.00  0.00     0.001 A 
ATOM     79  C   UNL A   1      34.369  34.924  32.392  1.00  0.00     0.000 A 
ENDBRANCH  60  74
BRANCH  61  80
ATOM     80  C   UNL A   1      44.376  28.754  28.365  1.00  0.00    -0.014 A 
ATOM     81  C   UNL A   1      43.639  28.853  27.160  1.00  0.00     0.009 A 
ATOM     82  C   UNL A   1      45.374  27.772  28.438  1.00  0.00     0.009 A 
ATOM     83  C   UNL A   1      43.960  28.081  26.038  1.00  0.00     0.001 A 
ATOM     84  C   UNL A   1      45.674  26.975  27.318  1.00  0.00     0.001 A 
ATOM     85  C   UNL A   1      44.991  27.151  26.113  1.00  0.00     0.000 A 
ENDBRANCH  61  80
BRANCH  73  86
ATOM     86  C   UNL A   1      42.637  35.811  28.665  1.00  0.00    -0.014 A 
ATOM     87  C   UNL A   1      42.035  36.136  27.444  1.00  0.00     0.009 A 
ATOM     88  C   UNL A   1      43.168  36.881  29.421  1.00  0.00     0.009 A 
ATOM     89  C   UNL A   1      42.009  37.455  26.974  1.00  0.00     0.001 A 
ATOM     90  C   UNL A   1      43.097  38.203  28.981  1.00  0.00     0.001 A 
ATOM     91  C   UNL A   1      42.527  38.488  27.748  1.00  0.00     0.000 A 
ENDBRANCH  73  86
ENDBRANCH  47  48
ENDBRANCH  40  42
ENDBRANCH  39  40
ENDBRANCH  38  39
ENDBRANCH   1  38
TORSDOF 17
ENDMDL
MODEL 3
REMARK VINA RESULT:     -12.6      1.975      3.306
REMARK SMILES Cc1cccc(C(=O)Nc2cc(C(=O)OCCOC(=O)c3ccc(-c4c5nc(c(-c6ccccc6)c6ccc([nH]6)c(-c6ccccc6)c6nc(c(-c7ccccc7)c7ccc4[nH]7)C=C6)C=C5)cc3)ccc2N2CC[NH+](CC(=O)NC(C)(C)C)CC2)c1
REMARK SMILES IDX 16 1 15 2 13 3 14 4 12 5 10 6 11 7 71 8 70 9 69 10 9 11 7 12
REMARK SMILES IDX 8 13 6 15 1 16 2 17 3 18 86 19 4 20 5 21 72 22 73 23 85 24
REMARK SMILES IDX 74 25 84 26 75 27 76 29 77 30 78 31 79 32 80 34 81 35 82 36
REMARK SMILES IDX 83 37 17 38 18 39 19 40 20 41 21 42 22 43 68 44 23 45 67 46
REMARK SMILES IDX 24 47 25 48 26 49 61 50 27 51 66 52 60 53 62 54 28 55 65 56
REMARK SMILES IDX 59 57 58 58 29 60 51 61 36 62 50 63 37 64 40 65 49 66 63 67
REMARK SMILES IDX 38 68 39 69 48 71 64 72 41 73 30 74 31 75 35 76 32 77 34 78
REMARK SMILES IDX 33 79 52 80 53 81 57 82 54 83 56 84 55 85 42 86 43 87 47 88
REMARK SMILES IDX 44 89 46 90 45 91
REMARK H PARENT 9 14 75 28 79 33 62 59 40 70
REMARK Flexibility Score: inf
ROOT
ATOM      1  C   UNL A   1      32.507  33.187  27.278  1.00  0.00     0.275 C 
ENDROOT
BRANCH   1   2
ATOM      2  O   UNL A   1      32.654  31.762  27.258  1.00  0.00    -0.458 OA
BRANCH   2   3
ATOM      3  C   UNL A   1      31.762  31.183  26.439  1.00  0.00     0.338 C 
ATOM      4  O   UNL A   1      30.935  31.750  25.741  1.00  0.00    -0.246 OA
BRANCH   3   5
ATOM      5  C   UNL A   1      31.751  29.731  26.496  1.00  0.00     0.062 A 
ATOM      6  C   UNL A   1      31.829  27.845  25.026  1.00  0.00     0.065 A 
ATOM      7  C   UNL A   1      31.444  29.143  25.277  1.00  0.00     0.044 A 
ATOM      8  C   UNL A   1      32.371  27.029  26.076  1.00  0.00     0.061 A 
ATOM      9  C   UNL A   1      32.572  27.641  27.332  1.00  0.00     0.029 A 
ATOM     10  C   UNL A   1      32.307  29.000  27.540  1.00  0.00     0.018 A 
BRANCH   6  11
ATOM     11  N   UNL A   1      31.659  27.324  23.735  1.00  0.00    -0.320 N 
ATOM     12  C   UNL A   1      30.821  27.566  22.664  1.00  0.00     0.255 C 
ATOM     13  O   UNL A   1      31.077  26.907  21.645  1.00  0.00    -0.269 OA
ATOM     14  H   UNL A   1      32.300  26.603  23.543  1.00  0.00     0.170 HD
BRANCH  12  15
ATOM     15  C   UNL A   1      29.686  28.544  22.566  1.00  0.00     0.040 A 
ATOM     16  C   UNL A   1      28.628  32.106  21.644  1.00  0.00     0.044 C 
ATOM     17  C   UNL A   1      28.572  30.662  22.050  1.00  0.00    -0.050 A 
ATOM     18  C   UNL A   1      27.383  30.193  22.608  1.00  0.00     0.003 A 
ATOM     19  C   UNL A   1      29.699  29.809  21.965  1.00  0.00     0.017 A 
ATOM     20  C   UNL A   1      27.320  28.907  23.117  1.00  0.00     0.001 A 
ATOM     21  C   UNL A   1      28.464  28.104  23.115  1.00  0.00     0.014 A 
ENDBRANCH  12  15
ENDBRANCH   6  11
BRANCH   8  22
ATOM     22  N   UNL A   1      32.747  25.704  25.879  1.00  0.00    -0.359 N 
ATOM     23  C   UNL A   1      31.846  24.536  26.011  1.00  0.00     0.178 C 
ATOM     24  C   UNL A   1      34.134  25.313  26.100  1.00  0.00     0.178 C 
ATOM     25  C   UNL A   1      32.353  23.322  25.150  1.00  0.00     0.284 C 
ATOM     26  C   UNL A   1      34.526  24.384  24.939  1.00  0.00     0.284 C 
ATOM     27  N   UNL A   1      33.809  23.109  24.961  1.00  0.00    -0.324 N 
ATOM     28  H   UNL A   1      33.887  22.682  24.038  1.00  0.00     0.348 HD
BRANCH  27  29
ATOM     29  C   UNL A   1      34.449  22.076  25.794  1.00  0.00     0.363 C 
BRANCH  29  30
ATOM     30  C   UNL A   1      35.268  21.034  25.046  1.00  0.00     0.275 C 
ATOM     31  O   UNL A   1      36.445  21.278  24.748  1.00  0.00    -0.268 OA
ATOM     32  N   UNL A   1      34.799  19.812  24.668  1.00  0.00    -0.347 N 
ATOM     33  H   UNL A   1      35.544  19.238  24.377  1.00  0.00     0.164 HD
BRANCH  32  34
ATOM     34  C   UNL A   1      33.509  19.073  24.557  1.00  0.00     0.032 C 
ATOM     35  C   UNL A   1      32.503  19.848  23.683  1.00  0.00     0.034 C 
ATOM     36  C   UNL A   1      33.822  17.765  23.796  1.00  0.00     0.034 C 
ATOM     37  C   UNL A   1      32.853  18.674  25.883  1.00  0.00     0.034 C 
ENDBRANCH  32  34
ENDBRANCH  29  30
ENDBRANCH  27  29
ENDBRANCH   8  22
ENDBRANCH   3   5
ENDBRANCH   2   3
ENDBRANCH   1   2
BRANCH   1  38
ATOM     38  C   UNL A   1      33.609  33.854  28.088  1.00  0.00     0.275 C 
BRANCH  38  39
ATOM     39  O   UNL A   1      33.658  33.632  29.527  1.00  0.00    -0.458 OA
BRANCH  39  40
ATOM     40  C   UNL A   1      34.556  34.030  30.459  1.00  0.00     0.338 C 
ATOM     41  O   UNL A   1      34.333  34.987  31.179  1.00  0.00    -0.246 OA
BRANCH  40  42
ATOM     42  C   UNL A   1      35.860  33.323  30.580  1.00  0.00     0.060 A 
ATOM     43  C   UNL A   1      36.869  33.564  29.622  1.00  0.00     0.016 A 
ATOM     44  C   UNL A   1      36.095  32.435  31.616  1.00  0.00     0.016 A 
ATOM     45  C   UNL A   1      38.126  32.955  29.731  1.00  0.00     0.010 A 
ATOM     46  C   UNL A   1      37.365  31.923  31.786  1.00  0.00     0.010 A 
ATOM     47  C   UNL A   1      38.375  32.129  30.822  1.00  0.00    -0.014 A 
BRANCH  47  48
ATOM     48  C   UNL A   1      39.493  31.190  30.960  1.00  0.00     0.031 A 
ATOM     49  C   UNL A   1      39.571  29.846  30.354  1.00  0.00     0.074 A 
ATOM     50  C   UNL A   1      40.593  31.788  31.472  1.00  0.00     0.049 A 
ATOM     51  N   UNL A   1      40.673  29.384  29.865  1.00  0.00    -0.248 NA
ATOM     52  C   UNL A   1      38.447  28.906  30.214  1.00  0.00     0.031 C 
ATOM     53  C   UNL A   1      41.994  31.400  31.448  1.00  0.00     0.029 A 
ATOM     54  N   UNL A   1      40.561  32.872  32.358  1.00  0.00    -0.354 N 
ATOM     55  C   UNL A   1      40.428  28.135  29.367  1.00  0.00     0.074 A 
ATOM     56  C   UNL A   1      39.013  27.891  29.534  1.00  0.00     0.031 C 
ATOM     57  C   UNL A   1      42.609  31.981  32.496  1.00  0.00     0.029 A 
ATOM     58  C   UNL A   1      41.568  32.615  33.296  1.00  0.00     0.049 A 
ATOM     59  H   UNL A   1      39.958  33.650  32.328  1.00  0.00     0.167 HD
ATOM     60  C   UNL A   1      41.448  27.256  29.204  1.00  0.00     0.031 A 
ATOM     61  C   UNL A   1      41.180  32.204  34.541  1.00  0.00     0.031 A 
ATOM     62  C   UNL A   1      42.483  27.508  30.183  1.00  0.00     0.049 A 
ATOM     63  C   UNL A   1      41.629  30.789  34.832  1.00  0.00     0.074 A 
ATOM     64  C   UNL A   1      43.651  28.246  30.220  1.00  0.00     0.029 A 
ATOM     65  N   UNL A   1      42.163  27.192  31.494  1.00  0.00    -0.354 N 
ATOM     66  N   UNL A   1      41.833  29.875  33.920  1.00  0.00    -0.248 NA
ATOM     67  C   UNL A   1      41.929  30.315  36.177  1.00  0.00     0.031 C 
ATOM     68  C   UNL A   1      43.953  28.485  31.595  1.00  0.00     0.029 A 
ATOM     69  C   UNL A   1      42.993  27.851  32.369  1.00  0.00     0.049 A 
ATOM     70  H   UNL A   1      41.441  26.579  31.761  1.00  0.00     0.167 HD
ATOM     71  C   UNL A   1      42.370  28.763  34.508  1.00  0.00     0.074 A 
ATOM     72  C   UNL A   1      42.379  29.074  35.927  1.00  0.00     0.031 C 
ATOM     73  C   UNL A   1      42.792  27.677  33.800  1.00  0.00     0.031 A 
BRANCH  60  74
ATOM     74  C   UNL A   1      41.596  26.429  27.962  1.00  0.00    -0.014 A 
ATOM     75  C   UNL A   1      42.342  25.234  28.027  1.00  0.00     0.009 A 
ATOM     76  C   UNL A   1      41.167  26.838  26.687  1.00  0.00     0.009 A 
ATOM     77  C   UNL A   1      42.674  24.506  26.878  1.00  0.00     0.001 A 
ATOM     78  C   UNL A   1      41.485  26.100  25.536  1.00  0.00     0.001 A 
ATOM     79  C   UNL A   1      42.248  24.942  25.629  1.00  0.00     0.000 A 
ENDBRANCH  60  74
BRANCH  61  80
ATOM     80  C   UNL A   1      39.900  32.835  35.012  1.00  0.00    -0.014 A 
ATOM     81  C   UNL A   1      38.756  32.009  35.129  1.00  0.00     0.009 A 
ATOM     82  C   UNL A   1      39.857  34.096  35.623  1.00  0.00     0.009 A 
ATOM     83  C   UNL A   1      37.661  32.380  35.915  1.00  0.00     0.001 A 
ATOM     84  C   UNL A   1      38.740  34.479  36.388  1.00  0.00     0.001 A 
ATOM     85  C   UNL A   1      37.660  33.611  36.560  1.00  0.00     0.000 A 
ENDBRANCH  61  80
BRANCH  73  86
ATOM     86  C   UNL A   1      43.078  26.321  34.391  1.00  0.00    -0.014 A 
ATOM     87  C   UNL A   1      42.154  25.608  35.165  1.00  0.00     0.009 A 
ATOM     88  C   UNL A   1      44.254  25.635  34.007  1.00  0.00     0.009 A 
ATOM     89  C   UNL A   1      42.412  24.296  35.578  1.00  0.00     0.001 A 
ATOM     90  C   UNL A   1      44.489  24.310  34.372  1.00  0.00     0.001 A 
ATOM     91  C   UNL A   1      43.571  23.643  35.172  1.00  0.00     0.000 A 
ENDBRANCH  73  86
ENDBRANCH  47  48
ENDBRANCH  40  42
ENDBRANCH  39  40
ENDBRANCH  38  39
ENDBRANCH   1  38
TORSDOF 17
ENDMDL
