MODEL 1
REMARK VINA RESULT:     -11.1      0.000      0.000
REMARK SMILES CCc1cccc(C)c1Nc1ccccc1CC(=O)OCCOC(=O)c1ccc(-c2c3nc(c(-c4ccccc4)c4ccc([nH]4)c(-c4ccccc4)c4nc(c(-c5ccccc5)c5ccc2[nH]5)C=C4)C=C3)cc1
REMARK SMILES IDX 21 1 20 2 18 3 19 4 17 5 16 6 11 7 12 8 13 9 15 10 14 11
REMARK SMILES IDX 10 12 9 14 3 15 4 16 5 17 7 18 6 19 8 20 2 21 1 22 22 23
REMARK SMILES IDX 23 24 24 25 25 26 26 27 27 28 73 29 28 30 72 31 29 32 30 33
REMARK SMILES IDX 31 34 66 35 32 36 71 37 65 38 67 39 33 40 70 41 64 42 63 43
REMARK SMILES IDX 34 45 56 46 41 47 55 48 42 49 45 50 54 51 68 52 43 53 44 54
REMARK SMILES IDX 53 56 69 57 46 58 35 59 36 60 40 61 37 62 39 63 38 64 57 65
REMARK SMILES IDX 58 66 62 67 59 68 61 69 60 70 47 71 48 72 52 73 49 74 51 75
REMARK SMILES IDX 50 76
REMARK H PARENT 10 13 67 44 45 55
REMARK Flexibility Score: inf
ROOT
ATOM      1  C   UNL A   1      33.483  26.707  26.072  1.00  0.00     0.274 C 
ENDROOT
BRANCH   1   2
ATOM      2  O   UNL A   1      34.286  25.890  25.224  1.00  0.00    -0.462 OA
BRANCH   2   3
ATOM      3  C   UNL A   1      34.375  24.564  25.498  1.00  0.00     0.310 C 
ATOM      4  O   UNL A   1      34.335  24.071  26.619  1.00  0.00    -0.252 OA
BRANCH   3   5
ATOM      5  C   UNL A   1      34.540  23.787  24.213  1.00  0.00     0.160 C 
BRANCH   5   6
ATOM      6  C   UNL A   1      34.133  22.341  24.343  1.00  0.00    -0.013 A 
ATOM      7  C   UNL A   1      32.840  21.874  24.011  1.00  0.00     0.042 A 
ATOM      8  C   UNL A   1      32.549  20.514  24.180  1.00  0.00     0.026 A 
ATOM      9  C   UNL A   1      33.534  19.612  24.577  1.00  0.00     0.002 A 
ATOM     10  C   UNL A   1      35.122  21.417  24.727  1.00  0.00     0.006 A 
ATOM     11  C   UNL A   1      34.825  20.060  24.834  1.00  0.00     0.000 A 
BRANCH   7  12
ATOM     12  N   UNL A   1      31.805  22.726  23.580  1.00  0.00    -0.355 N 
ATOM     13  H   UNL A   1      31.337  22.419  22.770  1.00  0.00     0.167 HD
BRANCH  12  14
ATOM     14  C   UNL A   1      31.319  23.949  24.109  1.00  0.00     0.045 A 
ATOM     15  C   UNL A   1      31.358  25.147  23.332  1.00  0.00    -0.024 A 
ATOM     16  C   UNL A   1      30.644  26.289  23.792  1.00  0.00     0.006 A 
ATOM     17  C   UNL A   1      29.972  26.307  25.001  1.00  0.00     0.001 A 
ATOM     18  C   UNL A   1      30.698  24.015  25.399  1.00  0.00    -0.027 A 
ATOM     19  C   UNL A   1      30.041  25.193  25.818  1.00  0.00     0.005 A 
ATOM     20  C   UNL A   1      30.629  22.873  26.384  1.00  0.00     0.046 C 
BRANCH  15  21
ATOM     21  C   UNL A   1      32.078  25.441  22.021  1.00  0.00     0.034 C 
ATOM     22  C   UNL A   1      32.991  26.632  21.806  1.00  0.00     0.009 C 
ENDBRANCH  15  21
ENDBRANCH  12  14
ENDBRANCH   7  12
ENDBRANCH   5   6
ENDBRANCH   3   5
ENDBRANCH   2   3
ENDBRANCH   1   2
BRANCH   1  23
ATOM     23  C   UNL A   1      33.942  28.182  26.026  1.00  0.00     0.275 C 
BRANCH  23  24
ATOM     24  O   UNL A   1      33.772  29.054  27.216  1.00  0.00    -0.458 OA
BRANCH  24  25
ATOM     25  C   UNL A   1      34.086  30.369  27.469  1.00  0.00     0.338 C 
ATOM     26  O   UNL A   1      33.392  31.313  27.198  1.00  0.00    -0.246 OA
BRANCH  25  27
ATOM     27  C   UNL A   1      35.401  30.590  28.058  1.00  0.00     0.060 A 
ATOM     28  C   UNL A   1      36.178  31.743  27.889  1.00  0.00     0.016 A 
ATOM     29  C   UNL A   1      35.803  29.570  28.881  1.00  0.00     0.016 A 
ATOM     30  C   UNL A   1      37.366  31.830  28.604  1.00  0.00     0.010 A 
ATOM     31  C   UNL A   1      36.663  29.858  29.879  1.00  0.00     0.010 A 
ATOM     32  C   UNL A   1      37.585  30.852  29.577  1.00  0.00    -0.014 A 
BRANCH  32  33
ATOM     33  C   UNL A   1      38.880  30.354  29.995  1.00  0.00     0.031 A 
ATOM     34  C   UNL A   1      39.475  29.265  29.236  1.00  0.00     0.074 A 
ATOM     35  C   UNL A   1      39.510  31.267  30.780  1.00  0.00     0.049 A 
ATOM     36  N   UNL A   1      40.126  28.289  29.760  1.00  0.00    -0.248 NA
ATOM     37  C   UNL A   1      39.314  29.159  27.781  1.00  0.00     0.031 C 
ATOM     38  C   UNL A   1      40.906  31.557  31.036  1.00  0.00     0.029 A 
ATOM     39  N   UNL A   1      38.855  32.250  31.530  1.00  0.00    -0.354 N 
ATOM     40  C   UNL A   1      40.824  27.745  28.707  1.00  0.00     0.074 A 
ATOM     41  C   UNL A   1      40.104  28.117  27.508  1.00  0.00     0.031 C 
ATOM     42  C   UNL A   1      40.983  32.412  32.084  1.00  0.00     0.029 A 
ATOM     43  C   UNL A   1      39.630  32.649  32.597  1.00  0.00     0.049 A 
ATOM     44  H   UNL A   1      37.962  32.609  31.322  1.00  0.00     0.167 HD
ATOM     45  C   UNL A   1      42.146  27.446  28.858  1.00  0.00     0.031 A 
ATOM     46  C   UNL A   1      39.117  32.313  33.817  1.00  0.00     0.031 A 
ATOM     47  C   UNL A   1      42.655  27.997  30.121  1.00  0.00     0.049 A 
ATOM     48  C   UNL A   1      39.854  31.092  34.302  1.00  0.00     0.074 A 
ATOM     49  C   UNL A   1      43.439  29.112  30.376  1.00  0.00     0.029 A 
ATOM     50  N   UNL A   1      42.068  27.652  31.337  1.00  0.00    -0.354 N 
ATOM     51  N   UNL A   1      40.415  30.222  33.509  1.00  0.00    -0.248 NA
ATOM     52  C   UNL A   1      40.065  30.798  35.710  1.00  0.00     0.031 C 
ATOM     53  C   UNL A   1      43.281  29.461  31.745  1.00  0.00     0.029 A 
ATOM     54  C   UNL A   1      42.390  28.572  32.320  1.00  0.00     0.049 A 
ATOM     55  H   UNL A   1      41.500  26.860  31.478  1.00  0.00     0.167 HD
ATOM     56  C   UNL A   1      41.134  29.339  34.249  1.00  0.00     0.074 A 
ATOM     57  C   UNL A   1      40.850  29.710  35.627  1.00  0.00     0.031 C 
ATOM     58  C   UNL A   1      41.929  28.385  33.689  1.00  0.00     0.031 A 
BRANCH  45  59
ATOM     59  C   UNL A   1      43.027  27.056  27.694  1.00  0.00    -0.014 A 
ATOM     60  C   UNL A   1      43.784  28.033  27.026  1.00  0.00     0.009 A 
ATOM     61  C   UNL A   1      43.177  25.733  27.236  1.00  0.00     0.009 A 
ATOM     62  C   UNL A   1      44.577  27.728  25.913  1.00  0.00     0.001 A 
ATOM     63  C   UNL A   1      43.944  25.424  26.102  1.00  0.00     0.001 A 
ATOM     64  C   UNL A   1      44.640  26.425  25.438  1.00  0.00     0.000 A 
ENDBRANCH  45  59
BRANCH  46  65
ATOM     65  C   UNL A   1      37.618  32.503  33.925  1.00  0.00    -0.014 A 
ATOM     66  C   UNL A   1      37.119  33.556  34.727  1.00  0.00     0.009 A 
ATOM     67  C   UNL A   1      36.710  31.872  33.058  1.00  0.00     0.009 A 
ATOM     68  C   UNL A   1      35.791  33.999  34.622  1.00  0.00     0.001 A 
ATOM     69  C   UNL A   1      35.374  32.305  32.968  1.00  0.00     0.001 A 
ATOM     70  C   UNL A   1      34.921  33.379  33.734  1.00  0.00     0.000 A 
ENDBRANCH  46  65
BRANCH  58  71
ATOM     71  C   UNL A   1      42.431  27.196  34.442  1.00  0.00    -0.014 A 
ATOM     72  C   UNL A   1      41.576  26.280  35.066  1.00  0.00     0.009 A 
ATOM     73  C   UNL A   1      43.800  26.869  34.369  1.00  0.00     0.009 A 
ATOM     74  C   UNL A   1      42.076  25.113  35.643  1.00  0.00     0.001 A 
ATOM     75  C   UNL A   1      44.293  25.677  34.890  1.00  0.00     0.001 A 
ATOM     76  C   UNL A   1      43.431  24.806  35.542  1.00  0.00     0.000 A 
ENDBRANCH  58  71
ENDBRANCH  32  33
ENDBRANCH  25  27
ENDBRANCH  24  25
ENDBRANCH  23  24
ENDBRANCH   1  23
TORSDOF 15
ENDMDL
MODEL 2
REMARK VINA RESULT:     -11.0      2.769      7.553
REMARK SMILES CCc1cccc(C)c1Nc1ccccc1CC(=O)OCCOC(=O)c1ccc(-c2c3nc(c(-c4ccccc4)c4ccc([nH]4)c(-c4ccccc4)c4nc(c(-c5ccccc5)c5ccc2[nH]5)C=C4)C=C3)cc1
REMARK SMILES IDX 21 1 20 2 18 3 19 4 17 5 16 6 11 7 12 8 13 9 15 10 14 11
REMARK SMILES IDX 10 12 9 14 3 15 4 16 5 17 7 18 6 19 8 20 2 21 1 22 22 23
REMARK SMILES IDX 23 24 24 25 25 26 26 27 27 28 73 29 28 30 72 31 29 32 30 33
REMARK SMILES IDX 31 34 66 35 32 36 71 37 65 38 67 39 33 40 70 41 64 42 63 43
REMARK SMILES IDX 34 45 56 46 41 47 55 48 42 49 45 50 54 51 68 52 43 53 44 54
REMARK SMILES IDX 53 56 69 57 46 58 35 59 36 60 40 61 37 62 39 63 38 64 57 65
REMARK SMILES IDX 58 66 62 67 59 68 61 69 60 70 47 71 48 72 52 73 49 74 51 75
REMARK SMILES IDX 50 76
REMARK H PARENT 10 13 67 44 45 55
REMARK Flexibility Score: inf
ROOT
ATOM      1  C   UNL A   1      37.131  22.024  25.261  1.00  0.00     0.274 C 
ENDROOT
BRANCH   1   2
ATOM      2  O   UNL A   1      37.010  23.321  24.682  1.00  0.00    -0.462 OA
BRANCH   2   3
ATOM      3  C   UNL A   1      35.782  23.740  24.287  1.00  0.00     0.310 C 
ATOM      4  O   UNL A   1      35.225  23.412  23.246  1.00  0.00    -0.252 OA
BRANCH   3   5
ATOM      5  C   UNL A   1      35.207  24.681  25.320  1.00  0.00     0.160 C 
BRANCH   5   6
ATOM      6  C   UNL A   1      33.918  24.178  25.922  1.00  0.00    -0.013 A 
ATOM      7  C   UNL A   1      32.646  24.614  25.485  1.00  0.00     0.042 A 
ATOM      8  C   UNL A   1      31.505  24.103  26.115  1.00  0.00     0.026 A 
ATOM      9  C   UNL A   1      31.604  23.113  27.090  1.00  0.00     0.002 A 
ATOM     10  C   UNL A   1      34.004  23.167  26.896  1.00  0.00     0.006 A 
ATOM     11  C   UNL A   1      32.852  22.633  27.469  1.00  0.00     0.000 A 
BRANCH   7  12
ATOM     12  N   UNL A   1      32.472  25.593  24.488  1.00  0.00    -0.355 N 
ATOM     13  H   UNL A   1      32.854  25.354  23.613  1.00  0.00     0.167 HD
BRANCH  12  14
ATOM     14  C   UNL A   1      31.842  26.864  24.523  1.00  0.00     0.045 A 
ATOM     15  C   UNL A   1      32.552  28.018  24.975  1.00  0.00    -0.024 A 
ATOM     16  C   UNL A   1      31.979  29.303  24.766  1.00  0.00     0.006 A 
ATOM     17  C   UNL A   1      30.724  29.476  24.208  1.00  0.00     0.001 A 
ATOM     18  C   UNL A   1      30.508  27.055  24.034  1.00  0.00    -0.027 A 
ATOM     19  C   UNL A   1      29.978  28.355  23.890  1.00  0.00     0.005 A 
ATOM     20  C   UNL A   1      29.585  25.946  23.586  1.00  0.00     0.046 C 
BRANCH  15  21
ATOM     21  C   UNL A   1      33.894  28.125  25.690  1.00  0.00     0.034 C 
ATOM     22  C   UNL A   1      34.065  28.692  27.085  1.00  0.00     0.009 C 
ENDBRANCH  15  21
ENDBRANCH  12  14
ENDBRANCH   7  12
ENDBRANCH   5   6
ENDBRANCH   3   5
ENDBRANCH   2   3
ENDBRANCH   1   2
BRANCH   1  23
ATOM     23  C   UNL A   1      38.582  21.746  25.715  1.00  0.00     0.275 C 
BRANCH  23  24
ATOM     24  O   UNL A   1      39.227  22.619  26.728  1.00  0.00    -0.458 OA
BRANCH  24  25
ATOM     25  C   UNL A   1      40.474  23.194  26.816  1.00  0.00     0.338 C 
ATOM     26  O   UNL A   1      41.517  22.597  26.772  1.00  0.00    -0.246 OA
BRANCH  25  27
ATOM     27  C   UNL A   1      40.477  24.633  27.041  1.00  0.00     0.060 A 
ATOM     28  C   UNL A   1      40.863  25.596  26.100  1.00  0.00     0.016 A 
ATOM     29  C   UNL A   1      39.986  24.990  28.271  1.00  0.00     0.016 A 
ATOM     30  C   UNL A   1      40.710  26.933  26.447  1.00  0.00     0.010 A 
ATOM     31  C   UNL A   1      39.422  26.208  28.402  1.00  0.00     0.010 A 
ATOM     32  C   UNL A   1      40.003  27.199  27.621  1.00  0.00    -0.014 A 
BRANCH  32  33
ATOM     33  C   UNL A   1      40.210  28.340  28.490  1.00  0.00     0.031 A 
ATOM     34  C   UNL A   1      39.129  29.302  28.631  1.00  0.00     0.074 A 
ATOM     35  C   UNL A   1      41.234  28.100  29.353  1.00  0.00     0.049 A 
ATOM     36  N   UNL A   1      39.298  30.574  28.705  1.00  0.00    -0.248 NA
ATOM     37  C   UNL A   1      37.721  28.888  28.633  1.00  0.00     0.031 C 
ATOM     38  C   UNL A   1      41.538  28.581  30.685  1.00  0.00     0.029 A 
ATOM     39  N   UNL A   1      42.273  27.195  29.113  1.00  0.00    -0.354 N 
ATOM     40  C   UNL A   1      38.110  31.043  29.218  1.00  0.00     0.074 A 
ATOM     41  C   UNL A   1      37.111  30.046  28.904  1.00  0.00     0.031 C 
ATOM     42  C   UNL A   1      42.805  28.210  30.996  1.00  0.00     0.029 A 
ATOM     43  C   UNL A   1      43.395  27.536  29.836  1.00  0.00     0.049 A 
ATOM     44  H   UNL A   1      42.211  26.420  28.509  1.00  0.00     0.167 HD
ATOM     45  C   UNL A   1      38.128  31.950  30.235  1.00  0.00     0.031 A 
ATOM     46  C   UNL A   1      44.453  27.938  29.073  1.00  0.00     0.031 A 
ATOM     47  C   UNL A   1      39.490  32.098  30.766  1.00  0.00     0.049 A 
ATOM     48  C   UNL A   1      44.504  29.442  29.118  1.00  0.00     0.074 A 
ATOM     49  C   UNL A   1      40.073  31.605  31.924  1.00  0.00     0.029 A 
ATOM     50  N   UNL A   1      40.544  32.472  29.933  1.00  0.00    -0.354 N 
ATOM     51  N   UNL A   1      43.461  30.197  29.331  1.00  0.00    -0.248 NA
ATOM     52  C   UNL A   1      45.738  30.201  28.989  1.00  0.00     0.031 C 
ATOM     53  C   UNL A   1      41.484  31.642  31.761  1.00  0.00     0.029 A 
ATOM     54  C   UNL A   1      41.763  32.141  30.500  1.00  0.00     0.049 A 
ATOM     55  H   UNL A   1      40.435  32.911  29.060  1.00  0.00     0.167 HD
ATOM     56  C   UNL A   1      43.862  31.486  29.477  1.00  0.00     0.074 A 
ATOM     57  C   UNL A   1      45.292  31.450  29.210  1.00  0.00     0.031 C 
ATOM     58  C   UNL A   1      43.009  32.487  29.830  1.00  0.00     0.031 A 
BRANCH  45  59
ATOM     59  C   UNL A   1      36.882  32.342  30.994  1.00  0.00    -0.014 A 
ATOM     60  C   UNL A   1      35.943  33.208  30.408  1.00  0.00     0.009 A 
ATOM     61  C   UNL A   1      36.564  31.858  32.278  1.00  0.00     0.009 A 
ATOM     62  C   UNL A   1      34.798  33.636  31.090  1.00  0.00     0.001 A 
ATOM     63  C   UNL A   1      35.436  32.308  32.981  1.00  0.00     0.001 A 
ATOM     64  C   UNL A   1      34.555  33.202  32.386  1.00  0.00     0.000 A 
ENDBRANCH  45  59
BRANCH  46  65
ATOM     65  C   UNL A   1      44.648  27.116  27.816  1.00  0.00    -0.014 A 
ATOM     66  C   UNL A   1      44.688  25.704  27.922  1.00  0.00     0.009 A 
ATOM     67  C   UNL A   1      44.513  27.657  26.527  1.00  0.00     0.009 A 
ATOM     68  C   UNL A   1      44.537  24.875  26.800  1.00  0.00     0.001 A 
ATOM     69  C   UNL A   1      44.381  26.823  25.401  1.00  0.00     0.001 A 
ATOM     70  C   UNL A   1      44.372  25.435  25.540  1.00  0.00     0.000 A 
ENDBRANCH  46  65
BRANCH  58  71
ATOM     71  C   UNL A   1      43.328  33.934  29.645  1.00  0.00    -0.014 A 
ATOM     72  C   UNL A   1      43.240  34.577  28.405  1.00  0.00     0.009 A 
ATOM     73  C   UNL A   1      43.545  34.737  30.784  1.00  0.00     0.009 A 
ATOM     74  C   UNL A   1      43.416  35.956  28.299  1.00  0.00     0.001 A 
ATOM     75  C   UNL A   1      43.660  36.120  30.688  1.00  0.00     0.001 A 
ATOM     76  C   UNL A   1      43.612  36.727  29.441  1.00  0.00     0.000 A 
ENDBRANCH  58  71
ENDBRANCH  32  33
ENDBRANCH  25  27
ENDBRANCH  24  25
ENDBRANCH  23  24
ENDBRANCH   1  23
TORSDOF 15
ENDMDL
MODEL 3
REMARK VINA RESULT:     -11.0      1.378      3.177
REMARK SMILES CCc1cccc(C)c1Nc1ccccc1CC(=O)OCCOC(=O)c1ccc(-c2c3nc(c(-c4ccccc4)c4ccc([nH]4)c(-c4ccccc4)c4nc(c(-c5ccccc5)c5ccc2[nH]5)C=C4)C=C3)cc1
REMARK SMILES IDX 21 1 20 2 18 3 19 4 17 5 16 6 11 7 12 8 13 9 15 10 14 11
REMARK SMILES IDX 10 12 9 14 3 15 4 16 5 17 7 18 6 19 8 20 2 21 1 22 22 23
REMARK SMILES IDX 23 24 24 25 25 26 26 27 27 28 73 29 28 30 72 31 29 32 30 33
REMARK SMILES IDX 31 34 66 35 32 36 71 37 65 38 67 39 33 40 70 41 64 42 63 43
REMARK SMILES IDX 34 45 56 46 41 47 55 48 42 49 45 50 54 51 68 52 43 53 44 54
REMARK SMILES IDX 53 56 69 57 46 58 35 59 36 60 40 61 37 62 39 63 38 64 57 65
REMARK SMILES IDX 58 66 62 67 59 68 61 69 60 70 47 71 48 72 52 73 49 74 51 75
REMARK SMILES IDX 50 76
REMARK H PARENT 10 13 67 44 45 55
REMARK Flexibility Score: inf
ROOT
ATOM      1  C   UNL A   1      33.645  28.671  23.675  1.00  0.00     0.274 C 
ENDROOT
BRANCH   1   2
ATOM      2  O   UNL A   1      33.956  27.280  23.671  1.00  0.00    -0.462 OA
BRANCH   2   3
ATOM      3  C   UNL A   1      33.740  26.573  22.534  1.00  0.00     0.310 C 
ATOM      4  O   UNL A   1      33.592  27.057  21.418  1.00  0.00    -0.252 OA
BRANCH   3   5
ATOM      5  C   UNL A   1      33.701  25.096  22.851  1.00  0.00     0.160 C 
BRANCH   5   6
ATOM      6  C   UNL A   1      33.104  24.800  24.204  1.00  0.00    -0.013 A 
ATOM      7  C   UNL A   1      33.881  24.390  25.312  1.00  0.00     0.042 A 
ATOM      8  C   UNL A   1      33.236  24.122  26.526  1.00  0.00     0.026 A 
ATOM      9  C   UNL A   1      31.868  24.341  26.678  1.00  0.00     0.002 A 
ATOM     10  C   UNL A   1      31.727  25.033  24.375  1.00  0.00     0.006 A 
ATOM     11  C   UNL A   1      31.117  24.813  25.607  1.00  0.00     0.000 A 
BRANCH   7  12
ATOM     12  N   UNL A   1      35.270  24.173  25.236  1.00  0.00    -0.355 N 
ATOM     13  H   UNL A   1      35.802  24.990  25.097  1.00  0.00     0.167 HD
BRANCH  12  14
ATOM     14  C   UNL A   1      36.038  22.983  25.327  1.00  0.00     0.045 A 
ATOM     15  C   UNL A   1      35.493  21.730  24.910  1.00  0.00    -0.024 A 
ATOM     16  C   UNL A   1      36.362  20.611  24.781  1.00  0.00     0.006 A 
ATOM     17  C   UNL A   1      37.704  20.670  25.115  1.00  0.00     0.001 A 
ATOM     18  C   UNL A   1      37.405  23.002  25.756  1.00  0.00    -0.027 A 
ATOM     19  C   UNL A   1      38.207  21.846  25.644  1.00  0.00     0.005 A 
ATOM     20  C   UNL A   1      38.124  24.215  26.297  1.00  0.00     0.046 C 
BRANCH  15  21
ATOM     21  C   UNL A   1      34.057  21.354  24.562  1.00  0.00     0.034 C 
ATOM     22  C   UNL A   1      33.539  19.929  24.542  1.00  0.00     0.009 C 
ENDBRANCH  15  21
ENDBRANCH  12  14
ENDBRANCH   7  12
ENDBRANCH   5   6
ENDBRANCH   3   5
ENDBRANCH   2   3
ENDBRANCH   1   2
BRANCH   1  23
ATOM     23  C   UNL A   1      33.007  29.099  25.017  1.00  0.00     0.275 C 
BRANCH  23  24
ATOM     24  O   UNL A   1      33.867  29.452  26.173  1.00  0.00    -0.458 OA
BRANCH  24  25
ATOM     25  C   UNL A   1      33.819  30.463  27.106  1.00  0.00     0.338 C 
ATOM     26  O   UNL A   1      32.853  31.137  27.350  1.00  0.00    -0.246 OA
BRANCH  25  27
ATOM     27  C   UNL A   1      35.079  30.741  27.782  1.00  0.00     0.060 A 
ATOM     28  C   UNL A   1      35.784  31.950  27.710  1.00  0.00     0.016 A 
ATOM     29  C   UNL A   1      35.503  29.712  28.583  1.00  0.00     0.016 A 
ATOM     30  C   UNL A   1      36.920  32.081  28.499  1.00  0.00     0.010 A 
ATOM     31  C   UNL A   1      36.282  30.009  29.643  1.00  0.00     0.010 A 
ATOM     32  C   UNL A   1      37.150  31.075  29.440  1.00  0.00    -0.014 A 
BRANCH  32  33
ATOM     33  C   UNL A   1      38.449  30.644  29.914  1.00  0.00     0.031 A 
ATOM     34  C   UNL A   1      39.091  29.527  29.239  1.00  0.00     0.074 A 
ATOM     35  C   UNL A   1      39.037  31.625  30.650  1.00  0.00     0.049 A 
ATOM     36  N   UNL A   1      39.759  28.607  29.838  1.00  0.00    -0.248 NA
ATOM     37  C   UNL A   1      38.964  29.322  27.791  1.00  0.00     0.031 C 
ATOM     38  C   UNL A   1      40.418  31.973  30.912  1.00  0.00     0.029 A 
ATOM     39  N   UNL A   1      38.339  32.634  31.321  1.00  0.00    -0.354 N 
ATOM     40  C   UNL A   1      40.494  28.017  28.835  1.00  0.00     0.074 A 
ATOM     41  C   UNL A   1      39.789  28.289  27.602  1.00  0.00     0.031 C 
ATOM     42  C   UNL A   1      40.449  32.896  31.904  1.00  0.00     0.029 A 
ATOM     43  C   UNL A   1      39.079  33.124  32.374  1.00  0.00     0.049 A 
ATOM     44  H   UNL A   1      37.440  32.952  31.074  1.00  0.00     0.167 HD
ATOM     45  C   UNL A   1      41.821  27.768  29.030  1.00  0.00     0.031 A 
ATOM     46  C   UNL A   1      38.552  32.852  33.604  1.00  0.00     0.031 A 
ATOM     47  C   UNL A   1      42.288  28.415  30.264  1.00  0.00     0.049 A 
ATOM     48  C   UNL A   1      39.313  31.689  34.181  1.00  0.00     0.074 A 
ATOM     49  C   UNL A   1      43.033  29.568  30.461  1.00  0.00     0.029 A 
ATOM     50  N   UNL A   1      41.686  28.132  31.489  1.00  0.00    -0.354 N 
ATOM     51  N   UNL A   1      39.915  30.786  33.457  1.00  0.00    -0.248 NA
ATOM     52  C   UNL A   1      39.504  31.492  35.610  1.00  0.00     0.031 C 
ATOM     53  C   UNL A   1      42.838  30.000  31.800  1.00  0.00     0.029 A 
ATOM     54  C   UNL A   1      41.961  29.123  32.416  1.00  0.00     0.049 A 
ATOM     55  H   UNL A   1      41.139  27.334  31.671  1.00  0.00     0.167 HD
ATOM     56  C   UNL A   1      40.644  29.975  34.267  1.00  0.00     0.074 A 
ATOM     57  C   UNL A   1      40.321  30.425  35.612  1.00  0.00     0.031 C 
ATOM     58  C   UNL A   1      41.478  29.012  33.785  1.00  0.00     0.031 A 
BRANCH  45  59
ATOM     59  C   UNL A   1      42.736  27.331  27.911  1.00  0.00    -0.014 A 
ATOM     60  C   UNL A   1      43.350  28.290  27.088  1.00  0.00     0.009 A 
ATOM     61  C   UNL A   1      43.059  25.986  27.645  1.00  0.00     0.009 A 
ATOM     62  C   UNL A   1      44.167  27.931  26.009  1.00  0.00     0.001 A 
ATOM     63  C   UNL A   1      43.851  25.617  26.547  1.00  0.00     0.001 A 
ATOM     64  C   UNL A   1      44.401  26.592  25.726  1.00  0.00     0.000 A 
ENDBRANCH  45  59
BRANCH  46  65
ATOM     65  C   UNL A   1      37.046  33.004  33.671  1.00  0.00    -0.014 A 
ATOM     66  C   UNL A   1      36.502  34.162  34.275  1.00  0.00     0.009 A 
ATOM     67  C   UNL A   1      36.170  32.199  32.924  1.00  0.00     0.009 A 
ATOM     68  C   UNL A   1      35.161  34.531  34.089  1.00  0.00     0.001 A 
ATOM     69  C   UNL A   1      34.820  32.561  32.755  1.00  0.00     0.001 A 
ATOM     70  C   UNL A   1      34.322  33.735  33.320  1.00  0.00     0.000 A 
ENDBRANCH  46  65
BRANCH  58  71
ATOM     71  C   UNL A   1      41.998  27.889  34.623  1.00  0.00    -0.014 A 
ATOM     72  C   UNL A   1      43.020  28.058  35.565  1.00  0.00     0.009 A 
ATOM     73  C   UNL A   1      41.319  26.654  34.608  1.00  0.00     0.009 A 
ATOM     74  C   UNL A   1      43.384  27.019  36.420  1.00  0.00     0.001 A 
ATOM     75  C   UNL A   1      41.641  25.636  35.501  1.00  0.00     0.001 A 
ATOM     76  C   UNL A   1      42.686  25.815  36.396  1.00  0.00     0.000 A 
ENDBRANCH  58  71
ENDBRANCH  32  33
ENDBRANCH  25  27
ENDBRANCH  24  25
ENDBRANCH  23  24
ENDBRANCH   1  23
TORSDOF 15
ENDMDL
