MODEL 1
REMARK VINA RESULT:      -9.6      0.000      0.000
REMARK SMILES O=C(OCCOC(=O)[C@H]1CCC(=O)N1Cc1ccco1)c1ccc(-c2c3nc(c(-c4ccccc4)c4ccc([nH]4)c(-c4ccccc4)c4nc(c(-c5ccccc5)c5ccc2[nH]5)C=C4)C=C3)cc1
REMARK SMILES IDX 4 1 3 2 2 3 1 4 21 5 22 6 68 7 23 8 67 9 24 10 25 11 26 12
REMARK SMILES IDX 61 13 27 14 66 15 60 16 62 17 28 18 65 19 59 20 58 21 29 23
REMARK SMILES IDX 51 24 36 25 50 26 37 27 40 28 49 29 63 30 38 31 39 32 48 34
REMARK SMILES IDX 64 35 41 36 30 37 31 38 35 39 32 40 34 41 33 42 52 43 53 44
REMARK SMILES IDX 57 45 54 46 56 47 55 48 42 49 43 50 47 51 44 52 46 53 45 54
REMARK SMILES IDX 5 55 6 56 7 57 8 58 9 59 10 60 14 61 11 62 12 63 13 64 15 65
REMARK SMILES IDX 16 66 17 67 20 68 18 69 19 70
REMARK H PARENT 62 22 40 33
REMARK Flexibility Score: inf
ROOT
ATOM      1  C   UNL A   1      34.162  32.808  27.999  1.00  0.00     0.275 C 
ENDROOT
BRANCH   1   2
ATOM      2  O   UNL A   1      34.164  31.495  28.569  1.00  0.00    -0.458 OA
BRANCH   2   3
ATOM      3  C   UNL A   1      34.457  30.503  27.688  1.00  0.00     0.338 C 
ATOM      4  O   UNL A   1      33.691  29.987  26.898  1.00  0.00    -0.246 OA
BRANCH   3   5
ATOM      5  C   UNL A   1      35.783  29.943  28.057  1.00  0.00     0.060 A 
ATOM      6  C   UNL A   1      36.875  30.097  27.197  1.00  0.00     0.016 A 
ATOM      7  C   UNL A   1      35.974  29.441  29.352  1.00  0.00     0.016 A 
ATOM      8  C   UNL A   1      38.150  29.780  27.632  1.00  0.00     0.010 A 
ATOM      9  C   UNL A   1      37.261  29.165  29.808  1.00  0.00     0.010 A 
ATOM     10  C   UNL A   1      38.346  29.317  28.936  1.00  0.00    -0.014 A 
BRANCH  10  11
ATOM     11  C   UNL A   1      39.688  28.821  29.276  1.00  0.00     0.031 A 
ATOM     12  C   UNL A   1      40.479  29.614  30.268  1.00  0.00     0.074 A 
ATOM     13  C   UNL A   1      40.105  27.631  28.815  1.00  0.00     0.049 A 
ATOM     14  N   UNL A   1      41.565  29.280  30.909  1.00  0.00    -0.248 NA
ATOM     15  C   UNL A   1      39.967  30.956  30.595  1.00  0.00     0.031 C 
ATOM     16  C   UNL A   1      39.384  26.792  27.854  1.00  0.00     0.029 A 
ATOM     17  N   UNL A   1      41.226  26.908  29.117  1.00  0.00    -0.354 N 
ATOM     18  C   UNL A   1      41.850  30.363  31.729  1.00  0.00     0.074 A 
ATOM     19  C   UNL A   1      40.867  31.384  31.461  1.00  0.00     0.031 C 
ATOM     20  C   UNL A   1      40.081  25.662  27.652  1.00  0.00     0.029 A 
ATOM     21  C   UNL A   1      41.288  25.697  28.472  1.00  0.00     0.049 A 
ATOM     22  H   UNL A   1      41.922  27.225  29.738  1.00  0.00     0.167 HD
ATOM     23  C   UNL A   1      42.835  30.482  32.646  1.00  0.00     0.031 A 
ATOM     24  C   UNL A   1      42.216  24.726  28.556  1.00  0.00     0.031 A 
ATOM     25  C   UNL A   1      43.820  29.468  32.871  1.00  0.00     0.049 A 
ATOM     26  C   UNL A   1      43.337  24.898  29.546  1.00  0.00     0.074 A 
ATOM     27  C   UNL A   1      44.875  29.465  33.763  1.00  0.00     0.029 A 
ATOM     28  N   UNL A   1      43.873  28.270  32.170  1.00  0.00    -0.354 N 
ATOM     29  N   UNL A   1      43.556  25.892  30.375  1.00  0.00    -0.248 NA
ATOM     30  C   UNL A   1      44.321  23.811  29.632  1.00  0.00     0.031 C 
ATOM     31  C   UNL A   1      45.596  28.282  33.565  1.00  0.00     0.029 A 
ATOM     32  C   UNL A   1      44.961  27.529  32.586  1.00  0.00     0.049 A 
ATOM     33  H   UNL A   1      43.231  27.991  31.478  1.00  0.00     0.167 HD
ATOM     34  C   UNL A   1      44.688  25.544  31.098  1.00  0.00     0.074 A 
ATOM     35  C   UNL A   1      45.103  24.239  30.615  1.00  0.00     0.031 C 
ATOM     36  C   UNL A   1      45.330  26.233  32.075  1.00  0.00     0.031 A 
BRANCH  23  37
ATOM     37  C   UNL A   1      42.884  31.775  33.405  1.00  0.00    -0.014 A 
ATOM     38  C   UNL A   1      43.604  32.879  32.917  1.00  0.00     0.009 A 
ATOM     39  C   UNL A   1      42.280  31.862  34.668  1.00  0.00     0.009 A 
ATOM     40  C   UNL A   1      43.767  34.021  33.703  1.00  0.00     0.001 A 
ATOM     41  C   UNL A   1      42.422  33.016  35.440  1.00  0.00     0.001 A 
ATOM     42  C   UNL A   1      43.178  34.087  34.965  1.00  0.00     0.000 A 
ENDBRANCH  23  37
BRANCH  24  43
ATOM     43  C   UNL A   1      42.104  23.518  27.696  1.00  0.00    -0.014 A 
ATOM     44  C   UNL A   1      42.719  23.460  26.437  1.00  0.00     0.009 A 
ATOM     45  C   UNL A   1      41.399  22.394  28.156  1.00  0.00     0.009 A 
ATOM     46  C   UNL A   1      42.619  22.307  25.652  1.00  0.00     0.001 A 
ATOM     47  C   UNL A   1      41.318  21.236  27.379  1.00  0.00     0.001 A 
ATOM     48  C   UNL A   1      41.923  21.195  26.126  1.00  0.00     0.000 A 
ENDBRANCH  24  43
BRANCH  36  49
ATOM     49  C   UNL A   1      46.531  25.583  32.695  1.00  0.00    -0.014 A 
ATOM     50  C   UNL A   1      47.821  25.859  32.224  1.00  0.00     0.009 A 
ATOM     51  C   UNL A   1      46.369  24.766  33.824  1.00  0.00     0.009 A 
ATOM     52  C   UNL A   1      48.933  25.317  32.868  1.00  0.00     0.001 A 
ATOM     53  C   UNL A   1      47.484  24.245  34.480  1.00  0.00     0.001 A 
ATOM     54  C   UNL A   1      48.763  24.518  34.000  1.00  0.00     0.000 A 
ENDBRANCH  36  49
ENDBRANCH  10  11
ENDBRANCH   3   5
ENDBRANCH   2   3
ENDBRANCH   1   2
BRANCH   1  55
ATOM     55  C   UNL A   1      35.355  33.638  28.509  1.00  0.00     0.274 C 
BRANCH  55  56
ATOM     56  O   UNL A   1      35.338  33.766  29.948  1.00  0.00    -0.461 OA
BRANCH  56  57
ATOM     57  C   UNL A   1      36.255  33.083  30.690  1.00  0.00     0.329 C 
ATOM     58  O   UNL A   1      37.432  32.949  30.391  1.00  0.00    -0.250 OA
BRANCH  57  59
ATOM     59  C   UNL A   1      35.534  32.378  31.858  1.00  0.00     0.196 C 
ATOM     60  C   UNL A   1      36.472  31.343  32.474  1.00  0.00     0.047 C 
ATOM     61  N   UNL A   1      35.170  33.191  33.005  1.00  0.00    -0.321 N 
ATOM     62  C   UNL A   1      37.174  32.123  33.581  1.00  0.00     0.103 C 
ATOM     63  C   UNL A   1      36.095  33.074  34.034  1.00  0.00     0.223 C 
ATOM     64  O   UNL A   1      36.031  33.585  35.139  1.00  0.00    -0.275 OA
BRANCH  61  65
ATOM     65  C   UNL A   1      33.837  33.714  33.251  1.00  0.00     0.195 C 
BRANCH  65  66
ATOM     66  C   UNL A   1      33.600  35.101  32.782  1.00  0.00     0.123 A 
ATOM     67  C   UNL A   1      34.062  36.321  33.239  1.00  0.00     0.047 A 
ATOM     68  O   UNL A   1      32.901  35.279  31.625  1.00  0.00    -0.467 OA
ATOM     69  C   UNL A   1      33.604  37.296  32.325  1.00  0.00     0.042 A 
ATOM     70  C   UNL A   1      32.907  36.611  31.358  1.00  0.00     0.195 A 
ENDBRANCH  65  66
ENDBRANCH  61  65
ENDBRANCH  57  59
ENDBRANCH  56  57
ENDBRANCH  55  56
ENDBRANCH   1  55
TORSDOF 13
ENDMDL
MODEL 2
REMARK VINA RESULT:      -9.5      6.009     11.317
REMARK SMILES O=C(OCCOC(=O)[C@H]1CCC(=O)N1Cc1ccco1)c1ccc(-c2c3nc(c(-c4ccccc4)c4ccc([nH]4)c(-c4ccccc4)c4nc(c(-c5ccccc5)c5ccc2[nH]5)C=C4)C=C3)cc1
REMARK SMILES IDX 4 1 3 2 2 3 1 4 21 5 22 6 68 7 23 8 67 9 24 10 25 11 26 12
REMARK SMILES IDX 61 13 27 14 66 15 60 16 62 17 28 18 65 19 59 20 58 21 29 23
REMARK SMILES IDX 51 24 36 25 50 26 37 27 40 28 49 29 63 30 38 31 39 32 48 34
REMARK SMILES IDX 64 35 41 36 30 37 31 38 35 39 32 40 34 41 33 42 52 43 53 44
REMARK SMILES IDX 57 45 54 46 56 47 55 48 42 49 43 50 47 51 44 52 46 53 45 54
REMARK SMILES IDX 5 55 6 56 7 57 8 58 9 59 10 60 14 61 11 62 12 63 13 64 15 65
REMARK SMILES IDX 16 66 17 67 20 68 18 69 19 70
REMARK H PARENT 62 22 40 33
REMARK Flexibility Score: inf
ROOT
ATOM      1  C   UNL A   1      37.316  20.982  25.086  1.00  0.00     0.275 C 
ENDROOT
BRANCH   1   2
ATOM      2  O   UNL A   1      37.974  21.921  25.943  1.00  0.00    -0.458 OA
BRANCH   2   3
ATOM      3  C   UNL A   1      39.276  21.628  26.198  1.00  0.00     0.338 C 
ATOM      4  O   UNL A   1      39.761  20.518  26.308  1.00  0.00    -0.246 OA
BRANCH   3   5
ATOM      5  C   UNL A   1      39.949  22.882  26.625  1.00  0.00     0.060 A 
ATOM      6  C   UNL A   1      39.484  24.119  26.167  1.00  0.00     0.016 A 
ATOM      7  C   UNL A   1      40.918  22.826  27.637  1.00  0.00     0.016 A 
ATOM      8  C   UNL A   1      39.959  25.290  26.732  1.00  0.00     0.010 A 
ATOM      9  C   UNL A   1      41.363  24.001  28.240  1.00  0.00     0.010 A 
ATOM     10  C   UNL A   1      40.894  25.234  27.770  1.00  0.00    -0.014 A 
BRANCH  10  11
ATOM     11  C   UNL A   1      41.497  26.505  28.198  1.00  0.00     0.031 A 
ATOM     12  C   UNL A   1      42.833  26.855  27.625  1.00  0.00     0.074 A 
ATOM     13  C   UNL A   1      40.795  27.364  28.955  1.00  0.00     0.049 A 
ATOM     14  N   UNL A   1      43.465  27.996  27.647  1.00  0.00    -0.248 NA
ATOM     15  C   UNL A   1      43.547  25.777  26.917  1.00  0.00     0.031 C 
ATOM     16  C   UNL A   1      39.478  27.100  29.541  1.00  0.00     0.029 A 
ATOM     17  N   UNL A   1      41.082  28.645  29.337  1.00  0.00    -0.354 N 
ATOM     18  C   UNL A   1      44.637  27.776  26.938  1.00  0.00     0.074 A 
ATOM     19  C   UNL A   1      44.662  26.386  26.555  1.00  0.00     0.031 C 
ATOM     20  C   UNL A   1      39.069  28.195  30.204  1.00  0.00     0.029 A 
ATOM     21  C   UNL A   1      40.089  29.231  30.083  1.00  0.00     0.049 A 
ATOM     22  H   UNL A   1      41.921  29.104  29.100  1.00  0.00     0.167 HD
ATOM     23  C   UNL A   1      45.599  28.668  26.613  1.00  0.00     0.031 A 
ATOM     24  C   UNL A   1      40.017  30.475  30.591  1.00  0.00     0.031 A 
ATOM     25  C   UNL A   1      45.569  30.037  27.034  1.00  0.00     0.049 A 
ATOM     26  C   UNL A   1      41.123  31.443  30.263  1.00  0.00     0.074 A 
ATOM     27  C   UNL A   1      46.482  31.043  26.781  1.00  0.00     0.029 A 
ATOM     28  N   UNL A   1      44.564  30.584  27.821  1.00  0.00    -0.354 N 
ATOM     29  N   UNL A   1      42.191  31.250  29.525  1.00  0.00    -0.248 NA
ATOM     30  C   UNL A   1      41.005  32.799  30.812  1.00  0.00     0.031 C 
ATOM     31  C   UNL A   1      46.050  32.188  27.458  1.00  0.00     0.029 A 
ATOM     32  C   UNL A   1      44.846  31.908  28.091  1.00  0.00     0.049 A 
ATOM     33  H   UNL A   1      43.769  30.099  28.140  1.00  0.00     0.167 HD
ATOM     34  C   UNL A   1      42.863  32.463  29.500  1.00  0.00     0.074 A 
ATOM     35  C   UNL A   1      42.073  33.390  30.290  1.00  0.00     0.031 C 
ATOM     36  C   UNL A   1      44.025  32.790  28.881  1.00  0.00     0.031 A 
BRANCH  23  37
ATOM     37  C   UNL A   1      46.752  28.141  25.813  1.00  0.00    -0.014 A 
ATOM     38  C   UNL A   1      46.701  28.091  24.408  1.00  0.00     0.009 A 
ATOM     39  C   UNL A   1      47.866  27.600  26.472  1.00  0.00     0.009 A 
ATOM     40  C   UNL A   1      47.715  27.459  23.686  1.00  0.00     0.001 A 
ATOM     41  C   UNL A   1      48.890  26.993  25.744  1.00  0.00     0.001 A 
ATOM     42  C   UNL A   1      48.807  26.908  24.355  1.00  0.00     0.000 A 
ENDBRANCH  23  37
BRANCH  24  43
ATOM     43  C   UNL A   1      38.857  30.864  31.436  1.00  0.00    -0.014 A 
ATOM     44  C   UNL A   1      37.687  31.392  30.870  1.00  0.00     0.009 A 
ATOM     45  C   UNL A   1      38.908  30.674  32.827  1.00  0.00     0.009 A 
ATOM     46  C   UNL A   1      36.599  31.733  31.681  1.00  0.00     0.001 A 
ATOM     47  C   UNL A   1      37.812  30.995  33.631  1.00  0.00     0.001 A 
ATOM     48  C   UNL A   1      36.661  31.529  33.059  1.00  0.00     0.000 A 
ENDBRANCH  24  43
BRANCH  36  49
ATOM     49  C   UNL A   1      44.499  34.206  29.019  1.00  0.00    -0.014 A 
ATOM     50  C   UNL A   1      45.379  34.573  30.046  1.00  0.00     0.009 A 
ATOM     51  C   UNL A   1      44.136  35.154  28.050  1.00  0.00     0.009 A 
ATOM     52  C   UNL A   1      45.881  35.873  30.107  1.00  0.00     0.001 A 
ATOM     53  C   UNL A   1      44.658  36.446  28.101  1.00  0.00     0.001 A 
ATOM     54  C   UNL A   1      45.526  36.805  29.130  1.00  0.00     0.000 A 
ENDBRANCH  36  49
ENDBRANCH  10  11
ENDBRANCH   3   5
ENDBRANCH   2   3
ENDBRANCH   1   2
BRANCH   1  55
ATOM     55  C   UNL A   1      35.933  21.500  24.650  1.00  0.00     0.274 C 
BRANCH  55  56
ATOM     56  O   UNL A   1      34.892  20.537  24.922  1.00  0.00    -0.461 OA
BRANCH  56  57
ATOM     57  C   UNL A   1      33.922  20.841  25.829  1.00  0.00     0.329 C 
ATOM     58  O   UNL A   1      34.128  21.136  26.997  1.00  0.00    -0.250 OA
BRANCH  57  59
ATOM     59  C   UNL A   1      32.539  20.590  25.192  1.00  0.00     0.196 C 
ATOM     60  C   UNL A   1      31.710  21.871  25.275  1.00  0.00     0.047 C 
ATOM     61  N   UNL A   1      32.504  20.287  23.772  1.00  0.00    -0.321 N 
ATOM     62  C   UNL A   1      32.019  22.572  23.956  1.00  0.00     0.103 C 
ATOM     63  C   UNL A   1      32.204  21.410  23.013  1.00  0.00     0.223 C 
ATOM     64  O   UNL A   1      32.045  21.457  21.805  1.00  0.00    -0.275 OA
BRANCH  61  65
ATOM     65  C   UNL A   1      32.364  18.950  23.221  1.00  0.00     0.195 C 
BRANCH  65  66
ATOM     66  C   UNL A   1      32.875  17.852  24.077  1.00  0.00     0.123 A 
ATOM     67  C   UNL A   1      34.107  17.229  24.140  1.00  0.00     0.047 A 
ATOM     68  O   UNL A   1      32.079  17.399  25.087  1.00  0.00    -0.467 OA
ATOM     69  C   UNL A   1      34.053  16.334  25.233  1.00  0.00     0.042 A 
ATOM     70  C   UNL A   1      32.800  16.479  25.779  1.00  0.00     0.195 A 
ENDBRANCH  65  66
ENDBRANCH  61  65
ENDBRANCH  57  59
ENDBRANCH  56  57
ENDBRANCH  55  56
ENDBRANCH   1  55
TORSDOF 13
ENDMDL
MODEL 3
REMARK VINA RESULT:      -9.5      1.320      6.435
REMARK SMILES O=C(OCCOC(=O)[C@H]1CCC(=O)N1Cc1ccco1)c1ccc(-c2c3nc(c(-c4ccccc4)c4ccc([nH]4)c(-c4ccccc4)c4nc(c(-c5ccccc5)c5ccc2[nH]5)C=C4)C=C3)cc1
REMARK SMILES IDX 4 1 3 2 2 3 1 4 21 5 22 6 68 7 23 8 67 9 24 10 25 11 26 12
REMARK SMILES IDX 61 13 27 14 66 15 60 16 62 17 28 18 65 19 59 20 58 21 29 23
REMARK SMILES IDX 51 24 36 25 50 26 37 27 40 28 49 29 63 30 38 31 39 32 48 34
REMARK SMILES IDX 64 35 41 36 30 37 31 38 35 39 32 40 34 41 33 42 52 43 53 44
REMARK SMILES IDX 57 45 54 46 56 47 55 48 42 49 43 50 47 51 44 52 46 53 45 54
REMARK SMILES IDX 5 55 6 56 7 57 8 58 9 59 10 60 14 61 11 62 12 63 13 64 15 65
REMARK SMILES IDX 16 66 17 67 20 68 18 69 19 70
REMARK H PARENT 62 22 40 33
REMARK Flexibility Score: inf
ROOT
ATOM      1  C   UNL A   1      34.471  32.645  28.060  1.00  0.00     0.275 C 
ENDROOT
BRANCH   1   2
ATOM      2  O   UNL A   1      34.490  31.327  28.620  1.00  0.00    -0.458 OA
BRANCH   2   3
ATOM      3  C   UNL A   1      34.862  30.354  27.746  1.00  0.00     0.338 C 
ATOM      4  O   UNL A   1      34.156  29.823  26.912  1.00  0.00    -0.246 OA
BRANCH   3   5
ATOM      5  C   UNL A   1      36.183  29.833  28.182  1.00  0.00     0.060 A 
ATOM      6  C   UNL A   1      37.308  30.000  27.367  1.00  0.00     0.016 A 
ATOM      7  C   UNL A   1      36.329  29.354  29.492  1.00  0.00     0.016 A 
ATOM      8  C   UNL A   1      38.570  29.720  27.862  1.00  0.00     0.010 A 
ATOM      9  C   UNL A   1      37.602  29.116  30.007  1.00  0.00     0.010 A 
ATOM     10  C   UNL A   1      38.720  29.282  29.181  1.00  0.00    -0.014 A 
BRANCH  10  11
ATOM     11  C   UNL A   1      40.057  28.824  29.587  1.00  0.00     0.031 A 
ATOM     12  C   UNL A   1      40.487  27.470  29.120  1.00  0.00     0.074 A 
ATOM     13  C   UNL A   1      40.892  29.660  30.225  1.00  0.00     0.049 A 
ATOM     14  N   UNL A   1      41.676  26.935  29.132  1.00  0.00    -0.248 NA
ATOM     15  C   UNL A   1      39.437  26.610  28.545  1.00  0.00     0.031 C 
ATOM     16  C   UNL A   1      40.550  31.003  30.701  1.00  0.00     0.029 A 
ATOM     17  N   UNL A   1      42.211  29.512  30.556  1.00  0.00    -0.354 N 
ATOM     18  C   UNL A   1      41.518  25.686  28.548  1.00  0.00     0.074 A 
ATOM     19  C   UNL A   1      40.117  25.516  28.252  1.00  0.00     0.031 C 
ATOM     20  C   UNL A   1      41.640  31.558  31.259  1.00  0.00     0.029 A 
ATOM     21  C   UNL A   1      42.750  30.615  31.171  1.00  0.00     0.049 A 
ATOM     22  H   UNL A   1      42.725  28.693  30.370  1.00  0.00     0.167 HD
ATOM     23  C   UNL A   1      42.470  24.770  28.261  1.00  0.00     0.031 A 
ATOM     24  C   UNL A   1      44.008  30.833  31.596  1.00  0.00     0.031 A 
ATOM     25  C   UNL A   1      43.851  24.946  28.596  1.00  0.00     0.049 A 
ATOM     26  C   UNL A   1      45.046  29.779  31.315  1.00  0.00     0.074 A 
ATOM     27  C   UNL A   1      44.915  24.095  28.369  1.00  0.00     0.029 A 
ATOM     28  N   UNL A   1      44.352  26.062  29.254  1.00  0.00    -0.354 N 
ATOM     29  N   UNL A   1      44.905  28.632  30.690  1.00  0.00    -0.248 NA
ATOM     30  C   UNL A   1      46.414  30.055  31.769  1.00  0.00     0.031 C 
ATOM     31  C   UNL A   1      46.054  24.677  28.935  1.00  0.00     0.029 A 
ATOM     32  C   UNL A   1      45.708  25.911  29.470  1.00  0.00     0.049 A 
ATOM     33  H   UNL A   1      43.820  26.844  29.526  1.00  0.00     0.167 HD
ATOM     34  C   UNL A   1      46.167  28.058  30.656  1.00  0.00     0.074 A 
ATOM     35  C   UNL A   1      47.064  28.990  31.314  1.00  0.00     0.031 C 
ATOM     36  C   UNL A   1      46.557  26.871  30.128  1.00  0.00     0.031 A 
BRANCH  23  37
ATOM     37  C   UNL A   1      41.999  23.507  27.602  1.00  0.00    -0.014 A 
ATOM     38  C   UNL A   1      41.366  22.493  28.342  1.00  0.00     0.009 A 
ATOM     39  C   UNL A   1      42.275  23.287  26.245  1.00  0.00     0.009 A 
ATOM     40  C   UNL A   1      41.071  21.264  27.749  1.00  0.00     0.001 A 
ATOM     41  C   UNL A   1      41.954  22.066  25.649  1.00  0.00     0.001 A 
ATOM     42  C   UNL A   1      41.368  21.051  26.404  1.00  0.00     0.000 A 
ENDBRANCH  23  37
BRANCH  24  43
ATOM     43  C   UNL A   1      44.342  32.095  32.307  1.00  0.00    -0.014 A 
ATOM     44  C   UNL A   1      44.241  32.196  33.702  1.00  0.00     0.009 A 
ATOM     45  C   UNL A   1      44.801  33.207  31.581  1.00  0.00     0.009 A 
ATOM     46  C   UNL A   1      44.579  33.387  34.353  1.00  0.00     0.001 A 
ATOM     47  C   UNL A   1      45.158  34.388  32.236  1.00  0.00     0.001 A 
ATOM     48  C   UNL A   1      45.042  34.479  33.620  1.00  0.00     0.000 A 
ENDBRANCH  24  43
BRANCH  36  49
ATOM     49  C   UNL A   1      48.013  26.525  30.225  1.00  0.00    -0.014 A 
ATOM     50  C   UNL A   1      48.508  25.796  31.316  1.00  0.00     0.009 A 
ATOM     51  C   UNL A   1      48.872  26.845  29.163  1.00  0.00     0.009 A 
ATOM     52  C   UNL A   1      49.846  25.404  31.347  1.00  0.00     0.001 A 
ATOM     53  C   UNL A   1      50.204  26.432  29.187  1.00  0.00     0.001 A 
ATOM     54  C   UNL A   1      50.689  25.716  30.279  1.00  0.00     0.000 A 
ENDBRANCH  36  49
ENDBRANCH  10  11
ENDBRANCH   3   5
ENDBRANCH   2   3
ENDBRANCH   1   2
BRANCH   1  55
ATOM     55  C   UNL A   1      35.620  33.503  28.620  1.00  0.00     0.274 C 
BRANCH  55  56
ATOM     56  O   UNL A   1      35.570  33.587  30.061  1.00  0.00    -0.461 OA
BRANCH  56  57
ATOM     57  C   UNL A   1      36.466  32.875  30.803  1.00  0.00     0.329 C 
ATOM     58  O   UNL A   1      37.637  32.702  30.502  1.00  0.00    -0.250 OA
BRANCH  57  59
ATOM     59  C   UNL A   1      35.724  32.199  31.975  1.00  0.00     0.196 C 
ATOM     60  C   UNL A   1      36.669  31.215  32.662  1.00  0.00     0.047 C 
ATOM     61  N   UNL A   1      35.302  33.047  33.076  1.00  0.00    -0.321 N 
ATOM     62  C   UNL A   1      37.312  32.057  33.759  1.00  0.00     0.103 C 
ATOM     63  C   UNL A   1      36.195  32.996  34.137  1.00  0.00     0.223 C 
ATOM     64  O   UNL A   1      36.081  33.548  35.218  1.00  0.00    -0.275 OA
BRANCH  61  65
ATOM     65  C   UNL A   1      33.948  33.543  33.257  1.00  0.00     0.195 C 
BRANCH  65  66
ATOM     66  C   UNL A   1      33.704  34.921  32.769  1.00  0.00     0.123 A 
ATOM     67  C   UNL A   1      34.197  36.146  33.180  1.00  0.00     0.047 A 
ATOM     68  O   UNL A   1      32.958  35.082  31.639  1.00  0.00    -0.467 OA
ATOM     69  C   UNL A   1      33.709  37.107  32.266  1.00  0.00     0.042 A 
ATOM     70  C   UNL A   1      32.965  36.409  31.344  1.00  0.00     0.195 A 
ENDBRANCH  65  66
ENDBRANCH  61  65
ENDBRANCH  57  59
ENDBRANCH  56  57
ENDBRANCH  55  56
ENDBRANCH   1  55
TORSDOF 13
ENDMDL
