MODEL 1
REMARK VINA RESULT:      -9.4      0.000      0.000
REMARK SMILES C[C@H](C(=O)OCCOC(=O)c1ccc(-c2c3nc(c(-c4ccccc4)c4ccc([nH]4)c(-c4ccccc4)c4nc(c(-c5ccccc5)c5ccc2[nH]5)C=C4)C=C3)cc1)[C@@H](C(=O)c1ccccc1)c1ccc(F)cc1
REMARK SMILES IDX 6 1 5 2 3 3 4 4 2 5 1 6 59 7 60 8 61 9 62 10 63 11 67 12
REMARK SMILES IDX 64 13 66 14 65 15 68 16 69 17 74 18 70 19 73 20 71 21 72 22
REMARK SMILES IDX 7 23 8 24 9 25 10 26 11 27 12 28 58 29 13 30 57 31 14 32
REMARK SMILES IDX 15 33 16 34 51 35 17 36 56 37 50 38 52 39 18 40 55 41 49 42
REMARK SMILES IDX 48 43 19 45 41 46 26 47 40 48 27 49 30 50 39 51 53 52 28 53
REMARK SMILES IDX 29 54 38 56 54 57 31 58 20 59 21 60 25 61 22 62 24 63 23 64
REMARK SMILES IDX 42 65 43 66 47 67 44 68 46 69 45 70 32 71 33 72 37 73 34 74
REMARK SMILES IDX 36 75 35 76
REMARK H PARENT 52 44 30 55
REMARK Flexibility Score: inf
ROOT
ATOM      1  C   UNL A   1      34.426  33.713  29.589  1.00  0.00     0.274 C 
ENDROOT
BRANCH   1   2
ATOM      2  O   UNL A   1      34.404  32.852  30.748  1.00  0.00    -0.462 OA
BRANCH   2   3
ATOM      3  C   UNL A   1      34.439  33.436  31.964  1.00  0.00     0.309 C 
ATOM      4  O   UNL A   1      33.670  33.144  32.872  1.00  0.00    -0.252 OA
BRANCH   3   5
ATOM      5  C   UNL A   1      35.479  34.562  32.035  1.00  0.00     0.111 C 
ATOM      6  C   UNL A   1      34.726  35.734  32.724  1.00  0.00     0.021 C 
BRANCH   5   7
ATOM      7  C   UNL A   1      36.820  34.156  32.746  1.00  0.00     0.105 C 
BRANCH   7   8
ATOM      8  C   UNL A   1      36.849  32.717  33.366  1.00  0.00     0.171 C 
ATOM      9  O   UNL A   1      36.635  31.681  32.732  1.00  0.00    -0.293 OA
BRANCH   8  10
ATOM     10  C   UNL A   1      37.232  32.477  34.770  1.00  0.00     0.018 A 
ATOM     11  C   UNL A   1      37.034  33.492  35.712  1.00  0.00     0.012 A 
ATOM     12  C   UNL A   1      38.003  31.362  35.099  1.00  0.00     0.012 A 
ATOM     13  C   UNL A   1      37.538  33.344  37.007  1.00  0.00     0.001 A 
ATOM     14  C   UNL A   1      38.470  31.197  36.405  1.00  0.00     0.001 A 
ATOM     15  C   UNL A   1      38.236  32.188  37.358  1.00  0.00     0.000 A 
ENDBRANCH   8  10
ENDBRANCH   7   8
BRANCH   7  16
ATOM     16  C   UNL A   1      38.005  34.280  31.756  1.00  0.00    -0.036 A 
ATOM     17  C   UNL A   1      37.823  34.087  30.377  1.00  0.00     0.007 A 
ATOM     18  C   UNL A   1      39.315  34.507  32.235  1.00  0.00     0.007 A 
ATOM     19  C   UNL A   1      38.923  34.105  29.511  1.00  0.00     0.039 A 
ATOM     20  C   UNL A   1      40.405  34.538  31.368  1.00  0.00     0.039 A 
ATOM     21  C   UNL A   1      40.201  34.329  30.014  1.00  0.00     0.123 A 
ATOM     22  F   UNL A   1      41.250  34.332  29.182  1.00  0.00    -0.207 F 
ENDBRANCH   7  16
ENDBRANCH   5   7
ENDBRANCH   3   5
ENDBRANCH   2   3
ENDBRANCH   1   2
BRANCH   1  23
ATOM     23  C   UNL A   1      34.413  32.912  28.287  1.00  0.00     0.275 C 
BRANCH  23  24
ATOM     24  O   UNL A   1      33.948  31.569  28.512  1.00  0.00    -0.458 OA
BRANCH  24  25
ATOM     25  C   UNL A   1      34.413  30.640  27.646  1.00  0.00     0.338 C 
ATOM     26  O   UNL A   1      33.942  30.316  26.572  1.00  0.00    -0.246 OA
BRANCH  25  27
ATOM     27  C   UNL A   1      35.729  30.193  28.115  1.00  0.00     0.060 A 
ATOM     28  C   UNL A   1      35.830  29.727  29.428  1.00  0.00     0.016 A 
ATOM     29  C   UNL A   1      36.845  30.227  27.280  1.00  0.00     0.016 A 
ATOM     30  C   UNL A   1      37.037  29.244  29.906  1.00  0.00     0.010 A 
ATOM     31  C   UNL A   1      38.065  29.752  27.764  1.00  0.00     0.010 A 
ATOM     32  C   UNL A   1      38.159  29.247  29.073  1.00  0.00    -0.014 A 
BRANCH  32  33
ATOM     33  C   UNL A   1      39.445  28.743  29.594  1.00  0.00     0.031 A 
ATOM     34  C   UNL A   1      40.147  29.501  30.676  1.00  0.00     0.074 A 
ATOM     35  C   UNL A   1      39.954  27.598  29.106  1.00  0.00     0.049 A 
ATOM     36  N   UNL A   1      41.326  29.289  31.199  1.00  0.00    -0.248 NA
ATOM     37  C   UNL A   1      39.427  30.653  31.243  1.00  0.00     0.031 C 
ATOM     38  C   UNL A   1      39.314  26.748  28.100  1.00  0.00     0.029 A 
ATOM     39  N   UNL A   1      41.128  26.953  29.394  1.00  0.00    -0.354 N 
ATOM     40  C   UNL A   1      41.501  30.293  32.141  1.00  0.00     0.074 A 
ATOM     41  C   UNL A   1      40.314  31.121  32.109  1.00  0.00     0.031 C 
ATOM     42  C   UNL A   1      40.105  25.689  27.856  1.00  0.00     0.029 A 
ATOM     43  C   UNL A   1      41.325  25.817  28.646  1.00  0.00     0.049 A 
ATOM     44  H   UNL A   1      41.768  27.271  30.070  1.00  0.00     0.167 HD
ATOM     45  C   UNL A   1      42.563  30.505  32.953  1.00  0.00     0.031 A 
ATOM     46  C   UNL A   1      42.388  24.995  28.584  1.00  0.00     0.031 A 
ATOM     47  C   UNL A   1      43.740  29.679  32.964  1.00  0.00     0.049 A 
ATOM     48  C   UNL A   1      43.584  25.294  29.445  1.00  0.00     0.074 A 
ATOM     49  C   UNL A   1      44.884  29.815  33.729  1.00  0.00     0.029 A 
ATOM     50  N   UNL A   1      43.921  28.559  32.166  1.00  0.00    -0.354 N 
ATOM     51  N   UNL A   1      43.755  26.264  30.311  1.00  0.00    -0.248 NA
ATOM     52  C   UNL A   1      44.734  24.390  29.314  1.00  0.00     0.031 C 
ATOM     53  C   UNL A   1      45.776  28.801  33.363  1.00  0.00     0.029 A 
ATOM     54  C   UNL A   1      45.165  28.002  32.408  1.00  0.00     0.049 A 
ATOM     55  H   UNL A   1      43.262  28.210  31.523  1.00  0.00     0.167 HD
ATOM     56  C   UNL A   1      45.024  26.078  30.843  1.00  0.00     0.074 A 
ATOM     57  C   UNL A   1      45.569  24.890  30.215  1.00  0.00     0.031 C 
ATOM     58  C   UNL A   1      45.681  26.821  31.766  1.00  0.00     0.031 A 
BRANCH  45  59
ATOM     59  C   UNL A   1      42.510  31.707  33.852  1.00  0.00    -0.014 A 
ATOM     60  C   UNL A   1      41.942  31.638  35.134  1.00  0.00     0.009 A 
ATOM     61  C   UNL A   1      43.039  32.928  33.407  1.00  0.00     0.009 A 
ATOM     62  C   UNL A   1      41.875  32.778  35.938  1.00  0.00     0.001 A 
ATOM     63  C   UNL A   1      42.995  34.059  34.224  1.00  0.00     0.001 A 
ATOM     64  C   UNL A   1      42.404  33.986  35.484  1.00  0.00     0.000 A 
ENDBRANCH  45  59
BRANCH  46  65
ATOM     65  C   UNL A   1      42.385  23.841  27.647  1.00  0.00    -0.014 A 
ATOM     66  C   UNL A   1      42.832  23.988  26.326  1.00  0.00     0.009 A 
ATOM     67  C   UNL A   1      41.928  22.583  28.071  1.00  0.00     0.009 A 
ATOM     68  C   UNL A   1      42.802  22.906  25.444  1.00  0.00     0.001 A 
ATOM     69  C   UNL A   1      41.927  21.494  27.197  1.00  0.00     0.001 A 
ATOM     70  C   UNL A   1      42.355  21.659  25.881  1.00  0.00     0.000 A 
ENDBRANCH  46  65
BRANCH  58  71
ATOM     71  C   UNL A   1      47.049  26.349  32.169  1.00  0.00    -0.014 A 
ATOM     72  C   UNL A   1      48.197  26.780  31.488  1.00  0.00     0.009 A 
ATOM     73  C   UNL A   1      47.188  25.492  33.271  1.00  0.00     0.009 A 
ATOM     74  C   UNL A   1      49.459  26.334  31.884  1.00  0.00     0.001 A 
ATOM     75  C   UNL A   1      48.453  25.070  33.682  1.00  0.00     0.001 A 
ATOM     76  C   UNL A   1      49.586  25.484  32.983  1.00  0.00     0.000 A 
ENDBRANCH  58  71
ENDBRANCH  32  33
ENDBRANCH  25  27
ENDBRANCH  24  25
ENDBRANCH  23  24
ENDBRANCH   1  23
TORSDOF 15
ENDMDL
MODEL 2
REMARK VINA RESULT:      -9.3      5.569     10.869
REMARK SMILES C[C@H](C(=O)OCCOC(=O)c1ccc(-c2c3nc(c(-c4ccccc4)c4ccc([nH]4)c(-c4ccccc4)c4nc(c(-c5ccccc5)c5ccc2[nH]5)C=C4)C=C3)cc1)[C@@H](C(=O)c1ccccc1)c1ccc(F)cc1
REMARK SMILES IDX 6 1 5 2 3 3 4 4 2 5 1 6 59 7 60 8 61 9 62 10 63 11 67 12
REMARK SMILES IDX 64 13 66 14 65 15 68 16 69 17 74 18 70 19 73 20 71 21 72 22
REMARK SMILES IDX 7 23 8 24 9 25 10 26 11 27 12 28 58 29 13 30 57 31 14 32
REMARK SMILES IDX 15 33 16 34 51 35 17 36 56 37 50 38 52 39 18 40 55 41 49 42
REMARK SMILES IDX 48 43 19 45 41 46 26 47 40 48 27 49 30 50 39 51 53 52 28 53
REMARK SMILES IDX 29 54 38 56 54 57 31 58 20 59 21 60 25 61 22 62 24 63 23 64
REMARK SMILES IDX 42 65 43 66 47 67 44 68 46 69 45 70 32 71 33 72 37 73 34 74
REMARK SMILES IDX 36 75 35 76
REMARK H PARENT 52 44 30 55
REMARK Flexibility Score: inf
ROOT
ATOM      1  C   UNL A   1      38.275  21.212  25.511  1.00  0.00     0.274 C 
ENDROOT
BRANCH   1   2
ATOM      2  O   UNL A   1      36.944  21.134  24.956  1.00  0.00    -0.462 OA
BRANCH   2   3
ATOM      3  C   UNL A   1      36.014  21.986  25.436  1.00  0.00     0.309 C 
ATOM      4  O   UNL A   1      35.731  22.072  26.625  1.00  0.00    -0.252 OA
BRANCH   3   5
ATOM      5  C   UNL A   1      35.298  22.751  24.315  1.00  0.00     0.111 C 
ATOM      6  C   UNL A   1      36.331  22.776  23.153  1.00  0.00     0.021 C 
BRANCH   5   7
ATOM      7  C   UNL A   1      33.902  22.153  23.918  1.00  0.00     0.105 C 
BRANCH   7   8
ATOM      8  C   UNL A   1      33.403  20.953  24.794  1.00  0.00     0.171 C 
ATOM      9  O   UNL A   1      32.906  21.071  25.917  1.00  0.00    -0.293 OA
BRANCH   8  10
ATOM     10  C   UNL A   1      33.408  19.565  24.298  1.00  0.00     0.018 A 
ATOM     11  C   UNL A   1      34.470  18.722  24.643  1.00  0.00     0.012 A 
ATOM     12  C   UNL A   1      32.509  19.179  23.303  1.00  0.00     0.012 A 
ATOM     13  C   UNL A   1      34.575  17.460  24.053  1.00  0.00     0.001 A 
ATOM     14  C   UNL A   1      32.592  17.903  22.744  1.00  0.00     0.001 A 
ATOM     15  C   UNL A   1      33.624  17.044  23.120  1.00  0.00     0.000 A 
ENDBRANCH   8  10
ENDBRANCH   7   8
BRANCH   7  16
ATOM     16  C   UNL A   1      32.819  23.261  23.954  1.00  0.00    -0.036 A 
ATOM     17  C   UNL A   1      32.994  24.421  24.727  1.00  0.00     0.007 A 
ATOM     18  C   UNL A   1      31.593  23.085  23.274  1.00  0.00     0.007 A 
ATOM     19  C   UNL A   1      31.963  25.363  24.827  1.00  0.00     0.039 A 
ATOM     20  C   UNL A   1      30.575  24.033  23.365  1.00  0.00     0.039 A 
ATOM     21  C   UNL A   1      30.766  25.160  24.146  1.00  0.00     0.123 A 
ATOM     22  F   UNL A   1      29.780  26.059  24.256  1.00  0.00    -0.207 F 
ENDBRANCH   7  16
ENDBRANCH   5   7
ENDBRANCH   3   5
ENDBRANCH   2   3
ENDBRANCH   1   2
BRANCH   1  23
ATOM     23  C   UNL A   1      39.086  19.949  25.218  1.00  0.00     0.275 C 
BRANCH  23  24
ATOM     24  O   UNL A   1      40.001  19.663  26.291  1.00  0.00    -0.458 OA
BRANCH  24  25
ATOM     25  C   UNL A   1      41.309  19.865  26.009  1.00  0.00     0.338 C 
ATOM     26  O   UNL A   1      42.020  19.227  25.256  1.00  0.00    -0.246 OA
BRANCH  25  27
ATOM     27  C   UNL A   1      41.718  21.136  26.619  1.00  0.00     0.060 A 
ATOM     28  C   UNL A   1      42.087  22.179  25.766  1.00  0.00     0.016 A 
ATOM     29  C   UNL A   1      41.737  21.302  28.002  1.00  0.00     0.016 A 
ATOM     30  C   UNL A   1      42.431  23.416  26.286  1.00  0.00     0.010 A 
ATOM     31  C   UNL A   1      42.095  22.543  28.529  1.00  0.00     0.010 A 
ATOM     32  C   UNL A   1      42.429  23.607  27.671  1.00  0.00    -0.014 A 
BRANCH  32  33
ATOM     33  C   UNL A   1      42.811  24.923  28.218  1.00  0.00     0.031 A 
ATOM     34  C   UNL A   1      41.756  25.958  28.446  1.00  0.00     0.074 A 
ATOM     35  C   UNL A   1      44.098  25.164  28.527  1.00  0.00     0.049 A 
ATOM     36  N   UNL A   1      41.889  27.203  28.821  1.00  0.00    -0.248 NA
ATOM     37  C   UNL A   1      40.363  25.536  28.221  1.00  0.00     0.031 C 
ATOM     38  C   UNL A   1      45.192  24.198  28.407  1.00  0.00     0.029 A 
ATOM     39  N   UNL A   1      44.700  26.297  29.007  1.00  0.00    -0.354 N 
ATOM     40  C   UNL A   1      40.603  27.722  28.854  1.00  0.00     0.074 A 
ATOM     41  C   UNL A   1      39.704  26.662  28.451  1.00  0.00     0.031 C 
ATOM     42  C   UNL A   1      46.335  24.782  28.805  1.00  0.00     0.029 A 
ATOM     43  C   UNL A   1      46.060  26.172  29.155  1.00  0.00     0.049 A 
ATOM     44  H   UNL A   1      44.208  27.121  29.223  1.00  0.00     0.167 HD
ATOM     45  C   UNL A   1      40.212  28.974  29.186  1.00  0.00     0.031 A 
ATOM     46  C   UNL A   1      46.981  27.089  29.501  1.00  0.00     0.031 A 
ATOM     47  C   UNL A   1      41.121  30.020  29.575  1.00  0.00     0.049 A 
ATOM     48  C   UNL A   1      46.528  28.492  29.796  1.00  0.00     0.074 A 
ATOM     49  C   UNL A   1      40.836  31.332  29.910  1.00  0.00     0.029 A 
ATOM     50  N   UNL A   1      42.495  29.868  29.678  1.00  0.00    -0.354 N 
ATOM     51  N   UNL A   1      45.313  28.984  29.795  1.00  0.00    -0.248 NA
ATOM     52  C   UNL A   1      47.575  29.466  30.132  1.00  0.00     0.031 C 
ATOM     53  C   UNL A   1      42.045  31.985  30.175  1.00  0.00     0.029 A 
ATOM     54  C   UNL A   1      43.076  31.066  30.057  1.00  0.00     0.049 A 
ATOM     55  H   UNL A   1      42.986  29.032  29.508  1.00  0.00     0.167 HD
ATOM     56  C   UNL A   1      45.444  30.320  30.148  1.00  0.00     0.074 A 
ATOM     57  C   UNL A   1      46.858  30.555  30.374  1.00  0.00     0.031 C 
ATOM     58  C   UNL A   1      44.486  31.270  30.272  1.00  0.00     0.031 A 
BRANCH  45  59
ATOM     59  C   UNL A   1      38.746  29.284  29.089  1.00  0.00    -0.014 A 
ATOM     60  C   UNL A   1      38.170  29.729  27.890  1.00  0.00     0.009 A 
ATOM     61  C   UNL A   1      37.928  29.126  30.219  1.00  0.00     0.009 A 
ATOM     62  C   UNL A   1      36.810  30.043  27.833  1.00  0.00     0.001 A 
ATOM     63  C   UNL A   1      36.564  29.413  30.153  1.00  0.00     0.001 A 
ATOM     64  C   UNL A   1      36.008  29.882  28.964  1.00  0.00     0.000 A 
ENDBRANCH  45  59
BRANCH  46  65
ATOM     65  C   UNL A   1      48.421  26.721  29.546  1.00  0.00    -0.014 A 
ATOM     66  C   UNL A   1      49.235  26.868  28.413  1.00  0.00     0.009 A 
ATOM     67  C   UNL A   1      48.988  26.213  30.726  1.00  0.00     0.009 A 
ATOM     68  C   UNL A   1      50.580  26.495  28.456  1.00  0.00     0.001 A 
ATOM     69  C   UNL A   1      50.340  25.869  30.775  1.00  0.00     0.001 A 
ATOM     70  C   UNL A   1      51.133  26.001  29.637  1.00  0.00     0.000 A 
ENDBRANCH  46  65
BRANCH  58  71
ATOM     71  C   UNL A   1      44.935  32.638  30.700  1.00  0.00    -0.014 A 
ATOM     72  C   UNL A   1      45.255  33.626  29.757  1.00  0.00     0.009 A 
ATOM     73  C   UNL A   1      45.002  32.948  32.066  1.00  0.00     0.009 A 
ATOM     74  C   UNL A   1      45.664  34.893  30.178  1.00  0.00     0.001 A 
ATOM     75  C   UNL A   1      45.384  34.223  32.483  1.00  0.00     0.001 A 
ATOM     76  C   UNL A   1      45.723  35.191  31.539  1.00  0.00     0.000 A 
ENDBRANCH  58  71
ENDBRANCH  32  33
ENDBRANCH  25  27
ENDBRANCH  24  25
ENDBRANCH  23  24
ENDBRANCH   1  23
TORSDOF 15
ENDMDL
MODEL 3
REMARK VINA RESULT:      -9.2      3.657      9.183
REMARK SMILES C[C@H](C(=O)OCCOC(=O)c1ccc(-c2c3nc(c(-c4ccccc4)c4ccc([nH]4)c(-c4ccccc4)c4nc(c(-c5ccccc5)c5ccc2[nH]5)C=C4)C=C3)cc1)[C@@H](C(=O)c1ccccc1)c1ccc(F)cc1
REMARK SMILES IDX 6 1 5 2 3 3 4 4 2 5 1 6 59 7 60 8 61 9 62 10 63 11 67 12
REMARK SMILES IDX 64 13 66 14 65 15 68 16 69 17 74 18 70 19 73 20 71 21 72 22
REMARK SMILES IDX 7 23 8 24 9 25 10 26 11 27 12 28 58 29 13 30 57 31 14 32
REMARK SMILES IDX 15 33 16 34 51 35 17 36 56 37 50 38 52 39 18 40 55 41 49 42
REMARK SMILES IDX 48 43 19 45 41 46 26 47 40 48 27 49 30 50 39 51 53 52 28 53
REMARK SMILES IDX 29 54 38 56 54 57 31 58 20 59 21 60 25 61 22 62 24 63 23 64
REMARK SMILES IDX 42 65 43 66 47 67 44 68 46 69 45 70 32 71 33 72 37 73 34 74
REMARK SMILES IDX 36 75 35 76
REMARK H PARENT 52 44 30 55
REMARK Flexibility Score: inf
ROOT
ATOM      1  C   UNL A   1      33.268  31.373  27.040  1.00  0.00     0.274 C 
ENDROOT
BRANCH   1   2
ATOM      2  O   UNL A   1      32.823  30.040  27.371  1.00  0.00    -0.462 OA
BRANCH   2   3
ATOM      3  C   UNL A   1      33.694  29.025  27.190  1.00  0.00     0.309 C 
ATOM      4  O   UNL A   1      34.904  29.142  27.344  1.00  0.00    -0.252 OA
BRANCH   3   5
ATOM      5  C   UNL A   1      33.002  27.754  26.679  1.00  0.00     0.111 C 
ATOM      6  C   UNL A   1      31.569  27.837  27.275  1.00  0.00     0.021 C 
BRANCH   5   7
ATOM      7  C   UNL A   1      33.039  27.585  25.118  1.00  0.00     0.105 C 
BRANCH   7   8
ATOM      8  C   UNL A   1      33.501  26.180  24.599  1.00  0.00     0.171 C 
ATOM      9  O   UNL A   1      33.760  25.925  23.421  1.00  0.00    -0.293 OA
BRANCH   8  10
ATOM     10  C   UNL A   1      33.752  25.051  25.513  1.00  0.00     0.018 A 
ATOM     11  C   UNL A   1      35.047  24.530  25.612  1.00  0.00     0.012 A 
ATOM     12  C   UNL A   1      32.678  24.357  26.073  1.00  0.00     0.012 A 
ATOM     13  C   UNL A   1      35.271  23.362  26.345  1.00  0.00     0.001 A 
ATOM     14  C   UNL A   1      32.910  23.214  26.839  1.00  0.00     0.001 A 
ATOM     15  C   UNL A   1      34.206  22.717  26.976  1.00  0.00     0.000 A 
ENDBRANCH   8  10
ENDBRANCH   7   8
BRANCH   7  16
ATOM     16  C   UNL A   1      31.642  27.887  24.518  1.00  0.00    -0.036 A 
ATOM     17  C   UNL A   1      30.743  26.852  24.213  1.00  0.00     0.007 A 
ATOM     18  C   UNL A   1      31.280  29.212  24.185  1.00  0.00     0.007 A 
ATOM     19  C   UNL A   1      29.528  27.138  23.580  1.00  0.00     0.039 A 
ATOM     20  C   UNL A   1      30.063  29.493  23.567  1.00  0.00     0.039 A 
ATOM     21  C   UNL A   1      29.201  28.453  23.263  1.00  0.00     0.123 A 
ATOM     22  F   UNL A   1      28.042  28.717  22.646  1.00  0.00    -0.207 F 
ENDBRANCH   7  16
ENDBRANCH   5   7
ENDBRANCH   3   5
ENDBRANCH   2   3
ENDBRANCH   1   2
BRANCH   1  23
ATOM     23  C   UNL A   1      32.324  32.440  27.596  1.00  0.00     0.275 C 
BRANCH  23  24
ATOM     24  O   UNL A   1      32.957  33.732  27.611  1.00  0.00    -0.458 OA
BRANCH  24  25
ATOM     25  C   UNL A   1      33.271  34.212  28.836  1.00  0.00     0.338 C 
ATOM     26  O   UNL A   1      32.578  34.883  29.577  1.00  0.00    -0.246 OA
BRANCH  25  27
ATOM     27  C   UNL A   1      34.551  33.622  29.247  1.00  0.00     0.060 A 
ATOM     28  C   UNL A   1      35.678  33.910  28.474  1.00  0.00     0.016 A 
ATOM     29  C   UNL A   1      34.643  32.803  30.371  1.00  0.00     0.016 A 
ATOM     30  C   UNL A   1      36.921  33.422  28.846  1.00  0.00     0.010 A 
ATOM     31  C   UNL A   1      35.892  32.301  30.740  1.00  0.00     0.010 A 
ATOM     32  C   UNL A   1      37.035  32.621  29.985  1.00  0.00    -0.014 A 
BRANCH  32  33
ATOM     33  C   UNL A   1      38.359  32.094  30.367  1.00  0.00     0.031 A 
ATOM     34  C   UNL A   1      38.831  30.800  29.784  1.00  0.00     0.074 A 
ATOM     35  C   UNL A   1      39.133  32.797  31.213  1.00  0.00     0.049 A 
ATOM     36  N   UNL A   1      39.909  30.115  30.061  1.00  0.00    -0.248 NA
ATOM     37  C   UNL A   1      37.973  30.194  28.753  1.00  0.00     0.031 C 
ATOM     38  C   UNL A   1      38.795  34.103  31.782  1.00  0.00     0.029 A 
ATOM     39  N   UNL A   1      40.366  32.510  31.739  1.00  0.00    -0.354 N 
ATOM     40  C   UNL A   1      39.850  28.985  29.258  1.00  0.00     0.074 A 
ATOM     41  C   UNL A   1      38.625  29.071  28.491  1.00  0.00     0.031 C 
ATOM     42  C   UNL A   1      39.800  34.505  32.579  1.00  0.00     0.029 A 
ATOM     43  C   UNL A   1      40.821  33.463  32.616  1.00  0.00     0.049 A 
ATOM     44  H   UNL A   1      40.874  31.699  31.511  1.00  0.00     0.167 HD
ATOM     45  C   UNL A   1      40.738  27.968  29.175  1.00  0.00     0.031 A 
ATOM     46  C   UNL A   1      41.924  33.474  33.387  1.00  0.00     0.031 A 
ATOM     47  C   UNL A   1      41.945  27.893  29.953  1.00  0.00     0.049 A 
ATOM     48  C   UNL A   1      42.857  32.297  33.329  1.00  0.00     0.074 A 
ATOM     49  C   UNL A   1      42.905  26.897  29.966  1.00  0.00     0.029 A 
ATOM     50  N   UNL A   1      42.356  28.859  30.859  1.00  0.00    -0.354 N 
ATOM     51  N   UNL A   1      42.779  31.218  32.589  1.00  0.00    -0.248 NA
ATOM     52  C   UNL A   1      44.027  32.339  34.217  1.00  0.00     0.031 C 
ATOM     53  C   UNL A   1      43.876  27.241  30.913  1.00  0.00     0.029 A 
ATOM     54  C   UNL A   1      43.548  28.477  31.450  1.00  0.00     0.049 A 
ATOM     55  H   UNL A   1      41.873  29.694  31.054  1.00  0.00     0.167 HD
ATOM     56  C   UNL A   1      43.896  30.458  32.907  1.00  0.00     0.074 A 
ATOM     57  C   UNL A   1      44.646  31.212  33.893  1.00  0.00     0.031 C 
ATOM     58  C   UNL A   1      44.270  29.246  32.430  1.00  0.00     0.031 A 
BRANCH  45  59
ATOM     59  C   UNL A   1      40.399  26.836  28.248  1.00  0.00    -0.014 A 
ATOM     60  C   UNL A   1      39.574  25.777  28.656  1.00  0.00     0.009 A 
ATOM     61  C   UNL A   1      40.915  26.831  26.943  1.00  0.00     0.009 A 
ATOM     62  C   UNL A   1      39.301  24.719  27.787  1.00  0.00     0.001 A 
ATOM     63  C   UNL A   1      40.618  25.786  26.066  1.00  0.00     0.001 A 
ATOM     64  C   UNL A   1      39.820  24.726  26.492  1.00  0.00     0.000 A 
ENDBRANCH  45  59
BRANCH  46  65
ATOM     65  C   UNL A   1      42.179  34.614  34.307  1.00  0.00    -0.014 A 
ATOM     66  C   UNL A   1      42.917  35.728  33.881  1.00  0.00     0.009 A 
ATOM     67  C   UNL A   1      41.688  34.590  35.622  1.00  0.00     0.009 A 
ATOM     68  C   UNL A   1      43.175  36.784  34.759  1.00  0.00     0.001 A 
ATOM     69  C   UNL A   1      41.921  35.659  36.489  1.00  0.00     0.001 A 
ATOM     70  C   UNL A   1      42.672  36.751  36.059  1.00  0.00     0.000 A 
ENDBRANCH  46  65
BRANCH  58  71
ATOM     71  C   UNL A   1      45.561  28.680  32.949  1.00  0.00    -0.014 A 
ATOM     72  C   UNL A   1      45.588  27.842  34.074  1.00  0.00     0.009 A 
ATOM     73  C   UNL A   1      46.760  28.962  32.277  1.00  0.00     0.009 A 
ATOM     74  C   UNL A   1      46.798  27.322  34.534  1.00  0.00     0.001 A 
ATOM     75  C   UNL A   1      47.964  28.417  32.723  1.00  0.00     0.001 A 
ATOM     76  C   UNL A   1      47.983  27.606  33.856  1.00  0.00     0.000 A 
ENDBRANCH  58  71
ENDBRANCH  32  33
ENDBRANCH  25  27
ENDBRANCH  24  25
ENDBRANCH  23  24
ENDBRANCH   1  23
TORSDOF 15
ENDMDL
