MODEL 1
REMARK VINA RESULT:     -10.0      0.000      0.000
REMARK SMILES CC(C)c1nc(COc2c(F)cc(C(=O)OCCOC(=O)c3ccc(-c4c5nc(c(-c6ccccc6)c6ccc([nH]6)c(-c6ccccc6)c6nc(c(-c7ccccc7)c7ccc4[nH]7)C=C6)C=C5)cc3)cc2F)no1
REMARK SMILES IDX 17 1 16 2 14 3 15 4 13 5 9 6 10 7 71 8 11 9 12 10 70 11
REMARK SMILES IDX 72 12 8 13 7 14 6 15 4 16 5 17 74 18 73 19 2 20 1 21 3 22
REMARK SMILES IDX 18 23 19 24 20 25 21 26 22 27 23 28 69 29 24 30 68 31 25 32
REMARK SMILES IDX 26 33 27 34 62 35 28 36 67 37 61 38 63 39 29 40 66 41 60 42
REMARK SMILES IDX 59 43 30 45 52 46 37 47 51 48 38 49 41 50 50 51 64 52 39 53
REMARK SMILES IDX 40 54 49 56 65 57 42 58 31 59 32 60 36 61 33 62 35 63 34 64
REMARK SMILES IDX 53 65 54 66 58 67 55 68 57 69 56 70 43 71 44 72 48 73 45 74
REMARK SMILES IDX 47 75 46 76
REMARK H PARENT 63 44 41 55
REMARK Flexibility Score: inf
ROOT
ATOM      1  C   UNL A   1      44.745  19.480  25.070  1.00  0.00     0.275 C 
ENDROOT
BRANCH   1   2
ATOM      2  O   UNL A   1      44.745  20.889  25.369  1.00  0.00    -0.458 OA
BRANCH   2   3
ATOM      3  C   UNL A   1      44.785  21.731  24.308  1.00  0.00     0.338 C 
ATOM      4  O   UNL A   1      44.503  21.462  23.156  1.00  0.00    -0.246 OA
BRANCH   3   5
ATOM      5  C   UNL A   1      45.120  23.110  24.750  1.00  0.00     0.066 A 
ATOM      6  C   UNL A   1      45.888  25.702  25.484  1.00  0.00     0.191 A 
ATOM      7  C   UNL A   1      44.568  25.425  25.128  1.00  0.00     0.169 A 
ATOM      8  C   UNL A   1      46.826  24.677  25.450  1.00  0.00     0.169 A 
ATOM      9  F   UNL A   1      43.645  26.398  25.140  1.00  0.00    -0.203 F 
ATOM     10  C   UNL A   1      44.173  24.139  24.771  1.00  0.00     0.059 A 
ATOM     11  C   UNL A   1      46.450  23.383  25.110  1.00  0.00     0.059 A 
ATOM     12  F   UNL A   1      48.109  24.926  25.746  1.00  0.00    -0.203 F 
BRANCH   6  13
ATOM     13  O   UNL A   1      46.265  26.977  25.812  1.00  0.00    -0.479 OA
BRANCH  13  14
ATOM     14  C   UNL A   1      46.156  27.858  24.672  1.00  0.00     0.310 C 
BRANCH  14  15
ATOM     15  C   UNL A   1      47.415  27.938  23.879  1.00  0.00     0.209 A 
ATOM     16  C   UNL A   1      48.692  27.809  22.230  1.00  0.00     0.229 A 
ATOM     17  N   UNL A   1      47.412  27.924  22.503  1.00  0.00    -0.192 NA
ATOM     18  O   UNL A   1      49.487  27.814  23.340  1.00  0.00    -0.339 OA
ATOM     19  N   UNL A   1      48.631  27.908  24.440  1.00  0.00    -0.059 NA
BRANCH  16  20
ATOM     20  C   UNL A   1      49.374  27.652  20.917  1.00  0.00     0.073 C 
ATOM     21  C   UNL A   1      50.866  27.963  21.042  1.00  0.00     0.018 C 
ATOM     22  C   UNL A   1      49.159  26.243  20.372  1.00  0.00     0.018 C 
ENDBRANCH  16  20
ENDBRANCH  14  15
ENDBRANCH  13  14
ENDBRANCH   6  13
ENDBRANCH   3   5
ENDBRANCH   2   3
ENDBRANCH   1   2
BRANCH   1  23
ATOM     23  C   UNL A   1      43.477  18.815  25.608  1.00  0.00     0.275 C 
BRANCH  23  24
ATOM     24  O   UNL A   1      42.303  19.420  25.030  1.00  0.00    -0.458 OA
BRANCH  24  25
ATOM     25  C   UNL A   1      41.271  19.616  25.880  1.00  0.00     0.338 C 
ATOM     26  O   UNL A   1      40.363  18.847  26.146  1.00  0.00    -0.246 OA
BRANCH  25  27
ATOM     27  C   UNL A   1      41.446  20.902  26.569  1.00  0.00     0.060 A 
ATOM     28  C   UNL A   1      41.404  22.061  25.797  1.00  0.00     0.016 A 
ATOM     29  C   UNL A   1      41.783  20.967  27.918  1.00  0.00     0.016 A 
ATOM     30  C   UNL A   1      41.748  23.289  26.352  1.00  0.00     0.010 A 
ATOM     31  C   UNL A   1      42.070  22.213  28.492  1.00  0.00     0.010 A 
ATOM     32  C   UNL A   1      42.081  23.384  27.709  1.00  0.00    -0.014 A 
BRANCH  32  33
ATOM     33  C   UNL A   1      42.490  24.696  28.281  1.00  0.00     0.031 A 
ATOM     34  C   UNL A   1      41.463  25.770  28.525  1.00  0.00     0.074 A 
ATOM     35  C   UNL A   1      43.775  24.920  28.621  1.00  0.00     0.049 A 
ATOM     36  N   UNL A   1      41.640  27.015  28.890  1.00  0.00    -0.248 NA
ATOM     37  C   UNL A   1      40.055  25.396  28.325  1.00  0.00     0.031 C 
ATOM     38  C   UNL A   1      44.868  23.952  28.502  1.00  0.00     0.029 A 
ATOM     39  N   UNL A   1      44.377  26.034  29.153  1.00  0.00    -0.354 N 
ATOM     40  C   UNL A   1      40.372  27.587  28.913  1.00  0.00     0.074 A 
ATOM     41  C   UNL A   1      39.438  26.553  28.522  1.00  0.00     0.031 C 
ATOM     42  C   UNL A   1      45.995  24.501  28.983  1.00  0.00     0.029 A 
ATOM     43  C   UNL A   1      45.726  25.881  29.369  1.00  0.00     0.049 A 
ATOM     44  H   UNL A   1      43.889  26.864  29.360  1.00  0.00     0.167 HD
ATOM     45  C   UNL A   1      40.021  28.856  29.227  1.00  0.00     0.031 A 
ATOM     46  C   UNL A   1      46.653  26.761  29.793  1.00  0.00     0.031 A 
ATOM     47  C   UNL A   1      40.943  29.875  29.654  1.00  0.00     0.049 A 
ATOM     48  C   UNL A   1      46.245  28.175  30.092  1.00  0.00     0.074 A 
ATOM     49  C   UNL A   1      40.678  31.191  29.996  1.00  0.00     0.029 A 
ATOM     50  N   UNL A   1      42.306  29.689  29.812  1.00  0.00    -0.354 N 
ATOM     51  N   UNL A   1      45.052  28.716  30.050  1.00  0.00    -0.248 NA
ATOM     52  C   UNL A   1      47.316  29.104  30.480  1.00  0.00     0.031 C 
ATOM     53  C   UNL A   1      41.887  31.811  30.325  1.00  0.00     0.029 A 
ATOM     54  C   UNL A   1      42.898  30.868  30.233  1.00  0.00     0.049 A 
ATOM     55  H   UNL A   1      42.784  28.843  29.649  1.00  0.00     0.167 HD
ATOM     56  C   UNL A   1      45.227  30.044  30.417  1.00  0.00     0.074 A 
ATOM     57  C   UNL A   1      46.637  30.220  30.699  1.00  0.00     0.031 C 
ATOM     58  C   UNL A   1      44.302  31.030  30.506  1.00  0.00     0.031 A 
BRANCH  45  59
ATOM     59  C   UNL A   1      38.571  29.230  29.077  1.00  0.00    -0.014 A 
ATOM     60  C   UNL A   1      37.681  29.174  30.159  1.00  0.00     0.009 A 
ATOM     61  C   UNL A   1      38.101  29.677  27.832  1.00  0.00     0.009 A 
ATOM     62  C   UNL A   1      36.339  29.528  29.988  1.00  0.00     0.001 A 
ATOM     63  C   UNL A   1      36.768  30.056  27.670  1.00  0.00     0.001 A 
ATOM     64  C   UNL A   1      35.886  29.972  28.746  1.00  0.00     0.000 A 
ENDBRANCH  45  59
BRANCH  46  65
ATOM     65  C   UNL A   1      48.074  26.341  29.913  1.00  0.00    -0.014 A 
ATOM     66  C   UNL A   1      48.570  25.832  31.123  1.00  0.00     0.009 A 
ATOM     67  C   UNL A   1      48.942  26.449  28.814  1.00  0.00     0.009 A 
ATOM     68  C   UNL A   1      49.911  25.454  31.233  1.00  0.00     0.001 A 
ATOM     69  C   UNL A   1      50.273  26.042  28.919  1.00  0.00     0.001 A 
ATOM     70  C   UNL A   1      50.759  25.553  30.130  1.00  0.00     0.000 A 
ENDBRANCH  46  65
BRANCH  58  71
ATOM     71  C   UNL A   1      44.784  32.380  30.955  1.00  0.00    -0.014 A 
ATOM     72  C   UNL A   1      45.214  33.342  30.029  1.00  0.00     0.009 A 
ATOM     73  C   UNL A   1      44.779  32.700  32.321  1.00  0.00     0.009 A 
ATOM     74  C   UNL A   1      45.661  34.590  30.467  1.00  0.00     0.001 A 
ATOM     75  C   UNL A   1      45.203  33.958  32.754  1.00  0.00     0.001 A 
ATOM     76  C   UNL A   1      45.651  34.898  31.827  1.00  0.00     0.000 A 
ENDBRANCH  58  71
ENDBRANCH  32  33
ENDBRANCH  25  27
ENDBRANCH  24  25
ENDBRANCH  23  24
ENDBRANCH   1  23
TORSDOF 15
ENDMDL
MODEL 2
REMARK VINA RESULT:      -9.9      6.498     11.912
REMARK SMILES CC(C)c1nc(COc2c(F)cc(C(=O)OCCOC(=O)c3ccc(-c4c5nc(c(-c6ccccc6)c6ccc([nH]6)c(-c6ccccc6)c6nc(c(-c7ccccc7)c7ccc4[nH]7)C=C6)C=C5)cc3)cc2F)no1
REMARK SMILES IDX 17 1 16 2 14 3 15 4 13 5 9 6 10 7 71 8 11 9 12 10 70 11
REMARK SMILES IDX 72 12 8 13 7 14 6 15 4 16 5 17 74 18 73 19 2 20 1 21 3 22
REMARK SMILES IDX 18 23 19 24 20 25 21 26 22 27 23 28 69 29 24 30 68 31 25 32
REMARK SMILES IDX 26 33 27 34 62 35 28 36 67 37 61 38 63 39 29 40 66 41 60 42
REMARK SMILES IDX 59 43 30 45 52 46 37 47 51 48 38 49 41 50 50 51 64 52 39 53
REMARK SMILES IDX 40 54 49 56 65 57 42 58 31 59 32 60 36 61 33 62 35 63 34 64
REMARK SMILES IDX 53 65 54 66 58 67 55 68 57 69 56 70 43 71 44 72 48 73 45 74
REMARK SMILES IDX 47 75 46 76
REMARK H PARENT 63 44 41 55
REMARK Flexibility Score: inf
ROOT
ATOM      1  C   UNL A   1      33.465  36.166  31.280  1.00  0.00     0.275 C 
ENDROOT
BRANCH   1   2
ATOM      2  O   UNL A   1      34.394  35.187  31.783  1.00  0.00    -0.458 OA
BRANCH   2   3
ATOM      3  C   UNL A   1      34.788  35.335  33.071  1.00  0.00     0.338 C 
ATOM      4  O   UNL A   1      34.395  36.174  33.860  1.00  0.00    -0.246 OA
BRANCH   3   5
ATOM      5  C   UNL A   1      35.714  34.239  33.461  1.00  0.00     0.066 A 
ATOM      6  C   UNL A   1      37.429  32.215  34.357  1.00  0.00     0.191 A 
ATOM      7  C   UNL A   1      36.472  31.953  33.378  1.00  0.00     0.169 A 
ATOM      8  C   UNL A   1      37.509  33.491  34.901  1.00  0.00     0.169 A 
ATOM      9  F   UNL A   1      36.366  30.728  32.844  1.00  0.00    -0.203 F 
ATOM     10  C   UNL A   1      35.620  32.954  32.918  1.00  0.00     0.059 A 
ATOM     11  C   UNL A   1      36.678  34.508  34.446  1.00  0.00     0.059 A 
ATOM     12  F   UNL A   1      38.391  33.758  35.873  1.00  0.00    -0.203 F 
BRANCH   6  13
ATOM     13  O   UNL A   1      38.246  31.215  34.813  1.00  0.00    -0.479 OA
BRANCH  13  14
ATOM     14  C   UNL A   1      39.638  31.579  34.673  1.00  0.00     0.310 C 
BRANCH  14  15
ATOM     15  C   UNL A   1      40.559  30.614  35.335  1.00  0.00     0.209 A 
ATOM     16  C   UNL A   1      41.374  28.778  35.913  1.00  0.00     0.229 A 
ATOM     17  N   UNL A   1      40.608  29.287  34.974  1.00  0.00    -0.192 NA
ATOM     18  O   UNL A   1      41.849  29.710  36.791  1.00  0.00    -0.339 OA
ATOM     19  N   UNL A   1      41.309  30.936  36.398  1.00  0.00    -0.059 NA
BRANCH  16  20
ATOM     20  C   UNL A   1      41.761  27.364  36.161  1.00  0.00     0.073 C 
ATOM     21  C   UNL A   1      41.724  26.557  34.862  1.00  0.00     0.018 C 
ATOM     22  C   UNL A   1      43.145  27.296  36.800  1.00  0.00     0.018 C 
ENDBRANCH  16  20
ENDBRANCH  14  15
ENDBRANCH  13  14
ENDBRANCH   6  13
ENDBRANCH   3   5
ENDBRANCH   2   3
ENDBRANCH   1   2
BRANCH   1  23
ATOM     23  C   UNL A   1      32.456  35.517  30.332  1.00  0.00     0.275 C 
BRANCH  23  24
ATOM     24  O   UNL A   1      32.978  35.475  28.989  1.00  0.00    -0.458 OA
BRANCH  24  25
ATOM     25  C   UNL A   1      33.029  34.250  28.422  1.00  0.00     0.338 C 
ATOM     26  O   UNL A   1      32.171  33.697  27.755  1.00  0.00    -0.246 OA
BRANCH  25  27
ATOM     27  C   UNL A   1      34.366  33.674  28.626  1.00  0.00     0.060 A 
ATOM     28  C   UNL A   1      34.454  32.474  29.327  1.00  0.00     0.016 A 
ATOM     29  C   UNL A   1      35.519  34.363  28.260  1.00  0.00     0.016 A 
ATOM     30  C   UNL A   1      35.693  31.977  29.717  1.00  0.00     0.010 A 
ATOM     31  C   UNL A   1      36.771  33.830  28.600  1.00  0.00     0.010 A 
ATOM     32  C   UNL A   1      36.869  32.644  29.353  1.00  0.00    -0.014 A 
BRANCH  32  33
ATOM     33  C   UNL A   1      38.187  32.126  29.814  1.00  0.00     0.031 A 
ATOM     34  C   UNL A   1      38.706  30.810  29.296  1.00  0.00     0.074 A 
ATOM     35  C   UNL A   1      38.943  32.845  30.667  1.00  0.00     0.049 A 
ATOM     36  N   UNL A   1      39.761  30.132  29.673  1.00  0.00    -0.248 NA
ATOM     37  C   UNL A   1      37.935  30.172  28.219  1.00  0.00     0.031 C 
ATOM     38  C   UNL A   1      38.599  34.165  31.202  1.00  0.00     0.029 A 
ATOM     39  N   UNL A   1      40.169  32.573  31.222  1.00  0.00    -0.354 N 
ATOM     40  C   UNL A   1      39.751  28.965  28.918  1.00  0.00     0.074 A 
ATOM     41  C   UNL A   1      38.584  29.026  28.064  1.00  0.00     0.031 C 
ATOM     42  C   UNL A   1      39.606  34.601  31.975  1.00  0.00     0.029 A 
ATOM     43  C   UNL A   1      40.629  33.565  32.056  1.00  0.00     0.049 A 
ATOM     44  H   UNL A   1      40.672  31.746  31.040  1.00  0.00     0.167 HD
ATOM     45  C   UNL A   1      40.630  27.935  28.937  1.00  0.00     0.031 A 
ATOM     46  C   UNL A   1      41.729  33.621  32.830  1.00  0.00     0.031 A 
ATOM     47  C   UNL A   1      41.813  27.888  29.756  1.00  0.00     0.049 A 
ATOM     48  C   UNL A   1      42.666  32.447  32.867  1.00  0.00     0.074 A 
ATOM     49  C   UNL A   1      42.765  26.886  29.841  1.00  0.00     0.029 A 
ATOM     50  N   UNL A   1      42.213  28.893  30.621  1.00  0.00    -0.354 N 
ATOM     51  N   UNL A   1      42.609  31.326  32.192  1.00  0.00    -0.248 NA
ATOM     52  C   UNL A   1      43.808  32.543  33.786  1.00  0.00     0.031 C 
ATOM     53  C   UNL A   1      43.722  27.269  30.786  1.00  0.00     0.029 A 
ATOM     54  C   UNL A   1      43.390  28.530  31.254  1.00  0.00     0.049 A 
ATOM     55  H   UNL A   1      41.732  29.741  30.765  1.00  0.00     0.167 HD
ATOM     56  C   UNL A   1      43.713  30.587  32.598  1.00  0.00     0.074 A 
ATOM     57  C   UNL A   1      44.433  31.397  33.559  1.00  0.00     0.031 C 
ATOM     58  C   UNL A   1      44.093  29.344  32.211  1.00  0.00     0.031 A 
BRANCH  45  59
ATOM     59  C   UNL A   1      40.321  26.745  28.071  1.00  0.00    -0.014 A 
ATOM     60  C   UNL A   1      40.867  26.607  26.786  1.00  0.00     0.009 A 
ATOM     61  C   UNL A   1      39.492  25.728  28.569  1.00  0.00     0.009 A 
ATOM     62  C   UNL A   1      40.561  25.489  26.005  1.00  0.00     0.001 A 
ATOM     63  C   UNL A   1      39.209  24.599  27.799  1.00  0.00     0.001 A 
ATOM     64  C   UNL A   1      39.736  24.486  26.513  1.00  0.00     0.000 A 
ENDBRANCH  45  59
BRANCH  46  65
ATOM     65  C   UNL A   1      41.980  34.818  33.675  1.00  0.00    -0.014 A 
ATOM     66  C   UNL A   1      41.414  34.923  34.954  1.00  0.00     0.009 A 
ATOM     67  C   UNL A   1      42.790  35.864  33.202  1.00  0.00     0.009 A 
ATOM     68  C   UNL A   1      41.642  36.058  35.736  1.00  0.00     0.001 A 
ATOM     69  C   UNL A   1      43.040  36.983  33.998  1.00  0.00     0.001 A 
ATOM     70  C   UNL A   1      42.460  37.083  35.261  1.00  0.00     0.000 A 
ENDBRANCH  46  65
BRANCH  58  71
ATOM     71  C   UNL A   1      45.359  28.801  32.807  1.00  0.00    -0.014 A 
ATOM     72  C   UNL A   1      46.603  29.030  32.201  1.00  0.00     0.009 A 
ATOM     73  C   UNL A   1      45.307  28.076  34.007  1.00  0.00     0.009 A 
ATOM     74  C   UNL A   1      47.769  28.514  32.770  1.00  0.00     0.001 A 
ATOM     75  C   UNL A   1      46.477  27.583  34.587  1.00  0.00     0.001 A 
ATOM     76  C   UNL A   1      47.706  27.796  33.964  1.00  0.00     0.000 A 
ENDBRANCH  58  71
ENDBRANCH  32  33
ENDBRANCH  25  27
ENDBRANCH  24  25
ENDBRANCH  23  24
ENDBRANCH   1  23
TORSDOF 15
ENDMDL
MODEL 3
REMARK VINA RESULT:      -9.6      0.554      5.992
REMARK SMILES CC(C)c1nc(COc2c(F)cc(C(=O)OCCOC(=O)c3ccc(-c4c5nc(c(-c6ccccc6)c6ccc([nH]6)c(-c6ccccc6)c6nc(c(-c7ccccc7)c7ccc4[nH]7)C=C6)C=C5)cc3)cc2F)no1
REMARK SMILES IDX 17 1 16 2 14 3 15 4 13 5 9 6 10 7 71 8 11 9 12 10 70 11
REMARK SMILES IDX 72 12 8 13 7 14 6 15 4 16 5 17 74 18 73 19 2 20 1 21 3 22
REMARK SMILES IDX 18 23 19 24 20 25 21 26 22 27 23 28 69 29 24 30 68 31 25 32
REMARK SMILES IDX 26 33 27 34 62 35 28 36 67 37 61 38 63 39 29 40 66 41 60 42
REMARK SMILES IDX 59 43 30 45 52 46 37 47 51 48 38 49 41 50 50 51 64 52 39 53
REMARK SMILES IDX 40 54 49 56 65 57 42 58 31 59 32 60 36 61 33 62 35 63 34 64
REMARK SMILES IDX 53 65 54 66 58 67 55 68 57 69 56 70 43 71 44 72 48 73 45 74
REMARK SMILES IDX 47 75 46 76
REMARK H PARENT 63 44 41 55
REMARK Flexibility Score: inf
ROOT
ATOM      1  C   UNL A   1      45.192  19.705  24.685  1.00  0.00     0.275 C 
ENDROOT
BRANCH   1   2
ATOM      2  O   UNL A   1      45.340  21.084  25.074  1.00  0.00    -0.458 OA
BRANCH   2   3
ATOM      3  C   UNL A   1      44.978  22.013  24.156  1.00  0.00     0.338 C 
ATOM      4  O   UNL A   1      44.378  21.812  23.117  1.00  0.00    -0.246 OA
BRANCH   3   5
ATOM      5  C   UNL A   1      45.316  23.379  24.636  1.00  0.00     0.066 A 
ATOM      6  C   UNL A   1      46.084  25.950  25.435  1.00  0.00     0.191 A 
ATOM      7  C   UNL A   1      44.754  25.671  25.123  1.00  0.00     0.169 A 
ATOM      8  C   UNL A   1      47.031  24.940  25.324  1.00  0.00     0.169 A 
ATOM      9  F   UNL A   1      43.821  26.630  25.210  1.00  0.00    -0.203 F 
ATOM     10  C   UNL A   1      44.359  24.393  24.734  1.00  0.00     0.059 A 
ATOM     11  C   UNL A   1      46.656  23.654  24.951  1.00  0.00     0.059 A 
ATOM     12  F   UNL A   1      48.322  25.194  25.577  1.00  0.00    -0.203 F 
BRANCH   6  13
ATOM     13  O   UNL A   1      46.460  27.217  25.796  1.00  0.00    -0.479 OA
BRANCH  13  14
ATOM     14  C   UNL A   1      46.430  28.109  24.659  1.00  0.00     0.310 C 
BRANCH  14  15
ATOM     15  C   UNL A   1      47.678  28.057  23.848  1.00  0.00     0.209 A 
ATOM     16  C   UNL A   1      48.930  27.675  22.219  1.00  0.00     0.229 A 
ATOM     17  N   UNL A   1      47.655  27.845  22.488  1.00  0.00    -0.192 NA
ATOM     18  O   UNL A   1      49.740  27.828  23.307  1.00  0.00    -0.339 OA
ATOM     19  N   UNL A   1      48.901  28.091  24.392  1.00  0.00    -0.059 NA
BRANCH  16  20
ATOM     20  C   UNL A   1      49.591  27.321  20.935  1.00  0.00     0.073 C 
ATOM     21  C   UNL A   1      51.111  27.283  21.101  1.00  0.00     0.018 C 
ATOM     22  C   UNL A   1      49.069  25.983  20.419  1.00  0.00     0.018 C 
ENDBRANCH  16  20
ENDBRANCH  14  15
ENDBRANCH  13  14
ENDBRANCH   6  13
ENDBRANCH   3   5
ENDBRANCH   2   3
ENDBRANCH   1   2
BRANCH   1  23
ATOM     23  C   UNL A   1      44.047  19.046  25.455  1.00  0.00     0.275 C 
BRANCH  23  24
ATOM     24  O   UNL A   1      42.774  19.484  24.941  1.00  0.00    -0.458 OA
BRANCH  24  25
ATOM     25  C   UNL A   1      41.774  19.557  25.847  1.00  0.00     0.338 C 
ATOM     26  O   UNL A   1      40.986  18.682  26.165  1.00  0.00    -0.246 OA
BRANCH  25  27
ATOM     27  C   UNL A   1      41.825  20.861  26.523  1.00  0.00     0.060 A 
ATOM     28  C   UNL A   1      41.771  22.004  25.730  1.00  0.00     0.016 A 
ATOM     29  C   UNL A   1      42.059  20.964  27.892  1.00  0.00     0.016 A 
ATOM     30  C   UNL A   1      42.004  23.258  26.285  1.00  0.00     0.010 A 
ATOM     31  C   UNL A   1      42.232  22.233  28.462  1.00  0.00     0.010 A 
ATOM     32  C   UNL A   1      42.231  23.390  27.661  1.00  0.00    -0.014 A 
BRANCH  32  33
ATOM     33  C   UNL A   1      42.522  24.732  28.237  1.00  0.00     0.031 A 
ATOM     34  C   UNL A   1      43.923  25.089  28.658  1.00  0.00     0.074 A 
ATOM     35  C   UNL A   1      41.543  25.652  28.351  1.00  0.00     0.049 A 
ATOM     36  N   UNL A   1      44.350  26.150  29.296  1.00  0.00    -0.248 NA
ATOM     37  C   UNL A   1      44.981  24.123  28.322  1.00  0.00     0.031 C 
ATOM     38  C   UNL A   1      40.153  25.472  27.927  1.00  0.00     0.029 A 
ATOM     39  N   UNL A   1      41.574  26.933  28.846  1.00  0.00    -0.354 N 
ATOM     40  C   UNL A   1      45.714  25.956  29.485  1.00  0.00     0.074 A 
ATOM     41  C   UNL A   1      46.042  24.675  28.896  1.00  0.00     0.031 C 
ATOM     42  C   UNL A   1      39.476  26.610  28.143  1.00  0.00     0.029 A 
ATOM     43  C   UNL A   1      40.358  27.572  28.794  1.00  0.00     0.049 A 
ATOM     44  H   UNL A   1      42.389  27.353  29.204  1.00  0.00     0.167 HD
ATOM     45  C   UNL A   1      46.609  26.767  30.095  1.00  0.00     0.031 A 
ATOM     46  C   UNL A   1      39.981  28.781  29.251  1.00  0.00     0.031 A 
ATOM     47  C   UNL A   1      46.294  28.059  30.647  1.00  0.00     0.049 A 
ATOM     48  C   UNL A   1      40.983  29.645  29.964  1.00  0.00     0.074 A 
ATOM     49  C   UNL A   1      47.138  28.955  31.284  1.00  0.00     0.029 A 
ATOM     50  N   UNL A   1      45.040  28.646  30.614  1.00  0.00    -0.354 N 
ATOM     51  N   UNL A   1      42.254  29.420  30.188  1.00  0.00    -0.248 NA
ATOM     52  C   UNL A   1      40.491  30.921  30.502  1.00  0.00     0.031 C 
ATOM     53  C   UNL A   1      46.384  30.068  31.669  1.00  0.00     0.029 A 
ATOM     54  C   UNL A   1      45.083  29.885  31.231  1.00  0.00     0.049 A 
ATOM     55  H   UNL A   1      44.237  28.242  30.212  1.00  0.00     0.167 HD
ATOM     56  C   UNL A   1      42.716  30.530  30.883  1.00  0.00     0.074 A 
ATOM     57  C   UNL A   1      41.594  31.436  31.023  1.00  0.00     0.031 C 
ATOM     58  C   UNL A   1      43.959  30.774  31.367  1.00  0.00     0.031 A 
BRANCH  45  59
ATOM     59  C   UNL A   1      48.018  26.260  30.240  1.00  0.00    -0.014 A 
ATOM     60  C   UNL A   1      48.966  26.419  29.219  1.00  0.00     0.009 A 
ATOM     61  C   UNL A   1      48.406  25.639  31.438  1.00  0.00     0.009 A 
ATOM     62  C   UNL A   1      50.268  25.936  29.384  1.00  0.00     0.001 A 
ATOM     63  C   UNL A   1      49.713  25.181  31.611  1.00  0.00     0.001 A 
ATOM     64  C   UNL A   1      50.640  25.322  30.579  1.00  0.00     0.000 A 
ENDBRANCH  45  59
BRANCH  46  65
ATOM     65  C   UNL A   1      38.573  29.229  29.091  1.00  0.00    -0.014 A 
ATOM     66  C   UNL A   1      38.139  29.810  27.890  1.00  0.00     0.009 A 
ATOM     67  C   UNL A   1      37.655  29.078  30.143  1.00  0.00     0.009 A 
ATOM     68  C   UNL A   1      36.817  30.243  27.752  1.00  0.00     0.001 A 
ATOM     69  C   UNL A   1      36.328  29.483  29.991  1.00  0.00     0.001 A 
ATOM     70  C   UNL A   1      35.913  30.074  28.800  1.00  0.00     0.000 A 
ENDBRANCH  46  65
BRANCH  58  71
ATOM     71  C   UNL A   1      44.174  32.085  32.066  1.00  0.00    -0.014 A 
ATOM     72  C   UNL A   1      44.552  33.233  31.354  1.00  0.00     0.009 A 
ATOM     73  C   UNL A   1      43.965  32.177  33.450  1.00  0.00     0.009 A 
ATOM     74  C   UNL A   1      44.750  34.443  32.023  1.00  0.00     0.001 A 
ATOM     75  C   UNL A   1      44.139  33.394  34.112  1.00  0.00     0.001 A 
ATOM     76  C   UNL A   1      44.539  34.523  33.400  1.00  0.00     0.000 A 
ENDBRANCH  58  71
ENDBRANCH  32  33
ENDBRANCH  25  27
ENDBRANCH  24  25
ENDBRANCH  23  24
ENDBRANCH   1  23
TORSDOF 15
ENDMDL
