MODEL 1
REMARK VINA RESULT:     -10.4      0.000      0.000
REMARK SMILES CC(C)C[C@@H](NS(=O)(=O)/C=C/c1ccc(Cl)cc1)C(=O)OCCOC(=O)c1ccc(-c2c3nc(c(-c4ccccc4)c4ccc([nH]4)c(-c4ccccc4)c4nc(c(-c5ccccc5)c5ccc2[nH]5)C=C4)C=C3)cc1
REMARK SMILES IDX 22 1 21 2 19 3 20 4 5 5 4 6 2 7 1 8 3 9 6 10 7 12 8 13 9 14
REMARK SMILES IDX 10 15 11 16 12 17 13 18 18 19 14 20 17 21 15 22 16 23 23 24
REMARK SMILES IDX 24 25 25 26 26 27 27 28 28 29 74 30 29 31 73 32 30 33 31 34
REMARK SMILES IDX 32 35 67 36 33 37 72 38 66 39 68 40 34 41 71 42 65 43 64 44
REMARK SMILES IDX 35 46 57 47 42 48 56 49 43 50 46 51 55 52 69 53 44 54 45 55
REMARK SMILES IDX 54 57 70 58 47 59 36 60 37 61 41 62 38 63 40 64 39 65 58 66
REMARK SMILES IDX 59 67 63 68 60 69 62 70 61 71 48 72 49 73 53 74 50 75 52 76
REMARK SMILES IDX 51 77
REMARK H PARENT 6 11 68 45 46 56
REMARK Flexibility Score: inf
ROOT
ATOM      1  C   UNL A   1      35.924  20.002  24.943  1.00  0.00     0.274 C 
ENDROOT
BRANCH   1   2
ATOM      2  O   UNL A   1      35.112  21.156  24.670  1.00  0.00    -0.461 OA
BRANCH   2   3
ATOM      3  C   UNL A   1      33.976  21.275  25.405  1.00  0.00     0.324 C 
ATOM      4  O   UNL A   1      33.652  20.518  26.312  1.00  0.00    -0.250 OA
BRANCH   3   5
ATOM      5  C   UNL A   1      33.077  22.422  24.974  1.00  0.00     0.180 C 
BRANCH   5   6
ATOM      6  C   UNL A   1      33.209  22.682  23.464  1.00  0.00     0.035 C 
BRANCH   6   7
ATOM      7  C   UNL A   1      33.859  24.017  23.033  1.00  0.00    -0.015 C 
ATOM      8  C   UNL A   1      33.007  24.839  22.062  1.00  0.00     0.007 C 
ATOM      9  C   UNL A   1      34.116  24.864  24.288  1.00  0.00     0.007 C 
ENDBRANCH   6   7
ENDBRANCH   5   6
BRANCH   5  10
ATOM     10  N   UNL A   1      31.673  22.139  25.400  1.00  0.00    -0.197 NA
ATOM     11  H   UNL A   1      31.644  21.186  25.763  1.00  0.00     0.142 HD
BRANCH  10  12
ATOM     12  S   UNL A   1      31.026  23.180  26.605  1.00  0.00     0.234 S 
ATOM     13  O   UNL A   1      29.694  22.683  26.859  1.00  0.00    -0.208 OA
ATOM     14  O   UNL A   1      32.018  23.147  27.665  1.00  0.00    -0.208 OA
BRANCH  12  15
ATOM     15  C   UNL A   1      30.907  24.802  26.008  1.00  0.00     0.123 C 
ATOM     16  C   UNL A   1      30.429  25.054  24.781  1.00  0.00     0.021 C 
BRANCH  16  17
ATOM     17  C   UNL A   1      30.163  26.407  24.263  1.00  0.00    -0.025 A 
ATOM     18  C   UNL A   1      31.234  27.288  24.078  1.00  0.00     0.009 A 
ATOM     19  C   UNL A   1      28.893  26.801  23.811  1.00  0.00     0.009 A 
ATOM     20  C   UNL A   1      31.050  28.508  23.417  1.00  0.00     0.021 A 
ATOM     21  C   UNL A   1      28.712  27.999  23.112  1.00  0.00     0.021 A 
ATOM     22  C   UNL A   1      29.796  28.845  22.912  1.00  0.00     0.041 A 
ATOM     23  Cl  UNL A   1      29.591  30.298  22.014  1.00  0.00    -0.084 Cl
ENDBRANCH  16  17
ENDBRANCH  12  15
ENDBRANCH  10  12
ENDBRANCH   5  10
ENDBRANCH   3   5
ENDBRANCH   2   3
ENDBRANCH   1   2
BRANCH   1  24
ATOM     24  C   UNL A   1      37.438  20.200  24.758  1.00  0.00     0.275 C 
BRANCH  24  25
ATOM     25  O   UNL A   1      37.977  21.360  25.425  1.00  0.00    -0.458 OA
BRANCH  25  26
ATOM     26  C   UNL A   1      39.147  21.142  26.074  1.00  0.00     0.338 C 
ATOM     27  O   UNL A   1      39.811  20.116  26.046  1.00  0.00    -0.246 OA
BRANCH  26  28
ATOM     28  C   UNL A   1      39.662  22.377  26.695  1.00  0.00     0.060 A 
ATOM     29  C   UNL A   1      39.097  23.589  26.276  1.00  0.00     0.016 A 
ATOM     30  C   UNL A   1      40.750  22.378  27.564  1.00  0.00     0.016 A 
ATOM     31  C   UNL A   1      39.618  24.803  26.698  1.00  0.00     0.010 A 
ATOM     32  C   UNL A   1      41.295  23.604  27.971  1.00  0.00     0.010 A 
ATOM     33  C   UNL A   1      40.748  24.820  27.516  1.00  0.00    -0.014 A 
BRANCH  33  34
ATOM     34  C   UNL A   1      41.436  26.110  27.755  1.00  0.00     0.031 A 
ATOM     35  C   UNL A   1      40.767  27.142  28.618  1.00  0.00     0.074 A 
ATOM     36  C   UNL A   1      42.672  26.328  27.273  1.00  0.00     0.049 A 
ATOM     37  N   UNL A   1      41.147  28.362  28.898  1.00  0.00    -0.248 NA
ATOM     38  C   UNL A   1      39.501  26.744  29.255  1.00  0.00     0.031 C 
ATOM     39  C   UNL A   1      43.468  25.366  26.511  1.00  0.00     0.029 A 
ATOM     40  N   UNL A   1      43.476  27.437  27.359  1.00  0.00    -0.354 N 
ATOM     41  C   UNL A   1      40.156  28.886  29.718  1.00  0.00     0.074 A 
ATOM     42  C   UNL A   1      39.149  27.858  29.879  1.00  0.00     0.031 C 
ATOM     43  C   UNL A   1      44.646  25.929  26.195  1.00  0.00     0.029 A 
ATOM     44  C   UNL A   1      44.663  27.304  26.684  1.00  0.00     0.049 A 
ATOM     45  H   UNL A   1      43.225  28.248  27.858  1.00  0.00     0.167 HD
ATOM     46  C   UNL A   1      40.089  30.115  30.285  1.00  0.00     0.031 A 
ATOM     47  C   UNL A   1      45.638  28.205  26.457  1.00  0.00     0.031 A 
ATOM     48  C   UNL A   1      41.092  31.132  30.121  1.00  0.00     0.049 A 
ATOM     49  C   UNL A   1      45.494  29.598  27.012  1.00  0.00     0.074 A 
ATOM     50  C   UNL A   1      41.116  32.412  30.645  1.00  0.00     0.029 A 
ATOM     51  N   UNL A   1      42.252  30.981  29.375  1.00  0.00    -0.354 N 
ATOM     52  N   UNL A   1      44.539  30.095  27.761  1.00  0.00    -0.248 NA
ATOM     53  C   UNL A   1      46.562  30.553  26.686  1.00  0.00     0.031 C 
ATOM     54  C   UNL A   1      42.263  33.057  30.169  1.00  0.00     0.029 A 
ATOM     55  C   UNL A   1      42.986  32.155  29.402  1.00  0.00     0.049 A 
ATOM     56  H   UNL A   1      42.514  30.162  28.898  1.00  0.00     0.167 HD
ATOM     57  C   UNL A   1      44.905  31.409  28.021  1.00  0.00     0.074 A 
ATOM     58  C   UNL A   1      46.176  31.626  27.361  1.00  0.00     0.031 C 
ATOM     59  C   UNL A   1      44.249  32.352  28.740  1.00  0.00     0.031 A 
BRANCH  46  60
ATOM     60  C   UNL A   1      38.860  30.440  31.087  1.00  0.00    -0.014 A 
ATOM     61  C   UNL A   1      37.707  30.969  30.488  1.00  0.00     0.009 A 
ATOM     62  C   UNL A   1      38.853  30.191  32.469  1.00  0.00     0.009 A 
ATOM     63  C   UNL A   1      36.585  31.275  31.262  1.00  0.00     0.001 A 
ATOM     64  C   UNL A   1      37.720  30.469  33.235  1.00  0.00     0.001 A 
ATOM     65  C   UNL A   1      36.590  31.021  32.633  1.00  0.00     0.000 A 
ENDBRANCH  46  60
BRANCH  47  66
ATOM     66  C   UNL A   1      46.817  27.838  25.628  1.00  0.00    -0.014 A 
ATOM     67  C   UNL A   1      46.774  27.938  24.230  1.00  0.00     0.009 A 
ATOM     68  C   UNL A   1      47.991  27.363  26.237  1.00  0.00     0.009 A 
ATOM     69  C   UNL A   1      47.871  27.548  23.458  1.00  0.00     0.001 A 
ATOM     70  C   UNL A   1      49.097  27.004  25.466  1.00  0.00     0.001 A 
ATOM     71  C   UNL A   1      49.033  27.086  24.076  1.00  0.00     0.000 A 
ENDBRANCH  47  66
BRANCH  59  72
ATOM     72  C   UNL A   1      44.917  33.691  28.888  1.00  0.00    -0.014 A 
ATOM     73  C   UNL A   1      44.730  34.711  27.943  1.00  0.00     0.009 A 
ATOM     74  C   UNL A   1      45.716  33.945  30.014  1.00  0.00     0.009 A 
ATOM     75  C   UNL A   1      45.360  35.947  28.106  1.00  0.00     0.001 A 
ATOM     76  C   UNL A   1      46.319  35.191  30.190  1.00  0.00     0.001 A 
ATOM     77  C   UNL A   1      46.149  36.187  29.230  1.00  0.00     0.000 A 
ENDBRANCH  59  72
ENDBRANCH  33  34
ENDBRANCH  26  28
ENDBRANCH  25  26
ENDBRANCH  24  25
ENDBRANCH   1  24
TORSDOF 17
ENDMDL
MODEL 2
REMARK VINA RESULT:     -10.3      1.776      2.252
REMARK SMILES CC(C)C[C@@H](NS(=O)(=O)/C=C/c1ccc(Cl)cc1)C(=O)OCCOC(=O)c1ccc(-c2c3nc(c(-c4ccccc4)c4ccc([nH]4)c(-c4ccccc4)c4nc(c(-c5ccccc5)c5ccc2[nH]5)C=C4)C=C3)cc1
REMARK SMILES IDX 22 1 21 2 19 3 20 4 5 5 4 6 2 7 1 8 3 9 6 10 7 12 8 13 9 14
REMARK SMILES IDX 10 15 11 16 12 17 13 18 18 19 14 20 17 21 15 22 16 23 23 24
REMARK SMILES IDX 24 25 25 26 26 27 27 28 28 29 74 30 29 31 73 32 30 33 31 34
REMARK SMILES IDX 32 35 67 36 33 37 72 38 66 39 68 40 34 41 71 42 65 43 64 44
REMARK SMILES IDX 35 46 57 47 42 48 56 49 43 50 46 51 55 52 69 53 44 54 45 55
REMARK SMILES IDX 54 57 70 58 47 59 36 60 37 61 41 62 38 63 40 64 39 65 58 66
REMARK SMILES IDX 59 67 63 68 60 69 62 70 61 71 48 72 49 73 53 74 50 75 52 76
REMARK SMILES IDX 51 77
REMARK H PARENT 6 11 68 45 46 56
REMARK Flexibility Score: inf
ROOT
ATOM      1  C   UNL A   1      35.099  22.520  25.992  1.00  0.00     0.274 C 
ENDROOT
BRANCH   1   2
ATOM      2  O   UNL A   1      34.736  23.297  24.839  1.00  0.00    -0.461 OA
BRANCH   2   3
ATOM      3  C   UNL A   1      33.549  22.983  24.256  1.00  0.00     0.324 C 
ATOM      4  O   UNL A   1      33.273  21.885  23.790  1.00  0.00    -0.250 OA
BRANCH   3   5
ATOM      5  C   UNL A   1      32.575  24.146  24.171  1.00  0.00     0.180 C 
BRANCH   5   6
ATOM      6  C   UNL A   1      32.272  24.501  22.706  1.00  0.00     0.035 C 
BRANCH   6   7
ATOM      7  C   UNL A   1      32.199  26.002  22.346  1.00  0.00    -0.015 C 
ATOM      8  C   UNL A   1      30.918  26.695  22.820  1.00  0.00     0.007 C 
ATOM      9  C   UNL A   1      33.401  26.718  22.981  1.00  0.00     0.007 C 
ENDBRANCH   6   7
ENDBRANCH   5   6
BRANCH   5  10
ATOM     10  N   UNL A   1      31.349  23.824  24.963  1.00  0.00    -0.197 NA
ATOM     11  H   UNL A   1      31.388  22.835  25.208  1.00  0.00     0.142 HD
BRANCH  10  12
ATOM     12  S   UNL A   1      31.130  24.718  26.414  1.00  0.00     0.234 S 
ATOM     13  O   UNL A   1      29.773  25.208  26.356  1.00  0.00    -0.208 OA
ATOM     14  O   UNL A   1      31.513  23.786  27.460  1.00  0.00    -0.208 OA
BRANCH  12  15
ATOM     15  C   UNL A   1      32.207  26.075  26.460  1.00  0.00     0.123 C 
ATOM     16  C   UNL A   1      31.735  27.330  26.504  1.00  0.00     0.021 C 
BRANCH  16  17
ATOM     17  C   UNL A   1      32.583  28.521  26.691  1.00  0.00    -0.025 A 
ATOM     18  C   UNL A   1      31.979  29.780  26.768  1.00  0.00     0.009 A 
ATOM     19  C   UNL A   1      33.962  28.428  26.940  1.00  0.00     0.009 A 
ATOM     20  C   UNL A   1      32.725  30.909  27.130  1.00  0.00     0.021 A 
ATOM     21  C   UNL A   1      34.703  29.544  27.343  1.00  0.00     0.021 A 
ATOM     22  C   UNL A   1      34.076  30.781  27.444  1.00  0.00     0.041 A 
ATOM     23  Cl  UNL A   1      34.969  32.148  27.985  1.00  0.00    -0.084 Cl
ENDBRANCH  16  17
ENDBRANCH  12  15
ENDBRANCH  10  12
ENDBRANCH   5  10
ENDBRANCH   3   5
ENDBRANCH   2   3
ENDBRANCH   1   2
BRANCH   1  24
ATOM     24  C   UNL A   1      36.124  21.401  25.739  1.00  0.00     0.275 C 
BRANCH  24  25
ATOM     25  O   UNL A   1      37.340  21.836  25.098  1.00  0.00    -0.458 OA
BRANCH  25  26
ATOM     26  C   UNL A   1      38.476  21.493  25.756  1.00  0.00     0.338 C 
ATOM     27  O   UNL A   1      39.047  20.414  25.702  1.00  0.00    -0.246 OA
BRANCH  26  28
ATOM     28  C   UNL A   1      39.086  22.656  26.428  1.00  0.00     0.060 A 
ATOM     29  C   UNL A   1      38.611  23.925  26.070  1.00  0.00     0.016 A 
ATOM     30  C   UNL A   1      40.177  22.535  27.285  1.00  0.00     0.016 A 
ATOM     31  C   UNL A   1      39.225  25.076  26.542  1.00  0.00     0.010 A 
ATOM     32  C   UNL A   1      40.815  23.696  27.743  1.00  0.00     0.010 A 
ATOM     33  C   UNL A   1      40.358  24.970  27.349  1.00  0.00    -0.014 A 
BRANCH  33  34
ATOM     34  C   UNL A   1      41.144  26.192  27.640  1.00  0.00     0.031 A 
ATOM     35  C   UNL A   1      40.553  27.238  28.543  1.00  0.00     0.074 A 
ATOM     36  C   UNL A   1      42.394  26.333  27.167  1.00  0.00     0.049 A 
ATOM     37  N   UNL A   1      41.026  28.412  28.872  1.00  0.00    -0.248 NA
ATOM     38  C   UNL A   1      39.258  26.914  29.163  1.00  0.00     0.031 C 
ATOM     39  C   UNL A   1      43.116  25.343  26.368  1.00  0.00     0.029 A 
ATOM     40  N   UNL A   1      43.282  27.372  27.299  1.00  0.00    -0.354 N 
ATOM     41  C   UNL A   1      40.075  28.978  29.712  1.00  0.00     0.074 A 
ATOM     42  C   UNL A   1      38.992  28.026  29.831  1.00  0.00     0.031 C 
ATOM     43  C   UNL A   1      44.335  25.826  26.075  1.00  0.00     0.029 A 
ATOM     44  C   UNL A   1      44.458  27.175  26.619  1.00  0.00     0.049 A 
ATOM     45  H   UNL A   1      43.093  28.179  27.830  1.00  0.00     0.167 HD
ATOM     46  C   UNL A   1      40.102  30.185  30.327  1.00  0.00     0.031 A 
ATOM     47  C   UNL A   1      45.500  28.006  26.429  1.00  0.00     0.031 A 
ATOM     48  C   UNL A   1      41.182  31.127  30.205  1.00  0.00     0.049 A 
ATOM     49  C   UNL A   1      45.462  29.382  27.039  1.00  0.00     0.074 A 
ATOM     50  C   UNL A   1      41.303  32.380  30.780  1.00  0.00     0.029 A 
ATOM     51  N   UNL A   1      42.329  30.917  29.454  1.00  0.00    -0.354 N 
ATOM     52  N   UNL A   1      44.546  29.921  27.807  1.00  0.00    -0.248 NA
ATOM     53  C   UNL A   1      46.603  30.263  26.752  1.00  0.00     0.031 C 
ATOM     54  C   UNL A   1      42.498  32.952  30.330  1.00  0.00     0.029 A 
ATOM     55  C   UNL A   1      43.151  32.028  29.529  1.00  0.00     0.049 A 
ATOM     56  H   UNL A   1      42.528  30.099  28.945  1.00  0.00     0.167 HD
ATOM     57  C   UNL A   1      45.012  31.192  28.119  1.00  0.00     0.074 A 
ATOM     58  C   UNL A   1      46.298  31.336  27.469  1.00  0.00     0.031 C 
ATOM     59  C   UNL A   1      44.428  32.153  28.876  1.00  0.00     0.031 A 
BRANCH  46  60
ATOM     60  C   UNL A   1      38.899  30.572  31.142  1.00  0.00    -0.014 A 
ATOM     61  C   UNL A   1      37.790  31.208  30.563  1.00  0.00     0.009 A 
ATOM     62  C   UNL A   1      38.871  30.275  32.514  1.00  0.00     0.009 A 
ATOM     63  C   UNL A   1      36.693  31.569  31.348  1.00  0.00     0.001 A 
ATOM     64  C   UNL A   1      37.760  30.609  33.290  1.00  0.00     0.001 A 
ATOM     65  C   UNL A   1      36.676  31.265  32.709  1.00  0.00     0.000 A 
ENDBRANCH  46  60
BRANCH  47  66
ATOM     66  C   UNL A   1      46.650  27.581  25.586  1.00  0.00    -0.014 A 
ATOM     67  C   UNL A   1      47.733  26.885  26.143  1.00  0.00     0.009 A 
ATOM     68  C   UNL A   1      46.677  27.892  24.216  1.00  0.00     0.009 A 
ATOM     69  C   UNL A   1      48.828  26.530  25.352  1.00  0.00     0.001 A 
ATOM     70  C   UNL A   1      47.758  27.509  23.422  1.00  0.00     0.001 A 
ATOM     71  C   UNL A   1      48.838  26.838  23.991  1.00  0.00     0.000 A 
ENDBRANCH  47  66
BRANCH  59  72
ATOM     72  C   UNL A   1      45.198  33.429  29.078  1.00  0.00    -0.014 A 
ATOM     73  C   UNL A   1      45.011  34.537  28.237  1.00  0.00     0.009 A 
ATOM     74  C   UNL A   1      46.095  33.533  30.152  1.00  0.00     0.009 A 
ATOM     75  C   UNL A   1      45.736  35.712  28.448  1.00  0.00     0.001 A 
ATOM     76  C   UNL A   1      46.795  34.719  30.379  1.00  0.00     0.001 A 
ATOM     77  C   UNL A   1      46.623  35.803  29.521  1.00  0.00     0.000 A 
ENDBRANCH  59  72
ENDBRANCH  33  34
ENDBRANCH  26  28
ENDBRANCH  25  26
ENDBRANCH  24  25
ENDBRANCH   1  24
TORSDOF 17
ENDMDL
MODEL 3
REMARK VINA RESULT:     -10.3      0.549      5.985
REMARK SMILES CC(C)C[C@@H](NS(=O)(=O)/C=C/c1ccc(Cl)cc1)C(=O)OCCOC(=O)c1ccc(-c2c3nc(c(-c4ccccc4)c4ccc([nH]4)c(-c4ccccc4)c4nc(c(-c5ccccc5)c5ccc2[nH]5)C=C4)C=C3)cc1
REMARK SMILES IDX 22 1 21 2 19 3 20 4 5 5 4 6 2 7 1 8 3 9 6 10 7 12 8 13 9 14
REMARK SMILES IDX 10 15 11 16 12 17 13 18 18 19 14 20 17 21 15 22 16 23 23 24
REMARK SMILES IDX 24 25 25 26 26 27 27 28 28 29 74 30 29 31 73 32 30 33 31 34
REMARK SMILES IDX 32 35 67 36 33 37 72 38 66 39 68 40 34 41 71 42 65 43 64 44
REMARK SMILES IDX 35 46 57 47 42 48 56 49 43 50 46 51 55 52 69 53 44 54 45 55
REMARK SMILES IDX 54 57 70 58 47 59 36 60 37 61 41 62 38 63 40 64 39 65 58 66
REMARK SMILES IDX 59 67 63 68 60 69 62 70 61 71 48 72 49 73 53 74 50 75 52 76
REMARK SMILES IDX 51 77
REMARK H PARENT 6 11 68 45 46 56
REMARK Flexibility Score: inf
ROOT
ATOM      1  C   UNL A   1      35.984  20.162  25.012  1.00  0.00     0.274 C 
ENDROOT
BRANCH   1   2
ATOM      2  O   UNL A   1      34.968  21.040  24.500  1.00  0.00    -0.461 OA
BRANCH   2   3
ATOM      3  C   UNL A   1      33.848  21.165  25.260  1.00  0.00     0.324 C 
ATOM      4  O   UNL A   1      33.420  20.302  26.016  1.00  0.00    -0.250 OA
BRANCH   3   5
ATOM      5  C   UNL A   1      33.107  22.476  25.058  1.00  0.00     0.180 C 
BRANCH   5   6
ATOM      6  C   UNL A   1      33.383  23.051  23.658  1.00  0.00     0.035 C 
BRANCH   6   7
ATOM      7  C   UNL A   1      34.172  24.378  23.584  1.00  0.00    -0.015 C 
ATOM      8  C   UNL A   1      33.485  25.465  22.753  1.00  0.00     0.007 C 
ATOM      9  C   UNL A   1      34.368  24.912  25.011  1.00  0.00     0.007 C 
ENDBRANCH   6   7
ENDBRANCH   5   6
BRANCH   5  10
ATOM     10  N   UNL A   1      31.652  22.271  25.332  1.00  0.00    -0.197 NA
ATOM     11  H   UNL A   1      31.513  21.285  25.552  1.00  0.00     0.142 HD
BRANCH  10  12
ATOM     12  S   UNL A   1      30.989  23.197  26.619  1.00  0.00     0.234 S 
ATOM     13  O   UNL A   1      29.694  22.612  26.877  1.00  0.00    -0.208 OA
ATOM     14  O   UNL A   1      32.014  23.151  27.647  1.00  0.00    -0.208 OA
BRANCH  12  15
ATOM     15  C   UNL A   1      30.765  24.844  26.132  1.00  0.00     0.123 C 
ATOM     16  C   UNL A   1      30.394  25.150  24.880  1.00  0.00     0.021 C 
BRANCH  16  17
ATOM     17  C   UNL A   1      30.044  26.511  24.435  1.00  0.00    -0.025 A 
ATOM     18  C   UNL A   1      30.981  27.538  24.587  1.00  0.00     0.009 A 
ATOM     19  C   UNL A   1      28.860  26.789  23.733  1.00  0.00     0.009 A 
ATOM     20  C   UNL A   1      30.762  28.796  24.011  1.00  0.00     0.021 A 
ATOM     21  C   UNL A   1      28.655  28.030  23.120  1.00  0.00     0.021 A 
ATOM     22  C   UNL A   1      29.614  29.027  23.256  1.00  0.00     0.041 A 
ATOM     23  Cl  UNL A   1      29.391  30.539  22.467  1.00  0.00    -0.084 Cl
ENDBRANCH  16  17
ENDBRANCH  12  15
ENDBRANCH  10  12
ENDBRANCH   5  10
ENDBRANCH   3   5
ENDBRANCH   2   3
ENDBRANCH   1   2
BRANCH   1  24
ATOM     24  C   UNL A   1      37.433  20.598  24.739  1.00  0.00     0.275 C 
BRANCH  24  25
ATOM     25  O   UNL A   1      37.886  21.709  25.539  1.00  0.00    -0.458 OA
BRANCH  25  26
ATOM     26  C   UNL A   1      39.082  21.513  26.148  1.00  0.00     0.338 C 
ATOM     27  O   UNL A   1      39.770  20.505  26.086  1.00  0.00    -0.246 OA
BRANCH  26  28
ATOM     28  C   UNL A   1      39.584  22.753  26.769  1.00  0.00     0.060 A 
ATOM     29  C   UNL A   1      38.955  23.952  26.407  1.00  0.00     0.016 A 
ATOM     30  C   UNL A   1      40.718  22.776  27.578  1.00  0.00     0.016 A 
ATOM     31  C   UNL A   1      39.455  25.176  26.828  1.00  0.00     0.010 A 
ATOM     32  C   UNL A   1      41.240  24.012  27.984  1.00  0.00     0.010 A 
ATOM     33  C   UNL A   1      40.626  25.217  27.586  1.00  0.00    -0.014 A 
BRANCH  33  34
ATOM     34  C   UNL A   1      41.280  26.526  27.817  1.00  0.00     0.031 A 
ATOM     35  C   UNL A   1      42.613  26.795  27.178  1.00  0.00     0.074 A 
ATOM     36  C   UNL A   1      40.661  27.488  28.523  1.00  0.00     0.049 A 
ATOM     37  N   UNL A   1      43.399  27.834  27.303  1.00  0.00    -0.248 NA
ATOM     38  C   UNL A   1      43.128  25.756  26.271  1.00  0.00     0.031 C 
ATOM     39  C   UNL A   1      39.322  27.386  29.104  1.00  0.00     0.029 A 
ATOM     40  N   UNL A   1      41.082  28.748  28.866  1.00  0.00    -0.354 N 
ATOM     41  C   UNL A   1      44.511  27.561  26.516  1.00  0.00     0.074 A 
ATOM     42  C   UNL A   1      44.306  26.254  25.929  1.00  0.00     0.031 C 
ATOM     43  C   UNL A   1      39.034  28.535  29.738  1.00  0.00     0.029 A 
ATOM     44  C   UNL A   1      40.185  29.429  29.651  1.00  0.00     0.049 A 
ATOM     45  H   UNL A   1      41.943  29.128  28.576  1.00  0.00     0.167 HD
ATOM     46  C   UNL A   1      45.605  28.330  26.304  1.00  0.00     0.031 A 
ATOM     47  C   UNL A   1      40.298  30.624  30.262  1.00  0.00     0.031 A 
ATOM     48  C   UNL A   1      45.802  29.628  26.891  1.00  0.00     0.049 A 
ATOM     49  C   UNL A   1      41.567  31.416  30.094  1.00  0.00     0.074 A 
ATOM     50  C   UNL A   1      46.879  30.485  26.747  1.00  0.00     0.029 A 
ATOM     51  N   UNL A   1      44.898  30.257  27.734  1.00  0.00    -0.354 N 
ATOM     52  N   UNL A   1      42.627  31.138  29.373  1.00  0.00    -0.248 NA
ATOM     53  C   UNL A   1      41.654  32.687  30.827  1.00  0.00     0.031 C 
ATOM     54  C   UNL A   1      46.652  31.609  27.550  1.00  0.00     0.029 A 
ATOM     55  C   UNL A   1      45.405  31.479  28.141  1.00  0.00     0.049 A 
ATOM     56  H   UNL A   1      44.027  29.888  28.003  1.00  0.00     0.167 HD
ATOM     57  C   UNL A   1      43.494  32.210  29.542  1.00  0.00     0.074 A 
ATOM     58  C   UNL A   1      42.828  33.150  30.421  1.00  0.00     0.031 C 
ATOM     59  C   UNL A   1      44.729  32.401  29.016  1.00  0.00     0.031 A 
BRANCH  46  60
ATOM     60  C   UNL A   1      46.697  27.757  25.444  1.00  0.00    -0.014 A 
ATOM     61  C   UNL A   1      46.769  28.024  24.068  1.00  0.00     0.009 A 
ATOM     62  C   UNL A   1      47.685  26.950  26.031  1.00  0.00     0.009 A 
ATOM     63  C   UNL A   1      47.787  27.466  23.292  1.00  0.00     0.001 A 
ATOM     64  C   UNL A   1      48.719  26.418  25.258  1.00  0.00     0.001 A 
ATOM     65  C   UNL A   1      48.763  26.668  23.887  1.00  0.00     0.000 A 
ENDBRANCH  46  60
BRANCH  47  66
ATOM     66  C   UNL A   1      39.199  31.127  31.128  1.00  0.00    -0.014 A 
ATOM     67  C   UNL A   1      39.143  30.792  32.489  1.00  0.00     0.009 A 
ATOM     68  C   UNL A   1      38.184  31.934  30.588  1.00  0.00     0.009 A 
ATOM     69  C   UNL A   1      38.083  31.233  33.284  1.00  0.00     0.001 A 
ATOM     70  C   UNL A   1      37.142  32.399  31.390  1.00  0.00     0.001 A 
ATOM     71  C   UNL A   1      37.085  32.040  32.736  1.00  0.00     0.000 A 
ENDBRANCH  47  66
BRANCH  59  72
ATOM     72  C   UNL A   1      45.421  33.695  29.344  1.00  0.00    -0.014 A 
ATOM     73  C   UNL A   1      46.251  33.817  30.469  1.00  0.00     0.009 A 
ATOM     74  C   UNL A   1      45.269  34.797  28.487  1.00  0.00     0.009 A 
ATOM     75  C   UNL A   1      46.885  35.029  30.749  1.00  0.00     0.001 A 
ATOM     76  C   UNL A   1      45.930  35.997  28.753  1.00  0.00     0.001 A 
ATOM     77  C   UNL A   1      46.728  36.116  29.889  1.00  0.00     0.000 A 
ENDBRANCH  59  72
ENDBRANCH  33  34
ENDBRANCH  26  28
ENDBRANCH  25  26
ENDBRANCH  24  25
ENDBRANCH   1  24
TORSDOF 17
ENDMDL
