MODEL 1
REMARK VINA RESULT:     -11.5      0.000      0.000
REMARK SMILES NS(=O)(=O)c1ccc(-n2nc(C(=O)OCCOC(=O)c3ccc(-c4c5nc(c(-c6ccccc6)c6ccc([nH]6)c(-c6ccccc6)c6nc(c(-c7ccccc7)c7ccc4[nH]7)C=C6)C=C5)cc3)cc2-c2ccc(Cl)s2)cc1
REMARK SMILES IDX 15 1 14 2 12 3 13 4 11 5 9 6 10 7 69 8 68 9 8 10 5 11 6 12
REMARK SMILES IDX 77 13 7 14 76 15 2 16 3 17 4 18 1 19 70 22 71 23 75 24 72 25
REMARK SMILES IDX 73 26 74 27 16 28 17 29 18 30 19 31 20 32 21 33 67 34 22 35
REMARK SMILES IDX 66 36 23 37 24 38 25 39 60 40 26 41 65 42 59 43 61 44 27 45
REMARK SMILES IDX 64 46 58 47 57 48 28 50 50 51 35 52 49 53 36 54 39 55 48 56
REMARK SMILES IDX 62 57 37 58 38 59 47 61 63 62 40 63 29 64 30 65 34 66 31 67
REMARK SMILES IDX 33 68 32 69 51 70 52 71 56 72 53 73 55 74 54 75 41 76 42 77
REMARK SMILES IDX 46 78 43 79 45 80 44 81
REMARK H PARENT 1 20 1 21 61 49 39 60
REMARK Flexibility Score: inf
ROOT
ATOM      1  C   UNL A   1      41.868  19.537  26.179  1.00  0.00     0.275 C 
ENDROOT
BRANCH   1   2
ATOM      2  O   UNL A   1      41.262  20.706  25.607  1.00  0.00    -0.457 OA
BRANCH   2   3
ATOM      3  C   UNL A   1      40.605  21.536  26.483  1.00  0.00     0.358 C 
ATOM      4  O   UNL A   1      41.153  22.122  27.411  1.00  0.00    -0.244 OA
BRANCH   3   5
ATOM      5  C   UNL A   1      39.180  21.663  26.148  1.00  0.00     0.171 A 
ATOM      6  N   UNL A   1      37.173  21.115  25.633  1.00  0.00    -0.231 N 
ATOM      7  N   UNL A   1      38.343  20.607  26.092  1.00  0.00    -0.160 NA
ATOM      8  C   UNL A   1      37.218  22.493  25.504  1.00  0.00     0.085 A 
ATOM      9  C   UNL A   1      38.491  22.867  25.866  1.00  0.00     0.068 A 
BRANCH   6  10
ATOM     10  C   UNL A   1      36.155  20.238  25.192  1.00  0.00     0.065 A 
ATOM     11  C   UNL A   1      34.187  18.511  24.264  1.00  0.00     0.082 A 
ATOM     12  C   UNL A   1      35.491  18.039  24.435  1.00  0.00     0.024 A 
ATOM     13  C   UNL A   1      33.858  19.839  24.566  1.00  0.00     0.024 A 
ATOM     14  C   UNL A   1      36.480  18.909  24.884  1.00  0.00     0.030 A 
ATOM     15  C   UNL A   1      34.841  20.701  25.065  1.00  0.00     0.030 A 
BRANCH  11  16
ATOM     16  S   UNL A   1      32.922  17.452  23.625  1.00  0.00     0.238 S 
ATOM     17  O   UNL A   1      33.485  16.150  23.388  1.00  0.00    -0.207 OA
ATOM     18  O   UNL A   1      32.179  18.186  22.623  1.00  0.00    -0.207 OA
BRANCH  16  19
ATOM     19  N   UNL A   1      31.857  17.244  24.912  1.00  0.00    -0.225 NA
ATOM     20  H   UNL A   1      31.683  18.145  25.359  1.00  0.00     0.137 HD
ATOM     21  H   UNL A   1      32.265  16.602  25.592  1.00  0.00     0.137 HD
ENDBRANCH  16  19
ENDBRANCH  11  16
ENDBRANCH   6  10
BRANCH   8  22
ATOM     22  C   UNL A   1      36.141  23.337  25.079  1.00  0.00     0.054 A 
ATOM     23  C   UNL A   1      35.313  24.073  25.905  1.00  0.00     0.024 A 
ATOM     24  S   UNL A   1      35.720  23.526  23.429  1.00  0.00    -0.122 S 
ATOM     25  C   UNL A   1      34.368  24.845  25.168  1.00  0.00     0.033 A 
ATOM     26  C   UNL A   1      34.498  24.628  23.820  1.00  0.00     0.094 A 
ATOM     27  Cl  UNL A   1      33.568  25.353  22.574  1.00  0.00    -0.072 Cl
ENDBRANCH   8  22
ENDBRANCH   3   5
ENDBRANCH   2   3
ENDBRANCH   1   2
BRANCH   1  28
ATOM     28  C   UNL A   1      43.242  19.272  25.580  1.00  0.00     0.275 C 
BRANCH  28  29
ATOM     29  O   UNL A   1      43.678  20.373  24.790  1.00  0.00    -0.458 OA
BRANCH  29  30
ATOM     30  C   UNL A   1      44.941  20.796  25.025  1.00  0.00     0.338 C 
ATOM     31  O   UNL A   1      45.915  20.099  25.262  1.00  0.00    -0.246 OA
BRANCH  30  32
ATOM     32  C   UNL A   1      44.921  22.250  25.209  1.00  0.00     0.060 A 
ATOM     33  C   UNL A   1      45.787  22.789  26.162  1.00  0.00     0.016 A 
ATOM     34  C   UNL A   1      43.841  22.979  24.691  1.00  0.00     0.016 A 
ATOM     35  C   UNL A   1      45.429  23.980  26.759  1.00  0.00     0.010 A 
ATOM     36  C   UNL A   1      43.480  24.158  25.294  1.00  0.00     0.010 A 
ATOM     37  C   UNL A   1      44.226  24.593  26.382  1.00  0.00    -0.014 A 
BRANCH  37  38
ATOM     38  C   UNL A   1      43.835  25.818  27.043  1.00  0.00     0.031 A 
ATOM     39  C   UNL A   1      44.777  26.908  26.727  1.00  0.00     0.074 A 
ATOM     40  C   UNL A   1      42.706  25.965  27.761  1.00  0.00     0.049 A 
ATOM     41  N   UNL A   1      45.748  27.318  27.470  1.00  0.00    -0.248 NA
ATOM     42  C   UNL A   1      44.808  27.428  25.349  1.00  0.00     0.031 C 
ATOM     43  C   UNL A   1      41.571  25.041  27.870  1.00  0.00     0.029 A 
ATOM     44  N   UNL A   1      42.294  27.036  28.493  1.00  0.00    -0.354 N 
ATOM     45  C   UNL A   1      46.349  28.340  26.748  1.00  0.00     0.074 A 
ATOM     46  C   UNL A   1      45.903  28.191  25.388  1.00  0.00     0.031 C 
ATOM     47  C   UNL A   1      40.516  25.690  28.420  1.00  0.00     0.029 A 
ATOM     48  C   UNL A   1      40.949  27.011  28.846  1.00  0.00     0.049 A 
ATOM     49  H   UNL A   1      42.899  27.769  28.750  1.00  0.00     0.167 HD
ATOM     50  C   UNL A   1      46.842  29.427  27.401  1.00  0.00     0.031 A 
ATOM     51  C   UNL A   1      40.257  28.026  29.422  1.00  0.00     0.031 A 
ATOM     52  C   UNL A   1      46.917  29.179  28.820  1.00  0.00     0.049 A 
ATOM     53  C   UNL A   1      41.245  28.912  30.076  1.00  0.00     0.074 A 
ATOM     54  C   UNL A   1      47.708  28.452  29.680  1.00  0.00     0.029 A 
ATOM     55  N   UNL A   1      45.730  29.428  29.463  1.00  0.00    -0.354 N 
ATOM     56  N   UNL A   1      41.961  28.539  31.098  1.00  0.00    -0.248 NA
ATOM     57  C   UNL A   1      41.729  30.089  29.367  1.00  0.00     0.031 C 
ATOM     58  C   UNL A   1      46.880  28.127  30.798  1.00  0.00     0.029 A 
ATOM     59  C   UNL A   1      45.627  28.715  30.624  1.00  0.00     0.049 A 
ATOM     60  H   UNL A   1      45.040  30.043  29.130  1.00  0.00     0.167 HD
ATOM     61  C   UNL A   1      43.190  29.137  30.890  1.00  0.00     0.074 A 
ATOM     62  C   UNL A   1      42.937  30.205  29.926  1.00  0.00     0.031 C 
ATOM     63  C   UNL A   1      44.344  28.510  31.261  1.00  0.00     0.031 A 
BRANCH  50  64
ATOM     64  C   UNL A   1      46.678  30.841  26.883  1.00  0.00    -0.014 A 
ATOM     65  C   UNL A   1      47.785  31.704  26.947  1.00  0.00     0.009 A 
ATOM     66  C   UNL A   1      45.427  31.442  26.635  1.00  0.00     0.009 A 
ATOM     67  C   UNL A   1      47.639  33.092  26.826  1.00  0.00     0.001 A 
ATOM     68  C   UNL A   1      45.281  32.824  26.482  1.00  0.00     0.001 A 
ATOM     69  C   UNL A   1      46.386  33.651  26.600  1.00  0.00     0.000 A 
ENDBRANCH  50  64
BRANCH  51  70
ATOM     70  C   UNL A   1      38.859  28.462  29.202  1.00  0.00    -0.014 A 
ATOM     71  C   UNL A   1      37.972  28.619  30.281  1.00  0.00     0.009 A 
ATOM     72  C   UNL A   1      38.493  29.031  27.969  1.00  0.00     0.009 A 
ATOM     73  C   UNL A   1      36.789  29.361  30.144  1.00  0.00     0.001 A 
ATOM     74  C   UNL A   1      37.315  29.776  27.833  1.00  0.00     0.001 A 
ATOM     75  C   UNL A   1      36.470  29.955  28.924  1.00  0.00     0.000 A 
ENDBRANCH  51  70
BRANCH  63  76
ATOM     76  C   UNL A   1      44.247  27.434  32.305  1.00  0.00    -0.014 A 
ATOM     77  C   UNL A   1      44.246  26.058  32.025  1.00  0.00     0.009 A 
ATOM     78  C   UNL A   1      44.241  27.845  33.646  1.00  0.00     0.009 A 
ATOM     79  C   UNL A   1      44.218  25.122  33.065  1.00  0.00     0.001 A 
ATOM     80  C   UNL A   1      44.234  26.914  34.683  1.00  0.00     0.001 A 
ATOM     81  C   UNL A   1      44.217  25.552  34.394  1.00  0.00     0.000 A 
ENDBRANCH  63  76
ENDBRANCH  37  38
ENDBRANCH  30  32
ENDBRANCH  29  30
ENDBRANCH  28  29
ENDBRANCH   1  28
TORSDOF 15
ENDMDL
MODEL 2
REMARK VINA RESULT:     -11.4      2.199      3.255
REMARK SMILES NS(=O)(=O)c1ccc(-n2nc(C(=O)OCCOC(=O)c3ccc(-c4c5nc(c(-c6ccccc6)c6ccc([nH]6)c(-c6ccccc6)c6nc(c(-c7ccccc7)c7ccc4[nH]7)C=C6)C=C5)cc3)cc2-c2ccc(Cl)s2)cc1
REMARK SMILES IDX 15 1 14 2 12 3 13 4 11 5 9 6 10 7 69 8 68 9 8 10 5 11 6 12
REMARK SMILES IDX 77 13 7 14 76 15 2 16 3 17 4 18 1 19 70 22 71 23 75 24 72 25
REMARK SMILES IDX 73 26 74 27 16 28 17 29 18 30 19 31 20 32 21 33 67 34 22 35
REMARK SMILES IDX 66 36 23 37 24 38 25 39 60 40 26 41 65 42 59 43 61 44 27 45
REMARK SMILES IDX 64 46 58 47 57 48 28 50 50 51 35 52 49 53 36 54 39 55 48 56
REMARK SMILES IDX 62 57 37 58 38 59 47 61 63 62 40 63 29 64 30 65 34 66 31 67
REMARK SMILES IDX 33 68 32 69 51 70 52 71 56 72 53 73 55 74 54 75 41 76 42 77
REMARK SMILES IDX 46 78 43 79 45 80 44 81
REMARK H PARENT 1 20 1 21 61 49 39 60
REMARK Flexibility Score: inf
ROOT
ATOM      1  C   UNL A   1      41.359  20.152  26.831  1.00  0.00     0.275 C 
ENDROOT
BRANCH   1   2
ATOM      2  O   UNL A   1      40.121  20.339  26.127  1.00  0.00    -0.457 OA
BRANCH   2   3
ATOM      3  C   UNL A   1      39.649  21.627  26.070  1.00  0.00     0.358 C 
ATOM      4  O   UNL A   1      40.320  22.615  26.352  1.00  0.00    -0.244 OA
BRANCH   3   5
ATOM      5  C   UNL A   1      38.259  21.677  25.594  1.00  0.00     0.171 A 
ATOM      6  N   UNL A   1      36.405  22.464  24.864  1.00  0.00    -0.231 N 
ATOM      7  N   UNL A   1      37.709  22.781  25.049  1.00  0.00    -0.160 NA
ATOM      8  C   UNL A   1      36.139  21.142  25.176  1.00  0.00     0.085 A 
ATOM      9  C   UNL A   1      37.330  20.608  25.613  1.00  0.00     0.068 A 
BRANCH   6  10
ATOM     10  C   UNL A   1      35.473  23.486  24.565  1.00  0.00     0.065 A 
ATOM     11  C   UNL A   1      33.691  25.521  23.934  1.00  0.00     0.082 A 
ATOM     12  C   UNL A   1      34.047  24.591  22.955  1.00  0.00     0.024 A 
ATOM     13  C   UNL A   1      34.212  25.433  25.232  1.00  0.00     0.024 A 
ATOM     14  C   UNL A   1      34.953  23.581  23.267  1.00  0.00     0.030 A 
ATOM     15  C   UNL A   1      35.084  24.389  25.561  1.00  0.00     0.030 A 
BRANCH  11  16
ATOM     16  S   UNL A   1      32.599  26.859  23.551  1.00  0.00     0.238 S 
ATOM     17  O   UNL A   1      33.345  28.088  23.581  1.00  0.00    -0.207 OA
ATOM     18  O   UNL A   1      31.367  26.665  24.287  1.00  0.00    -0.207 OA
BRANCH  16  19
ATOM     19  N   UNL A   1      32.198  26.626  21.933  1.00  0.00    -0.225 NA
ATOM     20  H   UNL A   1      31.186  26.528  21.844  1.00  0.00     0.137 HD
ATOM     21  H   UNL A   1      32.653  25.781  21.588  1.00  0.00     0.137 HD
ENDBRANCH  16  19
ENDBRANCH  11  16
ENDBRANCH   6  10
BRANCH   8  22
ATOM     22  C   UNL A   1      34.873  20.484  25.057  1.00  0.00     0.054 A 
ATOM     23  C   UNL A   1      33.636  21.053  25.294  1.00  0.00     0.024 A 
ATOM     24  S   UNL A   1      34.733  18.836  24.607  1.00  0.00    -0.122 S 
ATOM     25  C   UNL A   1      32.568  20.144  25.043  1.00  0.00     0.033 A 
ATOM     26  C   UNL A   1      33.045  18.916  24.664  1.00  0.00     0.094 A 
ATOM     27  Cl  UNL A   1      32.109  17.535  24.263  1.00  0.00    -0.072 Cl
ENDBRANCH   8  22
ENDBRANCH   3   5
ENDBRANCH   2   3
ENDBRANCH   1   2
BRANCH   1  28
ATOM     28  C   UNL A   1      42.387  19.432  25.969  1.00  0.00     0.275 C 
BRANCH  28  29
ATOM     29  O   UNL A   1      42.959  20.314  25.008  1.00  0.00    -0.458 OA
BRANCH  29  30
ATOM     30  C   UNL A   1      44.265  20.611  25.195  1.00  0.00     0.338 C 
ATOM     31  O   UNL A   1      45.180  19.821  25.362  1.00  0.00    -0.246 OA
BRANCH  30  32
ATOM     32  C   UNL A   1      44.388  22.055  25.424  1.00  0.00     0.060 A 
ATOM     33  C   UNL A   1      45.158  22.469  26.512  1.00  0.00     0.016 A 
ATOM     34  C   UNL A   1      43.489  22.917  24.779  1.00  0.00     0.016 A 
ATOM     35  C   UNL A   1      44.858  23.683  27.090  1.00  0.00     0.010 A 
ATOM     36  C   UNL A   1      43.183  24.120  25.364  1.00  0.00     0.010 A 
ATOM     37  C   UNL A   1      43.803  24.443  26.564  1.00  0.00    -0.014 A 
BRANCH  37  38
ATOM     38  C   UNL A   1      43.465  25.696  27.203  1.00  0.00     0.031 A 
ATOM     39  C   UNL A   1      44.424  26.751  26.828  1.00  0.00     0.074 A 
ATOM     40  C   UNL A   1      42.363  25.890  27.950  1.00  0.00     0.049 A 
ATOM     41  N   UNL A   1      45.427  27.156  27.530  1.00  0.00    -0.248 NA
ATOM     42  C   UNL A   1      44.424  27.234  25.437  1.00  0.00     0.031 C 
ATOM     43  C   UNL A   1      41.209  24.999  28.119  1.00  0.00     0.029 A 
ATOM     44  N   UNL A   1      42.000  26.990  28.665  1.00  0.00    -0.354 N 
ATOM     45  C   UNL A   1      46.031  28.143  26.763  1.00  0.00     0.074 A 
ATOM     46  C   UNL A   1      45.538  27.970  25.422  1.00  0.00     0.031 C 
ATOM     47  C   UNL A   1      40.188  25.690  28.684  1.00  0.00     0.029 A 
ATOM     48  C   UNL A   1      40.667  27.009  29.061  1.00  0.00     0.049 A 
ATOM     49  H   UNL A   1      42.631  27.714  28.884  1.00  0.00     0.167 HD
ATOM     50  C   UNL A   1      46.571  29.233  27.371  1.00  0.00     0.031 A 
ATOM     51  C   UNL A   1      40.019  28.057  29.630  1.00  0.00     0.031 A 
ATOM     52  C   UNL A   1      46.684  29.021  28.793  1.00  0.00     0.049 A 
ATOM     53  C   UNL A   1      41.049  28.933  30.229  1.00  0.00     0.074 A 
ATOM     54  C   UNL A   1      47.483  28.297  29.648  1.00  0.00     0.029 A 
ATOM     55  N   UNL A   1      45.524  29.317  29.465  1.00  0.00    -0.354 N 
ATOM     56  N   UNL A   1      41.787  28.570  31.238  1.00  0.00    -0.248 NA
ATOM     57  C   UNL A   1      41.540  30.079  29.474  1.00  0.00     0.031 C 
ATOM     58  C   UNL A   1      46.682  28.023  30.799  1.00  0.00     0.029 A 
ATOM     59  C   UNL A   1      45.440  28.638  30.647  1.00  0.00     0.049 A 
ATOM     60  H   UNL A   1      44.839  29.941  29.136  1.00  0.00     0.167 HD
ATOM     61  C   UNL A   1      43.023  29.130  30.977  1.00  0.00     0.074 A 
ATOM     62  C   UNL A   1      42.767  30.178  29.993  1.00  0.00     0.031 C 
ATOM     63  C   UNL A   1      44.172  28.483  31.329  1.00  0.00     0.031 A 
BRANCH  50  64
ATOM     64  C   UNL A   1      46.426  30.637  26.821  1.00  0.00    -0.014 A 
ATOM     65  C   UNL A   1      47.540  31.491  26.879  1.00  0.00     0.009 A 
ATOM     66  C   UNL A   1      45.184  31.244  26.544  1.00  0.00     0.009 A 
ATOM     67  C   UNL A   1      47.408  32.877  26.726  1.00  0.00     0.001 A 
ATOM     68  C   UNL A   1      45.052  32.623  26.359  1.00  0.00     0.001 A 
ATOM     69  C   UNL A   1      46.164  33.443  26.472  1.00  0.00     0.000 A 
ENDBRANCH  50  64
BRANCH  51  70
ATOM     70  C   UNL A   1      38.626  28.522  29.441  1.00  0.00    -0.014 A 
ATOM     71  C   UNL A   1      37.795  28.783  30.544  1.00  0.00     0.009 A 
ATOM     72  C   UNL A   1      38.221  29.017  28.188  1.00  0.00     0.009 A 
ATOM     73  C   UNL A   1      36.629  29.553  30.406  1.00  0.00     0.001 A 
ATOM     74  C   UNL A   1      37.061  29.789  28.052  1.00  0.00     0.001 A 
ATOM     75  C   UNL A   1      36.273  30.072  29.163  1.00  0.00     0.000 A 
ENDBRANCH  51  70
BRANCH  63  76
ATOM     76  C   UNL A   1      44.082  27.438  32.404  1.00  0.00    -0.014 A 
ATOM     77  C   UNL A   1      43.775  27.709  33.748  1.00  0.00     0.009 A 
ATOM     78  C   UNL A   1      44.236  26.101  32.008  1.00  0.00     0.009 A 
ATOM     79  C   UNL A   1      43.647  26.664  34.671  1.00  0.00     0.001 A 
ATOM     80  C   UNL A   1      44.090  25.060  32.922  1.00  0.00     0.001 A 
ATOM     81  C   UNL A   1      43.800  25.340  34.255  1.00  0.00     0.000 A 
ENDBRANCH  63  76
ENDBRANCH  37  38
ENDBRANCH  30  32
ENDBRANCH  29  30
ENDBRANCH  28  29
ENDBRANCH   1  28
TORSDOF 15
ENDMDL
MODEL 3
REMARK VINA RESULT:     -11.3      4.277      7.821
REMARK SMILES NS(=O)(=O)c1ccc(-n2nc(C(=O)OCCOC(=O)c3ccc(-c4c5nc(c(-c6ccccc6)c6ccc([nH]6)c(-c6ccccc6)c6nc(c(-c7ccccc7)c7ccc4[nH]7)C=C6)C=C5)cc3)cc2-c2ccc(Cl)s2)cc1
REMARK SMILES IDX 15 1 14 2 12 3 13 4 11 5 9 6 10 7 69 8 68 9 8 10 5 11 6 12
REMARK SMILES IDX 77 13 7 14 76 15 2 16 3 17 4 18 1 19 70 22 71 23 75 24 72 25
REMARK SMILES IDX 73 26 74 27 16 28 17 29 18 30 19 31 20 32 21 33 67 34 22 35
REMARK SMILES IDX 66 36 23 37 24 38 25 39 60 40 26 41 65 42 59 43 61 44 27 45
REMARK SMILES IDX 64 46 58 47 57 48 28 50 50 51 35 52 49 53 36 54 39 55 48 56
REMARK SMILES IDX 62 57 37 58 38 59 47 61 63 62 40 63 29 64 30 65 34 66 31 67
REMARK SMILES IDX 33 68 32 69 51 70 52 71 56 72 53 73 55 74 54 75 41 76 42 77
REMARK SMILES IDX 46 78 43 79 45 80 44 81
REMARK H PARENT 1 20 1 21 61 49 39 60
REMARK Flexibility Score: inf
ROOT
ATOM      1  C   UNL A   1      33.903  21.345  25.655  1.00  0.00     0.275 C 
ENDROOT
BRANCH   1   2
ATOM      2  O   UNL A   1      33.126  22.130  24.737  1.00  0.00    -0.457 OA
BRANCH   2   3
ATOM      3  C   UNL A   1      31.855  22.454  25.146  1.00  0.00     0.358 C 
ATOM      4  O   UNL A   1      30.980  21.626  25.376  1.00  0.00    -0.244 OA
BRANCH   3   5
ATOM      5  C   UNL A   1      31.689  23.905  25.310  1.00  0.00     0.171 A 
ATOM      6  N   UNL A   1      30.991  25.904  24.982  1.00  0.00    -0.231 N 
ATOM      7  N   UNL A   1      30.733  24.610  24.672  1.00  0.00    -0.160 NA
ATOM      8  C   UNL A   1      32.024  26.026  25.895  1.00  0.00     0.085 A 
ATOM      9  C   UNL A   1      32.462  24.746  26.147  1.00  0.00     0.068 A 
BRANCH   6  10
ATOM     10  C   UNL A   1      30.348  26.937  24.260  1.00  0.00     0.065 A 
ATOM     11  C   UNL A   1      29.100  29.010  22.895  1.00  0.00     0.082 A 
ATOM     12  C   UNL A   1      30.481  29.055  23.101  1.00  0.00     0.024 A 
ATOM     13  C   UNL A   1      28.340  27.927  23.358  1.00  0.00     0.024 A 
ATOM     14  C   UNL A   1      31.104  28.024  23.799  1.00  0.00     0.030 A 
ATOM     15  C   UNL A   1      28.972  26.866  24.016  1.00  0.00     0.030 A 
BRANCH  11  16
ATOM     16  S   UNL A   1      28.267  30.338  22.076  1.00  0.00     0.238 S 
ATOM     17  O   UNL A   1      27.207  30.812  22.924  1.00  0.00    -0.207 OA
ATOM     18  O   UNL A   1      28.064  29.961  20.692  1.00  0.00    -0.207 OA
BRANCH  16  19
ATOM     19  N   UNL A   1      29.396  31.586  22.042  1.00  0.00    -0.225 NA
ATOM     20  H   UNL A   1      29.065  32.361  22.616  1.00  0.00     0.137 HD
ATOM     21  H   UNL A   1      29.523  31.905  21.081  1.00  0.00     0.137 HD
ENDBRANCH  16  19
ENDBRANCH  11  16
ENDBRANCH   6  10
BRANCH   8  22
ATOM     22  C   UNL A   1      32.518  27.249  26.454  1.00  0.00     0.054 A 
ATOM     23  C   UNL A   1      31.824  28.093  27.300  1.00  0.00     0.024 A 
ATOM     24  S   UNL A   1      34.086  27.849  26.108  1.00  0.00    -0.122 S 
ATOM     25  C   UNL A   1      32.613  29.206  27.714  1.00  0.00     0.033 A 
ATOM     26  C   UNL A   1      33.853  29.174  27.133  1.00  0.00     0.094 A 
ATOM     27  Cl  UNL A   1      35.116  30.314  27.357  1.00  0.00    -0.072 Cl
ENDBRANCH   8  22
ENDBRANCH   3   5
ENDBRANCH   2   3
ENDBRANCH   1   2
BRANCH   1  28
ATOM     28  C   UNL A   1      35.208  20.879  25.023  1.00  0.00     0.275 C 
BRANCH  28  29
ATOM     29  O   UNL A   1      36.332  21.392  25.731  1.00  0.00    -0.458 OA
BRANCH  29  30
ATOM     30  C   UNL A   1      37.533  20.900  25.350  1.00  0.00     0.338 C 
ATOM     31  O   UNL A   1      37.789  19.748  25.039  1.00  0.00    -0.246 OA
BRANCH  30  32
ATOM     32  C   UNL A   1      38.558  21.915  25.613  1.00  0.00     0.060 A 
ATOM     33  C   UNL A   1      39.823  21.466  25.996  1.00  0.00     0.016 A 
ATOM     34  C   UNL A   1      38.156  23.246  25.798  1.00  0.00     0.016 A 
ATOM     35  C   UNL A   1      40.599  22.302  26.769  1.00  0.00     0.010 A 
ATOM     36  C   UNL A   1      38.924  24.073  26.578  1.00  0.00     0.010 A 
ATOM     37  C   UNL A   1      40.090  23.558  27.131  1.00  0.00    -0.014 A 
BRANCH  37  38
ATOM     38  C   UNL A   1      40.890  24.413  27.979  1.00  0.00     0.031 A 
ATOM     39  C   UNL A   1      40.279  25.749  28.103  1.00  0.00     0.074 A 
ATOM     40  C   UNL A   1      41.985  24.005  28.646  1.00  0.00     0.049 A 
ATOM     41  N   UNL A   1      40.614  26.807  27.446  1.00  0.00    -0.248 NA
ATOM     42  C   UNL A   1      39.010  25.872  28.841  1.00  0.00     0.031 C 
ATOM     43  C   UNL A   1      42.484  22.638  28.828  1.00  0.00     0.029 A 
ATOM     44  N   UNL A   1      42.855  24.743  29.390  1.00  0.00    -0.354 N 
ATOM     45  C   UNL A   1      39.754  27.800  27.895  1.00  0.00     0.074 A 
ATOM     46  C   UNL A   1      38.659  27.124  28.540  1.00  0.00     0.031 C 
ATOM     47  C   UNL A   1      43.414  22.626  29.815  1.00  0.00     0.029 A 
ATOM     48  C   UNL A   1      43.689  23.996  30.214  1.00  0.00     0.049 A 
ATOM     49  H   UNL A   1      42.890  25.726  29.347  1.00  0.00     0.167 HD
ATOM     50  C   UNL A   1      40.209  29.074  28.033  1.00  0.00     0.031 A 
ATOM     51  C   UNL A   1      44.518  24.490  31.169  1.00  0.00     0.031 A 
ATOM     52  C   UNL A   1      41.486  29.234  27.381  1.00  0.00     0.049 A 
ATOM     53  C   UNL A   1      44.780  25.905  30.828  1.00  0.00     0.074 A 
ATOM     54  C   UNL A   1      41.957  29.331  26.091  1.00  0.00     0.029 A 
ATOM     55  N   UNL A   1      42.537  28.854  28.177  1.00  0.00    -0.354 N 
ATOM     56  N   UNL A   1      45.443  26.267  29.767  1.00  0.00    -0.248 NA
ATOM     57  C   UNL A   1      43.981  26.950  31.455  1.00  0.00     0.031 C 
ATOM     58  C   UNL A   1      43.294  28.826  26.123  1.00  0.00     0.029 A 
ATOM     59  C   UNL A   1      43.626  28.492  27.435  1.00  0.00     0.049 A 
ATOM     60  H   UNL A   1      42.510  28.844  29.160  1.00  0.00     0.167 HD
ATOM     61  C   UNL A   1      44.807  27.418  29.343  1.00  0.00     0.074 A 
ATOM     62  C   UNL A   1      44.047  27.883  30.500  1.00  0.00     0.031 C 
ATOM     63  C   UNL A   1      44.694  27.705  28.014  1.00  0.00     0.031 A 
BRANCH  50  64
ATOM     64  C   UNL A   1      39.840  29.955  29.208  1.00  0.00    -0.014 A 
ATOM     65  C   UNL A   1      38.808  30.894  29.036  1.00  0.00     0.009 A 
ATOM     66  C   UNL A   1      40.653  30.118  30.349  1.00  0.00     0.009 A 
ATOM     67  C   UNL A   1      38.638  31.965  29.923  1.00  0.00     0.001 A 
ATOM     68  C   UNL A   1      40.466  31.166  31.254  1.00  0.00     0.001 A 
ATOM     69  C   UNL A   1      39.471  32.104  31.028  1.00  0.00     0.000 A 
ENDBRANCH  50  64
BRANCH  51  70
ATOM     70  C   UNL A   1      44.857  23.942  32.502  1.00  0.00    -0.014 A 
ATOM     71  C   UNL A   1      45.927  24.465  33.248  1.00  0.00     0.009 A 
ATOM     72  C   UNL A   1      43.930  23.127  33.176  1.00  0.00     0.009 A 
ATOM     73  C   UNL A   1      46.037  24.222  34.626  1.00  0.00     0.001 A 
ATOM     74  C   UNL A   1      44.037  22.887  34.551  1.00  0.00     0.001 A 
ATOM     75  C   UNL A   1      45.080  23.448  35.281  1.00  0.00     0.000 A 
ENDBRANCH  51  70
BRANCH  63  76
ATOM     76  C   UNL A   1      45.659  27.042  27.074  1.00  0.00    -0.014 A 
ATOM     77  C   UNL A   1      46.984  27.463  26.872  1.00  0.00     0.009 A 
ATOM     78  C   UNL A   1      45.219  25.880  26.422  1.00  0.00     0.009 A 
ATOM     79  C   UNL A   1      47.835  26.745  26.024  1.00  0.00     0.001 A 
ATOM     80  C   UNL A   1      46.072  25.154  25.594  1.00  0.00     0.001 A 
ATOM     81  C   UNL A   1      47.379  25.588  25.389  1.00  0.00     0.000 A 
ENDBRANCH  63  76
ENDBRANCH  37  38
ENDBRANCH  30  32
ENDBRANCH  29  30
ENDBRANCH  28  29
ENDBRANCH   1  28
TORSDOF 15
ENDMDL
