MODEL 1
REMARK VINA RESULT:     -11.8      0.000      0.000
REMARK SMILES Cc1cc(NC(=O)c2ccc(Br)cc2N)ccc1C(=O)OCCOC(=O)c1ccc(-c2c3nc(c(-c4ccccc4)c4ccc([nH]4)c(-c4ccccc4)c4nc(c(-c5ccccc5)c5ccc2[nH]5)C=C4)C=C3)cc1
REMARK SMILES IDX 22 1 21 2 19 3 20 4 18 5 1 6 2 7 3 8 4 9 17 10 16 11 5 12
REMARK SMILES IDX 6 13 7 15 8 16 9 17 14 18 10 19 13 20 11 21 12 22 15 23
REMARK SMILES IDX 23 26 24 27 25 28 26 29 27 30 28 31 74 32 29 33 73 34 30 35
REMARK SMILES IDX 31 36 32 37 67 38 33 39 72 40 66 41 68 42 34 43 71 44 65 45
REMARK SMILES IDX 64 46 35 48 57 49 42 50 56 51 43 52 46 53 55 54 69 55 44 56
REMARK SMILES IDX 45 57 54 59 70 60 47 61 36 62 37 63 41 64 38 65 40 66 39 67
REMARK SMILES IDX 58 68 59 69 63 70 60 71 62 72 61 73 48 74 49 75 53 76 50 77
REMARK SMILES IDX 52 78 51 79
REMARK H PARENT 5 14 15 24 15 25 68 47 46 58
REMARK Flexibility Score: inf
ROOT
ATOM      1  C   UNL A   1      32.262  31.524  27.113  1.00  0.00     0.275 C 
ENDROOT
BRANCH   1   2
ATOM      2  O   UNL A   1      33.171  30.755  26.314  1.00  0.00    -0.458 OA
BRANCH   2   3
ATOM      3  C   UNL A   1      33.700  29.714  27.002  1.00  0.00     0.338 C 
ATOM      4  O   UNL A   1      34.463  29.790  27.953  1.00  0.00    -0.246 OA
BRANCH   3   5
ATOM      5  C   UNL A   1      33.399  28.407  26.405  1.00  0.00     0.063 A 
ATOM      6  C   UNL A   1      31.421  28.203  28.025  1.00  0.00     0.045 C 
ATOM      7  C   UNL A   1      32.251  27.745  26.858  1.00  0.00    -0.035 A 
ATOM      8  C   UNL A   1      31.796  26.639  26.141  1.00  0.00     0.030 A 
ATOM      9  C   UNL A   1      32.388  26.259  24.937  1.00  0.00     0.041 A 
ATOM     10  C   UNL A   1      34.103  27.930  25.290  1.00  0.00     0.018 A 
ATOM     11  C   UNL A   1      33.588  26.856  24.550  1.00  0.00     0.027 A 
BRANCH   9  12
ATOM     12  N   UNL A   1      31.781  25.315  24.088  1.00  0.00    -0.322 N 
ATOM     13  C   UNL A   1      30.570  25.403  23.416  1.00  0.00     0.257 C 
ATOM     14  H   UNL A   1      32.283  24.479  23.951  1.00  0.00     0.170 HD
ATOM     15  O   UNL A   1      30.030  24.387  22.983  1.00  0.00    -0.269 OA
BRANCH  13  16
ATOM     16  C   UNL A   1      29.927  26.726  23.159  1.00  0.00     0.063 A 
ATOM     17  C   UNL A   1      30.715  27.697  22.517  1.00  0.00     0.017 A 
ATOM     18  C   UNL A   1      28.584  27.005  23.498  1.00  0.00     0.045 A 
ATOM     19  C   UNL A   1      30.169  28.936  22.178  1.00  0.00     0.016 A 
ATOM     20  C   UNL A   1      28.066  28.268  23.177  1.00  0.00     0.042 A 
ATOM     21  C   UNL A   1      28.846  29.214  22.506  1.00  0.00     0.020 A 
ATOM     22  Br  UNL A   1      28.091  30.887  22.048  1.00  0.00    -0.051 Br
BRANCH  18  23
ATOM     23  N   UNL A   1      27.784  26.139  24.240  1.00  0.00    -0.398 N 
ATOM     24  H   UNL A   1      28.025  25.187  24.312  1.00  0.00     0.156 HD
ATOM     25  H   UNL A   1      26.978  26.479  24.691  1.00  0.00     0.156 HD
ENDBRANCH  18  23
ENDBRANCH  13  16
ENDBRANCH   9  12
ENDBRANCH   3   5
ENDBRANCH   2   3
ENDBRANCH   1   2
BRANCH   1  26
ATOM     26  C   UNL A   1      32.385  33.036  26.904  1.00  0.00     0.275 C 
BRANCH  26  27
ATOM     27  O   UNL A   1      32.203  33.940  28.032  1.00  0.00    -0.458 OA
BRANCH  27  28
ATOM     28  C   UNL A   1      33.133  34.575  28.781  1.00  0.00     0.338 C 
ATOM     29  O   UNL A   1      32.944  35.700  29.239  1.00  0.00    -0.246 OA
BRANCH  28  30
ATOM     30  C   UNL A   1      34.393  33.874  29.051  1.00  0.00     0.060 A 
ATOM     31  C   UNL A   1      34.409  32.837  30.000  1.00  0.00     0.016 A 
ATOM     32  C   UNL A   1      35.523  34.191  28.307  1.00  0.00     0.016 A 
ATOM     33  C   UNL A   1      35.536  32.041  30.135  1.00  0.00     0.010 A 
ATOM     34  C   UNL A   1      36.577  33.317  28.318  1.00  0.00     0.010 A 
ATOM     35  C   UNL A   1      36.602  32.289  29.273  1.00  0.00    -0.014 A 
BRANCH  35  36
ATOM     36  C   UNL A   1      37.946  31.819  29.537  1.00  0.00     0.031 A 
ATOM     37  C   UNL A   1      38.406  30.522  29.030  1.00  0.00     0.074 A 
ATOM     38  C   UNL A   1      38.658  32.786  30.162  1.00  0.00     0.049 A 
ATOM     39  N   UNL A   1      39.322  29.812  29.587  1.00  0.00    -0.248 NA
ATOM     40  C   UNL A   1      37.811  29.849  27.873  1.00  0.00     0.031 C 
ATOM     41  C   UNL A   1      40.072  32.984  30.394  1.00  0.00     0.029 A 
ATOM     42  N   UNL A   1      38.066  33.834  30.879  1.00  0.00    -0.354 N 
ATOM     43  C   UNL A   1      39.702  28.862  28.657  1.00  0.00     0.074 A 
ATOM     44  C   UNL A   1      38.611  28.784  27.723  1.00  0.00     0.031 C 
ATOM     45  C   UNL A   1      40.215  33.866  31.408  1.00  0.00     0.029 A 
ATOM     46  C   UNL A   1      38.884  34.161  31.943  1.00  0.00     0.049 A 
ATOM     47  H   UNL A   1      37.209  34.266  30.660  1.00  0.00     0.167 HD
ATOM     48  C   UNL A   1      41.002  28.453  28.638  1.00  0.00     0.031 A 
ATOM     49  C   UNL A   1      38.423  33.816  33.184  1.00  0.00     0.031 A 
ATOM     50  C   UNL A   1      41.740  29.145  29.693  1.00  0.00     0.049 A 
ATOM     51  C   UNL A   1      39.248  32.666  33.710  1.00  0.00     0.074 A 
ATOM     52  C   UNL A   1      42.503  30.302  29.658  1.00  0.00     0.029 A 
ATOM     53  N   UNL A   1      41.387  28.938  31.019  1.00  0.00    -0.354 N 
ATOM     54  N   UNL A   1      39.726  31.696  32.973  1.00  0.00    -0.248 NA
ATOM     55  C   UNL A   1      39.702  32.615  35.093  1.00  0.00     0.031 C 
ATOM     56  C   UNL A   1      42.508  30.849  30.969  1.00  0.00     0.029 A 
ATOM     57  C   UNL A   1      41.751  30.028  31.788  1.00  0.00     0.049 A 
ATOM     58  H   UNL A   1      40.941  28.130  31.363  1.00  0.00     0.167 HD
ATOM     59  C   UNL A   1      40.640  30.996  33.714  1.00  0.00     0.074 A 
ATOM     60  C   UNL A   1      40.555  31.578  35.044  1.00  0.00     0.031 C 
ATOM     61  C   UNL A   1      41.470  30.034  33.214  1.00  0.00     0.031 A 
BRANCH  48  62
ATOM     62  C   UNL A   1      41.693  27.740  27.496  1.00  0.00    -0.014 A 
ATOM     63  C   UNL A   1      41.944  28.454  26.305  1.00  0.00     0.009 A 
ATOM     64  C   UNL A   1      42.095  26.393  27.495  1.00  0.00     0.009 A 
ATOM     65  C   UNL A   1      42.502  27.855  25.170  1.00  0.00     0.001 A 
ATOM     66  C   UNL A   1      42.644  25.781  26.355  1.00  0.00     0.001 A 
ATOM     67  C   UNL A   1      42.842  26.510  25.190  1.00  0.00     0.000 A 
ENDBRANCH  48  62
BRANCH  49  68
ATOM     68  C   UNL A   1      36.939  33.999  33.385  1.00  0.00    -0.014 A 
ATOM     69  C   UNL A   1      36.342  35.204  32.938  1.00  0.00     0.009 A 
ATOM     70  C   UNL A   1      36.074  32.962  33.767  1.00  0.00     0.009 A 
ATOM     71  C   UNL A   1      34.957  35.330  32.771  1.00  0.00     0.001 A 
ATOM     72  C   UNL A   1      34.678  33.102  33.629  1.00  0.00     0.001 A 
ATOM     73  C   UNL A   1      34.124  34.269  33.103  1.00  0.00     0.000 A 
ENDBRANCH  49  68
BRANCH  61  74
ATOM     74  C   UNL A   1      42.184  29.018  34.062  1.00  0.00    -0.014 A 
ATOM     75  C   UNL A   1      43.430  29.256  34.653  1.00  0.00     0.009 A 
ATOM     76  C   UNL A   1      41.504  27.840  34.447  1.00  0.00     0.009 A 
ATOM     77  C   UNL A   1      43.998  28.334  35.535  1.00  0.00     0.001 A 
ATOM     78  C   UNL A   1      42.038  26.954  35.379  1.00  0.00     0.001 A 
ATOM     79  C   UNL A   1      43.296  27.192  35.909  1.00  0.00     0.000 A 
ENDBRANCH  61  74
ENDBRANCH  35  36
ENDBRANCH  28  30
ENDBRANCH  27  28
ENDBRANCH  26  27
ENDBRANCH   1  26
TORSDOF 14
ENDMDL
MODEL 2
REMARK VINA RESULT:     -11.7      1.799      2.490
REMARK SMILES Cc1cc(NC(=O)c2ccc(Br)cc2N)ccc1C(=O)OCCOC(=O)c1ccc(-c2c3nc(c(-c4ccccc4)c4ccc([nH]4)c(-c4ccccc4)c4nc(c(-c5ccccc5)c5ccc2[nH]5)C=C4)C=C3)cc1
REMARK SMILES IDX 22 1 21 2 19 3 20 4 18 5 1 6 2 7 3 8 4 9 17 10 16 11 5 12
REMARK SMILES IDX 6 13 7 15 8 16 9 17 14 18 10 19 13 20 11 21 12 22 15 23
REMARK SMILES IDX 23 26 24 27 25 28 26 29 27 30 28 31 74 32 29 33 73 34 30 35
REMARK SMILES IDX 31 36 32 37 67 38 33 39 72 40 66 41 68 42 34 43 71 44 65 45
REMARK SMILES IDX 64 46 35 48 57 49 42 50 56 51 43 52 46 53 55 54 69 55 44 56
REMARK SMILES IDX 45 57 54 59 70 60 47 61 36 62 37 63 41 64 38 65 40 66 39 67
REMARK SMILES IDX 58 68 59 69 63 70 60 71 62 72 61 73 48 74 49 75 53 76 50 77
REMARK SMILES IDX 52 78 51 79
REMARK H PARENT 5 14 15 24 15 25 68 47 46 58
REMARK Flexibility Score: inf
ROOT
ATOM      1  C   UNL A   1      31.423  31.814  26.740  1.00  0.00     0.275 C 
ENDROOT
BRANCH   1   2
ATOM      2  O   UNL A   1      32.325  30.776  27.147  1.00  0.00    -0.458 OA
BRANCH   2   3
ATOM      3  C   UNL A   1      31.851  29.542  26.848  1.00  0.00     0.338 C 
ATOM      4  O   UNL A   1      31.390  28.735  27.641  1.00  0.00    -0.246 OA
BRANCH   3   5
ATOM      5  C   UNL A   1      32.076  29.154  25.450  1.00  0.00     0.063 A 
ATOM      6  C   UNL A   1      34.497  28.578  26.073  1.00  0.00     0.045 C 
ATOM      7  C   UNL A   1      33.327  28.616  25.128  1.00  0.00    -0.035 A 
ATOM      8  C   UNL A   1      33.486  28.002  23.885  1.00  0.00     0.030 A 
ATOM      9  C   UNL A   1      32.407  27.817  23.022  1.00  0.00     0.041 A 
ATOM     10  C   UNL A   1      31.026  29.125  24.521  1.00  0.00     0.018 A 
ATOM     11  C   UNL A   1      31.193  28.446  23.304  1.00  0.00     0.027 A 
BRANCH   9  12
ATOM     12  N   UNL A   1      32.505  26.981  21.895  1.00  0.00    -0.322 N 
ATOM     13  C   UNL A   1      32.961  25.673  21.821  1.00  0.00     0.257 C 
ATOM     14  H   UNL A   1      32.210  27.378  21.043  1.00  0.00     0.170 HD
ATOM     15  O   UNL A   1      33.289  25.195  20.737  1.00  0.00    -0.269 OA
BRANCH  13  16
ATOM     16  C   UNL A   1      33.013  24.807  23.036  1.00  0.00     0.063 A 
ATOM     17  C   UNL A   1      34.263  24.676  23.665  1.00  0.00     0.017 A 
ATOM     18  C   UNL A   1      31.873  24.167  23.572  1.00  0.00     0.045 A 
ATOM     19  C   UNL A   1      34.385  23.939  24.845  1.00  0.00     0.016 A 
ATOM     20  C   UNL A   1      32.025  23.405  24.740  1.00  0.00     0.042 A 
ATOM     21  C   UNL A   1      33.264  23.311  25.378  1.00  0.00     0.020 A 
ATOM     22  Br  UNL A   1      33.413  22.314  26.979  1.00  0.00    -0.051 Br
BRANCH  18  23
ATOM     23  N   UNL A   1      30.633  24.152  22.938  1.00  0.00    -0.398 N 
ATOM     24  H   UNL A   1      29.911  24.741  23.255  1.00  0.00     0.156 HD
ATOM     25  H   UNL A   1      30.478  23.552  22.173  1.00  0.00     0.156 HD
ENDBRANCH  18  23
ENDBRANCH  13  16
ENDBRANCH   9  12
ENDBRANCH   3   5
ENDBRANCH   2   3
ENDBRANCH   1   2
BRANCH   1  26
ATOM     26  C   UNL A   1      32.010  33.223  26.862  1.00  0.00     0.275 C 
BRANCH  26  27
ATOM     27  O   UNL A   1      32.184  33.824  28.178  1.00  0.00    -0.458 OA
BRANCH  27  28
ATOM     28  C   UNL A   1      33.219  34.548  28.661  1.00  0.00     0.338 C 
ATOM     29  O   UNL A   1      33.130  35.756  28.866  1.00  0.00    -0.246 OA
BRANCH  28  30
ATOM     30  C   UNL A   1      34.472  33.844  28.952  1.00  0.00     0.060 A 
ATOM     31  C   UNL A   1      34.454  32.748  29.833  1.00  0.00     0.016 A 
ATOM     32  C   UNL A   1      35.636  34.219  28.290  1.00  0.00     0.016 A 
ATOM     33  C   UNL A   1      35.583  31.957  29.976  1.00  0.00     0.010 A 
ATOM     34  C   UNL A   1      36.699  33.357  28.300  1.00  0.00     0.010 A 
ATOM     35  C   UNL A   1      36.689  32.270  29.189  1.00  0.00    -0.014 A 
BRANCH  35  36
ATOM     36  C   UNL A   1      38.024  31.798  29.494  1.00  0.00     0.031 A 
ATOM     37  C   UNL A   1      38.502  30.508  28.986  1.00  0.00     0.074 A 
ATOM     38  C   UNL A   1      38.712  32.757  30.154  1.00  0.00     0.049 A 
ATOM     39  N   UNL A   1      39.400  29.792  29.564  1.00  0.00    -0.248 NA
ATOM     40  C   UNL A   1      37.949  29.850  27.800  1.00  0.00     0.031 C 
ATOM     41  C   UNL A   1      40.117  32.953  30.438  1.00  0.00     0.029 A 
ATOM     42  N   UNL A   1      38.095  33.795  30.865  1.00  0.00    -0.354 N 
ATOM     43  C   UNL A   1      39.812  28.855  28.636  1.00  0.00     0.074 A 
ATOM     44  C   UNL A   1      38.755  28.788  27.664  1.00  0.00     0.031 C 
ATOM     45  C   UNL A   1      40.224  33.823  31.468  1.00  0.00     0.029 A 
ATOM     46  C   UNL A   1      38.874  34.109  31.960  1.00  0.00     0.049 A 
ATOM     47  H   UNL A   1      37.244  34.229  30.622  1.00  0.00     0.167 HD
ATOM     48  C   UNL A   1      41.113  28.447  28.656  1.00  0.00     0.031 A 
ATOM     49  C   UNL A   1      38.372  33.748  33.180  1.00  0.00     0.031 A 
ATOM     50  C   UNL A   1      41.813  29.126  29.745  1.00  0.00     0.049 A 
ATOM     51  C   UNL A   1      39.180  32.592  33.720  1.00  0.00     0.074 A 
ATOM     52  C   UNL A   1      42.575  30.284  29.751  1.00  0.00     0.029 A 
ATOM     53  N   UNL A   1      41.415  28.901  31.056  1.00  0.00    -0.354 N 
ATOM     54  N   UNL A   1      39.684  31.632  32.986  1.00  0.00    -0.248 NA
ATOM     55  C   UNL A   1      39.586  32.523  35.116  1.00  0.00     0.031 C 
ATOM     56  C   UNL A   1      42.535  30.814  31.069  1.00  0.00     0.029 A 
ATOM     57  C   UNL A   1      41.751  29.981  31.851  1.00  0.00     0.049 A 
ATOM     58  H   UNL A   1      40.959  28.089  31.373  1.00  0.00     0.167 HD
ATOM     59  C   UNL A   1      40.573  30.923  33.749  1.00  0.00     0.074 A 
ATOM     60  C   UNL A   1      40.442  31.488  35.083  1.00  0.00     0.031 C 
ATOM     61  C   UNL A   1      41.421  29.969  33.266  1.00  0.00     0.031 A 
BRANCH  48  62
ATOM     62  C   UNL A   1      41.844  27.750  27.530  1.00  0.00    -0.014 A 
ATOM     63  C   UNL A   1      41.810  28.326  26.242  1.00  0.00     0.009 A 
ATOM     64  C   UNL A   1      42.548  26.538  27.636  1.00  0.00     0.009 A 
ATOM     65  C   UNL A   1      42.387  27.710  25.124  1.00  0.00     0.001 A 
ATOM     66  C   UNL A   1      43.118  25.907  26.518  1.00  0.00     0.001 A 
ATOM     67  C   UNL A   1      43.033  26.490  25.260  1.00  0.00     0.000 A 
ENDBRANCH  48  62
BRANCH  49  68
ATOM     68  C   UNL A   1      36.881  33.927  33.332  1.00  0.00    -0.014 A 
ATOM     69  C   UNL A   1      36.304  35.153  32.918  1.00  0.00     0.009 A 
ATOM     70  C   UNL A   1      36.000  32.877  33.632  1.00  0.00     0.009 A 
ATOM     71  C   UNL A   1      34.927  35.291  32.704  1.00  0.00     0.001 A 
ATOM     72  C   UNL A   1      34.611  33.027  33.447  1.00  0.00     0.001 A 
ATOM     73  C   UNL A   1      34.080  34.220  32.955  1.00  0.00     0.000 A 
ENDBRANCH  49  68
BRANCH  61  74
ATOM     74  C   UNL A   1      42.107  28.942  34.125  1.00  0.00    -0.014 A 
ATOM     75  C   UNL A   1      43.358  29.152  34.714  1.00  0.00     0.009 A 
ATOM     76  C   UNL A   1      41.395  27.787  34.521  1.00  0.00     0.009 A 
ATOM     77  C   UNL A   1      43.901  28.224  35.605  1.00  0.00     0.001 A 
ATOM     78  C   UNL A   1      41.904  26.897  35.463  1.00  0.00     0.001 A 
ATOM     79  C   UNL A   1      43.168  27.106  35.990  1.00  0.00     0.000 A 
ENDBRANCH  61  74
ENDBRANCH  35  36
ENDBRANCH  28  30
ENDBRANCH  27  28
ENDBRANCH  26  27
ENDBRANCH   1  26
TORSDOF 14
ENDMDL
MODEL 3
REMARK VINA RESULT:     -11.5      2.181      3.090
REMARK SMILES Cc1cc(NC(=O)c2ccc(Br)cc2N)ccc1C(=O)OCCOC(=O)c1ccc(-c2c3nc(c(-c4ccccc4)c4ccc([nH]4)c(-c4ccccc4)c4nc(c(-c5ccccc5)c5ccc2[nH]5)C=C4)C=C3)cc1
REMARK SMILES IDX 22 1 21 2 19 3 20 4 18 5 1 6 2 7 3 8 4 9 17 10 16 11 5 12
REMARK SMILES IDX 6 13 7 15 8 16 9 17 14 18 10 19 13 20 11 21 12 22 15 23
REMARK SMILES IDX 23 26 24 27 25 28 26 29 27 30 28 31 74 32 29 33 73 34 30 35
REMARK SMILES IDX 31 36 32 37 67 38 33 39 72 40 66 41 68 42 34 43 71 44 65 45
REMARK SMILES IDX 64 46 35 48 57 49 42 50 56 51 43 52 46 53 55 54 69 55 44 56
REMARK SMILES IDX 45 57 54 59 70 60 47 61 36 62 37 63 41 64 38 65 40 66 39 67
REMARK SMILES IDX 58 68 59 69 63 70 60 71 62 72 61 73 48 74 49 75 53 76 50 77
REMARK SMILES IDX 52 78 51 79
REMARK H PARENT 5 14 15 24 15 25 68 47 46 58
REMARK Flexibility Score: inf
ROOT
ATOM      1  C   UNL A   1      31.881  31.428  26.929  1.00  0.00     0.275 C 
ENDROOT
BRANCH   1   2
ATOM      2  O   UNL A   1      32.465  30.590  25.922  1.00  0.00    -0.458 OA
BRANCH   2   3
ATOM      3  C   UNL A   1      33.418  29.771  26.429  1.00  0.00     0.338 C 
ATOM      4  O   UNL A   1      34.365  30.109  27.123  1.00  0.00    -0.246 OA
BRANCH   3   5
ATOM      5  C   UNL A   1      33.321  28.390  25.942  1.00  0.00     0.063 A 
ATOM      6  C   UNL A   1      31.633  27.922  27.816  1.00  0.00     0.045 C 
ATOM      7  C   UNL A   1      32.395  27.551  26.573  1.00  0.00    -0.035 A 
ATOM      8  C   UNL A   1      32.092  26.327  25.976  1.00  0.00     0.030 A 
ATOM      9  C   UNL A   1      32.601  25.983  24.725  1.00  0.00     0.041 A 
ATOM     10  C   UNL A   1      33.969  27.980  24.768  1.00  0.00     0.018 A 
ATOM     11  C   UNL A   1      33.600  26.773  24.155  1.00  0.00     0.027 A 
BRANCH   9  12
ATOM     12  N   UNL A   1      32.103  24.878  24.010  1.00  0.00    -0.322 N 
ATOM     13  C   UNL A   1      32.781  23.751  23.570  1.00  0.00     0.257 C 
ATOM     14  H   UNL A   1      31.143  24.909  23.792  1.00  0.00     0.170 HD
ATOM     15  O   UNL A   1      32.294  23.042  22.692  1.00  0.00    -0.269 OA
BRANCH  13  16
ATOM     16  C   UNL A   1      34.081  23.347  24.183  1.00  0.00     0.063 A 
ATOM     17  C   UNL A   1      35.226  23.474  23.377  1.00  0.00     0.017 A 
ATOM     18  C   UNL A   1      34.192  22.891  25.516  1.00  0.00     0.045 A 
ATOM     19  C   UNL A   1      36.489  23.182  23.896  1.00  0.00     0.016 A 
ATOM     20  C   UNL A   1      35.467  22.572  26.006  1.00  0.00     0.042 A 
ATOM     21  C   UNL A   1      36.603  22.737  25.210  1.00  0.00     0.020 A 
ATOM     22  Br  UNL A   1      38.308  22.343  25.927  1.00  0.00    -0.051 Br
BRANCH  18  23
ATOM     23  N   UNL A   1      33.093  22.625  26.330  1.00  0.00    -0.398 N 
ATOM     24  H   UNL A   1      32.259  23.134  26.211  1.00  0.00     0.156 HD
ATOM     25  H   UNL A   1      33.152  21.930  27.025  1.00  0.00     0.156 HD
ENDBRANCH  18  23
ENDBRANCH  13  16
ENDBRANCH   9  12
ENDBRANCH   3   5
ENDBRANCH   2   3
ENDBRANCH   1   2
BRANCH   1  26
ATOM     26  C   UNL A   1      32.204  32.915  26.757  1.00  0.00     0.275 C 
BRANCH  26  27
ATOM     27  O   UNL A   1      32.051  33.824  27.885  1.00  0.00    -0.458 OA
BRANCH  27  28
ATOM     28  C   UNL A   1      32.997  34.494  28.581  1.00  0.00     0.338 C 
ATOM     29  O   UNL A   1      32.818  35.641  28.987  1.00  0.00    -0.246 OA
BRANCH  28  30
ATOM     30  C   UNL A   1      34.262  33.806  28.858  1.00  0.00     0.060 A 
ATOM     31  C   UNL A   1      34.287  32.776  29.816  1.00  0.00     0.016 A 
ATOM     32  C   UNL A   1      35.391  34.126  28.112  1.00  0.00     0.016 A 
ATOM     33  C   UNL A   1      35.420  31.991  29.957  1.00  0.00     0.010 A 
ATOM     34  C   UNL A   1      36.451  33.260  28.130  1.00  0.00     0.010 A 
ATOM     35  C   UNL A   1      36.484  32.241  29.094  1.00  0.00    -0.014 A 
BRANCH  35  36
ATOM     36  C   UNL A   1      37.832  31.783  29.363  1.00  0.00     0.031 A 
ATOM     37  C   UNL A   1      38.306  30.492  28.857  1.00  0.00     0.074 A 
ATOM     38  C   UNL A   1      38.532  32.757  29.992  1.00  0.00     0.049 A 
ATOM     39  N   UNL A   1      39.228  29.791  29.416  1.00  0.00    -0.248 NA
ATOM     40  C   UNL A   1      37.723  29.814  27.696  1.00  0.00     0.031 C 
ATOM     41  C   UNL A   1      39.942  32.969  30.230  1.00  0.00     0.029 A 
ATOM     42  N   UNL A   1      37.927  33.798  30.708  1.00  0.00    -0.354 N 
ATOM     43  C   UNL A   1      39.620  28.846  28.486  1.00  0.00     0.074 A 
ATOM     44  C   UNL A   1      38.534  28.758  27.548  1.00  0.00     0.031 C 
ATOM     45  C   UNL A   1      40.073  33.851  31.246  1.00  0.00     0.029 A 
ATOM     46  C   UNL A   1      38.737  34.132  31.776  1.00  0.00     0.049 A 
ATOM     47  H   UNL A   1      37.066  34.222  30.487  1.00  0.00     0.167 HD
ATOM     48  C   UNL A   1      40.925  28.449  28.472  1.00  0.00     0.031 A 
ATOM     49  C   UNL A   1      38.275  33.781  33.014  1.00  0.00     0.031 A 
ATOM     50  C   UNL A   1      41.652  29.148  29.531  1.00  0.00     0.049 A 
ATOM     51  C   UNL A   1      39.109  32.638  33.543  1.00  0.00     0.074 A 
ATOM     52  C   UNL A   1      42.403  30.312  29.500  1.00  0.00     0.029 A 
ATOM     53  N   UNL A   1      41.295  28.935  30.856  1.00  0.00    -0.354 N 
ATOM     54  N   UNL A   1      39.599  31.674  32.806  1.00  0.00    -0.248 NA
ATOM     55  C   UNL A   1      39.558  32.591  34.927  1.00  0.00     0.031 C 
ATOM     56  C   UNL A   1      42.398  30.858  30.812  1.00  0.00     0.029 A 
ATOM     57  C   UNL A   1      41.646  30.028  31.627  1.00  0.00     0.049 A 
ATOM     58  H   UNL A   1      40.856  28.123  31.196  1.00  0.00     0.167 HD
ATOM     59  C   UNL A   1      40.518  30.982  33.550  1.00  0.00     0.074 A 
ATOM     60  C   UNL A   1      40.422  31.562  34.880  1.00  0.00     0.031 C 
ATOM     61  C   UNL A   1      41.359  30.030  33.051  1.00  0.00     0.031 A 
BRANCH  48  62
ATOM     62  C   UNL A   1      41.627  27.745  27.332  1.00  0.00    -0.014 A 
ATOM     63  C   UNL A   1      42.090  26.427  27.534  1.00  0.00     0.009 A 
ATOM     64  C   UNL A   1      41.896  28.298  26.069  1.00  0.00     0.009 A 
ATOM     65  C   UNL A   1      42.821  25.728  26.565  1.00  0.00     0.001 A 
ATOM     66  C   UNL A   1      42.641  27.608  25.096  1.00  0.00     0.001 A 
ATOM     67  C   UNL A   1      43.109  26.325  25.347  1.00  0.00     0.000 A 
ENDBRANCH  48  62
BRANCH  49  68
ATOM     68  C   UNL A   1      36.788  33.949  33.210  1.00  0.00    -0.014 A 
ATOM     69  C   UNL A   1      36.185  35.160  32.787  1.00  0.00     0.009 A 
ATOM     70  C   UNL A   1      35.928  32.897  33.561  1.00  0.00     0.009 A 
ATOM     71  C   UNL A   1      34.800  35.280  32.614  1.00  0.00     0.001 A 
ATOM     72  C   UNL A   1      34.532  33.030  33.417  1.00  0.00     0.001 A 
ATOM     73  C   UNL A   1      33.973  34.206  32.915  1.00  0.00     0.000 A 
ENDBRANCH  49  68
BRANCH  61  74
ATOM     74  C   UNL A   1      42.080  29.019  33.901  1.00  0.00    -0.014 A 
ATOM     75  C   UNL A   1      41.456  27.886  34.434  1.00  0.00     0.009 A 
ATOM     76  C   UNL A   1      43.486  29.097  34.024  1.00  0.00     0.009 A 
ATOM     77  C   UNL A   1      42.189  26.909  35.111  1.00  0.00     0.001 A 
ATOM     78  C   UNL A   1      44.227  28.090  34.636  1.00  0.00     0.001 A 
ATOM     79  C   UNL A   1      43.575  27.004  35.199  1.00  0.00     0.000 A 
ENDBRANCH  61  74
ENDBRANCH  35  36
ENDBRANCH  28  30
ENDBRANCH  27  28
ENDBRANCH  26  27
ENDBRANCH   1  26
TORSDOF 14
ENDMDL
