MODEL 1
REMARK VINA RESULT:     -11.5      0.000      0.000
REMARK SMILES CCn1ncc(-c2cc(C(F)(F)F)nc(-n3ccc(C(=O)OCCOC(=O)c4ccc(-c5c6nc(c(-c7ccccc7)c7ccc([nH]7)c(-c7ccccc7)c7nc(c(-c8ccccc8)c8ccc5[nH]8)C=C7)C=C6)cc4)n3)n2)c1C
REMARK SMILES IDX 23 1 22 2 20 3 21 4 19 5 16 6 17 7 76 8 18 9 15 10 7 11 8 12
REMARK SMILES IDX 77 13 9 14 14 15 6 16 3 17 4 18 78 19 5 20 79 21 2 22 1 23
REMARK SMILES IDX 10 24 11 25 12 26 13 27 24 28 25 29 26 30 27 31 28 32 29 33
REMARK SMILES IDX 75 34 30 35 74 36 31 37 32 38 33 39 68 40 34 41 73 42 67 43
REMARK SMILES IDX 69 44 35 45 72 46 66 47 65 48 36 50 58 51 43 52 57 53 44 54
REMARK SMILES IDX 47 55 56 56 70 57 45 58 46 59 55 61 71 62 48 63 37 64 38 65
REMARK SMILES IDX 42 66 39 67 41 68 40 69 59 70 60 71 64 72 61 73 63 74 62 75
REMARK SMILES IDX 49 76 50 77 54 78 51 79 53 80 52 81
REMARK H PARENT 69 49 47 60
REMARK Flexibility Score: inf
ROOT
ATOM      1  C   UNL A   1      41.927  19.116  26.234  1.00  0.00     0.275 C 
ENDROOT
BRANCH   1   2
ATOM      2  O   UNL A   1      41.134  20.189  25.705  1.00  0.00    -0.457 OA
BRANCH   2   3
ATOM      3  C   UNL A   1      40.852  21.213  26.568  1.00  0.00     0.358 C 
ATOM      4  O   UNL A   1      41.660  21.688  27.363  1.00  0.00    -0.244 OA
BRANCH   3   5
ATOM      5  C   UNL A   1      39.528  21.801  26.332  1.00  0.00     0.170 A 
ATOM      6  N   UNL A   1      37.481  21.987  25.722  1.00  0.00    -0.205 N 
ATOM      7  C   UNL A   1      37.957  23.276  25.803  1.00  0.00     0.119 A 
ATOM      8  N   UNL A   1      38.419  21.075  26.104  1.00  0.00    -0.158 NA
ATOM      9  C   UNL A   1      39.246  23.191  26.267  1.00  0.00     0.058 A 
BRANCH   6  10
ATOM     10  C   UNL A   1      36.162  21.606  25.313  1.00  0.00     0.251 A 
ATOM     11  C   UNL A   1      34.054  22.220  24.674  1.00  0.00     0.080 A 
ATOM     12  C   UNL A   1      33.682  20.912  24.462  1.00  0.00     0.062 A 
ATOM     13  N   UNL A   1      35.255  22.581  25.150  1.00  0.00    -0.211 NA
ATOM     14  C   UNL A   1      34.657  19.956  24.685  1.00  0.00     0.150 A 
ATOM     15  N   UNL A   1      35.922  20.300  25.054  1.00  0.00    -0.207 NA
BRANCH  11  16
ATOM     16  C   UNL A   1      33.208  23.312  24.257  1.00  0.00     0.041 A 
ATOM     17  N   UNL A   1      31.770  24.968  24.343  1.00  0.00    -0.269 N 
ATOM     18  N   UNL A   1      32.096  24.875  23.035  1.00  0.00    -0.181 NA
ATOM     19  C   UNL A   1      32.462  24.084  25.134  1.00  0.00     0.045 A 
ATOM     20  C   UNL A   1      32.951  23.852  22.986  1.00  0.00     0.145 A 
ATOM     21  C   UNL A   1      32.351  24.015  26.616  1.00  0.00     0.067 C 
BRANCH  17  22
ATOM     22  C   UNL A   1      30.828  25.997  24.751  1.00  0.00     0.141 C 
ATOM     23  C   UNL A   1      29.545  26.019  23.935  1.00  0.00     0.029 C 
ENDBRANCH  17  22
ENDBRANCH  11  16
BRANCH  14  24
ATOM     24  C   UNL A   1      34.315  18.482  24.527  1.00  0.00     0.433 C 
ATOM     25  F   UNL A   1      35.408  17.669  24.592  1.00  0.00    -0.165 F 
ATOM     26  F   UNL A   1      33.452  18.037  25.484  1.00  0.00    -0.165 F 
ATOM     27  F   UNL A   1      33.716  18.194  23.334  1.00  0.00    -0.165 F 
ENDBRANCH  14  24
ENDBRANCH   6  10
ENDBRANCH   3   5
ENDBRANCH   2   3
ENDBRANCH   1   2
BRANCH   1  28
ATOM     28  C   UNL A   1      43.311  19.071  25.597  1.00  0.00     0.275 C 
BRANCH  28  29
ATOM     29  O   UNL A   1      43.518  20.125  24.651  1.00  0.00    -0.458 OA
BRANCH  29  30
ATOM     30  C   UNL A   1      44.735  20.709  24.703  1.00  0.00     0.338 C 
ATOM     31  O   UNL A   1      45.817  20.167  24.555  1.00  0.00    -0.246 OA
BRANCH  30  32
ATOM     32  C   UNL A   1      44.596  22.089  25.194  1.00  0.00     0.060 A 
ATOM     33  C   UNL A   1      45.294  22.440  26.353  1.00  0.00     0.016 A 
ATOM     34  C   UNL A   1      43.630  22.943  24.642  1.00  0.00     0.016 A 
ATOM     35  C   UNL A   1      44.949  23.605  27.015  1.00  0.00     0.010 A 
ATOM     36  C   UNL A   1      43.279  24.101  25.309  1.00  0.00     0.010 A 
ATOM     37  C   UNL A   1      43.909  24.401  26.513  1.00  0.00    -0.014 A 
BRANCH  37  38
ATOM     38  C   UNL A   1      43.625  25.653  27.194  1.00  0.00     0.031 A 
ATOM     39  C   UNL A   1      44.585  26.730  26.856  1.00  0.00     0.074 A 
ATOM     40  C   UNL A   1      42.536  25.883  27.953  1.00  0.00     0.049 A 
ATOM     41  N   UNL A   1      45.435  27.297  27.646  1.00  0.00    -0.248 NA
ATOM     42  C   UNL A   1      44.712  27.122  25.444  1.00  0.00     0.031 C 
ATOM     43  C   UNL A   1      41.369  25.018  28.141  1.00  0.00     0.029 A 
ATOM     44  N   UNL A   1      42.198  27.013  28.637  1.00  0.00    -0.354 N 
ATOM     45  C   UNL A   1      46.069  28.265  26.877  1.00  0.00     0.074 A 
ATOM     46  C   UNL A   1      45.713  28.000  25.507  1.00  0.00     0.031 C 
ATOM     47  C   UNL A   1      40.365  25.743  28.689  1.00  0.00     0.029 A 
ATOM     48  C   UNL A   1      40.860  27.074  29.006  1.00  0.00     0.049 A 
ATOM     49  H   UNL A   1      42.845  27.724  28.851  1.00  0.00     0.167 HD
ATOM     50  C   UNL A   1      46.598  29.378  27.454  1.00  0.00     0.031 A 
ATOM     51  C   UNL A   1      40.197  28.160  29.478  1.00  0.00     0.031 A 
ATOM     52  C   UNL A   1      46.815  29.200  28.868  1.00  0.00     0.049 A 
ATOM     53  C   UNL A   1      41.200  29.126  29.977  1.00  0.00     0.074 A 
ATOM     54  C   UNL A   1      47.513  28.295  29.644  1.00  0.00     0.029 A 
ATOM     55  N   UNL A   1      45.944  29.831  29.723  1.00  0.00    -0.354 N 
ATOM     56  N   UNL A   1      41.901  28.943  31.057  1.00  0.00    -0.248 NA
ATOM     57  C   UNL A   1      41.722  30.120  29.053  1.00  0.00     0.031 C 
ATOM     58  C   UNL A   1      46.699  28.093  30.799  1.00  0.00     0.029 A 
ATOM     59  C   UNL A   1      45.589  28.932  30.692  1.00  0.00     0.049 A 
ATOM     60  H   UNL A   1      45.631  30.762  29.652  1.00  0.00     0.167 HD
ATOM     61  C   UNL A   1      43.159  29.431  30.739  1.00  0.00     0.074 A 
ATOM     62  C   UNL A   1      42.957  30.250  29.545  1.00  0.00     0.031 C 
ATOM     63  C   UNL A   1      44.281  28.892  31.302  1.00  0.00     0.031 A 
BRANCH  50  64
ATOM     64  C   UNL A   1      46.441  30.750  26.837  1.00  0.00    -0.014 A 
ATOM     65  C   UNL A   1      47.536  31.629  26.873  1.00  0.00     0.009 A 
ATOM     66  C   UNL A   1      45.186  31.314  26.529  1.00  0.00     0.009 A 
ATOM     67  C   UNL A   1      47.364  33.010  26.720  1.00  0.00     0.001 A 
ATOM     68  C   UNL A   1      45.019  32.685  26.328  1.00  0.00     0.001 A 
ATOM     69  C   UNL A   1      46.104  33.538  26.460  1.00  0.00     0.000 A 
ENDBRANCH  50  64
BRANCH  51  70
ATOM     70  C   UNL A   1      38.779  28.542  29.314  1.00  0.00    -0.014 A 
ATOM     71  C   UNL A   1      37.952  28.716  30.439  1.00  0.00     0.009 A 
ATOM     72  C   UNL A   1      38.308  29.018  28.078  1.00  0.00     0.009 A 
ATOM     73  C   UNL A   1      36.727  29.388  30.337  1.00  0.00     0.001 A 
ATOM     74  C   UNL A   1      37.081  29.683  27.975  1.00  0.00     0.001 A 
ATOM     75  C   UNL A   1      36.300  29.885  29.109  1.00  0.00     0.000 A 
ENDBRANCH  51  70
BRANCH  63  76
ATOM     76  C   UNL A   1      44.113  27.990  32.498  1.00  0.00    -0.014 A 
ATOM     77  C   UNL A   1      44.032  26.589  32.412  1.00  0.00     0.009 A 
ATOM     78  C   UNL A   1      44.148  28.575  33.774  1.00  0.00     0.009 A 
ATOM     79  C   UNL A   1      43.936  25.804  33.567  1.00  0.00     0.001 A 
ATOM     80  C   UNL A   1      44.079  27.791  34.927  1.00  0.00     0.001 A 
ATOM     81  C   UNL A   1      43.962  26.408  34.823  1.00  0.00     0.000 A 
ENDBRANCH  63  76
ENDBRANCH  37  38
ENDBRANCH  30  32
ENDBRANCH  29  30
ENDBRANCH  28  29
ENDBRANCH   1  28
TORSDOF 15
ENDMDL
MODEL 2
REMARK VINA RESULT:     -11.0      4.563      8.820
REMARK SMILES CCn1ncc(-c2cc(C(F)(F)F)nc(-n3ccc(C(=O)OCCOC(=O)c4ccc(-c5c6nc(c(-c7ccccc7)c7ccc([nH]7)c(-c7ccccc7)c7nc(c(-c8ccccc8)c8ccc5[nH]8)C=C7)C=C6)cc4)n3)n2)c1C
REMARK SMILES IDX 23 1 22 2 20 3 21 4 19 5 16 6 17 7 76 8 18 9 15 10 7 11 8 12
REMARK SMILES IDX 77 13 9 14 14 15 6 16 3 17 4 18 78 19 5 20 79 21 2 22 1 23
REMARK SMILES IDX 10 24 11 25 12 26 13 27 24 28 25 29 26 30 27 31 28 32 29 33
REMARK SMILES IDX 75 34 30 35 74 36 31 37 32 38 33 39 68 40 34 41 73 42 67 43
REMARK SMILES IDX 69 44 35 45 72 46 66 47 65 48 36 50 58 51 43 52 57 53 44 54
REMARK SMILES IDX 47 55 56 56 70 57 45 58 46 59 55 61 71 62 48 63 37 64 38 65
REMARK SMILES IDX 42 66 39 67 41 68 40 69 59 70 60 71 64 72 61 73 63 74 62 75
REMARK SMILES IDX 49 76 50 77 54 78 51 79 53 80 52 81
REMARK H PARENT 69 49 47 60
REMARK Flexibility Score: inf
ROOT
ATOM      1  C   UNL A   1      34.528  33.928  30.305  1.00  0.00     0.275 C 
ENDROOT
BRANCH   1   2
ATOM      2  O   UNL A   1      34.137  32.686  29.703  1.00  0.00    -0.457 OA
BRANCH   2   3
ATOM      3  C   UNL A   1      33.876  32.722  28.360  1.00  0.00     0.358 C 
ATOM      4  O   UNL A   1      33.611  33.747  27.735  1.00  0.00    -0.244 OA
BRANCH   3   5
ATOM      5  C   UNL A   1      34.107  31.429  27.705  1.00  0.00     0.170 A 
ATOM      6  N   UNL A   1      33.716  29.583  26.686  1.00  0.00    -0.205 N 
ATOM      7  C   UNL A   1      34.951  29.423  27.274  1.00  0.00     0.119 A 
ATOM      8  N   UNL A   1      33.215  30.833  26.893  1.00  0.00    -0.158 NA
ATOM      9  C   UNL A   1      35.261  30.619  27.870  1.00  0.00     0.058 A 
BRANCH   6  10
ATOM     10  C   UNL A   1      33.017  28.593  25.923  1.00  0.00     0.251 A 
ATOM     11  C   UNL A   1      32.484  26.395  25.585  1.00  0.00     0.080 A 
ATOM     12  C   UNL A   1      31.639  26.706  24.544  1.00  0.00     0.062 A 
ATOM     13  N   UNL A   1      33.218  27.305  26.242  1.00  0.00    -0.211 NA
ATOM     14  C   UNL A   1      31.508  28.051  24.247  1.00  0.00     0.150 A 
ATOM     15  N   UNL A   1      32.149  29.009  24.974  1.00  0.00    -0.207 NA
BRANCH  11  16
ATOM     16  C   UNL A   1      32.526  25.062  26.137  1.00  0.00     0.041 A 
ATOM     17  N   UNL A   1      33.254  23.058  26.660  1.00  0.00    -0.269 N 
ATOM     18  N   UNL A   1      32.008  23.107  27.179  1.00  0.00    -0.181 NA
ATOM     19  C   UNL A   1      33.640  24.239  26.071  1.00  0.00     0.045 A 
ATOM     20  C   UNL A   1      31.562  24.318  26.836  1.00  0.00     0.145 A 
ATOM     21  C   UNL A   1      34.983  24.487  25.482  1.00  0.00     0.067 C 
BRANCH  17  22
ATOM     22  C   UNL A   1      34.035  21.847  26.846  1.00  0.00     0.141 C 
ATOM     23  C   UNL A   1      33.905  20.847  25.707  1.00  0.00     0.029 C 
ENDBRANCH  17  22
ENDBRANCH  11  16
BRANCH  14  24
ATOM     24  C   UNL A   1      30.637  28.481  23.075  1.00  0.00     0.433 C 
ATOM     25  F   UNL A   1      29.520  29.160  23.460  1.00  0.00    -0.165 F 
ATOM     26  F   UNL A   1      31.295  29.295  22.202  1.00  0.00    -0.165 F 
ATOM     27  F   UNL A   1      30.187  27.430  22.327  1.00  0.00    -0.165 F 
ENDBRANCH  14  24
ENDBRANCH   6  10
ENDBRANCH   3   5
ENDBRANCH   2   3
ENDBRANCH   1   2
BRANCH   1  28
ATOM     28  C   UNL A   1      35.915  33.838  30.932  1.00  0.00     0.275 C 
BRANCH  28  29
ATOM     29  O   UNL A   1      36.541  32.570  30.709  1.00  0.00    -0.458 OA
BRANCH  29  30
ATOM     30  C   UNL A   1      37.578  32.589  29.842  1.00  0.00     0.338 C 
ATOM     31  O   UNL A   1      37.713  33.319  28.876  1.00  0.00    -0.246 OA
BRANCH  30  32
ATOM     32  C   UNL A   1      38.448  31.429  30.094  1.00  0.00     0.060 A 
ATOM     33  C   UNL A   1      39.829  31.618  29.987  1.00  0.00     0.016 A 
ATOM     34  C   UNL A   1      37.899  30.144  30.217  1.00  0.00     0.016 A 
ATOM     35  C   UNL A   1      40.651  30.509  29.903  1.00  0.00     0.010 A 
ATOM     36  C   UNL A   1      38.719  29.037  30.123  1.00  0.00     0.010 A 
ATOM     37  C   UNL A   1      40.084  29.227  29.922  1.00  0.00    -0.014 A 
BRANCH  37  38
ATOM     38  C   UNL A   1      40.984  28.086  29.905  1.00  0.00     0.031 A 
ATOM     39  C   UNL A   1      41.805  27.975  31.133  1.00  0.00     0.074 A 
ATOM     40  C   UNL A   1      41.001  27.137  28.949  1.00  0.00     0.049 A 
ATOM     41  N   UNL A   1      43.086  28.103  31.233  1.00  0.00    -0.248 NA
ATOM     42  C   UNL A   1      41.104  27.846  32.421  1.00  0.00     0.031 C 
ATOM     43  C   UNL A   1      40.065  26.960  27.837  1.00  0.00     0.029 A 
ATOM     44  N   UNL A   1      41.815  26.048  28.844  1.00  0.00    -0.354 N 
ATOM     45  C   UNL A   1      43.380  27.869  32.571  1.00  0.00     0.074 A 
ATOM     46  C   UNL A   1      42.125  27.888  33.277  1.00  0.00     0.031 C 
ATOM     47  C   UNL A   1      40.221  25.718  27.320  1.00  0.00     0.029 A 
ATOM     48  C   UNL A   1      41.348  25.071  27.975  1.00  0.00     0.049 A 
ATOM     49  H   UNL A   1      42.661  25.962  29.341  1.00  0.00     0.167 HD
ATOM     50  C   UNL A   1      44.598  27.391  32.945  1.00  0.00     0.031 A 
ATOM     51  C   UNL A   1      41.816  23.804  27.851  1.00  0.00     0.031 A 
ATOM     52  C   UNL A   1      45.594  27.598  31.923  1.00  0.00     0.049 A 
ATOM     53  C   UNL A   1      43.176  23.760  28.433  1.00  0.00     0.074 A 
ATOM     54  C   UNL A   1      46.079  28.695  31.237  1.00  0.00     0.029 A 
ATOM     55  N   UNL A   1      45.989  26.500  31.197  1.00  0.00    -0.354 N 
ATOM     56  N   UNL A   1      44.213  24.318  27.881  1.00  0.00    -0.248 NA
ATOM     57  C   UNL A   1      43.314  23.439  29.844  1.00  0.00     0.031 C 
ATOM     58  C   UNL A   1      46.311  28.228  29.909  1.00  0.00     0.029 A 
ATOM     59  C   UNL A   1      46.019  26.864  29.878  1.00  0.00     0.049 A 
ATOM     60  H   UNL A   1      46.209  25.612  31.559  1.00  0.00     0.167 HD
ATOM     61  C   UNL A   1      44.932  24.838  28.945  1.00  0.00     0.074 A 
ATOM     62  C   UNL A   1      44.399  24.163  30.128  1.00  0.00     0.031 C 
ATOM     63  C   UNL A   1      45.684  25.969  28.795  1.00  0.00     0.031 A 
BRANCH  50  64
ATOM     64  C   UNL A   1      44.746  26.315  33.997  1.00  0.00    -0.014 A 
ATOM     65  C   UNL A   1      44.290  25.020  33.698  1.00  0.00     0.009 A 
ATOM     66  C   UNL A   1      45.006  26.598  35.353  1.00  0.00     0.009 A 
ATOM     67  C   UNL A   1      44.003  24.100  34.713  1.00  0.00     0.001 A 
ATOM     68  C   UNL A   1      44.766  25.665  36.364  1.00  0.00     0.001 A 
ATOM     69  C   UNL A   1      44.229  24.428  36.046  1.00  0.00     0.000 A 
ENDBRANCH  50  64
BRANCH  51  70
ATOM     70  C   UNL A   1      41.095  22.564  27.491  1.00  0.00    -0.014 A 
ATOM     71  C   UNL A   1      39.877  22.625  26.790  1.00  0.00     0.009 A 
ATOM     72  C   UNL A   1      41.738  21.317  27.578  1.00  0.00     0.009 A 
ATOM     73  C   UNL A   1      39.353  21.490  26.156  1.00  0.00     0.001 A 
ATOM     74  C   UNL A   1      41.210  20.183  26.950  1.00  0.00     0.001 A 
ATOM     75  C   UNL A   1      40.028  20.274  26.223  1.00  0.00     0.000 A 
ENDBRANCH  51  70
BRANCH  63  76
ATOM     76  C   UNL A   1      45.971  26.451  27.396  1.00  0.00    -0.014 A 
ATOM     77  C   UNL A   1      45.058  27.190  26.624  1.00  0.00     0.009 A 
ATOM     78  C   UNL A   1      47.260  26.244  26.881  1.00  0.00     0.009 A 
ATOM     79  C   UNL A   1      45.410  27.660  25.353  1.00  0.00     0.001 A 
ATOM     80  C   UNL A   1      47.620  26.735  25.625  1.00  0.00     0.001 A 
ATOM     81  C   UNL A   1      46.692  27.433  24.857  1.00  0.00     0.000 A 
ENDBRANCH  63  76
ENDBRANCH  37  38
ENDBRANCH  30  32
ENDBRANCH  29  30
ENDBRANCH  28  29
ENDBRANCH   1  28
TORSDOF 15
ENDMDL
MODEL 3
REMARK VINA RESULT:     -10.9      6.487     12.151
REMARK SMILES CCn1ncc(-c2cc(C(F)(F)F)nc(-n3ccc(C(=O)OCCOC(=O)c4ccc(-c5c6nc(c(-c7ccccc7)c7ccc([nH]7)c(-c7ccccc7)c7nc(c(-c8ccccc8)c8ccc5[nH]8)C=C7)C=C6)cc4)n3)n2)c1C
REMARK SMILES IDX 23 1 22 2 20 3 21 4 19 5 16 6 17 7 76 8 18 9 15 10 7 11 8 12
REMARK SMILES IDX 77 13 9 14 14 15 6 16 3 17 4 18 78 19 5 20 79 21 2 22 1 23
REMARK SMILES IDX 10 24 11 25 12 26 13 27 24 28 25 29 26 30 27 31 28 32 29 33
REMARK SMILES IDX 75 34 30 35 74 36 31 37 32 38 33 39 68 40 34 41 73 42 67 43
REMARK SMILES IDX 69 44 35 45 72 46 66 47 65 48 36 50 58 51 43 52 57 53 44 54
REMARK SMILES IDX 47 55 56 56 70 57 45 58 46 59 55 61 71 62 48 63 37 64 38 65
REMARK SMILES IDX 42 66 39 67 41 68 40 69 59 70 60 71 64 72 61 73 63 74 62 75
REMARK SMILES IDX 49 76 50 77 54 78 51 79 53 80 52 81
REMARK H PARENT 69 49 47 60
REMARK Flexibility Score: inf
ROOT
ATOM      1  C   UNL A   1      33.501  35.060  29.108  1.00  0.00     0.275 C 
ENDROOT
BRANCH   1   2
ATOM      2  O   UNL A   1      32.535  35.155  30.164  1.00  0.00    -0.457 OA
BRANCH   2   3
ATOM      3  C   UNL A   1      32.943  35.801  31.299  1.00  0.00     0.358 C 
ATOM      4  O   UNL A   1      32.437  36.838  31.724  1.00  0.00    -0.244 OA
BRANCH   3   5
ATOM      5  C   UNL A   1      33.945  35.038  32.054  1.00  0.00     0.170 A 
ATOM      6  N   UNL A   1      35.846  34.270  32.681  1.00  0.00    -0.205 N 
ATOM      7  C   UNL A   1      34.914  33.374  33.155  1.00  0.00     0.119 A 
ATOM      8  N   UNL A   1      35.258  35.329  32.056  1.00  0.00    -0.158 NA
ATOM      9  C   UNL A   1      33.680  33.881  32.833  1.00  0.00     0.058 A 
BRANCH   6  10
ATOM     10  C   UNL A   1      37.266  34.156  32.825  1.00  0.00     0.251 A 
ATOM     11  C   UNL A   1      39.076  33.777  34.171  1.00  0.00     0.080 A 
ATOM     12  C   UNL A   1      39.947  33.856  33.109  1.00  0.00     0.062 A 
ATOM     13  N   UNL A   1      37.754  33.979  34.063  1.00  0.00    -0.211 NA
ATOM     14  C   UNL A   1      39.377  34.076  31.868  1.00  0.00     0.150 A 
ATOM     15  N   UNL A   1      38.028  34.167  31.708  1.00  0.00    -0.207 NA
BRANCH  11  16
ATOM     16  C   UNL A   1      39.520  33.323  35.467  1.00  0.00     0.041 A 
ATOM     17  N   UNL A   1      40.336  33.353  37.505  1.00  0.00    -0.269 N 
ATOM     18  N   UNL A   1      40.069  32.050  37.270  1.00  0.00    -0.181 NA
ATOM     19  C   UNL A   1      39.965  34.174  36.467  1.00  0.00     0.045 A 
ATOM     20  C   UNL A   1      39.597  32.035  36.022  1.00  0.00     0.145 A 
ATOM     21  C   UNL A   1      40.080  35.657  36.485  1.00  0.00     0.067 C 
BRANCH  17  22
ATOM     22  C   UNL A   1      40.885  33.726  38.797  1.00  0.00     0.141 C 
ATOM     23  C   UNL A   1      41.768  32.659  39.426  1.00  0.00     0.029 C 
ENDBRANCH  17  22
ENDBRANCH  11  16
BRANCH  14  24
ATOM     24  C   UNL A   1      40.272  34.233  30.647  1.00  0.00     0.433 C 
ATOM     25  F   UNL A   1      40.679  33.041  30.126  1.00  0.00    -0.165 F 
ATOM     26  F   UNL A   1      39.661  34.904  29.630  1.00  0.00    -0.165 F 
ATOM     27  F   UNL A   1      41.418  34.929  30.907  1.00  0.00    -0.165 F 
ENDBRANCH  14  24
ENDBRANCH   6  10
ENDBRANCH   3   5
ENDBRANCH   2   3
ENDBRANCH   1   2
BRANCH   1  28
ATOM     28  C   UNL A   1      33.401  33.729  28.371  1.00  0.00     0.275 C 
BRANCH  28  29
ATOM     29  O   UNL A   1      34.680  33.126  28.145  1.00  0.00    -0.458 OA
BRANCH  29  30
ATOM     30  C   UNL A   1      34.645  31.810  27.837  1.00  0.00     0.338 C 
ATOM     31  O   UNL A   1      33.712  31.194  27.353  1.00  0.00    -0.246 OA
BRANCH  30  32
ATOM     32  C   UNL A   1      35.841  31.148  28.382  1.00  0.00     0.060 A 
ATOM     33  C   UNL A   1      36.868  31.960  28.872  1.00  0.00     0.016 A 
ATOM     34  C   UNL A   1      36.027  29.768  28.210  1.00  0.00     0.016 A 
ATOM     35  C   UNL A   1      38.114  31.402  29.094  1.00  0.00     0.010 A 
ATOM     36  C   UNL A   1      37.273  29.213  28.422  1.00  0.00     0.010 A 
ATOM     37  C   UNL A   1      38.320  30.042  28.819  1.00  0.00    -0.014 A 
BRANCH  37  38
ATOM     38  C   UNL A   1      39.621  29.475  29.134  1.00  0.00     0.031 A 
ATOM     39  C   UNL A   1      39.917  29.471  30.585  1.00  0.00     0.074 A 
ATOM     40  C   UNL A   1      40.437  28.887  28.238  1.00  0.00     0.049 A 
ATOM     41  N   UNL A   1      40.834  30.142  31.199  1.00  0.00    -0.248 NA
ATOM     42  C   UNL A   1      38.997  28.745  31.475  1.00  0.00     0.031 C 
ATOM     43  C   UNL A   1      40.156  28.564  26.838  1.00  0.00     0.029 A 
ATOM     44  N   UNL A   1      41.673  28.346  28.439  1.00  0.00    -0.354 N 
ATOM     45  C   UNL A   1      40.740  29.767  32.533  1.00  0.00     0.074 A 
ATOM     46  C   UNL A   1      39.499  29.048  32.672  1.00  0.00     0.031 C 
ATOM     47  C   UNL A   1      41.086  27.688  26.391  1.00  0.00     0.029 A 
ATOM     48  C   UNL A   1      42.090  27.494  27.425  1.00  0.00     0.049 A 
ATOM     49  H   UNL A   1      42.221  28.543  29.233  1.00  0.00     0.167 HD
ATOM     50  C   UNL A   1      41.824  29.825  33.353  1.00  0.00     0.031 A 
ATOM     51  C   UNL A   1      43.149  26.646  27.463  1.00  0.00     0.031 A 
ATOM     52  C   UNL A   1      42.849  30.692  32.829  1.00  0.00     0.049 A 
ATOM     53  C   UNL A   1      44.055  27.094  28.544  1.00  0.00     0.074 A 
ATOM     54  C   UNL A   1      42.904  32.014  32.432  1.00  0.00     0.029 A 
ATOM     55  N   UNL A   1      43.965  30.095  32.292  1.00  0.00    -0.354 N 
ATOM     56  N   UNL A   1      44.777  28.173  28.476  1.00  0.00    -0.248 NA
ATOM     57  C   UNL A   1      43.857  26.556  29.880  1.00  0.00     0.031 C 
ATOM     58  C   UNL A   1      43.769  32.025  31.298  1.00  0.00     0.029 A 
ATOM     59  C   UNL A   1      44.244  30.726  31.109  1.00  0.00     0.049 A 
ATOM     60  H   UNL A   1      44.471  29.349  32.685  1.00  0.00     0.167 HD
ATOM     61  C   UNL A   1      44.727  28.703  29.756  1.00  0.00     0.074 A 
ATOM     62  C   UNL A   1      44.253  27.608  30.600  1.00  0.00     0.031 C 
ATOM     63  C   UNL A   1      44.796  30.052  29.957  1.00  0.00     0.031 A 
BRANCH  50  64
ATOM     64  C   UNL A   1      42.139  28.725  34.342  1.00  0.00    -0.014 A 
ATOM     65  C   UNL A   1      42.496  27.460  33.845  1.00  0.00     0.009 A 
ATOM     66  C   UNL A   1      41.782  28.792  35.705  1.00  0.00     0.009 A 
ATOM     67  C   UNL A   1      42.393  26.313  34.639  1.00  0.00     0.001 A 
ATOM     68  C   UNL A   1      41.724  27.655  36.512  1.00  0.00     0.001 A 
ATOM     69  C   UNL A   1      41.994  26.409  35.969  1.00  0.00     0.000 A 
ENDBRANCH  50  64
BRANCH  51  70
ATOM     70  C   UNL A   1      43.329  25.334  26.805  1.00  0.00    -0.014 A 
ATOM     71  C   UNL A   1      42.796  24.168  27.382  1.00  0.00     0.009 A 
ATOM     72  C   UNL A   1      43.771  25.261  25.473  1.00  0.00     0.009 A 
ATOM     73  C   UNL A   1      42.662  22.990  26.634  1.00  0.00     0.001 A 
ATOM     74  C   UNL A   1      43.643  24.083  24.729  1.00  0.00     0.001 A 
ATOM     75  C   UNL A   1      43.071  22.954  25.303  1.00  0.00     0.000 A 
ENDBRANCH  51  70
BRANCH  63  76
ATOM     76  C   UNL A   1      45.245  30.921  28.809  1.00  0.00    -0.014 A 
ATOM     77  C   UNL A   1      46.586  31.274  28.577  1.00  0.00     0.009 A 
ATOM     78  C   UNL A   1      44.284  31.305  27.861  1.00  0.00     0.009 A 
ATOM     79  C   UNL A   1      46.943  32.035  27.458  1.00  0.00     0.001 A 
ATOM     80  C   UNL A   1      44.643  32.041  26.731  1.00  0.00     0.001 A 
ATOM     81  C   UNL A   1      45.970  32.415  26.536  1.00  0.00     0.000 A 
ENDBRANCH  63  76
ENDBRANCH  37  38
ENDBRANCH  30  32
ENDBRANCH  29  30
ENDBRANCH  28  29
ENDBRANCH   1  28
TORSDOF 15
ENDMDL
