MODEL 1
REMARK VINA RESULT:     -11.4      0.000      0.000
REMARK SMILES Cc1ccc(Nc2c(F)cccc2I)c(CC(=O)OCCOC(=O)c2ccc(-c3c4nc(c(-c5ccccc5)c5ccc([nH]5)c(-c5ccccc5)c5nc(c(-c6ccccc6)c6ccc3[nH]6)C=C5)C=C4)cc2)c1
REMARK SMILES IDX 20 1 19 2 17 3 18 4 16 5 15 6 1 7 2 8 3 9 73 10 4 11 5 12
REMARK SMILES IDX 6 13 7 15 8 16 13 17 9 18 10 19 12 20 14 21 11 22 21 23
REMARK SMILES IDX 22 24 23 25 24 26 25 27 26 28 72 29 27 30 71 31 28 32 29 33
REMARK SMILES IDX 30 34 65 35 31 36 70 37 64 38 66 39 32 40 69 41 63 42 62 43
REMARK SMILES IDX 33 45 55 46 40 47 54 48 41 49 44 50 53 51 67 52 42 53 43 54
REMARK SMILES IDX 52 56 68 57 45 58 34 59 35 60 39 61 36 62 38 63 37 64 56 65
REMARK SMILES IDX 57 66 61 67 58 68 60 69 59 70 46 71 47 72 51 73 48 74 50 75
REMARK SMILES IDX 49 76
REMARK H PARENT 6 14 66 44 44 55
REMARK Flexibility Score: inf
ROOT
ATOM      1  C   UNL A   1      32.957  31.037  27.260  1.00  0.00     0.274 C 
ENDROOT
BRANCH   1   2
ATOM      2  O   UNL A   1      31.736  30.316  27.238  1.00  0.00    -0.462 OA
BRANCH   2   3
ATOM      3  C   UNL A   1      31.796  28.957  27.197  1.00  0.00     0.310 C 
ATOM      4  O   UNL A   1      31.414  28.201  28.054  1.00  0.00    -0.252 OA
BRANCH   3   5
ATOM      5  C   UNL A   1      32.431  28.556  25.880  1.00  0.00     0.160 C 
BRANCH   5   6
ATOM      6  C   UNL A   1      31.363  28.020  24.967  1.00  0.00    -0.013 A 
ATOM      7  C   UNL A   1      29.137  29.725  22.409  1.00  0.00     0.044 C 
ATOM      8  C   UNL A   1      29.731  28.668  23.287  1.00  0.00    -0.051 A 
ATOM      9  C   UNL A   1      29.118  27.424  23.440  1.00  0.00     0.005 A 
ATOM     10  C   UNL A   1      30.871  28.945  24.027  1.00  0.00     0.009 A 
ATOM     11  C   UNL A   1      29.624  26.481  24.342  1.00  0.00     0.026 A 
ATOM     12  C   UNL A   1      30.735  26.763  25.142  1.00  0.00     0.042 A 
BRANCH  12  13
ATOM     13  N   UNL A   1      31.099  25.868  26.171  1.00  0.00    -0.352 N 
ATOM     14  H   UNL A   1      31.153  26.269  27.069  1.00  0.00     0.167 HD
BRANCH  13  15
ATOM     15  C   UNL A   1      31.399  24.480  26.116  1.00  0.00     0.088 A 
ATOM     16  C   UNL A   1      30.430  23.541  26.495  1.00  0.00     0.147 A 
ATOM     17  C   UNL A   1      32.517  23.984  25.419  1.00  0.00     0.040 A 
ATOM     18  F   UNL A   1      29.346  23.935  27.182  1.00  0.00    -0.205 F 
ATOM     19  C   UNL A   1      30.542  22.189  26.165  1.00  0.00     0.041 A 
ATOM     20  C   UNL A   1      32.586  22.649  24.992  1.00  0.00     0.017 A 
ATOM     21  I   UNL A   1      34.308  25.063  25.278  1.00  0.00    -0.042 I 
ATOM     22  C   UNL A   1      31.594  21.750  25.368  1.00  0.00     0.004 A 
ENDBRANCH  13  15
ENDBRANCH  12  13
ENDBRANCH   5   6
ENDBRANCH   3   5
ENDBRANCH   2   3
ENDBRANCH   1   2
BRANCH   1  23
ATOM     23  C   UNL A   1      32.642  32.534  27.128  1.00  0.00     0.275 C 
BRANCH  23  24
ATOM     24  O   UNL A   1      32.654  33.355  28.365  1.00  0.00    -0.458 OA
BRANCH  24  25
ATOM     25  C   UNL A   1      33.636  34.129  28.919  1.00  0.00     0.338 C 
ATOM     26  O   UNL A   1      33.516  35.334  29.094  1.00  0.00    -0.246 OA
BRANCH  25  27
ATOM     27  C   UNL A   1      34.834  33.433  29.395  1.00  0.00     0.060 A 
ATOM     28  C   UNL A   1      34.790  32.329  30.264  1.00  0.00     0.016 A 
ATOM     29  C   UNL A   1      36.008  33.811  28.792  1.00  0.00     0.016 A 
ATOM     30  C   UNL A   1      35.928  31.534  30.391  1.00  0.00     0.010 A 
ATOM     31  C   UNL A   1      36.959  32.860  28.624  1.00  0.00     0.010 A 
ATOM     32  C   UNL A   1      36.996  31.806  29.533  1.00  0.00    -0.014 A 
BRANCH  32  33
ATOM     33  C   UNL A   1      38.355  31.323  29.687  1.00  0.00     0.031 A 
ATOM     34  C   UNL A   1      38.780  30.073  29.045  1.00  0.00     0.074 A 
ATOM     35  C   UNL A   1      39.152  32.197  30.358  1.00  0.00     0.049 A 
ATOM     36  N   UNL A   1      39.510  29.179  29.615  1.00  0.00    -0.248 NA
ATOM     37  C   UNL A   1      38.389  29.707  27.680  1.00  0.00     0.031 C 
ATOM     38  C   UNL A   1      40.580  32.200  30.593  1.00  0.00     0.029 A 
ATOM     39  N   UNL A   1      38.745  33.342  31.071  1.00  0.00    -0.354 N 
ATOM     40  C   UNL A   1      40.004  28.398  28.590  1.00  0.00     0.074 A 
ATOM     41  C   UNL A   1      39.126  28.610  27.466  1.00  0.00     0.031 C 
ATOM     42  C   UNL A   1      40.826  32.995  31.660  1.00  0.00     0.029 A 
ATOM     43  C   UNL A   1      39.542  33.444  32.193  1.00  0.00     0.049 A 
ATOM     44  H   UNL A   1      38.022  33.959  30.813  1.00  0.00     0.167 HD
ATOM     45  C   UNL A   1      41.274  27.909  28.670  1.00  0.00     0.031 A 
ATOM     46  C   UNL A   1      39.002  33.175  33.421  1.00  0.00     0.031 A 
ATOM     47  C   UNL A   1      41.943  28.438  29.858  1.00  0.00     0.049 A 
ATOM     48  C   UNL A   1      39.603  31.894  33.958  1.00  0.00     0.074 A 
ATOM     49  C   UNL A   1      42.819  29.499  30.018  1.00  0.00     0.029 A 
ATOM     50  N   UNL A   1      41.426  28.161  31.118  1.00  0.00    -0.354 N 
ATOM     51  N   UNL A   1      40.086  30.952  33.193  1.00  0.00    -0.248 NA
ATOM     52  C   UNL A   1      39.760  31.595  35.377  1.00  0.00     0.031 C 
ATOM     53  C   UNL A   1      42.765  29.910  31.376  1.00  0.00     0.029 A 
ATOM     54  C   UNL A   1      41.857  29.101  32.037  1.00  0.00     0.049 A 
ATOM     55  H   UNL A   1      40.836  27.402  31.328  1.00  0.00     0.167 HD
ATOM     56  C   UNL A   1      40.720  30.019  33.962  1.00  0.00     0.074 A 
ATOM     57  C   UNL A   1      40.454  30.442  35.327  1.00  0.00     0.031 C 
ATOM     58  C   UNL A   1      41.449  28.994  33.430  1.00  0.00     0.031 A 
BRANCH  45  59
ATOM     59  C   UNL A   1      42.006  27.300  27.501  1.00  0.00    -0.014 A 
ATOM     60  C   UNL A   1      42.220  28.058  26.334  1.00  0.00     0.009 A 
ATOM     61  C   UNL A   1      42.527  25.993  27.499  1.00  0.00     0.009 A 
ATOM     62  C   UNL A   1      42.862  27.531  25.207  1.00  0.00     0.001 A 
ATOM     63  C   UNL A   1      43.153  25.451  26.364  1.00  0.00     0.001 A 
ATOM     64  C   UNL A   1      43.318  26.221  25.217  1.00  0.00     0.000 A 
ENDBRANCH  45  59
BRANCH  46  65
ATOM     65  C   UNL A   1      37.572  33.614  33.599  1.00  0.00    -0.014 A 
ATOM     66  C   UNL A   1      37.188  34.866  33.063  1.00  0.00     0.009 A 
ATOM     67  C   UNL A   1      36.544  32.738  33.981  1.00  0.00     0.009 A 
ATOM     68  C   UNL A   1      35.845  35.182  32.808  1.00  0.00     0.001 A 
ATOM     69  C   UNL A   1      35.194  33.069  33.751  1.00  0.00     0.001 A 
ATOM     70  C   UNL A   1      34.848  34.271  33.132  1.00  0.00     0.000 A 
ENDBRANCH  46  65
BRANCH  58  71
ATOM     71  C   UNL A   1      41.939  27.795  34.192  1.00  0.00    -0.014 A 
ATOM     72  C   UNL A   1      41.094  26.818  34.722  1.00  0.00     0.009 A 
ATOM     73  C   UNL A   1      43.329  27.537  34.237  1.00  0.00     0.009 A 
ATOM     74  C   UNL A   1      41.612  25.663  35.316  1.00  0.00     0.001 A 
ATOM     75  C   UNL A   1      43.846  26.358  34.766  1.00  0.00     0.001 A 
ATOM     76  C   UNL A   1      42.985  25.427  35.323  1.00  0.00     0.000 A 
ENDBRANCH  58  71
ENDBRANCH  32  33
ENDBRANCH  25  27
ENDBRANCH  24  25
ENDBRANCH  23  24
ENDBRANCH   1  23
TORSDOF 14
ENDMDL
MODEL 2
REMARK VINA RESULT:     -11.3      3.776      8.407
REMARK SMILES Cc1ccc(Nc2c(F)cccc2I)c(CC(=O)OCCOC(=O)c2ccc(-c3c4nc(c(-c5ccccc5)c5ccc([nH]5)c(-c5ccccc5)c5nc(c(-c6ccccc6)c6ccc3[nH]6)C=C5)C=C4)cc2)c1
REMARK SMILES IDX 20 1 19 2 17 3 18 4 16 5 15 6 1 7 2 8 3 9 73 10 4 11 5 12
REMARK SMILES IDX 6 13 7 15 8 16 13 17 9 18 10 19 12 20 14 21 11 22 21 23
REMARK SMILES IDX 22 24 23 25 24 26 25 27 26 28 72 29 27 30 71 31 28 32 29 33
REMARK SMILES IDX 30 34 65 35 31 36 70 37 64 38 66 39 32 40 69 41 63 42 62 43
REMARK SMILES IDX 33 45 55 46 40 47 54 48 41 49 44 50 53 51 67 52 42 53 43 54
REMARK SMILES IDX 52 56 68 57 45 58 34 59 35 60 39 61 36 62 38 63 37 64 56 65
REMARK SMILES IDX 57 66 61 67 58 68 60 69 59 70 46 71 47 72 51 73 48 74 50 75
REMARK SMILES IDX 49 76
REMARK H PARENT 6 14 66 44 44 55
REMARK Flexibility Score: inf
ROOT
ATOM      1  C   UNL A   1      37.605  23.663  25.981  1.00  0.00     0.274 C 
ENDROOT
BRANCH   1   2
ATOM      2  O   UNL A   1      37.201  22.977  24.807  1.00  0.00    -0.462 OA
BRANCH   2   3
ATOM      3  C   UNL A   1      36.734  21.706  24.937  1.00  0.00     0.310 C 
ATOM      4  O   UNL A   1      37.213  20.716  24.444  1.00  0.00    -0.252 OA
BRANCH   3   5
ATOM      5  C   UNL A   1      35.497  21.750  25.814  1.00  0.00     0.160 C 
BRANCH   5   6
ATOM      6  C   UNL A   1      34.284  21.505  24.959  1.00  0.00    -0.013 A 
ATOM      7  C   UNL A   1      32.460  18.312  24.018  1.00  0.00     0.044 C 
ATOM      8  C   UNL A   1      32.846  19.757  24.074  1.00  0.00    -0.051 A 
ATOM      9  C   UNL A   1      32.320  20.683  23.172  1.00  0.00     0.005 A 
ATOM     10  C   UNL A   1      33.801  20.184  24.986  1.00  0.00     0.009 A 
ATOM     11  C   UNL A   1      32.764  22.010  23.165  1.00  0.00     0.026 A 
ATOM     12  C   UNL A   1      33.769  22.445  24.033  1.00  0.00     0.042 A 
BRANCH  12  13
ATOM     13  N   UNL A   1      34.325  23.733  23.869  1.00  0.00    -0.352 N 
ATOM     14  H   UNL A   1      35.189  23.754  23.397  1.00  0.00     0.167 HD
BRANCH  13  15
ATOM     15  C   UNL A   1      33.834  25.002  24.277  1.00  0.00     0.088 A 
ATOM     16  C   UNL A   1      33.953  25.397  25.616  1.00  0.00     0.147 A 
ATOM     17  C   UNL A   1      33.500  26.009  23.351  1.00  0.00     0.040 A 
ATOM     18  F   UNL A   1      34.246  24.489  26.561  1.00  0.00    -0.205 F 
ATOM     19  C   UNL A   1      33.791  26.726  26.013  1.00  0.00     0.041 A 
ATOM     20  C   UNL A   1      33.442  27.360  23.723  1.00  0.00     0.017 A 
ATOM     21  I   UNL A   1      32.715  25.564  21.461  1.00  0.00    -0.042 I 
ATOM     22  C   UNL A   1      33.587  27.718  25.059  1.00  0.00     0.004 A 
ENDBRANCH  13  15
ENDBRANCH  12  13
ENDBRANCH   5   6
ENDBRANCH   3   5
ENDBRANCH   2   3
ENDBRANCH   1   2
BRANCH   1  23
ATOM     23  C   UNL A   1      38.859  22.978  26.540  1.00  0.00     0.275 C 
BRANCH  23  24
ATOM     24  O   UNL A   1      39.907  23.838  27.147  1.00  0.00    -0.458 OA
BRANCH  24  25
ATOM     25  C   UNL A   1      40.385  25.065  26.777  1.00  0.00     0.338 C 
ATOM     26  O   UNL A   1      41.094  25.236  25.795  1.00  0.00    -0.246 OA
BRANCH  25  27
ATOM     27  C   UNL A   1      39.931  26.214  27.564  1.00  0.00     0.060 A 
ATOM     28  C   UNL A   1      39.298  26.091  28.813  1.00  0.00     0.016 A 
ATOM     29  C   UNL A   1      40.327  27.440  27.090  1.00  0.00     0.016 A 
ATOM     30  C   UNL A   1      39.209  27.217  29.630  1.00  0.00     0.010 A 
ATOM     31  C   UNL A   1      40.575  28.412  28.002  1.00  0.00     0.010 A 
ATOM     32  C   UNL A   1      39.885  28.365  29.211  1.00  0.00    -0.014 A 
BRANCH  32  33
ATOM     33  C   UNL A   1      39.688  29.706  29.729  1.00  0.00     0.031 A 
ATOM     34  C   UNL A   1      38.632  30.569  29.188  1.00  0.00     0.074 A 
ATOM     35  C   UNL A   1      40.486  29.979  30.797  1.00  0.00     0.049 A 
ATOM     36  N   UNL A   1      38.783  31.819  28.925  1.00  0.00    -0.248 NA
ATOM     37  C   UNL A   1      37.289  30.075  28.867  1.00  0.00     0.031 C 
ATOM     38  C   UNL A   1      40.510  31.105  31.706  1.00  0.00     0.029 A 
ATOM     39  N   UNL A   1      41.573  29.214  31.263  1.00  0.00    -0.354 N 
ATOM     40  C   UNL A   1      37.506  32.334  28.831  1.00  0.00     0.074 A 
ATOM     41  C   UNL A   1      36.639  31.210  28.578  1.00  0.00     0.031 C 
ATOM     42  C   UNL A   1      41.729  31.142  32.293  1.00  0.00     0.029 A 
ATOM     43  C   UNL A   1      42.548  30.090  31.695  1.00  0.00     0.049 A 
ATOM     44  H   UNL A   1      41.626  28.230  31.279  1.00  0.00     0.167 HD
ATOM     45  C   UNL A   1      37.251  33.589  29.299  1.00  0.00     0.031 A 
ATOM     46  C   UNL A   1      43.691  30.234  30.954  1.00  0.00     0.031 A 
ATOM     47  C   UNL A   1      38.441  34.135  29.950  1.00  0.00     0.049 A 
ATOM     48  C   UNL A   1      43.706  31.612  30.328  1.00  0.00     0.074 A 
ATOM     49  C   UNL A   1      38.805  34.197  31.285  1.00  0.00     0.029 A 
ATOM     50  N   UNL A   1      39.607  34.310  29.215  1.00  0.00    -0.354 N 
ATOM     51  N   UNL A   1      42.622  32.295  30.070  1.00  0.00    -0.248 NA
ATOM     52  C   UNL A   1      44.921  32.347  29.997  1.00  0.00     0.031 C 
ATOM     53  C   UNL A   1      40.218  34.332  31.346  1.00  0.00     0.029 A 
ATOM     54  C   UNL A   1      40.708  34.351  30.052  1.00  0.00     0.049 A 
ATOM     55  H   UNL A   1      39.645  34.395  28.235  1.00  0.00     0.167 HD
ATOM     56  C   UNL A   1      42.961  33.560  29.685  1.00  0.00     0.074 A 
ATOM     57  C   UNL A   1      44.413  33.534  29.614  1.00  0.00     0.031 C 
ATOM     58  C   UNL A   1      42.037  34.547  29.493  1.00  0.00     0.031 A 
BRANCH  45  59
ATOM     59  C   UNL A   1      35.860  34.131  29.510  1.00  0.00    -0.014 A 
ATOM     60  C   UNL A   1      35.321  34.192  30.810  1.00  0.00     0.009 A 
ATOM     61  C   UNL A   1      35.042  34.616  28.474  1.00  0.00     0.009 A 
ATOM     62  C   UNL A   1      34.023  34.654  31.060  1.00  0.00     0.001 A 
ATOM     63  C   UNL A   1      33.732  35.060  28.715  1.00  0.00     0.001 A 
ATOM     64  C   UNL A   1      33.222  35.076  30.009  1.00  0.00     0.000 A 
ENDBRANCH  45  59
BRANCH  46  65
ATOM     65  C   UNL A   1      44.194  28.970  30.307  1.00  0.00    -0.014 A 
ATOM     66  C   UNL A   1      44.566  27.894  31.147  1.00  0.00     0.009 A 
ATOM     67  C   UNL A   1      44.023  28.690  28.942  1.00  0.00     0.009 A 
ATOM     68  C   UNL A   1      44.648  26.577  30.669  1.00  0.00     0.001 A 
ATOM     69  C   UNL A   1      44.134  27.371  28.460  1.00  0.00     0.001 A 
ATOM     70  C   UNL A   1      44.408  26.312  29.327  1.00  0.00     0.000 A 
ENDBRANCH  46  65
BRANCH  58  71
ATOM     71  C   UNL A   1      42.305  35.863  28.820  1.00  0.00    -0.014 A 
ATOM     72  C   UNL A   1      41.756  36.227  27.588  1.00  0.00     0.009 A 
ATOM     73  C   UNL A   1      43.008  36.863  29.532  1.00  0.00     0.009 A 
ATOM     74  C   UNL A   1      41.942  37.511  27.068  1.00  0.00     0.001 A 
ATOM     75  C   UNL A   1      43.138  38.162  29.049  1.00  0.00     0.001 A 
ATOM     76  C   UNL A   1      42.619  38.481  27.805  1.00  0.00     0.000 A 
ENDBRANCH  58  71
ENDBRANCH  32  33
ENDBRANCH  25  27
ENDBRANCH  24  25
ENDBRANCH  23  24
ENDBRANCH   1  23
TORSDOF 14
ENDMDL
MODEL 3
REMARK VINA RESULT:     -11.2      2.633      4.342
REMARK SMILES Cc1ccc(Nc2c(F)cccc2I)c(CC(=O)OCCOC(=O)c2ccc(-c3c4nc(c(-c5ccccc5)c5ccc([nH]5)c(-c5ccccc5)c5nc(c(-c6ccccc6)c6ccc3[nH]6)C=C5)C=C4)cc2)c1
REMARK SMILES IDX 20 1 19 2 17 3 18 4 16 5 15 6 1 7 2 8 3 9 73 10 4 11 5 12
REMARK SMILES IDX 6 13 7 15 8 16 13 17 9 18 10 19 12 20 14 21 11 22 21 23
REMARK SMILES IDX 22 24 23 25 24 26 25 27 26 28 72 29 27 30 71 31 28 32 29 33
REMARK SMILES IDX 30 34 65 35 31 36 70 37 64 38 66 39 32 40 69 41 63 42 62 43
REMARK SMILES IDX 33 45 55 46 40 47 54 48 41 49 44 50 53 51 67 52 42 53 43 54
REMARK SMILES IDX 52 56 68 57 45 58 34 59 35 60 39 61 36 62 38 63 37 64 56 65
REMARK SMILES IDX 57 66 61 67 58 68 60 69 59 70 46 71 47 72 51 73 48 74 50 75
REMARK SMILES IDX 49 76
REMARK H PARENT 6 14 66 44 44 55
REMARK Flexibility Score: inf
ROOT
ATOM      1  C   UNL A   1      33.558  29.684  26.237  1.00  0.00     0.274 C 
ENDROOT
BRANCH   1   2
ATOM      2  O   UNL A   1      33.781  29.072  24.977  1.00  0.00    -0.462 OA
BRANCH   2   3
ATOM      3  C   UNL A   1      32.735  28.989  24.111  1.00  0.00     0.310 C 
ATOM      4  O   UNL A   1      32.800  29.040  22.909  1.00  0.00    -0.252 OA
BRANCH   3   5
ATOM      5  C   UNL A   1      31.467  28.822  24.925  1.00  0.00     0.160 C 
BRANCH   5   6
ATOM      6  C   UNL A   1      30.280  28.939  24.008  1.00  0.00    -0.013 A 
ATOM      7  C   UNL A   1      27.999  31.862  23.192  1.00  0.00     0.044 C 
ATOM      8  C   UNL A   1      28.572  30.479  23.222  1.00  0.00    -0.051 A 
ATOM      9  C   UNL A   1      27.867  29.391  22.705  1.00  0.00     0.005 A 
ATOM     10  C   UNL A   1      29.792  30.248  23.840  1.00  0.00     0.009 A 
ATOM     11  C   UNL A   1      28.364  28.088  22.830  1.00  0.00     0.026 A 
ATOM     12  C   UNL A   1      29.560  27.828  23.504  1.00  0.00     0.042 A 
BRANCH  12  13
ATOM     13  N   UNL A   1      29.931  26.494  23.777  1.00  0.00    -0.352 N 
ATOM     14  H   UNL A   1      29.253  25.966  24.256  1.00  0.00     0.167 HD
BRANCH  13  15
ATOM     15  C   UNL A   1      31.130  25.795  23.471  1.00  0.00     0.088 A 
ATOM     16  C   UNL A   1      31.732  25.959  22.216  1.00  0.00     0.147 A 
ATOM     17  C   UNL A   1      31.909  25.173  24.465  1.00  0.00     0.040 A 
ATOM     18  F   UNL A   1      31.043  26.523  21.210  1.00  0.00    -0.205 F 
ATOM     19  C   UNL A   1      33.048  25.567  21.970  1.00  0.00     0.041 A 
ATOM     20  C   UNL A   1      33.264  24.874  24.259  1.00  0.00     0.017 A 
ATOM     21  I   UNL A   1      31.052  24.316  26.174  1.00  0.00    -0.042 I 
ATOM     22  C   UNL A   1      33.833  25.072  23.006  1.00  0.00     0.004 A 
ENDBRANCH  13  15
ENDBRANCH  12  13
ENDBRANCH   5   6
ENDBRANCH   3   5
ENDBRANCH   2   3
ENDBRANCH   1   2
BRANCH   1  23
ATOM     23  C   UNL A   1      34.411  28.961  27.288  1.00  0.00     0.275 C 
BRANCH  23  24
ATOM     24  O   UNL A   1      35.071  29.787  28.332  1.00  0.00    -0.458 OA
BRANCH  24  25
ATOM     25  C   UNL A   1      36.222  30.524  28.297  1.00  0.00     0.338 C 
ATOM     26  O   UNL A   1      36.243  31.715  28.022  1.00  0.00    -0.246 OA
BRANCH  25  27
ATOM     27  C   UNL A   1      37.454  29.842  28.704  1.00  0.00     0.060 A 
ATOM     28  C   UNL A   1      37.494  28.856  29.704  1.00  0.00     0.016 A 
ATOM     29  C   UNL A   1      38.549  30.095  27.916  1.00  0.00     0.016 A 
ATOM     30  C   UNL A   1      38.619  28.036  29.788  1.00  0.00     0.010 A 
ATOM     31  C   UNL A   1      39.446  29.092  27.752  1.00  0.00     0.010 A 
ATOM     32  C   UNL A   1      39.574  28.156  28.775  1.00  0.00    -0.014 A 
BRANCH  32  33
ATOM     33  C   UNL A   1      40.928  27.639  28.817  1.00  0.00     0.031 A 
ATOM     34  C   UNL A   1      41.249  26.334  28.227  1.00  0.00     0.074 A 
ATOM     35  C   UNL A   1      41.816  28.532  29.333  1.00  0.00     0.049 A 
ATOM     36  N   UNL A   1      42.012  25.459  28.780  1.00  0.00    -0.248 NA
ATOM     37  C   UNL A   1      40.701  25.887  26.943  1.00  0.00     0.031 C 
ATOM     38  C   UNL A   1      43.261  28.503  29.413  1.00  0.00     0.029 A 
ATOM     39  N   UNL A   1      41.519  29.737  29.999  1.00  0.00    -0.354 N 
ATOM     40  C   UNL A   1      42.371  24.591  27.769  1.00  0.00     0.074 A 
ATOM     41  C   UNL A   1      41.382  24.752  26.732  1.00  0.00     0.031 C 
ATOM     42  C   UNL A   1      43.643  29.363  30.386  1.00  0.00     0.029 A 
ATOM     43  C   UNL A   1      42.437  29.891  31.018  1.00  0.00     0.049 A 
ATOM     44  H   UNL A   1      40.788  30.359  29.775  1.00  0.00     0.167 HD
ATOM     45  C   UNL A   1      43.629  24.067  27.747  1.00  0.00     0.031 A 
ATOM     46  C   UNL A   1      42.027  29.728  32.314  1.00  0.00     0.031 A 
ATOM     47  C   UNL A   1      44.437  24.655  28.815  1.00  0.00     0.049 A 
ATOM     48  C   UNL A   1      42.650  28.468  32.876  1.00  0.00     0.074 A 
ATOM     49  C   UNL A   1      45.354  25.694  28.801  1.00  0.00     0.029 A 
ATOM     50  N   UNL A   1      44.055  24.486  30.140  1.00  0.00    -0.354 N 
ATOM     51  N   UNL A   1      43.023  27.458  32.135  1.00  0.00    -0.248 NA
ATOM     52  C   UNL A   1      42.954  28.264  34.288  1.00  0.00     0.031 C 
ATOM     53  C   UNL A   1      45.459  26.202  30.123  1.00  0.00     0.029 A 
ATOM     54  C   UNL A   1      44.608  25.473  30.936  1.00  0.00     0.049 A 
ATOM     55  H   UNL A   1      43.473  23.763  30.467  1.00  0.00     0.167 HD
ATOM     56  C   UNL A   1      43.712  26.561  32.898  1.00  0.00     0.074 A 
ATOM     57  C   UNL A   1      43.608  27.088  34.249  1.00  0.00     0.031 C 
ATOM     58  C   UNL A   1      44.352  25.478  32.368  1.00  0.00     0.031 A 
BRANCH  45  59
ATOM     59  C   UNL A   1      44.213  23.352  26.555  1.00  0.00    -0.014 A 
ATOM     60  C   UNL A   1      45.148  24.010  25.731  1.00  0.00     0.009 A 
ATOM     61  C   UNL A   1      43.900  22.026  26.206  1.00  0.00     0.009 A 
ATOM     62  C   UNL A   1      45.695  23.406  24.592  1.00  0.00     0.001 A 
ATOM     63  C   UNL A   1      44.429  21.423  25.052  1.00  0.00     0.001 A 
ATOM     64  C   UNL A   1      45.324  22.116  24.244  1.00  0.00     0.000 A 
ENDBRANCH  45  59
BRANCH  46  65
ATOM     65  C   UNL A   1      40.637  30.226  32.612  1.00  0.00    -0.014 A 
ATOM     66  C   UNL A   1      40.237  31.461  32.047  1.00  0.00     0.009 A 
ATOM     67  C   UNL A   1      39.628  29.408  33.145  1.00  0.00     0.009 A 
ATOM     68  C   UNL A   1      38.885  31.809  31.913  1.00  0.00     0.001 A 
ATOM     69  C   UNL A   1      38.273  29.774  33.035  1.00  0.00     0.001 A 
ATOM     70  C   UNL A   1      37.900  30.953  32.388  1.00  0.00     0.000 A 
ENDBRANCH  46  65
BRANCH  58  71
ATOM     71  C   UNL A   1      44.892  24.320  33.159  1.00  0.00    -0.014 A 
ATOM     72  C   UNL A   1      46.172  24.293  33.716  1.00  0.00     0.009 A 
ATOM     73  C   UNL A   1      44.014  23.268  33.514  1.00  0.00     0.009 A 
ATOM     74  C   UNL A   1      46.576  23.241  34.544  1.00  0.00     0.001 A 
ATOM     75  C   UNL A   1      44.389  22.255  34.391  1.00  0.00     0.001 A 
ATOM     76  C   UNL A   1      45.680  22.233  34.893  1.00  0.00     0.000 A 
ENDBRANCH  58  71
ENDBRANCH  32  33
ENDBRANCH  25  27
ENDBRANCH  24  25
ENDBRANCH  23  24
ENDBRANCH   1  23
TORSDOF 14
ENDMDL
