MODEL 1
REMARK VINA RESULT:     -10.1      0.000      0.000
REMARK SMILES C[NH+](C)[C@H](CC(=O)Nc1cccc(Cl)c1)C(=O)OCCOC(=O)c1ccc(-c2c3nc(c(-c4ccccc4)c4ccc([nH]4)c(-c4ccccc4)c4nc(c(-c5ccccc5)c5ccc2[nH]5)C=C4)C=C3)cc1
REMARK SMILES IDX 19 1 18 2 16 3 17 4 4 5 2 6 1 7 3 8 5 10 6 11 7 12 8 13 9 15
REMARK SMILES IDX 10 16 15 17 11 18 13 19 12 20 14 21 20 22 21 23 22 24 23 25
REMARK SMILES IDX 24 26 25 27 71 28 26 29 70 30 27 31 28 32 29 33 64 34 30 35
REMARK SMILES IDX 69 36 63 37 65 38 31 39 68 40 62 41 61 42 32 44 54 45 39 46
REMARK SMILES IDX 53 47 40 48 43 49 52 50 66 51 41 52 42 53 51 55 67 56 44 57
REMARK SMILES IDX 33 58 34 59 38 60 35 61 37 62 36 63 55 64 56 65 60 66 57 67
REMARK SMILES IDX 59 68 58 69 45 70 46 71 50 72 47 73 49 74 48 75
REMARK H PARENT 2 9 8 14 65 43 43 54
REMARK Flexibility Score: inf
ROOT
ATOM      1  C   UNL A   1      35.883  21.599  25.955  1.00  0.00     0.274 C 
ENDROOT
BRANCH   1   2
ATOM      2  O   UNL A   1      35.525  22.895  25.431  1.00  0.00    -0.458 OA
BRANCH   2   3
ATOM      3  C   UNL A   1      34.302  23.426  25.740  1.00  0.00     0.365 C 
ATOM      4  O   UNL A   1      33.949  23.706  26.879  1.00  0.00    -0.245 OA
BRANCH   3   5
ATOM      5  C   UNL A   1      33.467  23.681  24.455  1.00  0.00     0.304 C 
BRANCH   5   6
ATOM      6  N   UNL A   1      32.709  22.470  23.988  1.00  0.00    -0.328 N 
ATOM      7  C   UNL A   1      32.522  22.328  22.542  1.00  0.00     0.333 C 
ATOM      8  C   UNL A   1      31.376  22.413  24.607  1.00  0.00     0.333 C 
ATOM      9  H   UNL A   1      33.317  21.704  24.279  1.00  0.00     0.348 HD
ENDBRANCH   5   6
BRANCH   5  10
ATOM     10  C   UNL A   1      34.175  24.556  23.425  1.00  0.00     0.177 C 
BRANCH  10  11
ATOM     11  C   UNL A   1      33.586  25.819  22.820  1.00  0.00     0.231 C 
ATOM     12  O   UNL A   1      33.658  25.956  21.589  1.00  0.00    -0.274 OA
ATOM     13  N   UNL A   1      32.769  26.699  23.453  1.00  0.00    -0.326 N 
ATOM     14  H   UNL A   1      32.121  27.099  22.827  1.00  0.00     0.169 HD
BRANCH  13  15
ATOM     15  C   UNL A   1      32.594  27.194  24.751  1.00  0.00     0.042 A 
ATOM     16  C   UNL A   1      31.480  26.955  25.554  1.00  0.00     0.026 A 
ATOM     17  C   UNL A   1      33.681  27.873  25.314  1.00  0.00     0.046 A 
ATOM     18  C   UNL A   1      31.406  27.461  26.860  1.00  0.00     0.004 A 
ATOM     19  C   UNL A   1      33.605  28.387  26.613  1.00  0.00     0.043 A 
ATOM     20  C   UNL A   1      32.465  28.192  27.387  1.00  0.00     0.020 A 
ATOM     21  Cl  UNL A   1      34.910  29.315  27.238  1.00  0.00    -0.084 Cl
ENDBRANCH  13  15
ENDBRANCH  10  11
ENDBRANCH   5  10
ENDBRANCH   3   5
ENDBRANCH   2   3
ENDBRANCH   1   2
BRANCH   1  22
ATOM     22  C   UNL A   1      36.885  20.890  25.046  1.00  0.00     0.275 C 
BRANCH  22  23
ATOM     23  O   UNL A   1      38.083  21.664  24.984  1.00  0.00    -0.458 OA
BRANCH  23  24
ATOM     24  C   UNL A   1      39.023  21.274  25.874  1.00  0.00     0.338 C 
ATOM     25  O   UNL A   1      39.522  20.172  26.006  1.00  0.00    -0.246 OA
BRANCH  24  26
ATOM     26  C   UNL A   1      39.532  22.483  26.524  1.00  0.00     0.060 A 
ATOM     27  C   UNL A   1      38.966  23.703  26.141  1.00  0.00     0.016 A 
ATOM     28  C   UNL A   1      40.554  22.418  27.474  1.00  0.00     0.016 A 
ATOM     29  C   UNL A   1      39.470  24.885  26.659  1.00  0.00     0.010 A 
ATOM     30  C   UNL A   1      41.062  23.602  27.990  1.00  0.00     0.010 A 
ATOM     31  C   UNL A   1      40.551  24.832  27.544  1.00  0.00    -0.014 A 
BRANCH  31  32
ATOM     32  C   UNL A   1      41.302  26.060  27.841  1.00  0.00     0.031 A 
ATOM     33  C   UNL A   1      40.623  27.105  28.673  1.00  0.00     0.074 A 
ATOM     34  C   UNL A   1      42.542  26.224  27.358  1.00  0.00     0.049 A 
ATOM     35  N   UNL A   1      41.003  28.323  28.946  1.00  0.00    -0.248 NA
ATOM     36  C   UNL A   1      39.327  26.729  29.268  1.00  0.00     0.031 C 
ATOM     37  C   UNL A   1      43.289  25.232  26.587  1.00  0.00     0.029 A 
ATOM     38  N   UNL A   1      43.379  27.303  27.433  1.00  0.00    -0.354 N 
ATOM     39  C   UNL A   1      39.982  28.867  29.714  1.00  0.00     0.074 A 
ATOM     40  C   UNL A   1      38.959  27.857  29.855  1.00  0.00     0.031 C 
ATOM     41  C   UNL A   1      44.474  25.759  26.237  1.00  0.00     0.029 A 
ATOM     42  C   UNL A   1      44.541  27.134  26.724  1.00  0.00     0.049 A 
ATOM     43  H   UNL A   1      43.170  28.117  27.943  1.00  0.00     0.167 HD
ATOM     44  C   UNL A   1      39.909  30.108  30.247  1.00  0.00     0.031 A 
ATOM     45  C   UNL A   1      45.525  28.015  26.471  1.00  0.00     0.031 A 
ATOM     46  C   UNL A   1      40.939  31.096  30.081  1.00  0.00     0.049 A 
ATOM     47  C   UNL A   1      45.400  29.404  27.033  1.00  0.00     0.074 A 
ATOM     48  C   UNL A   1      40.990  32.385  30.573  1.00  0.00     0.029 A 
ATOM     49  N   UNL A   1      42.105  30.890  29.357  1.00  0.00    -0.354 N 
ATOM     50  N   UNL A   1      44.432  29.918  27.757  1.00  0.00    -0.248 NA
ATOM     51  C   UNL A   1      46.499  30.333  26.746  1.00  0.00     0.031 C 
ATOM     52  C   UNL A   1      42.171  32.976  30.110  1.00  0.00     0.029 A 
ATOM     53  C   UNL A   1      42.878  32.036  29.373  1.00  0.00     0.049 A 
ATOM     54  H   UNL A   1      42.346  30.053  28.899  1.00  0.00     0.167 HD
ATOM     55  C   UNL A   1      44.815  31.224  28.030  1.00  0.00     0.074 A 
ATOM     56  C   UNL A   1      46.109  31.416  27.405  1.00  0.00     0.031 C 
ATOM     57  C   UNL A   1      44.160  32.181  28.734  1.00  0.00     0.031 A 
BRANCH  44  58
ATOM     58  C   UNL A   1      38.661  30.461  31.004  1.00  0.00    -0.014 A 
ATOM     59  C   UNL A   1      38.576  30.298  32.396  1.00  0.00     0.009 A 
ATOM     60  C   UNL A   1      37.545  30.956  30.312  1.00  0.00     0.009 A 
ATOM     61  C   UNL A   1      37.389  30.590  33.073  1.00  0.00     0.001 A 
ATOM     62  C   UNL A   1      36.368  31.271  30.993  1.00  0.00     0.001 A 
ATOM     63  C   UNL A   1      36.288  31.079  32.371  1.00  0.00     0.000 A 
ENDBRANCH  44  58
BRANCH  45  64
ATOM     64  C   UNL A   1      46.681  27.613  25.633  1.00  0.00    -0.014 A 
ATOM     65  C   UNL A   1      46.669  27.828  24.248  1.00  0.00     0.009 A 
ATOM     66  C   UNL A   1      47.819  27.034  26.220  1.00  0.00     0.009 A 
ATOM     67  C   UNL A   1      47.767  27.459  23.465  1.00  0.00     0.001 A 
ATOM     68  C   UNL A   1      48.925  26.690  25.438  1.00  0.00     0.001 A 
ATOM     69  C   UNL A   1      48.895  26.897  24.061  1.00  0.00     0.000 A 
ENDBRANCH  45  64
BRANCH  57  70
ATOM     70  C   UNL A   1      44.857  33.501  28.885  1.00  0.00    -0.014 A 
ATOM     71  C   UNL A   1      44.648  34.540  27.967  1.00  0.00     0.009 A 
ATOM     72  C   UNL A   1      45.698  33.716  29.988  1.00  0.00     0.009 A 
ATOM     73  C   UNL A   1      45.295  35.765  28.137  1.00  0.00     0.001 A 
ATOM     74  C   UNL A   1      46.321  34.949  30.168  1.00  0.00     0.001 A 
ATOM     75  C   UNL A   1      46.126  35.969  29.238  1.00  0.00     0.000 A 
ENDBRANCH  57  70
ENDBRANCH  31  32
ENDBRANCH  24  26
ENDBRANCH  23  24
ENDBRANCH  22  23
ENDBRANCH   1  22
TORSDOF 15
ENDMDL
MODEL 2
REMARK VINA RESULT:     -10.1      4.101      8.554
REMARK SMILES C[NH+](C)[C@H](CC(=O)Nc1cccc(Cl)c1)C(=O)OCCOC(=O)c1ccc(-c2c3nc(c(-c4ccccc4)c4ccc([nH]4)c(-c4ccccc4)c4nc(c(-c5ccccc5)c5ccc2[nH]5)C=C4)C=C3)cc1
REMARK SMILES IDX 19 1 18 2 16 3 17 4 4 5 2 6 1 7 3 8 5 10 6 11 7 12 8 13 9 15
REMARK SMILES IDX 10 16 15 17 11 18 13 19 12 20 14 21 20 22 21 23 22 24 23 25
REMARK SMILES IDX 24 26 25 27 71 28 26 29 70 30 27 31 28 32 29 33 64 34 30 35
REMARK SMILES IDX 69 36 63 37 65 38 31 39 68 40 62 41 61 42 32 44 54 45 39 46
REMARK SMILES IDX 53 47 40 48 43 49 52 50 66 51 41 52 42 53 51 55 67 56 44 57
REMARK SMILES IDX 33 58 34 59 38 60 35 61 37 62 36 63 55 64 56 65 60 66 57 67
REMARK SMILES IDX 59 68 58 69 45 70 46 71 50 72 47 73 49 74 48 75
REMARK H PARENT 2 9 8 14 65 43 43 54
REMARK Flexibility Score: inf
ROOT
ATOM      1  C   UNL A   1      31.835  28.385  27.423  1.00  0.00     0.274 C 
ENDROOT
BRANCH   1   2
ATOM      2  O   UNL A   1      31.097  27.578  26.481  1.00  0.00    -0.458 OA
BRANCH   2   3
ATOM      3  C   UNL A   1      31.586  26.351  26.127  1.00  0.00     0.365 C 
ATOM      4  O   UNL A   1      31.631  25.389  26.885  1.00  0.00    -0.245 OA
BRANCH   3   5
ATOM      5  C   UNL A   1      32.009  26.332  24.632  1.00  0.00     0.304 C 
BRANCH   5   6
ATOM      6  N   UNL A   1      32.599  25.020  24.196  1.00  0.00    -0.328 N 
ATOM      7  C   UNL A   1      34.055  24.965  24.058  1.00  0.00     0.333 C 
ATOM      8  C   UNL A   1      32.024  24.587  22.912  1.00  0.00     0.333 C 
ATOM      9  H   UNL A   1      32.355  24.401  24.970  1.00  0.00     0.348 HD
ENDBRANCH   5   6
BRANCH   5  10
ATOM     10  C   UNL A   1      32.659  27.630  24.161  1.00  0.00     0.177 C 
BRANCH  10  11
ATOM     11  C   UNL A   1      32.587  28.160  22.739  1.00  0.00     0.231 C 
ATOM     12  O   UNL A   1      33.636  28.174  22.076  1.00  0.00    -0.274 OA
ATOM     13  N   UNL A   1      31.453  28.391  22.031  1.00  0.00    -0.326 N 
ATOM     14  H   UNL A   1      31.589  28.219  21.071  1.00  0.00     0.169 HD
BRANCH  13  15
ATOM     15  C   UNL A   1      30.141  28.805  22.292  1.00  0.00     0.042 A 
ATOM     16  C   UNL A   1      29.182  28.046  22.962  1.00  0.00     0.026 A 
ATOM     17  C   UNL A   1      29.823  30.127  21.959  1.00  0.00     0.046 A 
ATOM     18  C   UNL A   1      27.900  28.557  23.213  1.00  0.00     0.004 A 
ATOM     19  C   UNL A   1      28.543  30.634  22.200  1.00  0.00     0.043 A 
ATOM     20  C   UNL A   1      27.574  29.850  22.817  1.00  0.00     0.020 A 
ATOM     21  Cl  UNL A   1      28.146  32.223  21.677  1.00  0.00    -0.084 Cl
ENDBRANCH  13  15
ENDBRANCH  10  11
ENDBRANCH   5  10
ENDBRANCH   3   5
ENDBRANCH   2   3
ENDBRANCH   1   2
BRANCH   1  22
ATOM     22  C   UNL A   1      31.777  29.865  27.050  1.00  0.00     0.275 C 
BRANCH  22  23
ATOM     23  O   UNL A   1      33.071  30.286  26.617  1.00  0.00    -0.458 OA
BRANCH  23  24
ATOM     24  C   UNL A   1      33.527  31.380  27.268  1.00  0.00     0.338 C 
ATOM     25  O   UNL A   1      32.901  32.367  27.608  1.00  0.00    -0.246 OA
BRANCH  24  26
ATOM     26  C   UNL A   1      34.887  31.080  27.720  1.00  0.00     0.060 A 
ATOM     27  C   UNL A   1      35.225  29.732  27.880  1.00  0.00     0.016 A 
ATOM     28  C   UNL A   1      35.799  32.101  27.996  1.00  0.00     0.016 A 
ATOM     29  C   UNL A   1      36.468  29.394  28.390  1.00  0.00     0.010 A 
ATOM     30  C   UNL A   1      37.043  31.763  28.510  1.00  0.00     0.010 A 
ATOM     31  C   UNL A   1      37.354  30.414  28.751  1.00  0.00    -0.014 A 
BRANCH  31  32
ATOM     32  C   UNL A   1      38.521  30.095  29.584  1.00  0.00     0.031 A 
ATOM     33  C   UNL A   1      39.584  29.223  28.988  1.00  0.00     0.074 A 
ATOM     34  C   UNL A   1      38.600  30.563  30.839  1.00  0.00     0.049 A 
ATOM     35  N   UNL A   1      40.624  28.677  29.557  1.00  0.00    -0.248 NA
ATOM     36  C   UNL A   1      39.446  28.911  27.553  1.00  0.00     0.031 C 
ATOM     37  C   UNL A   1      37.634  31.460  31.471  1.00  0.00     0.029 A 
ATOM     38  N   UNL A   1      39.535  30.326  31.809  1.00  0.00    -0.354 N 
ATOM     39  C   UNL A   1      41.244  27.935  28.561  1.00  0.00     0.074 A 
ATOM     40  C   UNL A   1      40.461  28.085  27.356  1.00  0.00     0.031 C 
ATOM     41  C   UNL A   1      38.015  31.681  32.740  1.00  0.00     0.029 A 
ATOM     42  C   UNL A   1      39.223  30.907  33.011  1.00  0.00     0.049 A 
ATOM     43  H   UNL A   1      40.348  29.793  31.660  1.00  0.00     0.167 HD
ATOM     44  C   UNL A   1      42.368  27.187  28.653  1.00  0.00     0.031 A 
ATOM     45  C   UNL A   1      39.834  30.787  34.203  1.00  0.00     0.031 A 
ATOM     46  C   UNL A   1      43.120  27.049  29.869  1.00  0.00     0.049 A 
ATOM     47  C   UNL A   1      41.054  29.912  34.294  1.00  0.00     0.074 A 
ATOM     48  C   UNL A   1      44.277  26.328  30.095  1.00  0.00     0.029 A 
ATOM     49  N   UNL A   1      42.777  27.653  31.070  1.00  0.00    -0.354 N 
ATOM     50  N   UNL A   1      41.637  29.207  33.352  1.00  0.00    -0.248 NA
ATOM     51  C   UNL A   1      41.700  29.816  35.608  1.00  0.00     0.031 C 
ATOM     52  C   UNL A   1      44.610  26.463  31.447  1.00  0.00     0.029 A 
ATOM     53  C   UNL A   1      43.690  27.309  32.049  1.00  0.00     0.049 A 
ATOM     54  H   UNL A   1      41.997  28.240  31.206  1.00  0.00     0.167 HD
ATOM     55  C   UNL A   1      42.731  28.601  33.954  1.00  0.00     0.074 A 
ATOM     56  C   UNL A   1      42.735  29.033  35.338  1.00  0.00     0.031 C 
ATOM     57  C   UNL A   1      43.651  27.763  33.416  1.00  0.00     0.031 A 
BRANCH  44  58
ATOM     58  C   UNL A   1      42.802  26.439  27.426  1.00  0.00    -0.014 A 
ATOM     59  C   UNL A   1      42.350  25.136  27.162  1.00  0.00     0.009 A 
ATOM     60  C   UNL A   1      43.686  27.045  26.520  1.00  0.00     0.009 A 
ATOM     61  C   UNL A   1      42.803  24.443  26.037  1.00  0.00     0.001 A 
ATOM     62  C   UNL A   1      44.118  26.360  25.382  1.00  0.00     0.001 A 
ATOM     63  C   UNL A   1      43.683  25.057  25.146  1.00  0.00     0.000 A 
ENDBRANCH  44  58
BRANCH  45  64
ATOM     64  C   UNL A   1      39.284  31.486  35.391  1.00  0.00    -0.014 A 
ATOM     65  C   UNL A   1      39.713  32.780  35.720  1.00  0.00     0.009 A 
ATOM     66  C   UNL A   1      38.303  30.874  36.187  1.00  0.00     0.009 A 
ATOM     67  C   UNL A   1      39.183  33.439  36.833  1.00  0.00     0.001 A 
ATOM     68  C   UNL A   1      37.755  31.545  37.283  1.00  0.00     0.001 A 
ATOM     69  C   UNL A   1      38.200  32.825  37.608  1.00  0.00     0.000 A 
ENDBRANCH  45  64
BRANCH  57  70
ATOM     70  C   UNL A   1      44.749  27.295  34.325  1.00  0.00    -0.014 A 
ATOM     71  C   UNL A   1      44.627  26.103  35.054  1.00  0.00     0.009 A 
ATOM     72  C   UNL A   1      45.937  28.037  34.413  1.00  0.00     0.009 A 
ATOM     73  C   UNL A   1      45.668  25.679  35.882  1.00  0.00     0.001 A 
ATOM     74  C   UNL A   1      46.984  27.596  35.221  1.00  0.00     0.001 A 
ATOM     75  C   UNL A   1      46.845  26.423  35.961  1.00  0.00     0.000 A 
ENDBRANCH  57  70
ENDBRANCH  31  32
ENDBRANCH  24  26
ENDBRANCH  23  24
ENDBRANCH  22  23
ENDBRANCH   1  22
TORSDOF 15
ENDMDL
MODEL 3
REMARK VINA RESULT:     -10.1      4.141      8.741
REMARK SMILES C[NH+](C)[C@H](CC(=O)Nc1cccc(Cl)c1)C(=O)OCCOC(=O)c1ccc(-c2c3nc(c(-c4ccccc4)c4ccc([nH]4)c(-c4ccccc4)c4nc(c(-c5ccccc5)c5ccc2[nH]5)C=C4)C=C3)cc1
REMARK SMILES IDX 19 1 18 2 16 3 17 4 4 5 2 6 1 7 3 8 5 10 6 11 7 12 8 13 9 15
REMARK SMILES IDX 10 16 15 17 11 18 13 19 12 20 14 21 20 22 21 23 22 24 23 25
REMARK SMILES IDX 24 26 25 27 71 28 26 29 70 30 27 31 28 32 29 33 64 34 30 35
REMARK SMILES IDX 69 36 63 37 65 38 31 39 68 40 62 41 61 42 32 44 54 45 39 46
REMARK SMILES IDX 53 47 40 48 43 49 52 50 66 51 41 52 42 53 51 55 67 56 44 57
REMARK SMILES IDX 33 58 34 59 38 60 35 61 37 62 36 63 55 64 56 65 60 66 57 67
REMARK SMILES IDX 59 68 58 69 45 70 46 71 50 72 47 73 49 74 48 75
REMARK H PARENT 2 9 8 14 65 43 43 54
REMARK Flexibility Score: inf
ROOT
ATOM      1  C   UNL A   1      31.911  29.679  24.867  1.00  0.00     0.274 C 
ENDROOT
BRANCH   1   2
ATOM      2  O   UNL A   1      30.692  29.555  24.104  1.00  0.00    -0.458 OA
BRANCH   2   3
ATOM      3  C   UNL A   1      30.544  28.493  23.253  1.00  0.00     0.365 C 
ATOM      4  O   UNL A   1      29.934  28.549  22.192  1.00  0.00    -0.245 OA
BRANCH   3   5
ATOM      5  C   UNL A   1      31.301  27.246  23.785  1.00  0.00     0.304 C 
BRANCH   5   6
ATOM      6  N   UNL A   1      32.047  26.500  22.713  1.00  0.00    -0.328 N 
ATOM      7  C   UNL A   1      32.209  25.057  22.907  1.00  0.00     0.333 C 
ATOM      8  C   UNL A   1      33.391  27.066  22.517  1.00  0.00     0.333 C 
ATOM      9  H   UNL A   1      31.442  26.619  21.901  1.00  0.00     0.348 HD
ENDBRANCH   5   6
BRANCH   5  10
ATOM     10  C   UNL A   1      30.525  26.456  24.835  1.00  0.00     0.177 C 
BRANCH  10  11
ATOM     11  C   UNL A   1      31.012  26.198  26.250  1.00  0.00     0.231 C 
ATOM     12  O   UNL A   1      30.916  27.125  27.070  1.00  0.00    -0.274 OA
ATOM     13  N   UNL A   1      31.313  24.986  26.781  1.00  0.00    -0.326 N 
ATOM     14  H   UNL A   1      31.100  24.952  27.742  1.00  0.00     0.169 HD
BRANCH  13  15
ATOM     15  C   UNL A   1      31.844  23.769  26.336  1.00  0.00     0.042 A 
ATOM     16  C   UNL A   1      31.109  22.749  25.734  1.00  0.00     0.026 A 
ATOM     17  C   UNL A   1      33.236  23.633  26.395  1.00  0.00     0.046 A 
ATOM     18  C   UNL A   1      31.731  21.575  25.284  1.00  0.00     0.004 A 
ATOM     19  C   UNL A   1      33.857  22.460  25.955  1.00  0.00     0.043 A 
ATOM     20  C   UNL A   1      33.108  21.423  25.408  1.00  0.00     0.020 A 
ATOM     21  Cl  UNL A   1      35.556  22.275  26.145  1.00  0.00    -0.084 Cl
ENDBRANCH  13  15
ENDBRANCH  10  11
ENDBRANCH   5  10
ENDBRANCH   3   5
ENDBRANCH   2   3
ENDBRANCH   1   2
BRANCH   1  22
ATOM     22  C   UNL A   1      31.689  30.500  26.136  1.00  0.00     0.275 C 
BRANCH  22  23
ATOM     23  O   UNL A   1      32.819  30.342  26.994  1.00  0.00    -0.458 OA
BRANCH  23  24
ATOM     24  C   UNL A   1      33.414  31.510  27.322  1.00  0.00     0.338 C 
ATOM     25  O   UNL A   1      32.903  32.609  27.432  1.00  0.00    -0.246 OA
BRANCH  24  26
ATOM     26  C   UNL A   1      34.774  31.195  27.767  1.00  0.00     0.060 A 
ATOM     27  C   UNL A   1      35.088  29.845  27.955  1.00  0.00     0.016 A 
ATOM     28  C   UNL A   1      35.708  32.204  28.010  1.00  0.00     0.016 A 
ATOM     29  C   UNL A   1      36.330  29.495  28.459  1.00  0.00     0.010 A 
ATOM     30  C   UNL A   1      36.951  31.855  28.519  1.00  0.00     0.010 A 
ATOM     31  C   UNL A   1      37.239  30.506  28.787  1.00  0.00    -0.014 A 
BRANCH  31  32
ATOM     32  C   UNL A   1      38.409  30.184  29.616  1.00  0.00     0.031 A 
ATOM     33  C   UNL A   1      39.465  29.305  29.017  1.00  0.00     0.074 A 
ATOM     34  C   UNL A   1      38.497  30.656  30.868  1.00  0.00     0.049 A 
ATOM     35  N   UNL A   1      40.505  28.756  29.582  1.00  0.00    -0.248 NA
ATOM     36  C   UNL A   1      39.317  28.989  27.584  1.00  0.00     0.031 C 
ATOM     37  C   UNL A   1      37.538  31.560  31.502  1.00  0.00     0.029 A 
ATOM     38  N   UNL A   1      39.436  30.418  31.834  1.00  0.00    -0.354 N 
ATOM     39  C   UNL A   1      41.116  28.007  28.585  1.00  0.00     0.074 A 
ATOM     40  C   UNL A   1      40.327  28.157  27.384  1.00  0.00     0.031 C 
ATOM     41  C   UNL A   1      37.928  31.784  32.768  1.00  0.00     0.029 A 
ATOM     42  C   UNL A   1      39.133  31.005  33.036  1.00  0.00     0.049 A 
ATOM     43  H   UNL A   1      40.245  29.880  31.682  1.00  0.00     0.167 HD
ATOM     44  C   UNL A   1      42.237  27.254  28.675  1.00  0.00     0.031 A 
ATOM     45  C   UNL A   1      39.750  30.886  34.225  1.00  0.00     0.031 A 
ATOM     46  C   UNL A   1      42.994  27.117  29.887  1.00  0.00     0.049 A 
ATOM     47  C   UNL A   1      40.966  30.005  34.313  1.00  0.00     0.074 A 
ATOM     48  C   UNL A   1      44.149  26.391  30.109  1.00  0.00     0.029 A 
ATOM     49  N   UNL A   1      42.660  27.727  31.088  1.00  0.00    -0.354 N 
ATOM     50  N   UNL A   1      41.541  29.295  33.370  1.00  0.00    -0.248 NA
ATOM     51  C   UNL A   1      41.618  29.911  35.624  1.00  0.00     0.031 C 
ATOM     52  C   UNL A   1      44.490  26.529  31.459  1.00  0.00     0.029 A 
ATOM     53  C   UNL A   1      43.577  27.382  32.063  1.00  0.00     0.049 A 
ATOM     54  H   UNL A   1      41.885  28.318  31.225  1.00  0.00     0.167 HD
ATOM     55  C   UNL A   1      42.635  28.685  33.968  1.00  0.00     0.074 A 
ATOM     56  C   UNL A   1      42.648  29.122  35.351  1.00  0.00     0.031 C 
ATOM     57  C   UNL A   1      43.548  27.840  33.428  1.00  0.00     0.031 A 
BRANCH  44  58
ATOM     58  C   UNL A   1      42.660  26.500  27.447  1.00  0.00    -0.014 A 
ATOM     59  C   UNL A   1      42.240  25.181  27.214  1.00  0.00     0.009 A 
ATOM     60  C   UNL A   1      43.503  27.116  26.510  1.00  0.00     0.009 A 
ATOM     61  C   UNL A   1      42.684  24.484  26.088  1.00  0.00     0.001 A 
ATOM     62  C   UNL A   1      43.925  26.427  25.372  1.00  0.00     0.001 A 
ATOM     63  C   UNL A   1      43.523  25.108  25.166  1.00  0.00     0.000 A 
ENDBRANCH  44  58
BRANCH  45  64
ATOM     64  C   UNL A   1      39.210  31.592  35.413  1.00  0.00    -0.014 A 
ATOM     65  C   UNL A   1      39.597  32.909  35.699  1.00  0.00     0.009 A 
ATOM     66  C   UNL A   1      38.279  30.961  36.255  1.00  0.00     0.009 A 
ATOM     67  C   UNL A   1      39.075  33.574  36.812  1.00  0.00     0.001 A 
ATOM     68  C   UNL A   1      37.739  31.637  37.351  1.00  0.00     0.001 A 
ATOM     69  C   UNL A   1      38.143  32.941  37.632  1.00  0.00     0.000 A 
ENDBRANCH  45  64
BRANCH  57  70
ATOM     70  C   UNL A   1      44.648  27.370  34.333  1.00  0.00    -0.014 A 
ATOM     71  C   UNL A   1      44.525  26.181  35.066  1.00  0.00     0.009 A 
ATOM     72  C   UNL A   1      45.839  28.108  34.414  1.00  0.00     0.009 A 
ATOM     73  C   UNL A   1      45.568  25.755  35.890  1.00  0.00     0.001 A 
ATOM     74  C   UNL A   1      46.889  27.665  35.217  1.00  0.00     0.001 A 
ATOM     75  C   UNL A   1      46.749  26.494  35.961  1.00  0.00     0.000 A 
ENDBRANCH  57  70
ENDBRANCH  31  32
ENDBRANCH  24  26
ENDBRANCH  23  24
ENDBRANCH  22  23
ENDBRANCH   1  22
TORSDOF 15
ENDMDL
