MODEL 1
REMARK VINA RESULT:     -10.5      0.000      0.000
REMARK SMILES C[C@]1(c2nnnn2CCC(=O)OCCOC(=O)c2ccc(-c3c4nc(c(-c5ccccc5)c5ccc([nH]5)c(-c5ccccc5)c5nc(c(-c6ccccc6)c6ccc3[nH]6)C=C5)C=C4)cc2)CCCO1
REMARK SMILES IDX 13 1 12 2 10 3 11 4 9 5 8 6 7 7 3 8 4 9 5 10 6 11 2 12 1 13
REMARK SMILES IDX 66 14 69 15 67 16 68 17 14 18 15 19 16 20 17 21 18 22 19 23
REMARK SMILES IDX 65 24 20 25 64 26 21 27 22 28 23 29 58 30 24 31 63 32 57 33
REMARK SMILES IDX 59 34 25 35 62 36 56 37 55 38 26 40 48 41 33 42 47 43 34 44
REMARK SMILES IDX 37 45 46 46 60 47 35 48 36 49 45 51 61 52 38 53 27 54 28 55
REMARK SMILES IDX 32 56 29 57 31 58 30 59 49 60 50 61 54 62 51 63 53 64 52 65
REMARK SMILES IDX 39 66 40 67 44 68 41 69 43 70 42 71
REMARK H PARENT 59 39 37 50
REMARK Flexibility Score: inf
ROOT
ATOM      1  C   UNL A   1      38.398  33.520  34.759  1.00  0.00     0.274 C 
ENDROOT
BRANCH   1   2
ATOM      2  O   UNL A   1      37.494  34.586  34.406  1.00  0.00    -0.462 OA
BRANCH   2   3
ATOM      3  C   UNL A   1      36.187  34.284  34.226  1.00  0.00     0.307 C 
ATOM      4  O   UNL A   1      35.526  33.549  34.948  1.00  0.00    -0.252 OA
BRANCH   3   5
ATOM      5  C   UNL A   1      35.632  34.930  32.980  1.00  0.00     0.146 C 
BRANCH   5   6
ATOM      6  C   UNL A   1      34.250  34.435  32.575  1.00  0.00     0.160 C 
BRANCH   6   7
ATOM      7  N   UNL A   1      33.615  35.222  31.543  1.00  0.00    -0.226 N 
ATOM      8  C   UNL A   1      33.612  35.116  30.173  1.00  0.00     0.183 A 
ATOM      9  N   UNL A   1      32.979  36.175  29.695  1.00  0.00    -0.111 NA
ATOM     10  N   UNL A   1      32.529  36.885  30.766  1.00  0.00    -0.024 NA
ATOM     11  N   UNL A   1      32.884  36.298  31.892  1.00  0.00    -0.045 NA
BRANCH   8  12
ATOM     12  C   UNL A   1      34.147  34.024  29.308  1.00  0.00     0.126 C 
ATOM     13  C   UNL A   1      33.328  33.968  28.011  1.00  0.00     0.051 C 
ATOM     14  C   UNL A   1      35.641  34.205  29.052  1.00  0.00     0.046 C 
ATOM     15  O   UNL A   1      34.027  32.739  29.944  1.00  0.00    -0.367 OA
ATOM     16  C   UNL A   1      36.105  32.794  28.796  1.00  0.00     0.032 C 
ATOM     17  C   UNL A   1      35.238  31.997  29.744  1.00  0.00     0.161 C 
ENDBRANCH   8  12
ENDBRANCH   6   7
ENDBRANCH   5   6
ENDBRANCH   3   5
ENDBRANCH   2   3
ENDBRANCH   1   2
BRANCH   1  18
ATOM     18  C   UNL A   1      38.587  32.503  33.636  1.00  0.00     0.275 C 
BRANCH  18  19
ATOM     19  O   UNL A   1      39.679  32.877  32.788  1.00  0.00    -0.458 OA
BRANCH  19  20
ATOM     20  C   UNL A   1      39.318  33.125  31.513  1.00  0.00     0.338 C 
ATOM     21  O   UNL A   1      38.571  33.999  31.118  1.00  0.00    -0.246 OA
BRANCH  20  22
ATOM     22  C   UNL A   1      39.842  32.119  30.589  1.00  0.00     0.060 A 
ATOM     23  C   UNL A   1      39.019  31.014  30.325  1.00  0.00     0.016 A 
ATOM     24  C   UNL A   1      41.204  32.119  30.286  1.00  0.00     0.016 A 
ATOM     25  C   UNL A   1      39.603  29.829  29.934  1.00  0.00     0.010 A 
ATOM     26  C   UNL A   1      41.789  30.930  29.906  1.00  0.00     0.010 A 
ATOM     27  C   UNL A   1      40.993  29.783  29.822  1.00  0.00    -0.014 A 
BRANCH  27  28
ATOM     28  C   UNL A   1      41.617  28.478  29.728  1.00  0.00     0.031 A 
ATOM     29  C   UNL A   1      42.313  27.980  30.932  1.00  0.00     0.074 A 
ATOM     30  C   UNL A   1      41.428  27.704  28.643  1.00  0.00     0.049 A 
ATOM     31  N   UNL A   1      43.524  27.537  31.024  1.00  0.00    -0.248 NA
ATOM     32  C   UNL A   1      41.579  28.016  32.204  1.00  0.00     0.031 C 
ATOM     33  C   UNL A   1      40.506  27.936  27.528  1.00  0.00     0.029 A 
ATOM     34  N   UNL A   1      41.912  26.456  28.397  1.00  0.00    -0.354 N 
ATOM     35  C   UNL A   1      43.679  27.124  32.342  1.00  0.00     0.074 A 
ATOM     36  C   UNL A   1      42.486  27.527  33.046  1.00  0.00     0.031 C 
ATOM     37  C   UNL A   1      40.306  26.769  26.880  1.00  0.00     0.029 A 
ATOM     38  C   UNL A   1      41.167  25.753  27.465  1.00  0.00     0.049 A 
ATOM     39  H   UNL A   1      42.713  26.090  28.839  1.00  0.00     0.167 HD
ATOM     40  C   UNL A   1      44.707  26.335  32.749  1.00  0.00     0.031 A 
ATOM     41  C   UNL A   1      41.179  24.413  27.277  1.00  0.00     0.031 A 
ATOM     42  C   UNL A   1      45.774  26.270  31.793  1.00  0.00     0.049 A 
ATOM     43  C   UNL A   1      42.416  23.873  27.889  1.00  0.00     0.074 A 
ATOM     44  C   UNL A   1      46.642  27.191  31.243  1.00  0.00     0.029 A 
ATOM     45  N   UNL A   1      45.862  25.150  31.002  1.00  0.00    -0.354 N 
ATOM     46  N   UNL A   1      43.612  24.085  27.421  1.00  0.00    -0.248 NA
ATOM     47  C   UNL A   1      42.367  23.405  29.267  1.00  0.00     0.031 C 
ATOM     48  C   UNL A   1      46.851  26.752  29.903  1.00  0.00     0.029 A 
ATOM     49  C   UNL A   1      46.108  25.584  29.724  1.00  0.00     0.049 A 
ATOM     50  H   UNL A   1      45.766  24.216  31.296  1.00  0.00     0.167 HD
ATOM     51  C   UNL A   1      44.422  24.195  28.542  1.00  0.00     0.074 A 
ATOM     52  C   UNL A   1      43.630  23.639  29.635  1.00  0.00     0.031 C 
ATOM     53  C   UNL A   1      45.536  24.987  28.537  1.00  0.00     0.031 A 
BRANCH  40  54
ATOM     54  C   UNL A   1      44.612  25.389  33.909  1.00  0.00    -0.014 A 
ATOM     55  C   UNL A   1      45.547  25.482  34.953  1.00  0.00     0.009 A 
ATOM     56  C   UNL A   1      43.781  24.253  33.893  1.00  0.00     0.009 A 
ATOM     57  C   UNL A   1      45.657  24.474  35.919  1.00  0.00     0.001 A 
ATOM     58  C   UNL A   1      43.858  23.267  34.879  1.00  0.00     0.001 A 
ATOM     59  C   UNL A   1      44.811  23.370  35.882  1.00  0.00     0.000 A 
ENDBRANCH  40  54
BRANCH  41  60
ATOM     60  C   UNL A   1      40.054  23.554  26.847  1.00  0.00    -0.014 A 
ATOM     61  C   UNL A   1      38.799  24.108  26.559  1.00  0.00     0.009 A 
ATOM     62  C   UNL A   1      40.268  22.206  26.501  1.00  0.00     0.009 A 
ATOM     63  C   UNL A   1      37.807  23.348  25.925  1.00  0.00     0.001 A 
ATOM     64  C   UNL A   1      39.274  21.442  25.883  1.00  0.00     0.001 A 
ATOM     65  C   UNL A   1      38.047  22.018  25.583  1.00  0.00     0.000 A 
ENDBRANCH  41  60
BRANCH  53  66
ATOM     66  C   UNL A   1      45.997  25.551  27.214  1.00  0.00    -0.014 A 
ATOM     67  C   UNL A   1      47.008  24.944  26.448  1.00  0.00     0.009 A 
ATOM     68  C   UNL A   1      45.290  26.622  26.648  1.00  0.00     0.009 A 
ATOM     69  C   UNL A   1      47.328  25.417  25.173  1.00  0.00     0.001 A 
ATOM     70  C   UNL A   1      45.595  27.081  25.362  1.00  0.00     0.001 A 
ATOM     71  C   UNL A   1      46.618  26.484  24.629  1.00  0.00     0.000 A 
ENDBRANCH  53  66
ENDBRANCH  27  28
ENDBRANCH  20  22
ENDBRANCH  19  20
ENDBRANCH  18  19
ENDBRANCH   1  18
TORSDOF 14
ENDMDL
MODEL 2
REMARK VINA RESULT:     -10.2      2.536      6.596
REMARK SMILES C[C@]1(c2nnnn2CCC(=O)OCCOC(=O)c2ccc(-c3c4nc(c(-c5ccccc5)c5ccc([nH]5)c(-c5ccccc5)c5nc(c(-c6ccccc6)c6ccc3[nH]6)C=C5)C=C4)cc2)CCCO1
REMARK SMILES IDX 13 1 12 2 10 3 11 4 9 5 8 6 7 7 3 8 4 9 5 10 6 11 2 12 1 13
REMARK SMILES IDX 66 14 69 15 67 16 68 17 14 18 15 19 16 20 17 21 18 22 19 23
REMARK SMILES IDX 65 24 20 25 64 26 21 27 22 28 23 29 58 30 24 31 63 32 57 33
REMARK SMILES IDX 59 34 25 35 62 36 56 37 55 38 26 40 48 41 33 42 47 43 34 44
REMARK SMILES IDX 37 45 46 46 60 47 35 48 36 49 45 51 61 52 38 53 27 54 28 55
REMARK SMILES IDX 32 56 29 57 31 58 30 59 49 60 50 61 54 62 51 63 53 64 52 65
REMARK SMILES IDX 39 66 40 67 44 68 41 69 43 70 42 71
REMARK H PARENT 59 39 37 50
REMARK Flexibility Score: inf
ROOT
ATOM      1  C   UNL A   1      34.718  33.198  28.343  1.00  0.00     0.274 C 
ENDROOT
BRANCH   1   2
ATOM      2  O   UNL A   1      33.710  34.126  28.790  1.00  0.00    -0.462 OA
BRANCH   2   3
ATOM      3  C   UNL A   1      33.905  35.445  28.555  1.00  0.00     0.307 C 
ATOM      4  O   UNL A   1      34.604  35.908  27.664  1.00  0.00    -0.252 OA
BRANCH   3   5
ATOM      5  C   UNL A   1      33.185  36.304  29.568  1.00  0.00     0.146 C 
BRANCH   5   6
ATOM      6  C   UNL A   1      32.884  35.604  30.887  1.00  0.00     0.160 C 
BRANCH   6   7
ATOM      7  N   UNL A   1      33.412  36.277  32.051  1.00  0.00    -0.226 N 
ATOM      8  C   UNL A   1      34.315  35.888  33.011  1.00  0.00     0.183 A 
ATOM      9  N   UNL A   1      34.346  36.837  33.933  1.00  0.00    -0.111 NA
ATOM     10  N   UNL A   1      33.527  37.835  33.502  1.00  0.00    -0.024 NA
ATOM     11  N   UNL A   1      32.979  37.518  32.346  1.00  0.00    -0.045 NA
BRANCH   8  12
ATOM     12  C   UNL A   1      35.180  34.673  33.058  1.00  0.00     0.126 C 
ATOM     13  C   UNL A   1      34.339  33.479  33.531  1.00  0.00     0.051 C 
ATOM     14  C   UNL A   1      35.853  34.422  31.711  1.00  0.00     0.046 C 
ATOM     15  O   UNL A   1      36.260  34.831  33.995  1.00  0.00    -0.367 OA
ATOM     16  C   UNL A   1      37.100  33.671  32.100  1.00  0.00     0.032 C 
ATOM     17  C   UNL A   1      37.470  34.326  33.411  1.00  0.00     0.161 C 
ENDBRANCH   8  12
ENDBRANCH   6   7
ENDBRANCH   5   6
ENDBRANCH   3   5
ENDBRANCH   2   3
ENDBRANCH   1   2
BRANCH   1  18
ATOM     18  C   UNL A   1      34.849  31.978  29.252  1.00  0.00     0.275 C 
BRANCH  18  19
ATOM     19  O   UNL A   1      35.963  31.167  28.859  1.00  0.00    -0.458 OA
BRANCH  19  20
ATOM     20  C   UNL A   1      36.415  30.352  29.834  1.00  0.00     0.338 C 
ATOM     21  O   UNL A   1      36.189  30.438  31.026  1.00  0.00    -0.246 OA
BRANCH  20  22
ATOM     22  C   UNL A   1      37.356  29.356  29.323  1.00  0.00     0.060 A 
ATOM     23  C   UNL A   1      37.873  28.441  30.253  1.00  0.00     0.016 A 
ATOM     24  C   UNL A   1      37.938  29.550  28.070  1.00  0.00     0.016 A 
ATOM     25  C   UNL A   1      39.097  27.859  30.001  1.00  0.00     0.010 A 
ATOM     26  C   UNL A   1      39.167  28.977  27.825  1.00  0.00     0.010 A 
ATOM     27  C   UNL A   1      39.768  28.211  28.830  1.00  0.00    -0.014 A 
BRANCH  27  28
ATOM     28  C   UNL A   1      41.169  27.856  28.725  1.00  0.00     0.031 A 
ATOM     29  C   UNL A   1      41.488  26.588  28.038  1.00  0.00     0.074 A 
ATOM     30  C   UNL A   1      42.127  28.724  29.101  1.00  0.00     0.049 A 
ATOM     31  N   UNL A   1      42.218  25.612  28.468  1.00  0.00    -0.248 NA
ATOM     32  C   UNL A   1      40.885  26.362  26.717  1.00  0.00     0.031 C 
ATOM     33  C   UNL A   1      41.960  30.126  29.492  1.00  0.00     0.029 A 
ATOM     34  N   UNL A   1      43.478  28.568  29.050  1.00  0.00    -0.354 N 
ATOM     35  C   UNL A   1      42.271  24.689  27.430  1.00  0.00     0.074 A 
ATOM     36  C   UNL A   1      41.359  25.155  26.414  1.00  0.00     0.031 C 
ATOM     37  C   UNL A   1      43.152  30.751  29.385  1.00  0.00     0.029 A 
ATOM     38  C   UNL A   1      44.167  29.770  29.033  1.00  0.00     0.049 A 
ATOM     39  H   UNL A   1      43.921  27.689  29.029  1.00  0.00     0.167 HD
ATOM     40  C   UNL A   1      43.177  23.677  27.391  1.00  0.00     0.031 A 
ATOM     41  C   UNL A   1      45.450  29.951  28.641  1.00  0.00     0.031 A 
ATOM     42  C   UNL A   1      43.813  23.448  28.656  1.00  0.00     0.049 A 
ATOM     43  C   UNL A   1      46.130  28.634  28.669  1.00  0.00     0.074 A 
ATOM     44  C   UNL A   1      43.376  23.067  29.908  1.00  0.00     0.029 A 
ATOM     45  N   UNL A   1      45.086  23.936  28.833  1.00  0.00    -0.354 N 
ATOM     46  N   UNL A   1      46.414  27.985  29.761  1.00  0.00    -0.248 NA
ATOM     47  C   UNL A   1      46.157  27.836  27.451  1.00  0.00     0.031 C 
ATOM     48  C   UNL A   1      44.214  23.766  30.824  1.00  0.00     0.029 A 
ATOM     49  C   UNL A   1      45.119  24.520  30.074  1.00  0.00     0.049 A 
ATOM     50  H   UNL A   1      45.830  23.878  28.192  1.00  0.00     0.167 HD
ATOM     51  C   UNL A   1      46.233  26.648  29.439  1.00  0.00     0.074 A 
ATOM     52  C   UNL A   1      46.205  26.610  27.981  1.00  0.00     0.031 C 
ATOM     53  C   UNL A   1      45.832  25.740  30.381  1.00  0.00     0.031 A 
BRANCH  40  54
ATOM     54  C   UNL A   1      43.689  23.077  26.116  1.00  0.00    -0.014 A 
ATOM     55  C   UNL A   1      43.637  21.685  25.940  1.00  0.00     0.009 A 
ATOM     56  C   UNL A   1      44.443  23.814  25.182  1.00  0.00     0.009 A 
ATOM     57  C   UNL A   1      44.326  21.061  24.892  1.00  0.00     0.001 A 
ATOM     58  C   UNL A   1      45.095  23.200  24.112  1.00  0.00     0.001 A 
ATOM     59  C   UNL A   1      45.052  21.819  23.978  1.00  0.00     0.000 A 
ENDBRANCH  40  54
BRANCH  41  60
ATOM     60  C   UNL A   1      46.030  31.142  27.984  1.00  0.00    -0.014 A 
ATOM     61  C   UNL A   1      45.459  31.666  26.816  1.00  0.00     0.009 A 
ATOM     62  C   UNL A   1      47.021  31.909  28.626  1.00  0.00     0.009 A 
ATOM     63  C   UNL A   1      45.848  32.920  26.326  1.00  0.00     0.001 A 
ATOM     64  C   UNL A   1      47.421  33.153  28.131  1.00  0.00     0.001 A 
ATOM     65  C   UNL A   1      46.823  33.665  26.987  1.00  0.00     0.000 A 
ENDBRANCH  41  60
BRANCH  53  66
ATOM     66  C   UNL A   1      45.821  26.178  31.826  1.00  0.00    -0.014 A 
ATOM     67  C   UNL A   1      44.739  26.875  32.394  1.00  0.00     0.009 A 
ATOM     68  C   UNL A   1      46.847  25.741  32.678  1.00  0.00     0.009 A 
ATOM     69  C   UNL A   1      44.703  27.159  33.761  1.00  0.00     0.001 A 
ATOM     70  C   UNL A   1      46.799  26.004  34.050  1.00  0.00     0.001 A 
ATOM     71  C   UNL A   1      45.732  26.720  34.590  1.00  0.00     0.000 A 
ENDBRANCH  53  66
ENDBRANCH  27  28
ENDBRANCH  20  22
ENDBRANCH  19  20
ENDBRANCH  18  19
ENDBRANCH   1  18
TORSDOF 14
ENDMDL
MODEL 3
REMARK VINA RESULT:     -10.1      3.997      6.485
REMARK SMILES C[C@]1(c2nnnn2CCC(=O)OCCOC(=O)c2ccc(-c3c4nc(c(-c5ccccc5)c5ccc([nH]5)c(-c5ccccc5)c5nc(c(-c6ccccc6)c6ccc3[nH]6)C=C5)C=C4)cc2)CCCO1
REMARK SMILES IDX 13 1 12 2 10 3 11 4 9 5 8 6 7 7 3 8 4 9 5 10 6 11 2 12 1 13
REMARK SMILES IDX 66 14 69 15 67 16 68 17 14 18 15 19 16 20 17 21 18 22 19 23
REMARK SMILES IDX 65 24 20 25 64 26 21 27 22 28 23 29 58 30 24 31 63 32 57 33
REMARK SMILES IDX 59 34 25 35 62 36 56 37 55 38 26 40 48 41 33 42 47 43 34 44
REMARK SMILES IDX 37 45 46 46 60 47 35 48 36 49 45 51 61 52 38 53 27 54 28 55
REMARK SMILES IDX 32 56 29 57 31 58 30 59 49 60 50 61 54 62 51 63 53 64 52 65
REMARK SMILES IDX 39 66 40 67 44 68 41 69 43 70 42 71
REMARK H PARENT 59 39 37 50
REMARK Flexibility Score: inf
ROOT
ATOM      1  C   UNL A   1      32.845  30.623  26.900  1.00  0.00     0.274 C 
ENDROOT
BRANCH   1   2
ATOM      2  O   UNL A   1      33.509  29.573  26.169  1.00  0.00    -0.462 OA
BRANCH   2   3
ATOM      3  C   UNL A   1      32.984  29.189  24.981  1.00  0.00     0.307 C 
ATOM      4  O   UNL A   1      31.850  29.442  24.596  1.00  0.00    -0.252 OA
BRANCH   3   5
ATOM      5  C   UNL A   1      33.957  28.353  24.185  1.00  0.00     0.146 C 
BRANCH   5   6
ATOM      6  C   UNL A   1      33.739  26.850  24.303  1.00  0.00     0.160 C 
BRANCH   6   7
ATOM      7  N   UNL A   1      33.529  26.180  23.040  1.00  0.00    -0.226 N 
ATOM      8  C   UNL A   1      33.457  24.850  22.703  1.00  0.00     0.183 A 
ATOM      9  N   UNL A   1      33.382  24.780  21.383  1.00  0.00    -0.111 NA
ATOM     10  N   UNL A   1      33.330  26.059  20.921  1.00  0.00    -0.024 NA
ATOM     11  N   UNL A   1      33.388  26.915  21.921  1.00  0.00    -0.045 NA
BRANCH   8  12
ATOM     12  C   UNL A   1      33.410  23.651  23.590  1.00  0.00     0.126 C 
ATOM     13  C   UNL A   1      32.838  22.467  22.798  1.00  0.00     0.051 C 
ATOM     14  C   UNL A   1      34.782  23.352  24.186  1.00  0.00     0.046 C 
ATOM     15  O   UNL A   1      32.546  23.864  24.720  1.00  0.00    -0.367 OA
ATOM     16  C   UNL A   1      34.437  22.635  25.466  1.00  0.00     0.032 C 
ATOM     17  C   UNL A   1      33.179  23.352  25.902  1.00  0.00     0.161 C 
ENDBRANCH   8  12
ENDBRANCH   6   7
ENDBRANCH   5   6
ENDBRANCH   3   5
ENDBRANCH   2   3
ENDBRANCH   1   2
BRANCH   1  18
ATOM     18  C   UNL A   1      33.798  31.431  27.778  1.00  0.00     0.275 C 
BRANCH  18  19
ATOM     19  O   UNL A   1      35.151  30.998  27.595  1.00  0.00    -0.458 OA
BRANCH  19  20
ATOM     20  C   UNL A   1      36.065  31.816  28.155  1.00  0.00     0.338 C 
ATOM     21  O   UNL A   1      36.257  32.989  27.897  1.00  0.00    -0.246 OA
BRANCH  20  22
ATOM     22  C   UNL A   1      36.945  31.102  29.080  1.00  0.00     0.060 A 
ATOM     23  C   UNL A   1      38.176  31.708  29.375  1.00  0.00     0.016 A 
ATOM     24  C   UNL A   1      36.695  29.757  29.354  1.00  0.00     0.016 A 
ATOM     25  C   UNL A   1      39.230  30.913  29.769  1.00  0.00     0.010 A 
ATOM     26  C   UNL A   1      37.753  28.961  29.737  1.00  0.00     0.010 A 
ATOM     27  C   UNL A   1      39.024  29.536  29.852  1.00  0.00    -0.014 A 
BRANCH  27  28
ATOM     28  C   UNL A   1      40.193  28.685  29.950  1.00  0.00     0.031 A 
ATOM     29  C   UNL A   1      40.772  28.495  31.296  1.00  0.00     0.074 A 
ATOM     30  C   UNL A   1      40.623  27.985  28.883  1.00  0.00     0.049 A 
ATOM     31  N   UNL A   1      41.999  28.667  31.665  1.00  0.00    -0.248 NA
ATOM     32  C   UNL A   1      39.860  28.100  32.377  1.00  0.00     0.031 C 
ATOM     33  C   UNL A   1      39.957  27.830  27.587  1.00  0.00     0.029 A 
ATOM     34  N   UNL A   1      41.677  27.129  28.801  1.00  0.00    -0.354 N 
ATOM     35  C   UNL A   1      42.051  28.290  33.001  1.00  0.00     0.074 A 
ATOM     36  C   UNL A   1      40.692  28.040  33.415  1.00  0.00     0.031 C 
ATOM     37  C   UNL A   1      40.471  26.749  26.962  1.00  0.00     0.029 A 
ATOM     38  C   UNL A   1      41.565  26.221  27.761  1.00  0.00     0.049 A 
ATOM     39  H   UNL A   1      42.444  27.153  29.419  1.00  0.00     0.167 HD
ATOM     40  C   UNL A   1      43.219  28.050  33.653  1.00  0.00     0.031 A 
ATOM     41  C   UNL A   1      42.247  25.057  27.637  1.00  0.00     0.031 A 
ATOM     42  C   UNL A   1      44.364  28.556  32.952  1.00  0.00     0.049 A 
ATOM     43  C   UNL A   1      43.433  25.122  28.523  1.00  0.00     0.074 A 
ATOM     44  C   UNL A   1      44.788  29.810  32.562  1.00  0.00     0.029 A 
ATOM     45  N   UNL A   1      45.132  27.661  32.246  1.00  0.00    -0.354 N 
ATOM     46  N   UNL A   1      44.455  25.901  28.314  1.00  0.00    -0.248 NA
ATOM     47  C   UNL A   1      43.323  24.598  29.877  1.00  0.00     0.031 C 
ATOM     48  C   UNL A   1      45.454  29.608  31.319  1.00  0.00     0.029 A 
ATOM     49  C   UNL A   1      45.406  28.242  31.033  1.00  0.00     0.049 A 
ATOM     50  H   UNL A   1      45.429  26.774  32.552  1.00  0.00     0.167 HD
ATOM     51  C   UNL A   1      44.863  26.304  29.578  1.00  0.00     0.074 A 
ATOM     52  C   UNL A   1      44.218  25.373  30.497  1.00  0.00     0.031 C 
ATOM     53  C   UNL A   1      45.445  27.525  29.778  1.00  0.00     0.031 A 
BRANCH  40  54
ATOM     54  C   UNL A   1      43.341  27.097  34.804  1.00  0.00    -0.014 A 
ATOM     55  C   UNL A   1      43.246  25.716  34.570  1.00  0.00     0.009 A 
ATOM     56  C   UNL A   1      43.303  27.523  36.146  1.00  0.00     0.009 A 
ATOM     57  C   UNL A   1      43.098  24.810  35.627  1.00  0.00     0.001 A 
ATOM     58  C   UNL A   1      43.199  26.620  37.205  1.00  0.00     0.001 A 
ATOM     59  C   UNL A   1      43.078  25.262  36.943  1.00  0.00     0.000 A 
ENDBRANCH  40  54
BRANCH  41  60
ATOM     60  C   UNL A   1      41.778  23.802  27.013  1.00  0.00    -0.014 A 
ATOM     61  C   UNL A   1      42.636  23.034  26.214  1.00  0.00     0.009 A 
ATOM     62  C   UNL A   1      40.545  23.230  27.381  1.00  0.00     0.009 A 
ATOM     63  C   UNL A   1      42.283  21.736  25.821  1.00  0.00     0.001 A 
ATOM     64  C   UNL A   1      40.184  21.942  26.977  1.00  0.00     0.001 A 
ATOM     65  C   UNL A   1      41.061  21.189  26.208  1.00  0.00     0.000 A 
ENDBRANCH  41  60
BRANCH  53  66
ATOM     66  C   UNL A   1      45.851  28.324  28.563  1.00  0.00    -0.014 A 
ATOM     67  C   UNL A   1      47.126  28.211  27.978  1.00  0.00     0.009 A 
ATOM     68  C   UNL A   1      44.881  29.083  27.892  1.00  0.00     0.009 A 
ATOM     69  C   UNL A   1      47.432  28.869  26.784  1.00  0.00     0.001 A 
ATOM     70  C   UNL A   1      45.180  29.722  26.685  1.00  0.00     0.001 A 
ATOM     71  C   UNL A   1      46.457  29.621  26.136  1.00  0.00     0.000 A 
ENDBRANCH  53  66
ENDBRANCH  27  28
ENDBRANCH  20  22
ENDBRANCH  19  20
ENDBRANCH  18  19
ENDBRANCH   1  18
TORSDOF 14
ENDMDL
