MODEL 1
REMARK VINA RESULT:     -10.4      0.000      0.000
REMARK SMILES C[C@@H](C(=O)OCCOC(=O)c1ccc(-c2c3nc(c(-c4ccccc4)c4ccc([nH]4)c(-c4ccccc4)c4nc(c(-c5ccccc5)c5ccc2[nH]5)C=C4)C=C3)cc1)c1ccc(OC2CCCC2)cc1F
REMARK SMILES IDX 6 1 5 2 3 3 4 4 2 5 1 6 59 7 60 8 70 9 61 10 69 11 71 12
REMARK SMILES IDX 62 13 63 14 64 15 65 16 68 17 66 18 67 19 7 20 8 21 9 22
REMARK SMILES IDX 10 23 11 24 12 25 58 26 13 27 57 28 14 29 15 30 16 31 51 32
REMARK SMILES IDX 17 33 56 34 50 35 52 36 18 37 55 38 49 39 48 40 19 42 41 43
REMARK SMILES IDX 26 44 40 45 27 46 30 47 39 48 53 49 28 50 29 51 38 53 54 54
REMARK SMILES IDX 31 55 20 56 21 57 25 58 22 59 24 60 23 61 42 62 43 63 47 64
REMARK SMILES IDX 44 65 46 66 45 67 32 68 33 69 37 70 34 71 36 72 35 73
REMARK H PARENT 52 41 30 52
REMARK Flexibility Score: inf
ROOT
ATOM      1  C   UNL A   1      34.794  35.328  34.117  1.00  0.00     0.274 C 
ENDROOT
BRANCH   1   2
ATOM      2  O   UNL A   1      34.958  36.063  32.888  1.00  0.00    -0.462 OA
BRANCH   2   3
ATOM      3  C   UNL A   1      34.029  37.019  32.609  1.00  0.00     0.313 C 
ATOM      4  O   UNL A   1      34.017  38.131  33.124  1.00  0.00    -0.252 OA
BRANCH   3   5
ATOM      5  C   UNL A   1      32.938  36.513  31.657  1.00  0.00     0.129 C 
ATOM      6  C   UNL A   1      31.741  35.889  32.386  1.00  0.00     0.025 C 
BRANCH   5   7
ATOM      7  C   UNL A   1      33.507  35.630  30.551  1.00  0.00     0.002 A 
ATOM      8  C   UNL A   1      33.788  34.280  30.813  1.00  0.00     0.011 A 
ATOM      9  C   UNL A   1      33.746  36.090  29.252  1.00  0.00     0.130 A 
ATOM     10  C   UNL A   1      34.317  33.450  29.816  1.00  0.00     0.047 A 
ATOM     11  C   UNL A   1      34.276  35.264  28.256  1.00  0.00     0.086 A 
ATOM     12  F   UNL A   1      33.449  37.350  28.913  1.00  0.00    -0.207 F 
ATOM     13  C   UNL A   1      34.566  33.933  28.528  1.00  0.00     0.122 A 
BRANCH  13  14
ATOM     14  O   UNL A   1      35.095  33.014  27.672  1.00  0.00    -0.490 OA
BRANCH  14  15
ATOM     15  C   UNL A   1      35.260  31.638  28.011  1.00  0.00     0.173 C 
ATOM     16  C   UNL A   1      34.377  30.659  27.257  1.00  0.00     0.045 C 
ATOM     17  C   UNL A   1      36.687  31.105  27.933  1.00  0.00     0.045 C 
ATOM     18  C   UNL A   1      35.095  29.328  27.345  1.00  0.00     0.004 C 
ATOM     19  C   UNL A   1      36.564  29.620  27.611  1.00  0.00     0.004 C 
ENDBRANCH  14  15
ENDBRANCH  13  14
ENDBRANCH   5   7
ENDBRANCH   3   5
ENDBRANCH   2   3
ENDBRANCH   1   2
BRANCH   1  20
ATOM     20  C   UNL A   1      35.059  33.838  33.911  1.00  0.00     0.275 C 
BRANCH  20  21
ATOM     21  O   UNL A   1      36.389  33.628  33.404  1.00  0.00    -0.458 OA
BRANCH  21  22
ATOM     22  C   UNL A   1      37.066  32.593  33.950  1.00  0.00     0.338 C 
ATOM     23  O   UNL A   1      37.028  32.200  35.101  1.00  0.00    -0.246 OA
BRANCH  22  24
ATOM     24  C   UNL A   1      37.870  31.942  32.906  1.00  0.00     0.060 A 
ATOM     25  C   UNL A   1      39.000  31.230  33.287  1.00  0.00     0.016 A 
ATOM     26  C   UNL A   1      37.580  32.127  31.554  1.00  0.00     0.016 A 
ATOM     27  C   UNL A   1      39.884  30.769  32.317  1.00  0.00     0.010 A 
ATOM     28  C   UNL A   1      38.441  31.599  30.577  1.00  0.00     0.010 A 
ATOM     29  C   UNL A   1      39.635  30.955  30.945  1.00  0.00    -0.014 A 
BRANCH  29  30
ATOM     30  C   UNL A   1      40.669  30.520  29.951  1.00  0.00     0.031 A 
ATOM     31  C   UNL A   1      41.907  31.350  29.689  1.00  0.00     0.074 A 
ATOM     32  C   UNL A   1      40.595  29.287  29.403  1.00  0.00     0.049 A 
ATOM     33  N   UNL A   1      42.991  31.019  29.025  1.00  0.00    -0.248 NA
ATOM     34  C   UNL A   1      41.963  32.699  30.275  1.00  0.00     0.031 C 
ATOM     35  C   UNL A   1      39.493  28.342  29.591  1.00  0.00     0.029 A 
ATOM     36  N   UNL A   1      41.493  28.594  28.623  1.00  0.00    -0.354 N 
ATOM     37  C   UNL A   1      43.879  32.075  29.192  1.00  0.00     0.074 A 
ATOM     38  C   UNL A   1      43.175  33.106  29.923  1.00  0.00     0.031 C 
ATOM     39  C   UNL A   1      39.809  27.175  29.010  1.00  0.00     0.029 A 
ATOM     40  C   UNL A   1      41.099  27.307  28.340  1.00  0.00     0.049 A 
ATOM     41  H   UNL A   1      42.337  28.982  28.298  1.00  0.00     0.167 HD
ATOM     42  C   UNL A   1      45.188  32.156  28.849  1.00  0.00     0.031 A 
ATOM     43  C   UNL A   1      41.687  26.338  27.610  1.00  0.00     0.031 A 
ATOM     44  C   UNL A   1      45.908  31.175  28.086  1.00  0.00     0.049 A 
ATOM     45  C   UNL A   1      43.019  26.595  26.967  1.00  0.00     0.074 A 
ATOM     46  C   UNL A   1      47.228  31.209  27.666  1.00  0.00     0.029 A 
ATOM     47  N   UNL A   1      45.367  29.998  27.607  1.00  0.00    -0.354 N 
ATOM     48  N   UNL A   1      43.846  27.593  27.155  1.00  0.00    -0.248 NA
ATOM     49  C   UNL A   1      43.486  25.601  25.989  1.00  0.00     0.031 C 
ATOM     50  C   UNL A   1      47.466  30.078  26.876  1.00  0.00     0.029 A 
ATOM     51  C   UNL A   1      46.306  29.324  26.844  1.00  0.00     0.049 A 
ATOM     52  H   UNL A   1      44.450  29.684  27.781  1.00  0.00     0.167 HD
ATOM     53  C   UNL A   1      44.932  27.344  26.325  1.00  0.00     0.074 A 
ATOM     54  C   UNL A   1      44.671  26.089  25.651  1.00  0.00     0.031 C 
ATOM     55  C   UNL A   1      46.044  28.095  26.142  1.00  0.00     0.031 A 
BRANCH  42  56
ATOM     56  C   UNL A   1      45.952  33.349  29.344  1.00  0.00    -0.014 A 
ATOM     57  C   UNL A   1      46.618  33.287  30.579  1.00  0.00     0.009 A 
ATOM     58  C   UNL A   1      46.070  34.503  28.558  1.00  0.00     0.009 A 
ATOM     59  C   UNL A   1      47.381  34.369  31.024  1.00  0.00     0.001 A 
ATOM     60  C   UNL A   1      46.843  35.578  29.002  1.00  0.00     0.001 A 
ATOM     61  C   UNL A   1      47.495  35.512  30.234  1.00  0.00     0.000 A 
ENDBRANCH  42  56
BRANCH  43  62
ATOM     62  C   UNL A   1      40.981  25.048  27.378  1.00  0.00    -0.014 A 
ATOM     63  C   UNL A   1      39.840  24.979  26.565  1.00  0.00     0.009 A 
ATOM     64  C   UNL A   1      41.439  23.877  28.005  1.00  0.00     0.009 A 
ATOM     65  C   UNL A   1      39.169  23.764  26.395  1.00  0.00     0.001 A 
ATOM     66  C   UNL A   1      40.786  22.660  27.807  1.00  0.00     0.001 A 
ATOM     67  C   UNL A   1      39.646  22.607  27.009  1.00  0.00     0.000 A 
ENDBRANCH  43  62
BRANCH  55  68
ATOM     68  C   UNL A   1      47.062  27.596  25.159  1.00  0.00    -0.014 A 
ATOM     69  C   UNL A   1      46.978  27.951  23.803  1.00  0.00     0.009 A 
ATOM     70  C   UNL A   1      48.128  26.792  25.586  1.00  0.00     0.009 A 
ATOM     71  C   UNL A   1      47.928  27.489  22.891  1.00  0.00     0.001 A 
ATOM     72  C   UNL A   1      49.093  26.352  24.676  1.00  0.00     0.001 A 
ATOM     73  C   UNL A   1      48.987  26.695  23.328  1.00  0.00     0.000 A 
ENDBRANCH  55  68
ENDBRANCH  29  30
ENDBRANCH  22  24
ENDBRANCH  21  22
ENDBRANCH  20  21
ENDBRANCH   1  20
TORSDOF 14
ENDMDL
MODEL 2
REMARK VINA RESULT:     -10.2      5.608     11.443
REMARK SMILES C[C@@H](C(=O)OCCOC(=O)c1ccc(-c2c3nc(c(-c4ccccc4)c4ccc([nH]4)c(-c4ccccc4)c4nc(c(-c5ccccc5)c5ccc2[nH]5)C=C4)C=C3)cc1)c1ccc(OC2CCCC2)cc1F
REMARK SMILES IDX 6 1 5 2 3 3 4 4 2 5 1 6 59 7 60 8 70 9 61 10 69 11 71 12
REMARK SMILES IDX 62 13 63 14 64 15 65 16 68 17 66 18 67 19 7 20 8 21 9 22
REMARK SMILES IDX 10 23 11 24 12 25 58 26 13 27 57 28 14 29 15 30 16 31 51 32
REMARK SMILES IDX 17 33 56 34 50 35 52 36 18 37 55 38 49 39 48 40 19 42 41 43
REMARK SMILES IDX 26 44 40 45 27 46 30 47 39 48 53 49 28 50 29 51 38 53 54 54
REMARK SMILES IDX 31 55 20 56 21 57 25 58 22 59 24 60 23 61 42 62 43 63 47 64
REMARK SMILES IDX 44 65 46 66 45 67 32 68 33 69 37 70 34 71 36 72 35 73
REMARK H PARENT 52 41 30 52
REMARK Flexibility Score: inf
ROOT
ATOM      1  C   UNL A   1      42.669  18.570  26.511  1.00  0.00     0.274 C 
ENDROOT
BRANCH   1   2
ATOM      2  O   UNL A   1      42.070  19.846  26.213  1.00  0.00    -0.462 OA
BRANCH   2   3
ATOM      3  C   UNL A   1      41.382  20.458  27.216  1.00  0.00     0.313 C 
ATOM      4  O   UNL A   1      40.790  19.855  28.105  1.00  0.00    -0.252 OA
BRANCH   3   5
ATOM      5  C   UNL A   1      41.341  21.982  27.051  1.00  0.00     0.129 C 
ATOM      6  C   UNL A   1      41.939  22.736  28.246  1.00  0.00     0.025 C 
BRANCH   5   7
ATOM      7  C   UNL A   1      39.956  22.477  26.647  1.00  0.00     0.002 A 
ATOM      8  C   UNL A   1      39.556  23.779  26.986  1.00  0.00     0.011 A 
ATOM      9  C   UNL A   1      39.049  21.702  25.918  1.00  0.00     0.130 A 
ATOM     10  C   UNL A   1      38.287  24.256  26.632  1.00  0.00     0.047 A 
ATOM     11  C   UNL A   1      37.782  22.174  25.566  1.00  0.00     0.086 A 
ATOM     12  F   UNL A   1      39.382  20.471  25.511  1.00  0.00    -0.207 F 
ATOM     13  C   UNL A   1      37.387  23.459  25.919  1.00  0.00     0.122 A 
BRANCH  13  14
ATOM     14  O   UNL A   1      36.187  24.053  25.661  1.00  0.00    -0.490 OA
BRANCH  14  15
ATOM     15  C   UNL A   1      34.935  23.407  25.884  1.00  0.00     0.173 C 
ATOM     16  C   UNL A   1      34.782  22.704  27.223  1.00  0.00     0.045 C 
ATOM     17  C   UNL A   1      33.698  24.280  25.694  1.00  0.00     0.045 C 
ATOM     18  C   UNL A   1      33.288  22.617  27.456  1.00  0.00     0.004 C 
ATOM     19  C   UNL A   1      32.632  23.706  26.620  1.00  0.00     0.004 C 
ENDBRANCH  14  15
ENDBRANCH  13  14
ENDBRANCH   5   7
ENDBRANCH   3   5
ENDBRANCH   2   3
ENDBRANCH   1   2
BRANCH   1  20
ATOM     20  C   UNL A   1      43.746  18.212  25.489  1.00  0.00     0.275 C 
BRANCH  20  21
ATOM     21  O   UNL A   1      43.854  19.240  24.488  1.00  0.00    -0.458 OA
BRANCH  21  22
ATOM     22  C   UNL A   1      45.063  19.835  24.387  1.00  0.00     0.338 C 
ATOM     23  O   UNL A   1      46.099  19.353  23.966  1.00  0.00    -0.246 OA
BRANCH  22  24
ATOM     24  C   UNL A   1      44.952  21.228  24.840  1.00  0.00     0.060 A 
ATOM     25  C   UNL A   1      44.695  22.213  23.896  1.00  0.00     0.016 A 
ATOM     26  C   UNL A   1      45.210  21.576  26.166  1.00  0.00     0.016 A 
ATOM     27  C   UNL A   1      44.775  23.554  24.259  1.00  0.00     0.010 A 
ATOM     28  C   UNL A   1      45.222  22.930  26.542  1.00  0.00     0.010 A 
ATOM     29  C   UNL A   1      45.054  23.943  25.582  1.00  0.00    -0.014 A 
BRANCH  29  30
ATOM     30  C   UNL A   1      45.220  25.400  25.893  1.00  0.00     0.031 A 
ATOM     31  C   UNL A   1      44.054  26.242  26.361  1.00  0.00     0.074 A 
ATOM     32  C   UNL A   1      46.458  25.940  25.929  1.00  0.00     0.049 A 
ATOM     33  N   UNL A   1      44.069  27.454  26.869  1.00  0.00    -0.248 NA
ATOM     34  C   UNL A   1      42.709  25.647  26.296  1.00  0.00     0.031 C 
ATOM     35  C   UNL A   1      47.693  25.251  25.555  1.00  0.00     0.029 A 
ATOM     36  N   UNL A   1      46.887  27.177  26.354  1.00  0.00    -0.354 N 
ATOM     37  C   UNL A   1      42.762  27.721  27.261  1.00  0.00     0.074 A 
ATOM     38  C   UNL A   1      41.956  26.598  26.833  1.00  0.00     0.031 C 
ATOM     39  C   UNL A   1      48.741  26.041  25.833  1.00  0.00     0.029 A 
ATOM     40  C   UNL A   1      48.255  27.323  26.332  1.00  0.00     0.049 A 
ATOM     41  H   UNL A   1      46.275  27.890  26.647  1.00  0.00     0.167 HD
ATOM     42  C   UNL A   1      42.280  28.760  27.985  1.00  0.00     0.031 A 
ATOM     43  C   UNL A   1      49.041  28.369  26.654  1.00  0.00     0.031 A 
ATOM     44  C   UNL A   1      43.037  29.913  28.388  1.00  0.00     0.049 A 
ATOM     45  C   UNL A   1      48.421  29.641  27.157  1.00  0.00     0.074 A 
ATOM     46  C   UNL A   1      42.604  31.026  29.090  1.00  0.00     0.029 A 
ATOM     47  N   UNL A   1      44.374  30.115  28.105  1.00  0.00    -0.354 N 
ATOM     48  N   UNL A   1      47.188  29.862  27.536  1.00  0.00    -0.248 NA
ATOM     49  C   UNL A   1      49.301  30.815  27.252  1.00  0.00     0.031 C 
ATOM     50  C   UNL A   1      43.668  31.932  29.176  1.00  0.00     0.029 A 
ATOM     51  C   UNL A   1      44.770  31.361  28.564  1.00  0.00     0.049 A 
ATOM     52  H   UNL A   1      44.959  29.470  27.645  1.00  0.00     0.167 HD
ATOM     53  C   UNL A   1      47.144  31.196  27.920  1.00  0.00     0.074 A 
ATOM     54  C   UNL A   1      48.480  31.729  27.752  1.00  0.00     0.031 C 
ATOM     55  C   UNL A   1      46.086  31.911  28.370  1.00  0.00     0.031 A 
BRANCH  42  56
ATOM     56  C   UNL A   1      40.851  28.676  28.435  1.00  0.00    -0.014 A 
ATOM     57  C   UNL A   1      40.546  28.125  29.691  1.00  0.00     0.009 A 
ATOM     58  C   UNL A   1      39.818  29.205  27.649  1.00  0.00     0.009 A 
ATOM     59  C   UNL A   1      39.227  28.094  30.146  1.00  0.00     0.001 A 
ATOM     60  C   UNL A   1      38.501  29.182  28.113  1.00  0.00     0.001 A 
ATOM     61  C   UNL A   1      38.206  28.625  29.358  1.00  0.00     0.000 A 
ENDBRANCH  42  56
BRANCH  43  62
ATOM     62  C   UNL A   1      50.512  28.290  26.436  1.00  0.00    -0.014 A 
ATOM     63  C   UNL A   1      51.078  28.580  25.186  1.00  0.00     0.009 A 
ATOM     64  C   UNL A   1      51.355  27.889  27.486  1.00  0.00     0.009 A 
ATOM     65  C   UNL A   1      52.458  28.459  24.992  1.00  0.00     0.001 A 
ATOM     66  C   UNL A   1      52.735  27.801  27.299  1.00  0.00     0.001 A 
ATOM     67  C   UNL A   1      53.284  28.078  26.049  1.00  0.00     0.000 A 
ENDBRANCH  43  62
BRANCH  55  68
ATOM     68  C   UNL A   1      46.316  33.357  28.696  1.00  0.00    -0.014 A 
ATOM     69  C   UNL A   1      46.768  33.739  29.969  1.00  0.00     0.009 A 
ATOM     70  C   UNL A   1      46.109  34.346  27.724  1.00  0.00     0.009 A 
ATOM     71  C   UNL A   1      46.985  35.085  30.269  1.00  0.00     0.001 A 
ATOM     72  C   UNL A   1      46.351  35.691  28.018  1.00  0.00     0.001 A 
ATOM     73  C   UNL A   1      46.781  36.059  29.292  1.00  0.00     0.000 A 
ENDBRANCH  55  68
ENDBRANCH  29  30
ENDBRANCH  22  24
ENDBRANCH  21  22
ENDBRANCH  20  21
ENDBRANCH   1  20
TORSDOF 14
ENDMDL
MODEL 3
REMARK VINA RESULT:     -10.1      3.434      5.811
REMARK SMILES C[C@@H](C(=O)OCCOC(=O)c1ccc(-c2c3nc(c(-c4ccccc4)c4ccc([nH]4)c(-c4ccccc4)c4nc(c(-c5ccccc5)c5ccc2[nH]5)C=C4)C=C3)cc1)c1ccc(OC2CCCC2)cc1F
REMARK SMILES IDX 6 1 5 2 3 3 4 4 2 5 1 6 59 7 60 8 70 9 61 10 69 11 71 12
REMARK SMILES IDX 62 13 63 14 64 15 65 16 68 17 66 18 67 19 7 20 8 21 9 22
REMARK SMILES IDX 10 23 11 24 12 25 58 26 13 27 57 28 14 29 15 30 16 31 51 32
REMARK SMILES IDX 17 33 56 34 50 35 52 36 18 37 55 38 49 39 48 40 19 42 41 43
REMARK SMILES IDX 26 44 40 45 27 46 30 47 39 48 53 49 28 50 29 51 38 53 54 54
REMARK SMILES IDX 31 55 20 56 21 57 25 58 22 59 24 60 23 61 42 62 43 63 47 64
REMARK SMILES IDX 44 65 46 66 45 67 32 68 33 69 37 70 34 71 36 72 35 73
REMARK H PARENT 52 41 30 52
REMARK Flexibility Score: inf
ROOT
ATOM      1  C   UNL A   1      34.707  35.541  33.210  1.00  0.00     0.274 C 
ENDROOT
BRANCH   1   2
ATOM      2  O   UNL A   1      35.160  34.320  33.826  1.00  0.00    -0.462 OA
BRANCH   2   3
ATOM      3  C   UNL A   1      36.478  34.248  34.164  1.00  0.00     0.313 C 
ATOM      4  O   UNL A   1      37.352  34.941  33.656  1.00  0.00    -0.252 OA
BRANCH   3   5
ATOM      5  C   UNL A   1      36.761  33.129  35.173  1.00  0.00     0.129 C 
ATOM      6  C   UNL A   1      36.905  33.636  36.613  1.00  0.00     0.025 C 
BRANCH   5   7
ATOM      7  C   UNL A   1      37.909  32.230  34.725  1.00  0.00     0.002 A 
ATOM      8  C   UNL A   1      39.198  32.438  35.240  1.00  0.00     0.011 A 
ATOM      9  C   UNL A   1      37.744  31.168  33.830  1.00  0.00     0.130 A 
ATOM     10  C   UNL A   1      40.270  31.629  34.839  1.00  0.00     0.047 A 
ATOM     11  C   UNL A   1      38.813  30.362  33.427  1.00  0.00     0.086 A 
ATOM     12  F   UNL A   1      36.533  30.874  33.340  1.00  0.00    -0.207 F 
ATOM     13  C   UNL A   1      40.089  30.584  33.929  1.00  0.00     0.122 A 
BRANCH  13  14
ATOM     14  O   UNL A   1      41.226  29.897  33.624  1.00  0.00    -0.490 OA
BRANCH  14  15
ATOM     15  C   UNL A   1      41.675  28.765  34.367  1.00  0.00     0.173 C 
ATOM     16  C   UNL A   1      41.888  27.490  33.569  1.00  0.00     0.045 C 
ATOM     17  C   UNL A   1      42.930  28.982  35.206  1.00  0.00     0.045 C 
ATOM     18  C   UNL A   1      42.857  26.665  34.390  1.00  0.00     0.004 C 
ATOM     19  C   UNL A   1      43.615  27.623  35.298  1.00  0.00     0.004 C 
ENDBRANCH  14  15
ENDBRANCH  13  14
ENDBRANCH   5   7
ENDBRANCH   3   5
ENDBRANCH   2   3
ENDBRANCH   1   2
BRANCH   1  20
ATOM     20  C   UNL A   1      33.505  35.290  32.301  1.00  0.00     0.275 C 
BRANCH  20  21
ATOM     21  O   UNL A   1      33.785  35.731  30.960  1.00  0.00    -0.458 OA
BRANCH  21  22
ATOM     22  C   UNL A   1      33.650  34.794  29.995  1.00  0.00     0.338 C 
ATOM     23  O   UNL A   1      32.668  34.559  29.315  1.00  0.00    -0.246 OA
BRANCH  22  24
ATOM     24  C   UNL A   1      34.925  34.080  29.839  1.00  0.00     0.060 A 
ATOM     25  C   UNL A   1      35.161  32.965  30.633  1.00  0.00     0.016 A 
ATOM     26  C   UNL A   1      35.927  34.571  29.002  1.00  0.00     0.016 A 
ATOM     27  C   UNL A   1      36.426  32.385  30.648  1.00  0.00     0.010 A 
ATOM     28  C   UNL A   1      37.182  33.940  28.971  1.00  0.00     0.010 A 
ATOM     29  C   UNL A   1      37.467  32.866  29.833  1.00  0.00    -0.014 A 
BRANCH  29  30
ATOM     30  C   UNL A   1      38.832  32.262  29.962  1.00  0.00     0.031 A 
ATOM     31  C   UNL A   1      39.902  32.912  30.813  1.00  0.00     0.074 A 
ATOM     32  C   UNL A   1      39.071  31.031  29.460  1.00  0.00     0.049 A 
ATOM     33  N   UNL A   1      41.056  32.417  31.199  1.00  0.00    -0.248 NA
ATOM     34  C   UNL A   1      39.636  34.262  31.335  1.00  0.00     0.031 C 
ATOM     35  C   UNL A   1      38.130  30.248  28.658  1.00  0.00     0.029 A 
ATOM     36  N   UNL A   1      40.158  30.198  29.600  1.00  0.00    -0.354 N 
ATOM     37  C   UNL A   1      41.602  33.351  32.071  1.00  0.00     0.074 A 
ATOM     38  C   UNL A   1      40.712  34.492  32.075  1.00  0.00     0.031 C 
ATOM     39  C   UNL A   1      38.646  29.029  28.439  1.00  0.00     0.029 A 
ATOM     40  C   UNL A   1      39.985  28.964  29.016  1.00  0.00     0.049 A 
ATOM     41  H   UNL A   1      40.980  30.458  30.074  1.00  0.00     0.167 HD
ATOM     42  C   UNL A   1      42.694  33.246  32.866  1.00  0.00     0.031 A 
ATOM     43  C   UNL A   1      40.808  27.900  28.928  1.00  0.00     0.031 A 
ATOM     44  C   UNL A   1      43.624  32.151  32.858  1.00  0.00     0.049 A 
ATOM     45  C   UNL A   1      42.167  27.955  29.564  1.00  0.00     0.074 A 
ATOM     46  C   UNL A   1      44.778  31.995  33.609  1.00  0.00     0.029 A 
ATOM     47  N   UNL A   1      43.523  31.039  32.044  1.00  0.00    -0.354 N 
ATOM     48  N   UNL A   1      42.651  28.841  30.398  1.00  0.00    -0.248 NA
ATOM     49  C   UNL A   1      43.102  26.873  29.224  1.00  0.00     0.031 C 
ATOM     50  C   UNL A   1      45.410  30.814  33.201  1.00  0.00     0.029 A 
ATOM     51  C   UNL A   1      44.625  30.219  32.229  1.00  0.00     0.049 A 
ATOM     52  H   UNL A   1      42.780  30.855  31.426  1.00  0.00     0.167 HD
ATOM     53  C   UNL A   1      43.943  28.420  30.687  1.00  0.00     0.074 A 
ATOM     54  C   UNL A   1      44.160  27.188  29.959  1.00  0.00     0.031 C 
ATOM     55  C   UNL A   1      44.864  29.010  31.485  1.00  0.00     0.031 A 
BRANCH  42  56
ATOM     56  C   UNL A   1      42.924  34.345  33.862  1.00  0.00    -0.014 A 
ATOM     57  C   UNL A   1      42.454  34.202  35.179  1.00  0.00     0.009 A 
ATOM     58  C   UNL A   1      43.664  35.483  33.517  1.00  0.00     0.009 A 
ATOM     59  C   UNL A   1      42.712  35.191  36.130  1.00  0.00     0.001 A 
ATOM     60  C   UNL A   1      43.929  36.465  34.475  1.00  0.00     0.001 A 
ATOM     61  C   UNL A   1      43.451  36.319  35.778  1.00  0.00     0.000 A 
ENDBRANCH  42  56
BRANCH  43  62
ATOM     62  C   UNL A   1      40.401  26.707  28.136  1.00  0.00    -0.014 A 
ATOM     63  C   UNL A   1      40.798  26.551  26.800  1.00  0.00     0.009 A 
ATOM     64  C   UNL A   1      39.577  25.728  28.718  1.00  0.00     0.009 A 
ATOM     65  C   UNL A   1      40.370  25.442  26.063  1.00  0.00     0.001 A 
ATOM     66  C   UNL A   1      39.178  24.608  27.990  1.00  0.00     0.001 A 
ATOM     67  C   UNL A   1      39.567  24.470  26.659  1.00  0.00     0.000 A 
ENDBRANCH  43  62
BRANCH  55  68
ATOM     68  C   UNL A   1      46.204  28.346  31.604  1.00  0.00    -0.014 A 
ATOM     69  C   UNL A   1      47.262  28.716  30.757  1.00  0.00     0.009 A 
ATOM     70  C   UNL A   1      46.428  27.366  32.582  1.00  0.00     0.009 A 
ATOM     71  C   UNL A   1      48.509  28.099  30.872  1.00  0.00     0.001 A 
ATOM     72  C   UNL A   1      47.684  26.769  32.712  1.00  0.00     0.001 A 
ATOM     73  C   UNL A   1      48.721  27.131  31.852  1.00  0.00     0.000 A 
ENDBRANCH  55  68
ENDBRANCH  29  30
ENDBRANCH  22  24
ENDBRANCH  21  22
ENDBRANCH  20  21
ENDBRANCH   1  20
TORSDOF 14
ENDMDL
