MODEL 1
REMARK VINA RESULT:     -12.2      0.000      0.000
REMARK SMILES O=C(OCCOC(=O)c1[nH]ncc1C[N@H+]1CCC[C@@H](C(=O)c2ccc(Oc3ccccc3)cc2)C1)c1ccc(-c2c3nc(c(-c4ccccc4)c4ccc([nH]4)c(-c4ccccc4)c4nc(c(-c5ccccc5)c5ccc2[nH]5)C=C4)C=C3)cc1
REMARK SMILES IDX 7 1 8 2 6 3 5 4 4 5 3 6 2 7 1 8 36 9 37 10 83 11 38 12 82 13
REMARK SMILES IDX 39 14 40 15 41 16 76 17 42 18 81 19 75 20 77 21 43 22 80 23
REMARK SMILES IDX 74 24 73 25 44 27 66 28 51 29 65 30 52 31 55 32 64 33 78 34
REMARK SMILES IDX 53 35 54 36 63 38 79 39 56 40 45 41 46 42 50 43 47 44 49 45
REMARK SMILES IDX 48 46 67 47 68 48 72 49 69 50 71 51 70 52 57 53 58 54 62 55
REMARK SMILES IDX 59 56 61 57 60 58 9 59 10 60 13 61 11 62 12 64 14 65 15 66
REMARK SMILES IDX 16 67 35 68 17 70 19 71 18 72 20 73 21 74 22 75 23 76 34 77
REMARK SMILES IDX 24 78 33 79 25 80 26 81 27 82 28 83 32 84 29 85 31 86 30 87
REMARK H PARENT 77 26 55 37 10 63 15 69
REMARK Flexibility Score: inf
ROOT
ATOM      1  C   UNL A   1      35.105  21.136  25.636  1.00  0.00     0.356 C 
ATOM      2  O   UNL A   1      34.914  21.391  26.808  1.00  0.00    -0.244 OA
ENDROOT
BRANCH   1   3
ATOM      3  O   UNL A   1      35.697  21.963  24.722  1.00  0.00    -0.457 OA
BRANCH   3   4
ATOM      4  C   UNL A   1      36.984  21.541  24.251  1.00  0.00     0.275 C 
BRANCH   4   5
ATOM      5  C   UNL A   1      37.985  21.414  25.402  1.00  0.00     0.275 C 
BRANCH   5   6
ATOM      6  O   UNL A   1      38.385  22.693  25.928  1.00  0.00    -0.458 OA
BRANCH   6   7
ATOM      7  C   UNL A   1      39.539  23.151  26.459  1.00  0.00     0.338 C 
ATOM      8  O   UNL A   1      40.456  22.336  26.582  1.00  0.00    -0.246 OA
BRANCH   7   9
ATOM      9  C   UNL A   1      39.798  24.546  26.968  1.00  0.00     0.060 A 
ATOM     10  C   UNL A   1      40.456  25.588  26.308  1.00  0.00     0.016 A 
ATOM     11  C   UNL A   1      39.290  24.827  28.254  1.00  0.00     0.016 A 
ATOM     12  C   UNL A   1      40.631  26.847  26.915  1.00  0.00     0.010 A 
ATOM     13  C   UNL A   1      39.428  26.087  28.847  1.00  0.00     0.010 A 
ATOM     14  C   UNL A   1      40.129  27.103  28.191  1.00  0.00    -0.014 A 
BRANCH  14  15
ATOM     15  C   UNL A   1      40.466  28.344  28.931  1.00  0.00     0.031 A 
ATOM     16  C   UNL A   1      41.765  28.389  29.674  1.00  0.00     0.074 A 
ATOM     17  C   UNL A   1      39.661  29.422  28.950  1.00  0.00     0.049 A 
ATOM     18  N   UNL A   1      42.233  29.324  30.457  1.00  0.00    -0.248 NA
ATOM     19  C   UNL A   1      42.672  27.246  29.478  1.00  0.00     0.031 C 
ATOM     20  C   UNL A   1      38.444  29.572  28.170  1.00  0.00     0.029 A 
ATOM     21  N   UNL A   1      39.730  30.589  29.673  1.00  0.00    -0.354 N 
ATOM     22  C   UNL A   1      43.504  28.904  30.810  1.00  0.00     0.074 A 
ATOM     23  C   UNL A   1      43.706  27.597  30.223  1.00  0.00     0.031 C 
ATOM     24  C   UNL A   1      37.844  30.729  28.492  1.00  0.00     0.029 A 
ATOM     25  C   UNL A   1      38.605  31.371  29.551  1.00  0.00     0.049 A 
ATOM     26  H   UNL A   1      40.508  30.840  30.222  1.00  0.00     0.167 HD
ATOM     27  C   UNL A   1      44.440  29.568  31.526  1.00  0.00     0.031 A 
ATOM     28  C   UNL A   1      38.200  32.445  30.253  1.00  0.00     0.031 A 
ATOM     29  C   UNL A   1      44.218  30.840  32.152  1.00  0.00     0.049 A 
ATOM     30  C   UNL A   1      39.132  33.028  31.266  1.00  0.00     0.074 A 
ATOM     31  C   UNL A   1      45.094  31.604  32.898  1.00  0.00     0.029 A 
ATOM     32  N   UNL A   1      43.011  31.524  32.121  1.00  0.00    -0.354 N 
ATOM     33  N   UNL A   1      40.331  32.621  31.599  1.00  0.00    -0.248 NA
ATOM     34  C   UNL A   1      38.680  34.238  31.963  1.00  0.00     0.031 C 
ATOM     35  C   UNL A   1      44.401  32.730  33.361  1.00  0.00     0.029 A 
ATOM     36  C   UNL A   1      43.107  32.688  32.863  1.00  0.00     0.049 A 
ATOM     37  H   UNL A   1      42.205  31.225  31.641  1.00  0.00     0.167 HD
ATOM     38  C   UNL A   1      40.812  33.563  32.493  1.00  0.00     0.074 A 
ATOM     39  C   UNL A   1      39.751  34.533  32.689  1.00  0.00     0.031 C 
ATOM     40  C   UNL A   1      42.039  33.635  33.058  1.00  0.00     0.031 A 
BRANCH  27  41
ATOM     41  C   UNL A   1      45.767  28.883  31.664  1.00  0.00    -0.014 A 
ATOM     42  C   UNL A   1      46.055  28.094  32.792  1.00  0.00     0.009 A 
ATOM     43  C   UNL A   1      46.767  29.097  30.707  1.00  0.00     0.009 A 
ATOM     44  C   UNL A   1      47.337  27.578  32.984  1.00  0.00     0.001 A 
ATOM     45  C   UNL A   1      48.043  28.559  30.891  1.00  0.00     0.001 A 
ATOM     46  C   UNL A   1      48.330  27.815  32.035  1.00  0.00     0.000 A 
ENDBRANCH  27  41
BRANCH  28  47
ATOM     47  C   UNL A   1      36.831  32.989  30.071  1.00  0.00    -0.014 A 
ATOM     48  C   UNL A   1      36.527  33.889  29.043  1.00  0.00     0.009 A 
ATOM     49  C   UNL A   1      35.804  32.575  30.933  1.00  0.00     0.009 A 
ATOM     50  C   UNL A   1      35.215  34.346  28.873  1.00  0.00     0.001 A 
ATOM     51  C   UNL A   1      34.494  33.022  30.755  1.00  0.00     0.001 A 
ATOM     52  C   UNL A   1      34.199  33.907  29.722  1.00  0.00     0.000 A 
ENDBRANCH  28  47
BRANCH  40  53
ATOM     53  C   UNL A   1      42.327  34.850  33.882  1.00  0.00    -0.014 A 
ATOM     54  C   UNL A   1      42.094  34.872  35.263  1.00  0.00     0.009 A 
ATOM     55  C   UNL A   1      42.877  35.981  33.256  1.00  0.00     0.009 A 
ATOM     56  C   UNL A   1      42.391  36.019  36.002  1.00  0.00     0.001 A 
ATOM     57  C   UNL A   1      43.191  37.116  34.001  1.00  0.00     0.001 A 
ATOM     58  C   UNL A   1      42.944  37.135  35.372  1.00  0.00     0.000 A 
ENDBRANCH  40  53
ENDBRANCH  14  15
ENDBRANCH   7   9
ENDBRANCH   6   7
ENDBRANCH   5   6
ENDBRANCH   4   5
ENDBRANCH   3   4
ENDBRANCH   1   3
BRANCH   1  59
ATOM     59  C   UNL A   1      34.550  20.013  24.941  1.00  0.00     0.152 A 
ATOM     60  N   UNL A   1      35.225  18.824  24.865  1.00  0.00    -0.271 N 
ATOM     61  C   UNL A   1      33.329  19.803  24.316  1.00  0.00     0.059 A 
ATOM     62  N   UNL A   1      34.468  17.810  24.422  1.00  0.00    -0.183 NA
ATOM     63  H   UNL A   1      36.173  18.723  25.109  1.00  0.00     0.190 HD
ATOM     64  C   UNL A   1      33.305  18.395  24.139  1.00  0.00     0.145 A 
BRANCH  61  65
ATOM     65  C   UNL A   1      32.275  20.812  23.972  1.00  0.00     0.303 C 
BRANCH  65  66
ATOM     66  N   UNL A   1      32.819  22.152  23.664  1.00  0.00    -0.330 N 
ATOM     67  C   UNL A   1      32.662  22.501  22.253  1.00  0.00     0.262 C 
ATOM     68  C   UNL A   1      32.325  23.201  24.566  1.00  0.00     0.274 C 
ATOM     69  H   UNL A   1      33.822  22.095  23.842  1.00  0.00     0.348 HD
ATOM     70  C   UNL A   1      33.307  23.851  21.958  1.00  0.00     0.062 C 
ATOM     71  C   UNL A   1      32.820  24.623  24.320  1.00  0.00     0.116 C 
ATOM     72  C   UNL A   1      32.699  24.952  22.823  1.00  0.00     0.023 C 
BRANCH  71  73
ATOM     73  C   UNL A   1      32.134  25.760  25.119  1.00  0.00     0.171 C 
ATOM     74  O   UNL A   1      32.554  26.026  26.253  1.00  0.00    -0.294 OA
BRANCH  73  75
ATOM     75  C   UNL A   1      31.018  26.637  24.610  1.00  0.00     0.018 A 
ATOM     76  C   UNL A   1      29.761  26.052  24.404  1.00  0.00     0.015 A 
ATOM     77  C   UNL A   1      31.172  27.967  24.222  1.00  0.00     0.015 A 
ATOM     78  C   UNL A   1      28.708  26.781  23.825  1.00  0.00     0.048 A 
ATOM     79  C   UNL A   1      30.121  28.712  23.667  1.00  0.00     0.048 A 
ATOM     80  C   UNL A   1      28.890  28.109  23.433  1.00  0.00     0.127 A 
BRANCH  80  81
ATOM     81  O   UNL A   1      27.804  28.733  22.859  1.00  0.00    -0.457 OA
BRANCH  81  82
ATOM     82  C   UNL A   1      27.934  30.037  22.438  1.00  0.00     0.127 A 
ATOM     83  C   UNL A   1      27.856  31.042  23.402  1.00  0.00     0.047 A 
ATOM     84  C   UNL A   1      28.048  30.372  21.086  1.00  0.00     0.047 A 
ATOM     85  C   UNL A   1      27.947  32.382  23.022  1.00  0.00     0.004 A 
ATOM     86  C   UNL A   1      28.150  31.714  20.710  1.00  0.00     0.004 A 
ATOM     87  C   UNL A   1      28.104  32.717  21.677  1.00  0.00     0.000 A 
ENDBRANCH  81  82
ENDBRANCH  80  81
ENDBRANCH  73  75
ENDBRANCH  71  73
ENDBRANCH  65  66
ENDBRANCH  61  65
ENDBRANCH   1  59
TORSDOF 17
ENDMDL
MODEL 2
REMARK VINA RESULT:     -12.0      2.726      8.879
REMARK SMILES O=C(OCCOC(=O)c1[nH]ncc1C[N@H+]1CCC[C@@H](C(=O)c2ccc(Oc3ccccc3)cc2)C1)c1ccc(-c2c3nc(c(-c4ccccc4)c4ccc([nH]4)c(-c4ccccc4)c4nc(c(-c5ccccc5)c5ccc2[nH]5)C=C4)C=C3)cc1
REMARK SMILES IDX 7 1 8 2 6 3 5 4 4 5 3 6 2 7 1 8 36 9 37 10 83 11 38 12 82 13
REMARK SMILES IDX 39 14 40 15 41 16 76 17 42 18 81 19 75 20 77 21 43 22 80 23
REMARK SMILES IDX 74 24 73 25 44 27 66 28 51 29 65 30 52 31 55 32 64 33 78 34
REMARK SMILES IDX 53 35 54 36 63 38 79 39 56 40 45 41 46 42 50 43 47 44 49 45
REMARK SMILES IDX 48 46 67 47 68 48 72 49 69 50 71 51 70 52 57 53 58 54 62 55
REMARK SMILES IDX 59 56 61 57 60 58 9 59 10 60 13 61 11 62 12 64 14 65 15 66
REMARK SMILES IDX 16 67 35 68 17 70 19 71 18 72 20 73 21 74 22 75 23 76 34 77
REMARK SMILES IDX 24 78 33 79 25 80 26 81 27 82 28 83 32 84 29 85 31 86 30 87
REMARK H PARENT 77 26 55 37 10 63 15 69
REMARK Flexibility Score: inf
ROOT
ATOM      1  C   UNL A   1      32.439  29.176  24.921  1.00  0.00     0.356 C 
ATOM      2  O   UNL A   1      33.541  28.926  24.476  1.00  0.00    -0.244 OA
ENDROOT
BRANCH   1   3
ATOM      3  O   UNL A   1      32.127  29.335  26.243  1.00  0.00    -0.457 OA
BRANCH   3   4
ATOM      4  C   UNL A   1      32.766  30.436  26.900  1.00  0.00     0.275 C 
BRANCH   4   5
ATOM      5  C   UNL A   1      32.109  31.767  26.525  1.00  0.00     0.275 C 
BRANCH   5   6
ATOM      6  O   UNL A   1      32.057  32.687  27.631  1.00  0.00    -0.458 OA
BRANCH   6   7
ATOM      7  C   UNL A   1      32.893  33.656  28.063  1.00  0.00     0.338 C 
ATOM      8  O   UNL A   1      32.536  34.822  27.879  1.00  0.00    -0.246 OA
BRANCH   7   9
ATOM      9  C   UNL A   1      34.245  33.452  28.699  1.00  0.00     0.060 A 
ATOM     10  C   UNL A   1      35.474  33.971  28.281  1.00  0.00     0.016 A 
ATOM     11  C   UNL A   1      34.253  32.661  29.867  1.00  0.00     0.016 A 
ATOM     12  C   UNL A   1      36.665  33.689  28.976  1.00  0.00     0.010 A 
ATOM     13  C   UNL A   1      35.428  32.407  30.583  1.00  0.00     0.010 A 
ATOM     14  C   UNL A   1      36.654  32.897  30.124  1.00  0.00    -0.014 A 
BRANCH  14  15
ATOM     15  C   UNL A   1      37.906  32.421  30.761  1.00  0.00     0.031 A 
ATOM     16  C   UNL A   1      38.567  31.203  30.192  1.00  0.00     0.074 A 
ATOM     17  C   UNL A   1      38.472  33.043  31.812  1.00  0.00     0.049 A 
ATOM     18  N   UNL A   1      39.613  30.554  30.629  1.00  0.00    -0.248 NA
ATOM     19  C   UNL A   1      37.993  30.669  28.946  1.00  0.00     0.031 C 
ATOM     20  C   UNL A   1      38.023  34.304  32.378  1.00  0.00     0.029 A 
ATOM     21  N   UNL A   1      39.532  32.686  32.610  1.00  0.00    -0.354 N 
ATOM     22  C   UNL A   1      39.850  29.566  29.688  1.00  0.00     0.074 A 
ATOM     23  C   UNL A   1      38.795  29.647  28.701  1.00  0.00     0.031 C 
ATOM     24  C   UNL A   1      38.755  34.593  33.466  1.00  0.00     0.029 A 
ATOM     25  C   UNL A   1      39.684  33.502  33.707  1.00  0.00     0.049 A 
ATOM     26  H   UNL A   1      40.124  31.924  32.415  1.00  0.00     0.167 HD
ATOM     27  C   UNL A   1      40.880  28.692  29.628  1.00  0.00     0.031 A 
ATOM     28  C   UNL A   1      40.438  33.357  34.813  1.00  0.00     0.031 A 
ATOM     29  C   UNL A   1      41.894  28.578  30.637  1.00  0.00     0.049 A 
ATOM     30  C   UNL A   1      41.396  32.212  34.879  1.00  0.00     0.074 A 
ATOM     31  C   UNL A   1      42.985  27.731  30.679  1.00  0.00     0.029 A 
ATOM     32  N   UNL A   1      41.921  29.329  31.804  1.00  0.00    -0.354 N 
ATOM     33  N   UNL A   1      41.609  31.276  33.988  1.00  0.00    -0.248 NA
ATOM     34  C   UNL A   1      42.246  32.126  36.072  1.00  0.00     0.031 C 
ATOM     35  C   UNL A   1      43.645  27.935  31.897  1.00  0.00     0.029 A 
ATOM     36  C   UNL A   1      42.991  28.942  32.591  1.00  0.00     0.049 A 
ATOM     37  H   UNL A   1      41.273  30.033  32.038  1.00  0.00     0.167 HD
ATOM     38  C   UNL A   1      42.668  30.529  34.475  1.00  0.00     0.074 A 
ATOM     39  C   UNL A   1      43.017  31.090  35.766  1.00  0.00     0.031 C 
ATOM     40  C   UNL A   1      43.317  29.502  33.878  1.00  0.00     0.031 A 
BRANCH  27  41
ATOM     41  C   UNL A   1      40.910  27.795  28.427  1.00  0.00    -0.014 A 
ATOM     42  C   UNL A   1      41.634  28.157  27.277  1.00  0.00     0.009 A 
ATOM     43  C   UNL A   1      40.141  26.625  28.410  1.00  0.00     0.009 A 
ATOM     44  C   UNL A   1      41.543  27.391  26.115  1.00  0.00     0.001 A 
ATOM     45  C   UNL A   1      40.070  25.847  27.251  1.00  0.00     0.001 A 
ATOM     46  C   UNL A   1      40.757  26.239  26.103  1.00  0.00     0.000 A 
ENDBRANCH  27  41
BRANCH  28  47
ATOM     47  C   UNL A   1      40.264  34.276  35.966  1.00  0.00    -0.014 A 
ATOM     48  C   UNL A   1      39.404  33.974  37.027  1.00  0.00     0.009 A 
ATOM     49  C   UNL A   1      40.999  35.471  36.011  1.00  0.00     0.009 A 
ATOM     50  C   UNL A   1      39.300  34.843  38.119  1.00  0.00     0.001 A 
ATOM     51  C   UNL A   1      40.904  36.331  37.106  1.00  0.00     0.001 A 
ATOM     52  C   UNL A   1      40.055  36.015  38.163  1.00  0.00     0.000 A 
ENDBRANCH  28  47
BRANCH  40  53
ATOM     53  C   UNL A   1      44.524  28.971  34.585  1.00  0.00    -0.014 A 
ATOM     54  C   UNL A   1      44.455  27.836  35.403  1.00  0.00     0.009 A 
ATOM     55  C   UNL A   1      45.760  29.609  34.391  1.00  0.00     0.009 A 
ATOM     56  C   UNL A   1      45.607  27.360  36.033  1.00  0.00     0.001 A 
ATOM     57  C   UNL A   1      46.911  29.118  35.005  1.00  0.00     0.001 A 
ATOM     58  C   UNL A   1      46.832  27.997  35.828  1.00  0.00     0.000 A 
ENDBRANCH  40  53
ENDBRANCH  14  15
ENDBRANCH   7   9
ENDBRANCH   6   7
ENDBRANCH   5   6
ENDBRANCH   4   5
ENDBRANCH   3   4
ENDBRANCH   1   3
BRANCH   1  59
ATOM     59  C   UNL A   1      31.221  29.134  24.168  1.00  0.00     0.152 A 
ATOM     60  N   UNL A   1      30.374  30.208  24.132  1.00  0.00    -0.271 N 
ATOM     61  C   UNL A   1      30.672  28.182  23.321  1.00  0.00     0.059 A 
ATOM     62  N   UNL A   1      29.431  30.111  23.184  1.00  0.00    -0.183 NA
ATOM     63  H   UNL A   1      30.448  30.976  24.744  1.00  0.00     0.190 HD
ATOM     64  C   UNL A   1      29.645  28.905  22.660  1.00  0.00     0.145 A 
BRANCH  61  65
ATOM     65  C   UNL A   1      31.102  26.760  23.116  1.00  0.00     0.303 C 
BRANCH  65  66
ATOM     66  N   UNL A   1      32.132  26.311  24.077  1.00  0.00    -0.330 N 
ATOM     67  C   UNL A   1      31.545  25.762  25.299  1.00  0.00     0.262 C 
ATOM     68  C   UNL A   1      33.134  25.420  23.481  1.00  0.00     0.274 C 
ATOM     69  H   UNL A   1      32.646  27.150  24.350  1.00  0.00     0.348 HD
ATOM     70  C   UNL A   1      32.635  25.388  26.297  1.00  0.00     0.062 C 
ATOM     71  C   UNL A   1      34.233  24.891  24.398  1.00  0.00     0.116 C 
ATOM     72  C   UNL A   1      33.603  24.370  25.700  1.00  0.00     0.023 C 
BRANCH  71  73
ATOM     73  C   UNL A   1      35.156  23.781  23.832  1.00  0.00     0.171 C 
ATOM     74  O   UNL A   1      34.911  23.320  22.710  1.00  0.00    -0.294 OA
BRANCH  73  75
ATOM     75  C   UNL A   1      36.390  23.241  24.510  1.00  0.00     0.018 A 
ATOM     76  C   UNL A   1      36.792  21.933  24.203  1.00  0.00     0.015 A 
ATOM     77  C   UNL A   1      37.100  23.908  25.505  1.00  0.00     0.015 A 
ATOM     78  C   UNL A   1      37.865  21.327  24.880  1.00  0.00     0.048 A 
ATOM     79  C   UNL A   1      38.188  23.323  26.170  1.00  0.00     0.048 A 
ATOM     80  C   UNL A   1      38.554  22.012  25.884  1.00  0.00     0.127 A 
BRANCH  80  81
ATOM     81  O   UNL A   1      39.578  21.327  26.500  1.00  0.00    -0.457 OA
BRANCH  81  82
ATOM     82  C   UNL A   1      40.736  22.004  26.811  1.00  0.00     0.127 A 
ATOM     83  C   UNL A   1      40.919  22.404  28.134  1.00  0.00     0.047 A 
ATOM     84  C   UNL A   1      41.667  22.368  25.835  1.00  0.00     0.047 A 
ATOM     85  C   UNL A   1      42.060  23.123  28.494  1.00  0.00     0.004 A 
ATOM     86  C   UNL A   1      42.814  23.077  26.200  1.00  0.00     0.004 A 
ATOM     87  C   UNL A   1      43.013  23.450  27.529  1.00  0.00     0.000 A 
ENDBRANCH  81  82
ENDBRANCH  80  81
ENDBRANCH  73  75
ENDBRANCH  71  73
ENDBRANCH  65  66
ENDBRANCH  61  65
ENDBRANCH   1  59
TORSDOF 17
ENDMDL
MODEL 3
REMARK VINA RESULT:     -12.0      2.982      9.219
REMARK SMILES O=C(OCCOC(=O)c1[nH]ncc1C[N@H+]1CCC[C@@H](C(=O)c2ccc(Oc3ccccc3)cc2)C1)c1ccc(-c2c3nc(c(-c4ccccc4)c4ccc([nH]4)c(-c4ccccc4)c4nc(c(-c5ccccc5)c5ccc2[nH]5)C=C4)C=C3)cc1
REMARK SMILES IDX 7 1 8 2 6 3 5 4 4 5 3 6 2 7 1 8 36 9 37 10 83 11 38 12 82 13
REMARK SMILES IDX 39 14 40 15 41 16 76 17 42 18 81 19 75 20 77 21 43 22 80 23
REMARK SMILES IDX 74 24 73 25 44 27 66 28 51 29 65 30 52 31 55 32 64 33 78 34
REMARK SMILES IDX 53 35 54 36 63 38 79 39 56 40 45 41 46 42 50 43 47 44 49 45
REMARK SMILES IDX 48 46 67 47 68 48 72 49 69 50 71 51 70 52 57 53 58 54 62 55
REMARK SMILES IDX 59 56 61 57 60 58 9 59 10 60 13 61 11 62 12 64 14 65 15 66
REMARK SMILES IDX 16 67 35 68 17 70 19 71 18 72 20 73 21 74 22 75 23 76 34 77
REMARK SMILES IDX 24 78 33 79 25 80 26 81 27 82 28 83 32 84 29 85 31 86 30 87
REMARK H PARENT 77 26 55 37 10 63 15 69
REMARK Flexibility Score: inf
ROOT
ATOM      1  C   UNL A   1      31.506  29.249  23.521  1.00  0.00     0.356 C 
ATOM      2  O   UNL A   1      32.349  29.136  22.654  1.00  0.00    -0.244 OA
ENDROOT
BRANCH   1   3
ATOM      3  O   UNL A   1      31.719  29.126  24.866  1.00  0.00    -0.457 OA
BRANCH   3   4
ATOM      4  C   UNL A   1      33.044  29.443  25.312  1.00  0.00     0.275 C 
BRANCH   4   5
ATOM      5  C   UNL A   1      33.042  29.938  26.760  1.00  0.00     0.275 C 
BRANCH   5   6
ATOM      6  O   UNL A   1      34.219  30.702  27.084  1.00  0.00    -0.458 OA
BRANCH   6   7
ATOM      7  C   UNL A   1      34.917  30.878  28.226  1.00  0.00     0.338 C 
ATOM      8  O   UNL A   1      34.484  31.718  29.018  1.00  0.00    -0.246 OA
BRANCH   7   9
ATOM      9  C   UNL A   1      36.205  30.190  28.602  1.00  0.00     0.060 A 
ATOM     10  C   UNL A   1      36.503  29.528  29.796  1.00  0.00     0.016 A 
ATOM     11  C   UNL A   1      37.211  30.203  27.613  1.00  0.00     0.016 A 
ATOM     12  C   UNL A   1      37.760  28.932  30.012  1.00  0.00     0.010 A 
ATOM     13  C   UNL A   1      38.449  29.581  27.807  1.00  0.00     0.010 A 
ATOM     14  C   UNL A   1      38.745  28.963  29.025  1.00  0.00    -0.014 A 
BRANCH  14  15
ATOM     15  C   UNL A   1      40.137  28.522  29.293  1.00  0.00     0.031 A 
ATOM     16  C   UNL A   1      41.092  29.518  29.873  1.00  0.00     0.074 A 
ATOM     17  C   UNL A   1      40.564  27.269  29.047  1.00  0.00     0.049 A 
ATOM     18  N   UNL A   1      42.370  29.391  30.110  1.00  0.00    -0.248 NA
ATOM     19  C   UNL A   1      40.522  30.815  30.273  1.00  0.00     0.031 C 
ATOM     20  C   UNL A   1      39.720  26.167  28.617  1.00  0.00     0.029 A 
ATOM     21  N   UNL A   1      41.822  26.717  29.097  1.00  0.00    -0.354 N 
ATOM     22  C   UNL A   1      42.747  30.572  30.727  1.00  0.00     0.074 A 
ATOM     23  C   UNL A   1      41.585  31.434  30.757  1.00  0.00     0.031 C 
ATOM     24  C   UNL A   1      40.481  25.085  28.383  1.00  0.00     0.029 A 
ATOM     25  C   UNL A   1      41.875  25.441  28.587  1.00  0.00     0.049 A 
ATOM     26  H   UNL A   1      42.605  27.188  29.463  1.00  0.00     0.167 HD
ATOM     27  C   UNL A   1      43.947  30.896  31.261  1.00  0.00     0.031 A 
ATOM     28  C   UNL A   1      42.927  24.668  28.259  1.00  0.00     0.031 A 
ATOM     29  C   UNL A   1      45.111  30.061  31.182  1.00  0.00     0.049 A 
ATOM     30  C   UNL A   1      44.300  25.152  28.596  1.00  0.00     0.074 A 
ATOM     31  C   UNL A   1      46.376  30.287  31.689  1.00  0.00     0.029 A 
ATOM     32  N   UNL A   1      45.151  28.839  30.524  1.00  0.00    -0.354 N 
ATOM     33  N   UNL A   1      44.649  26.274  29.174  1.00  0.00    -0.248 NA
ATOM     34  C   UNL A   1      45.416  24.252  28.282  1.00  0.00     0.031 C 
ATOM     35  C   UNL A   1      47.197  29.222  31.295  1.00  0.00     0.029 A 
ATOM     36  C   UNL A   1      46.429  28.312  30.583  1.00  0.00     0.049 A 
ATOM     37  H   UNL A   1      44.383  28.411  30.082  1.00  0.00     0.167 HD
ATOM     38  C   UNL A   1      46.018  26.189  29.361  1.00  0.00     0.074 A 
ATOM     39  C   UNL A   1      46.442  24.926  28.786  1.00  0.00     0.031 C 
ATOM     40  C   UNL A   1      46.836  27.061  29.996  1.00  0.00     0.031 A 
BRANCH  27  41
ATOM     41  C   UNL A   1      44.021  32.226  31.948  1.00  0.00    -0.014 A 
ATOM     42  C   UNL A   1      43.693  32.351  33.311  1.00  0.00     0.009 A 
ATOM     43  C   UNL A   1      44.334  33.376  31.214  1.00  0.00     0.009 A 
ATOM     44  C   UNL A   1      43.624  33.610  33.908  1.00  0.00     0.001 A 
ATOM     45  C   UNL A   1      44.288  34.634  31.821  1.00  0.00     0.001 A 
ATOM     46  C   UNL A   1      43.919  34.750  33.161  1.00  0.00     0.000 A 
ENDBRANCH  27  41
BRANCH  28  47
ATOM     47  C   UNL A   1      42.724  23.399  27.516  1.00  0.00    -0.014 A 
ATOM     48  C   UNL A   1      42.426  22.200  28.173  1.00  0.00     0.009 A 
ATOM     49  C   UNL A   1      42.807  23.399  26.115  1.00  0.00     0.009 A 
ATOM     50  C   UNL A   1      42.196  21.032  27.437  1.00  0.00     0.001 A 
ATOM     51  C   UNL A   1      42.565  22.237  25.381  1.00  0.00     0.001 A 
ATOM     52  C   UNL A   1      42.257  21.052  26.044  1.00  0.00     0.000 A 
ENDBRANCH  28  47
BRANCH  40  53
ATOM     53  C   UNL A   1      48.260  26.639  30.170  1.00  0.00    -0.014 A 
ATOM     54  C   UNL A   1      48.692  25.973  31.325  1.00  0.00     0.009 A 
ATOM     55  C   UNL A   1      49.175  26.887  29.134  1.00  0.00     0.009 A 
ATOM     56  C   UNL A   1      50.026  25.579  31.445  1.00  0.00     0.001 A 
ATOM     57  C   UNL A   1      50.500  26.474  29.249  1.00  0.00     0.001 A 
ATOM     58  C   UNL A   1      50.926  25.824  30.406  1.00  0.00     0.000 A 
ENDBRANCH  40  53
ENDBRANCH  14  15
ENDBRANCH   7   9
ENDBRANCH   6   7
ENDBRANCH   5   6
ENDBRANCH   4   5
ENDBRANCH   3   4
ENDBRANCH   1   3
BRANCH   1  59
ATOM     59  C   UNL A   1      30.093  29.314  23.288  1.00  0.00     0.152 A 
ATOM     60  N   UNL A   1      29.486  30.493  22.950  1.00  0.00    -0.271 N 
ATOM     61  C   UNL A   1      29.100  28.346  23.257  1.00  0.00     0.059 A 
ATOM     62  N   UNL A   1      28.229  30.337  22.508  1.00  0.00    -0.183 NA
ATOM     63  H   UNL A   1      29.927  31.370  23.023  1.00  0.00     0.190 HD
ATOM     64  C   UNL A   1      28.016  29.030  22.648  1.00  0.00     0.145 A 
BRANCH  61  65
ATOM     65  C   UNL A   1      29.180  26.917  23.703  1.00  0.00     0.303 C 
BRANCH  65  66
ATOM     66  N   UNL A   1      30.463  26.572  24.352  1.00  0.00    -0.330 N 
ATOM     67  C   UNL A   1      30.276  26.063  25.710  1.00  0.00     0.262 C 
ATOM     68  C   UNL A   1      31.313  25.700  23.532  1.00  0.00     0.274 C 
ATOM     69  H   UNL A   1      30.979  27.448  24.436  1.00  0.00     0.348 HD
ATOM     70  C   UNL A   1      31.622  25.797  26.374  1.00  0.00     0.062 C 
ATOM     71  C   UNL A   1      32.654  25.276  24.122  1.00  0.00     0.116 C 
ATOM     72  C   UNL A   1      32.446  24.797  25.568  1.00  0.00     0.023 C 
BRANCH  71  73
ATOM     73  C   UNL A   1      33.450  24.184  23.363  1.00  0.00     0.171 C 
ATOM     74  O   UNL A   1      34.433  24.523  22.692  1.00  0.00    -0.294 OA
BRANCH  73  75
ATOM     75  C   UNL A   1      33.171  22.703  23.416  1.00  0.00     0.018 A 
ATOM     76  C   UNL A   1      32.436  22.132  22.367  1.00  0.00     0.015 A 
ATOM     77  C   UNL A   1      33.495  21.876  24.490  1.00  0.00     0.015 A 
ATOM     78  C   UNL A   1      32.043  20.783  22.408  1.00  0.00     0.048 A 
ATOM     79  C   UNL A   1      33.130  20.523  24.530  1.00  0.00     0.048 A 
ATOM     80  C   UNL A   1      32.369  19.977  23.501  1.00  0.00     0.127 A 
BRANCH  80  81
ATOM     81  O   UNL A   1      31.924  18.674  23.456  1.00  0.00    -0.457 OA
BRANCH  81  82
ATOM     82  C   UNL A   1      32.723  17.681  23.976  1.00  0.00     0.127 A 
ATOM     83  C   UNL A   1      32.385  17.164  25.226  1.00  0.00     0.047 A 
ATOM     84  C   UNL A   1      33.888  17.255  23.334  1.00  0.00     0.047 A 
ATOM     85  C   UNL A   1      33.183  16.180  25.813  1.00  0.00     0.004 A 
ATOM     86  C   UNL A   1      34.679  16.262  23.918  1.00  0.00     0.004 A 
ATOM     87  C   UNL A   1      34.324  15.721  25.153  1.00  0.00     0.000 A 
ENDBRANCH  81  82
ENDBRANCH  80  81
ENDBRANCH  73  75
ENDBRANCH  71  73
ENDBRANCH  65  66
ENDBRANCH  61  65
ENDBRANCH   1  59
TORSDOF 17
ENDMDL
