MODEL 1
REMARK VINA RESULT:      -9.8      0.000      0.000
REMARK SMILES CC(C)OCCS(=O)(=O)Nc1nccnc1C(=O)OCCOC(=O)c1ccc(-c2c3nc(c(-c4ccccc4)c4ccc([nH]4)c(-c4ccccc4)c4nc(c(-c5ccccc5)c5ccc2[nH]5)C=C4)C=C3)cc1
REMARK SMILES IDX 17 1 18 2 16 3 11 4 12 5 13 6 15 7 14 8 10 9 7 11 8 12 9 13
REMARK SMILES IDX 6 14 5 15 4 16 2 17 1 18 3 19 19 20 20 21 21 22 22 23 23 24
REMARK SMILES IDX 24 25 25 26 26 27 72 28 27 29 71 30 28 31 29 32 30 33 65 34
REMARK SMILES IDX 31 35 70 36 64 37 66 38 32 39 69 40 63 41 62 42 33 44 55 45
REMARK SMILES IDX 40 46 54 47 41 48 44 49 53 50 67 51 42 52 43 53 52 55 68 56
REMARK SMILES IDX 45 57 34 58 35 59 39 60 36 61 38 62 37 63 56 64 57 65 61 66
REMARK SMILES IDX 58 67 60 68 59 69 46 70 47 71 51 72 48 73 50 74 49 75
REMARK H PARENT 10 10 66 43 44 54
REMARK Flexibility Score: inf
ROOT
ATOM      1  C   UNL A   1      32.550  21.006  24.908  1.00  0.00     0.360 C 
ATOM      2  O   UNL A   1      31.954  20.020  25.332  1.00  0.00    -0.244 OA
ENDROOT
BRANCH   1   3
ATOM      3  C   UNL A   1      32.058  22.376  25.160  1.00  0.00     0.191 A 
ATOM      4  C   UNL A   1      31.851  23.350  24.203  1.00  0.00     0.173 A 
ATOM      5  N   UNL A   1      30.957  24.318  24.511  1.00  0.00    -0.235 NA
ATOM      6  C   UNL A   1      30.421  24.413  25.753  1.00  0.00     0.133 A 
ATOM      7  N   UNL A   1      31.543  22.500  26.435  1.00  0.00    -0.244 NA
ATOM      8  C   UNL A   1      30.771  23.548  26.736  1.00  0.00     0.132 A 
BRANCH   4   9
ATOM      9  N   UNL A   1      32.198  23.405  22.811  1.00  0.00    -0.265 N 
ATOM     10  H   UNL A   1      31.673  22.804  22.234  1.00  0.00     0.181 HD
BRANCH   9  11
ATOM     11  S   UNL A   1      33.335  24.313  22.011  1.00  0.00     0.236 S 
ATOM     12  O   UNL A   1      33.276  23.814  20.648  1.00  0.00    -0.207 OA
ATOM     13  O   UNL A   1      34.552  24.056  22.760  1.00  0.00    -0.207 OA
BRANCH  11  14
ATOM     14  C   UNL A   1      33.249  26.124  21.883  1.00  0.00     0.188 C 
BRANCH  14  15
ATOM     15  C   UNL A   1      32.878  26.996  23.086  1.00  0.00     0.178 C 
BRANCH  15  16
ATOM     16  O   UNL A   1      33.893  27.398  24.011  1.00  0.00    -0.378 OA
BRANCH  16  17
ATOM     17  C   UNL A   1      33.618  27.184  25.393  1.00  0.00     0.112 C 
ATOM     18  C   UNL A   1      34.025  25.738  25.750  1.00  0.00     0.038 C 
ATOM     19  C   UNL A   1      34.041  28.491  26.083  1.00  0.00     0.038 C 
ENDBRANCH  16  17
ENDBRANCH  15  16
ENDBRANCH  14  15
ENDBRANCH  11  14
ENDBRANCH   9  11
ENDBRANCH   4   9
ENDBRANCH   1   3
BRANCH   1  20
ATOM     20  O   UNL A   1      33.723  20.982  24.249  1.00  0.00    -0.457 OA
BRANCH  20  21
ATOM     21  C   UNL A   1      34.781  20.334  24.979  1.00  0.00     0.275 C 
BRANCH  21  22
ATOM     22  C   UNL A   1      35.705  21.354  25.660  1.00  0.00     0.275 C 
BRANCH  22  23
ATOM     23  O   UNL A   1      36.895  21.658  24.894  1.00  0.00    -0.458 OA
BRANCH  23  24
ATOM     24  C   UNL A   1      38.055  21.207  25.434  1.00  0.00     0.338 C 
ATOM     25  O   UNL A   1      38.538  20.099  25.294  1.00  0.00    -0.246 OA
BRANCH  24  26
ATOM     26  C   UNL A   1      38.795  22.279  26.130  1.00  0.00     0.060 A 
ATOM     27  C   UNL A   1      38.317  23.567  25.941  1.00  0.00     0.016 A 
ATOM     28  C   UNL A   1      40.030  22.103  26.742  1.00  0.00     0.016 A 
ATOM     29  C   UNL A   1      39.092  24.681  26.217  1.00  0.00     0.010 A 
ATOM     30  C   UNL A   1      40.761  23.235  27.160  1.00  0.00     0.010 A 
ATOM     31  C   UNL A   1      40.313  24.542  26.874  1.00  0.00    -0.014 A 
BRANCH  31  32
ATOM     32  C   UNL A   1      41.078  25.773  27.238  1.00  0.00     0.031 A 
ATOM     33  C   UNL A   1      40.518  26.768  28.221  1.00  0.00     0.074 A 
ATOM     34  C   UNL A   1      42.313  25.975  26.727  1.00  0.00     0.049 A 
ATOM     35  N   UNL A   1      40.987  27.942  28.566  1.00  0.00    -0.248 NA
ATOM     36  C   UNL A   1      39.267  26.401  28.902  1.00  0.00     0.031 C 
ATOM     37  C   UNL A   1      43.020  25.068  25.816  1.00  0.00     0.029 A 
ATOM     38  N   UNL A   1      43.211  27.000  26.917  1.00  0.00    -0.354 N 
ATOM     39  C   UNL A   1      40.062  28.476  29.456  1.00  0.00     0.074 A 
ATOM     40  C   UNL A   1      39.002  27.501  29.594  1.00  0.00     0.031 C 
ATOM     41  C   UNL A   1      44.248  25.544  25.575  1.00  0.00     0.029 A 
ATOM     42  C   UNL A   1      44.382  26.846  26.211  1.00  0.00     0.049 A 
ATOM     43  H   UNL A   1      43.033  27.771  27.503  1.00  0.00     0.167 HD
ATOM     44  C   UNL A   1      40.091  29.670  30.096  1.00  0.00     0.031 A 
ATOM     45  C   UNL A   1      45.429  27.675  26.042  1.00  0.00     0.031 A 
ATOM     46  C   UNL A   1      41.160  30.629  29.976  1.00  0.00     0.049 A 
ATOM     47  C   UNL A   1      45.397  29.025  26.696  1.00  0.00     0.074 A 
ATOM     48  C   UNL A   1      41.282  31.867  30.587  1.00  0.00     0.029 A 
ATOM     49  N   UNL A   1      42.293  30.457  29.195  1.00  0.00    -0.354 N 
ATOM     50  N   UNL A   1      44.495  29.529  27.502  1.00  0.00    -0.248 NA
ATOM     51  C   UNL A   1      46.522  29.923  26.406  1.00  0.00     0.031 C 
ATOM     52  C   UNL A   1      42.457  32.469  30.126  1.00  0.00     0.029 A 
ATOM     53  C   UNL A   1      43.105  31.577  29.286  1.00  0.00     0.049 A 
ATOM     54  H   UNL A   1      42.492  29.658  28.658  1.00  0.00     0.167 HD
ATOM     55  C   UNL A   1      44.952  30.798  27.830  1.00  0.00     0.074 A 
ATOM     56  C   UNL A   1      46.225  30.971  27.161  1.00  0.00     0.031 C 
ATOM     57  C   UNL A   1      44.367  31.738  28.611  1.00  0.00     0.031 A 
BRANCH  44  58
ATOM     58  C   UNL A   1      38.901  30.037  30.944  1.00  0.00    -0.014 A 
ATOM     59  C   UNL A   1      38.846  29.741  32.314  1.00  0.00     0.009 A 
ATOM     60  C   UNL A   1      37.825  30.725  30.358  1.00  0.00     0.009 A 
ATOM     61  C   UNL A   1      37.724  30.092  33.070  1.00  0.00     0.001 A 
ATOM     62  C   UNL A   1      36.720  31.103  31.121  1.00  0.00     0.001 A 
ATOM     63  C   UNL A   1      36.664  30.777  32.475  1.00  0.00     0.000 A 
ENDBRANCH  44  58
BRANCH  45  64
ATOM     64  C   UNL A   1      46.562  27.284  25.156  1.00  0.00    -0.014 A 
ATOM     65  C   UNL A   1      46.713  27.857  23.885  1.00  0.00     0.009 A 
ATOM     66  C   UNL A   1      47.490  26.315  25.574  1.00  0.00     0.009 A 
ATOM     67  C   UNL A   1      47.752  27.450  23.043  1.00  0.00     0.001 A 
ATOM     68  C   UNL A   1      48.551  25.939  24.748  1.00  0.00     0.001 A 
ATOM     69  C   UNL A   1      48.674  26.498  23.478  1.00  0.00     0.000 A 
ENDBRANCH  45  64
BRANCH  57  70
ATOM     70  C   UNL A   1      45.123  33.022  28.813  1.00  0.00    -0.014 A 
ATOM     71  C   UNL A   1      44.939  34.123  27.962  1.00  0.00     0.009 A 
ATOM     72  C   UNL A   1      46.026  33.133  29.882  1.00  0.00     0.009 A 
ATOM     73  C   UNL A   1      45.676  35.294  28.152  1.00  0.00     0.001 A 
ATOM     74  C   UNL A   1      46.734  34.316  30.093  1.00  0.00     0.001 A 
ATOM     75  C   UNL A   1      46.568  35.391  29.220  1.00  0.00     0.000 A 
ENDBRANCH  57  70
ENDBRANCH  31  32
ENDBRANCH  24  26
ENDBRANCH  23  24
ENDBRANCH  22  23
ENDBRANCH  21  22
ENDBRANCH  20  21
ENDBRANCH   1  20
TORSDOF 17
ENDMDL
MODEL 2
REMARK VINA RESULT:      -9.5      1.247      2.111
REMARK SMILES CC(C)OCCS(=O)(=O)Nc1nccnc1C(=O)OCCOC(=O)c1ccc(-c2c3nc(c(-c4ccccc4)c4ccc([nH]4)c(-c4ccccc4)c4nc(c(-c5ccccc5)c5ccc2[nH]5)C=C4)C=C3)cc1
REMARK SMILES IDX 17 1 18 2 16 3 11 4 12 5 13 6 15 7 14 8 10 9 7 11 8 12 9 13
REMARK SMILES IDX 6 14 5 15 4 16 2 17 1 18 3 19 19 20 20 21 21 22 22 23 23 24
REMARK SMILES IDX 24 25 25 26 26 27 72 28 27 29 71 30 28 31 29 32 30 33 65 34
REMARK SMILES IDX 31 35 70 36 64 37 66 38 32 39 69 40 63 41 62 42 33 44 55 45
REMARK SMILES IDX 40 46 54 47 41 48 44 49 53 50 67 51 42 52 43 53 52 55 68 56
REMARK SMILES IDX 45 57 34 58 35 59 39 60 36 61 38 62 37 63 56 64 57 65 61 66
REMARK SMILES IDX 58 67 60 68 59 69 46 70 47 71 51 72 48 73 50 74 49 75
REMARK H PARENT 10 10 66 43 44 54
REMARK Flexibility Score: inf
ROOT
ATOM      1  C   UNL A   1      32.969  21.756  24.352  1.00  0.00     0.360 C 
ATOM      2  O   UNL A   1      32.214  21.092  25.058  1.00  0.00    -0.244 OA
ENDROOT
BRANCH   1   3
ATOM      3  C   UNL A   1      32.456  22.791  23.431  1.00  0.00     0.191 A 
ATOM      4  C   UNL A   1      31.464  23.708  23.716  1.00  0.00     0.173 A 
ATOM      5  N   UNL A   1      31.475  24.852  22.996  1.00  0.00    -0.235 NA
ATOM      6  C   UNL A   1      32.315  25.015  21.943  1.00  0.00     0.133 A 
ATOM      7  N   UNL A   1      33.281  22.942  22.334  1.00  0.00    -0.244 NA
ATOM      8  C   UNL A   1      33.167  24.030  21.567  1.00  0.00     0.132 A 
BRANCH   4   9
ATOM      9  N   UNL A   1      30.559  23.816  24.826  1.00  0.00    -0.265 N 
ATOM     10  H   UNL A   1      29.698  23.356  24.698  1.00  0.00     0.181 HD
BRANCH   9  11
ATOM     11  S   UNL A   1      30.720  24.588  26.287  1.00  0.00     0.236 S 
ATOM     12  O   UNL A   1      30.572  23.519  27.259  1.00  0.00    -0.207 OA
ATOM     13  O   UNL A   1      29.679  25.598  26.246  1.00  0.00    -0.207 OA
BRANCH  11  14
ATOM     14  C   UNL A   1      32.220  25.496  26.769  1.00  0.00     0.188 C 
BRANCH  14  15
ATOM     15  C   UNL A   1      32.460  26.941  26.327  1.00  0.00     0.178 C 
BRANCH  15  16
ATOM     16  O   UNL A   1      33.780  27.492  26.386  1.00  0.00    -0.378 OA
BRANCH  16  17
ATOM     17  C   UNL A   1      33.904  28.885  26.113  1.00  0.00     0.112 C 
ATOM     18  C   UNL A   1      32.532  29.409  25.637  1.00  0.00     0.038 C 
ATOM     19  C   UNL A   1      34.791  29.428  27.245  1.00  0.00     0.038 C 
ENDBRANCH  16  17
ENDBRANCH  15  16
ENDBRANCH  14  15
ENDBRANCH  11  14
ENDBRANCH   9  11
ENDBRANCH   4   9
ENDBRANCH   1   3
BRANCH   1  20
ATOM     20  O   UNL A   1      34.312  21.690  24.374  1.00  0.00    -0.457 OA
BRANCH  20  21
ATOM     21  C   UNL A   1      34.826  20.656  25.235  1.00  0.00     0.275 C 
BRANCH  21  22
ATOM     22  C   UNL A   1      36.313  20.386  24.968  1.00  0.00     0.275 C 
BRANCH  22  23
ATOM     23  O   UNL A   1      37.172  21.505  25.294  1.00  0.00    -0.458 OA
BRANCH  23  24
ATOM     24  C   UNL A   1      38.416  21.168  25.718  1.00  0.00     0.338 C 
ATOM     25  O   UNL A   1      39.003  20.127  25.492  1.00  0.00    -0.246 OA
BRANCH  24  26
ATOM     26  C   UNL A   1      39.092  22.293  26.397  1.00  0.00     0.060 A 
ATOM     27  C   UNL A   1      38.596  23.556  26.118  1.00  0.00     0.016 A 
ATOM     28  C   UNL A   1      40.296  22.179  27.081  1.00  0.00     0.016 A 
ATOM     29  C   UNL A   1      39.327  24.703  26.377  1.00  0.00     0.010 A 
ATOM     30  C   UNL A   1      40.977  23.349  27.479  1.00  0.00     0.010 A 
ATOM     31  C   UNL A   1      40.514  24.629  27.104  1.00  0.00    -0.014 A 
BRANCH  31  32
ATOM     32  C   UNL A   1      41.230  25.895  27.444  1.00  0.00     0.031 A 
ATOM     33  C   UNL A   1      40.617  26.899  28.386  1.00  0.00     0.074 A 
ATOM     34  C   UNL A   1      42.468  26.125  26.952  1.00  0.00     0.049 A 
ATOM     35  N   UNL A   1      41.039  28.099  28.704  1.00  0.00    -0.248 NA
ATOM     36  C   UNL A   1      39.366  26.510  29.054  1.00  0.00     0.031 C 
ATOM     37  C   UNL A   1      43.223  25.215  26.082  1.00  0.00     0.029 A 
ATOM     38  N   UNL A   1      43.326  27.185  27.128  1.00  0.00    -0.354 N 
ATOM     39  C   UNL A   1      40.079  28.626  29.560  1.00  0.00     0.074 A 
ATOM     40  C   UNL A   1      39.049  27.620  29.707  1.00  0.00     0.031 C 
ATOM     41  C   UNL A   1      44.439  25.726  25.850  1.00  0.00     0.029 A 
ATOM     42  C   UNL A   1      44.515  27.050  26.449  1.00  0.00     0.049 A 
ATOM     43  H   UNL A   1      43.110  27.967  27.686  1.00  0.00     0.167 HD
ATOM     44  C   UNL A   1      40.054  29.840  30.164  1.00  0.00     0.031 A 
ATOM     45  C   UNL A   1      45.537  27.910  26.275  1.00  0.00     0.031 A 
ATOM     46  C   UNL A   1      41.092  30.831  30.034  1.00  0.00     0.049 A 
ATOM     47  C   UNL A   1      45.446  29.277  26.887  1.00  0.00     0.074 A 
ATOM     48  C   UNL A   1      41.159  32.090  30.609  1.00  0.00     0.029 A 
ATOM     49  N   UNL A   1      42.246  30.675  29.281  1.00  0.00    -0.354 N 
ATOM     50  N   UNL A   1      44.511  29.774  27.660  1.00  0.00    -0.248 NA
ATOM     51  C   UNL A   1      46.546  30.204  26.591  1.00  0.00     0.031 C 
ATOM     52  C   UNL A   1      42.322  32.718  30.153  1.00  0.00     0.029 A 
ATOM     53  C   UNL A   1      43.017  31.825  29.353  1.00  0.00     0.049 A 
ATOM     54  H   UNL A   1      42.482  29.867  28.772  1.00  0.00     0.167 HD
ATOM     55  C   UNL A   1      44.919  31.067  27.957  1.00  0.00     0.074 A 
ATOM     56  C   UNL A   1      46.198  31.264  27.307  1.00  0.00     0.031 C 
ATOM     57  C   UNL A   1      44.286  32.009  28.697  1.00  0.00     0.031 A 
BRANCH  44  58
ATOM     58  C   UNL A   1      38.835  30.190  30.976  1.00  0.00    -0.014 A 
ATOM     59  C   UNL A   1      37.698  30.772  30.395  1.00  0.00     0.009 A 
ATOM     60  C   UNL A   1      38.817  29.900  32.351  1.00  0.00     0.009 A 
ATOM     61  C   UNL A   1      36.585  31.089  31.181  1.00  0.00     0.001 A 
ATOM     62  C   UNL A   1      37.694  30.188  33.126  1.00  0.00     0.001 A 
ATOM     63  C   UNL A   1      36.582  30.793  32.543  1.00  0.00     0.000 A 
ENDBRANCH  44  58
BRANCH  45  64
ATOM     64  C   UNL A   1      46.700  27.532  25.423  1.00  0.00    -0.014 A 
ATOM     65  C   UNL A   1      46.766  27.925  24.078  1.00  0.00     0.009 A 
ATOM     66  C   UNL A   1      47.745  26.754  25.950  1.00  0.00     0.009 A 
ATOM     67  C   UNL A   1      47.838  27.527  23.275  1.00  0.00     0.001 A 
ATOM     68  C   UNL A   1      48.835  26.391  25.157  1.00  0.00     0.001 A 
ATOM     69  C   UNL A   1      48.875  26.767  23.817  1.00  0.00     0.000 A 
ENDBRANCH  45  64
BRANCH  57  70
ATOM     70  C   UNL A   1      44.994  33.324  28.874  1.00  0.00    -0.014 A 
ATOM     71  C   UNL A   1      45.873  33.545  29.946  1.00  0.00     0.009 A 
ATOM     72  C   UNL A   1      44.785  34.353  27.943  1.00  0.00     0.009 A 
ATOM     73  C   UNL A   1      46.493  34.786  30.106  1.00  0.00     0.001 A 
ATOM     74  C   UNL A   1      45.435  35.580  28.084  1.00  0.00     0.001 A 
ATOM     75  C   UNL A   1      46.278  35.799  29.172  1.00  0.00     0.000 A 
ENDBRANCH  57  70
ENDBRANCH  31  32
ENDBRANCH  24  26
ENDBRANCH  23  24
ENDBRANCH  22  23
ENDBRANCH  21  22
ENDBRANCH  20  21
ENDBRANCH   1  20
TORSDOF 17
ENDMDL
MODEL 3
REMARK VINA RESULT:      -9.4      3.303      6.925
REMARK SMILES CC(C)OCCS(=O)(=O)Nc1nccnc1C(=O)OCCOC(=O)c1ccc(-c2c3nc(c(-c4ccccc4)c4ccc([nH]4)c(-c4ccccc4)c4nc(c(-c5ccccc5)c5ccc2[nH]5)C=C4)C=C3)cc1
REMARK SMILES IDX 17 1 18 2 16 3 11 4 12 5 13 6 15 7 14 8 10 9 7 11 8 12 9 13
REMARK SMILES IDX 6 14 5 15 4 16 2 17 1 18 3 19 19 20 20 21 21 22 22 23 23 24
REMARK SMILES IDX 24 25 25 26 26 27 72 28 27 29 71 30 28 31 29 32 30 33 65 34
REMARK SMILES IDX 31 35 70 36 64 37 66 38 32 39 69 40 63 41 62 42 33 44 55 45
REMARK SMILES IDX 40 46 54 47 41 48 44 49 53 50 67 51 42 52 43 53 52 55 68 56
REMARK SMILES IDX 45 57 34 58 35 59 39 60 36 61 38 62 37 63 56 64 57 65 61 66
REMARK SMILES IDX 58 67 60 68 59 69 46 70 47 71 51 72 48 73 50 74 49 75
REMARK H PARENT 10 10 66 43 44 54
REMARK Flexibility Score: inf
ROOT
ATOM      1  C   UNL A   1      34.018  22.305  23.832  1.00  0.00     0.360 C 
ATOM      2  O   UNL A   1      33.269  22.783  22.984  1.00  0.00    -0.244 OA
ENDROOT
BRANCH   1   3
ATOM      3  C   UNL A   1      33.630  21.126  24.633  1.00  0.00     0.191 A 
ATOM      4  C   UNL A   1      32.474  21.000  25.377  1.00  0.00     0.173 A 
ATOM      5  N   UNL A   1      32.044  19.739  25.615  1.00  0.00    -0.235 NA
ATOM      6  C   UNL A   1      32.797  18.662  25.278  1.00  0.00     0.133 A 
ATOM      7  N   UNL A   1      34.413  20.030  24.329  1.00  0.00    -0.244 NA
ATOM      8  C   UNL A   1      34.015  18.811  24.702  1.00  0.00     0.132 A 
BRANCH   4   9
ATOM      9  N   UNL A   1      31.465  21.955  25.738  1.00  0.00    -0.265 N 
ATOM     10  H   UNL A   1      30.619  21.864  25.242  1.00  0.00     0.181 HD
BRANCH   9  11
ATOM     11  S   UNL A   1      31.485  23.189  26.849  1.00  0.00     0.236 S 
ATOM     12  O   UNL A   1      32.461  22.751  27.831  1.00  0.00    -0.207 OA
ATOM     13  O   UNL A   1      30.101  23.273  27.279  1.00  0.00    -0.207 OA
BRANCH  11  14
ATOM     14  C   UNL A   1      31.937  24.898  26.425  1.00  0.00     0.188 C 
BRANCH  14  15
ATOM     15  C   UNL A   1      31.651  25.483  25.039  1.00  0.00     0.178 C 
BRANCH  15  16
ATOM     16  O   UNL A   1      30.326  25.419  24.501  1.00  0.00    -0.378 OA
BRANCH  16  17
ATOM     17  C   UNL A   1      29.833  26.601  23.876  1.00  0.00     0.112 C 
ATOM     18  C   UNL A   1      28.290  26.565  23.917  1.00  0.00     0.038 C 
ATOM     19  C   UNL A   1      30.774  27.719  24.355  1.00  0.00     0.038 C 
ENDBRANCH  16  17
ENDBRANCH  15  16
ENDBRANCH  14  15
ENDBRANCH  11  14
ENDBRANCH   9  11
ENDBRANCH   4   9
ENDBRANCH   1   3
BRANCH   1  20
ATOM     20  O   UNL A   1      35.272  22.722  24.085  1.00  0.00    -0.457 OA
BRANCH  20  21
ATOM     21  C   UNL A   1      35.343  23.780  25.059  1.00  0.00     0.275 C 
BRANCH  21  22
ATOM     22  C   UNL A   1      36.487  23.553  26.058  1.00  0.00     0.275 C 
BRANCH  22  23
ATOM     23  O   UNL A   1      37.793  23.485  25.436  1.00  0.00    -0.458 OA
BRANCH  23  24
ATOM     24  C   UNL A   1      38.804  23.125  26.266  1.00  0.00     0.338 C 
ATOM     25  O   UNL A   1      39.225  21.999  26.452  1.00  0.00    -0.246 OA
BRANCH  24  26
ATOM     26  C   UNL A   1      39.483  24.300  26.851  1.00  0.00     0.060 A 
ATOM     27  C   UNL A   1      39.257  24.521  28.200  1.00  0.00     0.016 A 
ATOM     28  C   UNL A   1      40.115  25.286  26.104  1.00  0.00     0.016 A 
ATOM     29  C   UNL A   1      39.515  25.746  28.794  1.00  0.00     0.010 A 
ATOM     30  C   UNL A   1      40.514  26.483  26.738  1.00  0.00     0.010 A 
ATOM     31  C   UNL A   1      40.190  26.739  28.087  1.00  0.00    -0.014 A 
BRANCH  31  32
ATOM     32  C   UNL A   1      40.534  28.013  28.788  1.00  0.00     0.031 A 
ATOM     33  C   UNL A   1      41.915  28.241  29.344  1.00  0.00     0.074 A 
ATOM     34  C   UNL A   1      39.616  29.002  28.878  1.00  0.00     0.049 A 
ATOM     35  N   UNL A   1      42.357  29.231  30.080  1.00  0.00    -0.248 NA
ATOM     36  C   UNL A   1      42.932  27.222  29.041  1.00  0.00     0.031 C 
ATOM     37  C   UNL A   1      38.257  28.959  28.327  1.00  0.00     0.029 A 
ATOM     38  N   UNL A   1      39.691  30.253  29.446  1.00  0.00    -0.354 N 
ATOM     39  C   UNL A   1      43.681  28.927  30.374  1.00  0.00     0.074 A 
ATOM     40  C   UNL A   1      43.970  27.656  29.743  1.00  0.00     0.031 C 
ATOM     41  C   UNL A   1      37.653  30.137  28.534  1.00  0.00     0.029 A 
ATOM     42  C   UNL A   1      38.529  30.980  29.333  1.00  0.00     0.049 A 
ATOM     43  H   UNL A   1      40.500  30.595  29.892  1.00  0.00     0.167 HD
ATOM     44  C   UNL A   1      44.574  29.637  31.107  1.00  0.00     0.031 A 
ATOM     45  C   UNL A   1      38.175  32.170  29.856  1.00  0.00     0.031 A 
ATOM     46  C   UNL A   1      44.291  30.913  31.714  1.00  0.00     0.049 A 
ATOM     47  C   UNL A   1      39.154  32.896  30.731  1.00  0.00     0.074 A 
ATOM     48  C   UNL A   1      45.130  31.713  32.473  1.00  0.00     0.029 A 
ATOM     49  N   UNL A   1      43.077  31.579  31.629  1.00  0.00    -0.354 N 
ATOM     50  N   UNL A   1      40.388  32.574  31.032  1.00  0.00    -0.248 NA
ATOM     51  C   UNL A   1      38.685  34.144  31.348  1.00  0.00     0.031 C 
ATOM     52  C   UNL A   1      44.405  32.830  32.898  1.00  0.00     0.029 A 
ATOM     53  C   UNL A   1      43.136  32.764  32.345  1.00  0.00     0.049 A 
ATOM     54  H   UNL A   1      42.291  31.257  31.132  1.00  0.00     0.167 HD
ATOM     55  C   UNL A   1      40.850  33.588  31.860  1.00  0.00     0.074 A 
ATOM     56  C   UNL A   1      39.774  34.549  31.986  1.00  0.00     0.031 C 
ATOM     57  C   UNL A   1      42.055  33.709  32.466  1.00  0.00     0.031 A 
BRANCH  44  58
ATOM     58  C   UNL A   1      45.928  29.023  31.344  1.00  0.00    -0.014 A 
ATOM     59  C   UNL A   1      46.177  28.172  32.431  1.00  0.00     0.009 A 
ATOM     60  C   UNL A   1      46.969  29.280  30.436  1.00  0.00     0.009 A 
ATOM     61  C   UNL A   1      47.449  27.623  32.624  1.00  0.00     0.001 A 
ATOM     62  C   UNL A   1      48.228  28.706  30.612  1.00  0.00     0.001 A 
ATOM     63  C   UNL A   1      48.471  27.886  31.713  1.00  0.00     0.000 A 
ENDBRANCH  44  58
BRANCH  45  64
ATOM     64  C   UNL A   1      36.806  32.712  29.630  1.00  0.00    -0.014 A 
ATOM     65  C   UNL A   1      36.516  33.485  28.496  1.00  0.00     0.009 A 
ATOM     66  C   UNL A   1      35.784  32.475  30.564  1.00  0.00     0.009 A 
ATOM     67  C   UNL A   1      35.240  34.028  28.316  1.00  0.00     0.001 A 
ATOM     68  C   UNL A   1      34.500  32.985  30.362  1.00  0.00     0.001 A 
ATOM     69  C   UNL A   1      34.232  33.771  29.245  1.00  0.00     0.000 A 
ENDBRANCH  45  64
BRANCH  57  70
ATOM     70  C   UNL A   1      42.283  34.948  33.287  1.00  0.00    -0.014 A 
ATOM     71  C   UNL A   1      41.797  35.057  34.600  1.00  0.00     0.009 A 
ATOM     72  C   UNL A   1      43.008  36.018  32.740  1.00  0.00     0.009 A 
ATOM     73  C   UNL A   1      41.995  36.231  35.330  1.00  0.00     0.001 A 
ATOM     74  C   UNL A   1      43.237  37.175  33.485  1.00  0.00     0.001 A 
ATOM     75  C   UNL A   1      42.719  37.285  34.774  1.00  0.00     0.000 A 
ENDBRANCH  57  70
ENDBRANCH  31  32
ENDBRANCH  24  26
ENDBRANCH  23  24
ENDBRANCH  22  23
ENDBRANCH  21  22
ENDBRANCH  20  21
ENDBRANCH   1  20
TORSDOF 17
ENDMDL
