MODEL 1
REMARK VINA RESULT:     -12.7      0.000      0.000
REMARK SMILES Cc1cccc(-c2ncc(C[NH+]3CCC4(CC3)NC(=O)C[C@H]4C(=O)OCCOC(=O)c3ccc(-c4c5nc(c(-c6ccccc6)c6ccc([nH]6)c(-c6ccccc6)c6nc(c(-c7ccccc7)c7ccc4[nH]7)C=C6)C=C5)cc3)cn2)c1
REMARK SMILES IDX 26 1 25 2 23 3 24 4 22 5 12 6 13 7 17 8 14 10 16 11 15 12
REMARK SMILES IDX 18 13 19 14 21 16 20 17 11 18 10 19 7 20 8 21 80 22 9 23
REMARK SMILES IDX 79 24 6 25 1 26 2 27 3 28 81 29 4 30 5 31 27 32 28 33 29 34
REMARK SMILES IDX 30 35 31 36 32 37 78 38 33 39 77 40 34 41 35 42 36 43 71 44
REMARK SMILES IDX 37 45 76 46 70 47 72 48 38 49 75 50 69 51 68 52 39 54 61 55
REMARK SMILES IDX 46 56 60 57 47 58 50 59 59 60 73 61 48 62 49 63 58 65 74 66
REMARK SMILES IDX 51 67 40 68 41 69 45 70 42 71 44 72 43 73 62 74 63 75 67 76
REMARK SMILES IDX 64 77 66 78 65 79 52 80 53 81 57 82 54 83 56 84 55 85
REMARK H PARENT 12 9 18 15 72 53 50 64
REMARK Flexibility Score: inf
ROOT
ATOM      1  C   UNL A   1      35.047  21.642  25.788  1.00  0.00     0.274 C 
ENDROOT
BRANCH   1   2
ATOM      2  O   UNL A   1      34.547  23.033  25.815  1.00  0.00    -0.462 OA
BRANCH   2   3
ATOM      3  C   UNL A   1      34.454  23.638  24.631  1.00  0.00     0.311 C 
ATOM      4  O   UNL A   1      35.486  23.986  24.080  1.00  0.00    -0.252 OA
BRANCH   3   5
ATOM      5  C   UNL A   1      33.161  23.833  23.853  1.00  0.00     0.134 C 
ATOM      6  N   UNL A   1      32.728  27.486  25.729  1.00  0.00    -0.331 N 
ATOM      7  C   UNL A   1      31.509  27.037  25.053  1.00  0.00     0.264 C 
ATOM      8  C   UNL A   1      33.705  26.438  25.675  1.00  0.00     0.264 C 
ATOM      9  H   UNL A   1      32.333  27.683  26.649  1.00  0.00     0.348 HD
ATOM     10  C   UNL A   1      31.588  26.008  23.857  1.00  0.00     0.091 C 
ATOM     11  C   UNL A   1      34.027  26.147  24.194  1.00  0.00     0.091 C 
ATOM     12  C   UNL A   1      32.955  25.326  23.531  1.00  0.00     0.064 C 
ATOM     13  N   UNL A   1      33.125  25.332  22.086  1.00  0.00    -0.349 N 
ATOM     14  C   UNL A   1      33.166  24.099  21.508  1.00  0.00     0.221 C 
ATOM     15  H   UNL A   1      33.203  26.164  21.566  1.00  0.00     0.164 HD
ATOM     16  C   UNL A   1      32.985  23.065  22.557  1.00  0.00     0.117 C 
ATOM     17  O   UNL A   1      33.280  23.884  20.298  1.00  0.00    -0.275 OA
BRANCH   6  18
ATOM     18  C   UNL A   1      33.312  28.837  25.621  1.00  0.00     0.302 C 
BRANCH  18  19
ATOM     19  C   UNL A   1      33.758  29.490  26.919  1.00  0.00     0.043 A 
ATOM     20  C   UNL A   1      35.169  31.190  28.533  1.00  0.00     0.159 A 
ATOM     21  N   UNL A   1      33.992  31.619  28.026  1.00  0.00    -0.236 NA
ATOM     22  N   UNL A   1      35.623  29.923  28.420  1.00  0.00    -0.236 NA
ATOM     23  C   UNL A   1      33.296  30.746  27.259  1.00  0.00     0.124 A 
ATOM     24  C   UNL A   1      34.896  29.093  27.622  1.00  0.00     0.124 A 
BRANCH  20  25
ATOM     25  C   UNL A   1      36.035  32.201  29.175  1.00  0.00     0.019 A 
ATOM     26  C   UNL A   1      36.115  34.585  32.218  1.00  0.00     0.044 C 
ATOM     27  C   UNL A   1      36.519  33.821  30.986  1.00  0.00    -0.050 A 
ATOM     28  C   UNL A   1      37.818  33.961  30.501  1.00  0.00     0.003 A 
ATOM     29  C   UNL A   1      35.639  32.950  30.311  1.00  0.00     0.015 A 
ATOM     30  C   UNL A   1      38.218  33.269  29.359  1.00  0.00     0.001 A 
ATOM     31  C   UNL A   1      37.333  32.409  28.700  1.00  0.00     0.012 A 
ENDBRANCH  20  25
ENDBRANCH  18  19
ENDBRANCH   6  18
ENDBRANCH   3   5
ENDBRANCH   2   3
ENDBRANCH   1   2
BRANCH   1  32
ATOM     32  C   UNL A   1      36.544  21.165  25.436  1.00  0.00     0.275 C 
BRANCH  32  33
ATOM     33  O   UNL A   1      37.882  21.849  25.551  1.00  0.00    -0.458 OA
BRANCH  33  34
ATOM     34  C   UNL A   1      39.113  21.514  26.055  1.00  0.00     0.338 C 
ATOM     35  O   UNL A   1      39.662  20.436  25.881  1.00  0.00    -0.246 OA
BRANCH  34  36
ATOM     36  C   UNL A   1      39.728  22.558  26.878  1.00  0.00     0.060 A 
ATOM     37  C   UNL A   1      40.783  22.317  27.787  1.00  0.00     0.016 A 
ATOM     38  C   UNL A   1      39.389  23.828  26.472  1.00  0.00     0.016 A 
ATOM     39  C   UNL A   1      41.571  23.392  28.208  1.00  0.00     0.010 A 
ATOM     40  C   UNL A   1      40.319  24.802  26.647  1.00  0.00     0.010 A 
ATOM     41  C   UNL A   1      41.344  24.620  27.587  1.00  0.00    -0.014 A 
BRANCH  41  42
ATOM     42  C   UNL A   1      41.658  25.926  28.133  1.00  0.00     0.031 A 
ATOM     43  C   UNL A   1      40.581  26.823  28.591  1.00  0.00     0.074 A 
ATOM     44  C   UNL A   1      42.974  25.902  28.473  1.00  0.00     0.049 A 
ATOM     45  N   UNL A   1      40.492  28.082  28.315  1.00  0.00    -0.248 NA
ATOM     46  C   UNL A   1      39.421  26.331  29.359  1.00  0.00     0.031 C 
ATOM     47  C   UNL A   1      43.775  26.632  29.427  1.00  0.00     0.029 A 
ATOM     48  N   UNL A   1      43.923  24.984  28.005  1.00  0.00    -0.354 N 
ATOM     49  C   UNL A   1      39.580  28.576  29.236  1.00  0.00     0.074 A 
ATOM     50  C   UNL A   1      38.746  27.460  29.609  1.00  0.00     0.031 C 
ATOM     51  C   UNL A   1      45.082  26.411  29.140  1.00  0.00     0.029 A 
ATOM     52  C   UNL A   1      45.161  25.564  27.948  1.00  0.00     0.049 A 
ATOM     53  H   UNL A   1      43.726  24.054  27.751  1.00  0.00     0.167 HD
ATOM     54  C   UNL A   1      39.920  29.634  30.033  1.00  0.00     0.031 A 
ATOM     55  C   UNL A   1      45.626  25.879  26.700  1.00  0.00     0.031 A 
ATOM     56  C   UNL A   1      41.355  29.888  29.928  1.00  0.00     0.049 A 
ATOM     57  C   UNL A   1      45.468  27.371  26.531  1.00  0.00     0.074 A 
ATOM     58  C   UNL A   1      42.399  29.560  30.776  1.00  0.00     0.029 A 
ATOM     59  N   UNL A   1      41.920  30.205  28.703  1.00  0.00    -0.354 N 
ATOM     60  N   UNL A   1      44.497  28.069  27.059  1.00  0.00    -0.248 NA
ATOM     61  C   UNL A   1      46.457  28.194  25.852  1.00  0.00     0.031 C 
ATOM     62  C   UNL A   1      43.606  29.677  30.041  1.00  0.00     0.029 A 
ATOM     63  C   UNL A   1      43.288  30.021  28.738  1.00  0.00     0.049 A 
ATOM     64  H   UNL A   1      41.416  30.517  27.916  1.00  0.00     0.167 HD
ATOM     65  C   UNL A   1      44.801  29.396  26.956  1.00  0.00     0.074 A 
ATOM     66  C   UNL A   1      46.008  29.426  26.144  1.00  0.00     0.031 C 
ATOM     67  C   UNL A   1      44.096  30.381  27.585  1.00  0.00     0.031 A 
BRANCH  54  68
ATOM     68  C   UNL A   1      39.093  30.166  31.185  1.00  0.00    -0.014 A 
ATOM     69  C   UNL A   1      39.649  31.129  32.052  1.00  0.00     0.009 A 
ATOM     70  C   UNL A   1      37.748  29.828  31.416  1.00  0.00     0.009 A 
ATOM     71  C   UNL A   1      38.932  31.682  33.119  1.00  0.00     0.001 A 
ATOM     72  C   UNL A   1      37.027  30.369  32.496  1.00  0.00     0.001 A 
ATOM     73  C   UNL A   1      37.621  31.294  33.348  1.00  0.00     0.000 A 
ENDBRANCH  54  68
BRANCH  55  74
ATOM     74  C   UNL A   1      45.327  24.845  25.632  1.00  0.00    -0.014 A 
ATOM     75  C   UNL A   1      46.345  23.924  25.281  1.00  0.00     0.009 A 
ATOM     76  C   UNL A   1      44.033  24.571  25.161  1.00  0.00     0.009 A 
ATOM     77  C   UNL A   1      46.067  22.736  24.588  1.00  0.00     0.001 A 
ATOM     78  C   UNL A   1      43.761  23.392  24.434  1.00  0.00     0.001 A 
ATOM     79  C   UNL A   1      44.770  22.464  24.173  1.00  0.00     0.000 A 
ENDBRANCH  55  74
BRANCH  67  80
ATOM     80  C   UNL A   1      44.162  31.840  27.232  1.00  0.00    -0.014 A 
ATOM     81  C   UNL A   1      44.151  32.311  25.917  1.00  0.00     0.009 A 
ATOM     82  C   UNL A   1      44.052  32.805  28.260  1.00  0.00     0.009 A 
ATOM     83  C   UNL A   1      44.102  33.679  25.641  1.00  0.00     0.001 A 
ATOM     84  C   UNL A   1      43.928  34.164  27.988  1.00  0.00     0.001 A 
ATOM     85  C   UNL A   1      43.975  34.602  26.674  1.00  0.00     0.000 A 
ENDBRANCH  67  80
ENDBRANCH  41  42
ENDBRANCH  34  36
ENDBRANCH  33  34
ENDBRANCH  32  33
ENDBRANCH   1  32
TORSDOF 14
ENDMDL
MODEL 2
REMARK VINA RESULT:     -12.5      2.390      4.329
REMARK SMILES Cc1cccc(-c2ncc(C[NH+]3CCC4(CC3)NC(=O)C[C@H]4C(=O)OCCOC(=O)c3ccc(-c4c5nc(c(-c6ccccc6)c6ccc([nH]6)c(-c6ccccc6)c6nc(c(-c7ccccc7)c7ccc4[nH]7)C=C6)C=C5)cc3)cn2)c1
REMARK SMILES IDX 26 1 25 2 23 3 24 4 22 5 12 6 13 7 17 8 14 10 16 11 15 12
REMARK SMILES IDX 18 13 19 14 21 16 20 17 11 18 10 19 7 20 8 21 80 22 9 23
REMARK SMILES IDX 79 24 6 25 1 26 2 27 3 28 81 29 4 30 5 31 27 32 28 33 29 34
REMARK SMILES IDX 30 35 31 36 32 37 78 38 33 39 77 40 34 41 35 42 36 43 71 44
REMARK SMILES IDX 37 45 76 46 70 47 72 48 38 49 75 50 69 51 68 52 39 54 61 55
REMARK SMILES IDX 46 56 60 57 47 58 50 59 59 60 73 61 48 62 49 63 58 65 74 66
REMARK SMILES IDX 51 67 40 68 41 69 45 70 42 71 44 72 43 73 62 74 63 75 67 76
REMARK SMILES IDX 64 77 66 78 65 79 52 80 53 81 57 82 54 83 56 84 55 85
REMARK H PARENT 12 9 18 15 72 53 50 64
REMARK Flexibility Score: inf
ROOT
ATOM      1  C   UNL A   1      36.461  22.588  23.217  1.00  0.00     0.274 C 
ENDROOT
BRANCH   1   2
ATOM      2  O   UNL A   1      35.152  23.260  23.351  1.00  0.00    -0.462 OA
BRANCH   2   3
ATOM      3  C   UNL A   1      34.120  22.467  23.633  1.00  0.00     0.311 C 
ATOM      4  O   UNL A   1      33.341  22.194  22.733  1.00  0.00    -0.252 OA
BRANCH   3   5
ATOM      5  C   UNL A   1      33.892  21.778  24.971  1.00  0.00     0.134 C 
ATOM      6  N   UNL A   1      31.713  25.079  26.160  1.00  0.00    -0.331 N 
ATOM      7  C   UNL A   1      32.069  24.192  27.270  1.00  0.00     0.264 C 
ATOM      8  C   UNL A   1      32.365  24.619  24.967  1.00  0.00     0.264 C 
ATOM      9  H   UNL A   1      32.057  25.959  26.546  1.00  0.00     0.348 HD
ATOM     10  C   UNL A   1      32.386  22.667  27.007  1.00  0.00     0.091 C 
ATOM     11  C   UNL A   1      31.862  23.194  24.656  1.00  0.00     0.091 C 
ATOM     12  C   UNL A   1      32.510  22.159  25.536  1.00  0.00     0.064 C 
ATOM     13  N   UNL A   1      31.803  20.891  25.439  1.00  0.00    -0.349 N 
ATOM     14  C   UNL A   1      32.588  19.818  25.137  1.00  0.00     0.221 C 
ATOM     15  H   UNL A   1      30.832  20.813  25.582  1.00  0.00     0.164 HD
ATOM     16  C   UNL A   1      33.998  20.266  25.022  1.00  0.00     0.117 C 
ATOM     17  O   UNL A   1      32.192  18.654  25.033  1.00  0.00    -0.275 OA
BRANCH   6  18
ATOM     18  C   UNL A   1      30.370  25.637  25.914  1.00  0.00     0.302 C 
BRANCH  18  19
ATOM     19  C   UNL A   1      30.217  26.520  24.686  1.00  0.00     0.043 A 
ATOM     20  C   UNL A   1      29.467  28.715  23.235  1.00  0.00     0.159 A 
ATOM     21  N   UNL A   1      30.683  28.724  23.823  1.00  0.00    -0.236 NA
ATOM     22  N   UNL A   1      28.658  27.636  23.188  1.00  0.00    -0.236 NA
ATOM     23  C   UNL A   1      31.045  27.611  24.507  1.00  0.00     0.124 A 
ATOM     24  C   UNL A   1      29.060  26.551  23.908  1.00  0.00     0.124 A 
BRANCH  20  25
ATOM     25  C   UNL A   1      28.976  29.998  22.687  1.00  0.00     0.019 A 
ATOM     26  C   UNL A   1      29.107  33.800  23.378  1.00  0.00     0.044 C 
ATOM     27  C   UNL A   1      28.833  32.471  22.727  1.00  0.00    -0.050 A 
ATOM     28  C   UNL A   1      28.211  32.445  21.480  1.00  0.00     0.003 A 
ATOM     29  C   UNL A   1      29.198  31.245  23.321  1.00  0.00     0.015 A 
ATOM     30  C   UNL A   1      27.940  31.229  20.856  1.00  0.00     0.001 A 
ATOM     31  C   UNL A   1      28.309  30.021  21.459  1.00  0.00     0.012 A 
ENDBRANCH  20  25
ENDBRANCH  18  19
ENDBRANCH   6  18
ENDBRANCH   3   5
ENDBRANCH   2   3
ENDBRANCH   1   2
BRANCH   1  32
ATOM     32  C   UNL A   1      37.236  21.755  24.357  1.00  0.00     0.275 C 
BRANCH  32  33
ATOM     33  O   UNL A   1      38.033  22.183  25.563  1.00  0.00    -0.458 OA
BRANCH  33  34
ATOM     34  C   UNL A   1      39.239  21.835  26.113  1.00  0.00     0.338 C 
ATOM     35  O   UNL A   1      39.777  20.746  25.970  1.00  0.00    -0.246 OA
BRANCH  34  36
ATOM     36  C   UNL A   1      39.843  22.878  26.945  1.00  0.00     0.060 A 
ATOM     37  C   UNL A   1      40.837  22.625  27.918  1.00  0.00     0.016 A 
ATOM     38  C   UNL A   1      39.571  24.148  26.492  1.00  0.00     0.016 A 
ATOM     39  C   UNL A   1      41.636  23.684  28.357  1.00  0.00     0.010 A 
ATOM     40  C   UNL A   1      40.522  25.094  26.696  1.00  0.00     0.010 A 
ATOM     41  C   UNL A   1      41.486  24.903  27.697  1.00  0.00    -0.014 A 
BRANCH  41  42
ATOM     42  C   UNL A   1      41.814  26.211  28.229  1.00  0.00     0.031 A 
ATOM     43  C   UNL A   1      40.749  27.105  28.721  1.00  0.00     0.074 A 
ATOM     44  C   UNL A   1      43.140  26.192  28.525  1.00  0.00     0.049 A 
ATOM     45  N   UNL A   1      40.646  28.363  28.446  1.00  0.00    -0.248 NA
ATOM     46  C   UNL A   1      39.617  26.610  29.528  1.00  0.00     0.031 C 
ATOM     47  C   UNL A   1      43.970  26.927  29.450  1.00  0.00     0.029 A 
ATOM     48  N   UNL A   1      44.076  25.278  28.027  1.00  0.00    -0.354 N 
ATOM     49  C   UNL A   1      39.764  28.856  29.396  1.00  0.00     0.074 A 
ATOM     50  C   UNL A   1      38.946  27.738  29.799  1.00  0.00     0.031 C 
ATOM     51  C   UNL A   1      45.267  26.710  29.120  1.00  0.00     0.029 A 
ATOM     52  C   UNL A   1      45.309  25.861  27.928  1.00  0.00     0.049 A 
ATOM     53  H   UNL A   1      43.874  24.346  27.782  1.00  0.00     0.167 HD
ATOM     54  C   UNL A   1      40.126  29.916  30.178  1.00  0.00     0.031 A 
ATOM     55  C   UNL A   1      45.732  26.175  26.665  1.00  0.00     0.031 A 
ATOM     56  C   UNL A   1      41.556  30.176  30.025  1.00  0.00     0.049 A 
ATOM     57  C   UNL A   1      45.562  27.667  26.498  1.00  0.00     0.074 A 
ATOM     58  C   UNL A   1      42.628  29.854  30.839  1.00  0.00     0.029 A 
ATOM     59  N   UNL A   1      42.078  30.492  28.781  1.00  0.00    -0.354 N 
ATOM     60  N   UNL A   1      44.607  28.363  27.057  1.00  0.00    -0.248 NA
ATOM     61  C   UNL A   1      46.525  28.492  25.784  1.00  0.00     0.031 C 
ATOM     62  C   UNL A   1      43.811  29.973  30.064  1.00  0.00     0.029 A 
ATOM     63  C   UNL A   1      43.447  30.314  28.772  1.00  0.00     0.049 A 
ATOM     64  H   UNL A   1      41.548  30.800  28.012  1.00  0.00     0.167 HD
ATOM     65  C   UNL A   1      44.903  29.691  26.941  1.00  0.00     0.074 A 
ATOM     66  C   UNL A   1      46.082  29.723  26.089  1.00  0.00     0.031 C 
ATOM     67  C   UNL A   1      44.216  30.674  27.591  1.00  0.00     0.031 A 
BRANCH  54  68
ATOM     68  C   UNL A   1      39.337  30.449  31.357  1.00  0.00    -0.014 A 
ATOM     69  C   UNL A   1      38.045  30.974  31.148  1.00  0.00     0.009 A 
ATOM     70  C   UNL A   1      39.770  30.383  32.694  1.00  0.00     0.009 A 
ATOM     71  C   UNL A   1      37.252  31.457  32.195  1.00  0.00     0.001 A 
ATOM     72  C   UNL A   1      38.984  30.881  33.748  1.00  0.00     0.001 A 
ATOM     73  C   UNL A   1      37.726  31.419  33.498  1.00  0.00     0.000 A 
ENDBRANCH  54  68
BRANCH  55  74
ATOM     74  C   UNL A   1      45.401  25.139  25.609  1.00  0.00    -0.014 A 
ATOM     75  C   UNL A   1      46.428  24.262  25.178  1.00  0.00     0.009 A 
ATOM     76  C   UNL A   1      44.089  24.815  25.226  1.00  0.00     0.009 A 
ATOM     77  C   UNL A   1      46.152  23.069  24.494  1.00  0.00     0.001 A 
ATOM     78  C   UNL A   1      43.815  23.632  24.508  1.00  0.00     0.001 A 
ATOM     79  C   UNL A   1      44.840  22.748  24.168  1.00  0.00     0.000 A 
ENDBRANCH  55  74
BRANCH  67  80
ATOM     80  C   UNL A   1      44.264  32.132  27.233  1.00  0.00    -0.014 A 
ATOM     81  C   UNL A   1      44.104  32.607  25.929  1.00  0.00     0.009 A 
ATOM     82  C   UNL A   1      44.296  33.096  28.268  1.00  0.00     0.009 A 
ATOM     83  C   UNL A   1      44.047  33.976  25.662  1.00  0.00     0.001 A 
ATOM     84  C   UNL A   1      44.164  34.458  28.013  1.00  0.00     0.001 A 
ATOM     85  C   UNL A   1      44.061  34.899  26.703  1.00  0.00     0.000 A 
ENDBRANCH  67  80
ENDBRANCH  41  42
ENDBRANCH  34  36
ENDBRANCH  33  34
ENDBRANCH  32  33
ENDBRANCH   1  32
TORSDOF 14
ENDMDL
MODEL 3
REMARK VINA RESULT:     -12.4      1.464      2.144
REMARK SMILES Cc1cccc(-c2ncc(C[NH+]3CCC4(CC3)NC(=O)C[C@H]4C(=O)OCCOC(=O)c3ccc(-c4c5nc(c(-c6ccccc6)c6ccc([nH]6)c(-c6ccccc6)c6nc(c(-c7ccccc7)c7ccc4[nH]7)C=C6)C=C5)cc3)cn2)c1
REMARK SMILES IDX 26 1 25 2 23 3 24 4 22 5 12 6 13 7 17 8 14 10 16 11 15 12
REMARK SMILES IDX 18 13 19 14 21 16 20 17 11 18 10 19 7 20 8 21 80 22 9 23
REMARK SMILES IDX 79 24 6 25 1 26 2 27 3 28 81 29 4 30 5 31 27 32 28 33 29 34
REMARK SMILES IDX 30 35 31 36 32 37 78 38 33 39 77 40 34 41 35 42 36 43 71 44
REMARK SMILES IDX 37 45 76 46 70 47 72 48 38 49 75 50 69 51 68 52 39 54 61 55
REMARK SMILES IDX 46 56 60 57 47 58 50 59 59 60 73 61 48 62 49 63 58 65 74 66
REMARK SMILES IDX 51 67 40 68 41 69 45 70 42 71 44 72 43 73 62 74 63 75 67 76
REMARK SMILES IDX 64 77 66 78 65 79 52 80 53 81 57 82 54 83 56 84 55 85
REMARK H PARENT 12 9 18 15 72 53 50 64
REMARK Flexibility Score: inf
ROOT
ATOM      1  C   UNL A   1      36.058  22.213  24.008  1.00  0.00     0.274 C 
ENDROOT
BRANCH   1   2
ATOM      2  O   UNL A   1      35.047  23.030  24.711  1.00  0.00    -0.462 OA
BRANCH   2   3
ATOM      3  C   UNL A   1      34.514  22.479  25.801  1.00  0.00     0.311 C 
ATOM      4  O   UNL A   1      35.016  22.743  26.882  1.00  0.00    -0.252 OA
BRANCH   3   5
ATOM      5  C   UNL A   1      33.251  21.630  25.819  1.00  0.00     0.134 C 
ATOM      6  N   UNL A   1      31.084  25.084  26.470  1.00  0.00    -0.331 N 
ATOM      7  C   UNL A   1      30.313  23.864  26.717  1.00  0.00     0.264 C 
ATOM      8  C   UNL A   1      32.450  24.729  26.211  1.00  0.00     0.264 C 
ATOM      9  H   UNL A   1      30.907  25.563  27.353  1.00  0.00     0.348 HD
ATOM     10  C   UNL A   1      30.722  22.503  26.027  1.00  0.00     0.091 C 
ATOM     11  C   UNL A   1      32.492  23.841  24.950  1.00  0.00     0.091 C 
ATOM     12  C   UNL A   1      32.067  22.426  25.237  1.00  0.00     0.064 C 
ATOM     13  N   UNL A   1      31.818  21.705  23.998  1.00  0.00    -0.349 N 
ATOM     14  C   UNL A   1      32.488  20.524  23.878  1.00  0.00     0.221 C 
ATOM     15  H   UNL A   1      31.213  22.043  23.301  1.00  0.00     0.164 HD
ATOM     16  C   UNL A   1      33.283  20.289  25.109  1.00  0.00     0.117 C 
ATOM     17  O   UNL A   1      32.399  19.750  22.921  1.00  0.00    -0.275 OA
BRANCH   6  18
ATOM     18  C   UNL A   1      30.620  26.239  25.677  1.00  0.00     0.302 C 
BRANCH  18  19
ATOM     19  C   UNL A   1      31.266  27.579  25.987  1.00  0.00     0.043 A 
ATOM     20  C   UNL A   1      33.239  29.310  26.759  1.00  0.00     0.159 A 
ATOM     21  N   UNL A   1      33.154  28.981  25.451  1.00  0.00    -0.236 NA
ATOM     22  N   UNL A   1      32.323  28.961  27.687  1.00  0.00    -0.236 NA
ATOM     23  C   UNL A   1      32.147  28.150  25.089  1.00  0.00     0.124 A 
ATOM     24  C   UNL A   1      31.344  28.110  27.275  1.00  0.00     0.124 A 
BRANCH  20  25
ATOM     25  C   UNL A   1      34.458  30.024  27.195  1.00  0.00     0.019 A 
ATOM     26  C   UNL A   1      35.600  33.467  28.535  1.00  0.00     0.044 C 
ATOM     27  C   UNL A   1      35.604  32.026  28.099  1.00  0.00    -0.050 A 
ATOM     28  C   UNL A   1      36.773  31.281  28.241  1.00  0.00     0.003 A 
ATOM     29  C   UNL A   1      34.463  31.391  27.568  1.00  0.00     0.015 A 
ATOM     30  C   UNL A   1      36.807  29.947  27.841  1.00  0.00     0.001 A 
ATOM     31  C   UNL A   1      35.666  29.331  27.315  1.00  0.00     0.012 A 
ENDBRANCH  20  25
ENDBRANCH  18  19
ENDBRANCH   6  18
ENDBRANCH   3   5
ENDBRANCH   2   3
ENDBRANCH   1   2
BRANCH   1  32
ATOM     32  C   UNL A   1      37.388  21.568  24.647  1.00  0.00     0.275 C 
BRANCH  32  33
ATOM     33  O   UNL A   1      38.188  21.903  25.880  1.00  0.00    -0.458 OA
BRANCH  33  34
ATOM     34  C   UNL A   1      39.467  21.665  26.312  1.00  0.00     0.338 C 
ATOM     35  O   UNL A   1      40.089  20.635  26.097  1.00  0.00    -0.246 OA
BRANCH  34  36
ATOM     36  C   UNL A   1      40.043  22.751  27.108  1.00  0.00     0.060 A 
ATOM     37  C   UNL A   1      41.053  22.558  28.078  1.00  0.00     0.016 A 
ATOM     38  C   UNL A   1      39.725  23.998  26.622  1.00  0.00     0.016 A 
ATOM     39  C   UNL A   1      41.821  23.654  28.480  1.00  0.00     0.010 A 
ATOM     40  C   UNL A   1      40.646  24.980  26.790  1.00  0.00     0.010 A 
ATOM     41  C   UNL A   1      41.625  24.849  27.786  1.00  0.00    -0.014 A 
BRANCH  41  42
ATOM     42  C   UNL A   1      41.914  26.182  28.279  1.00  0.00     0.031 A 
ATOM     43  C   UNL A   1      40.823  27.065  28.729  1.00  0.00     0.074 A 
ATOM     44  C   UNL A   1      43.237  26.205  28.591  1.00  0.00     0.049 A 
ATOM     45  N   UNL A   1      40.692  28.310  28.411  1.00  0.00    -0.248 NA
ATOM     46  C   UNL A   1      39.693  26.569  29.538  1.00  0.00     0.031 C 
ATOM     47  C   UNL A   1      44.037  26.991  29.500  1.00  0.00     0.029 A 
ATOM     48  N   UNL A   1      44.201  25.298  28.134  1.00  0.00    -0.354 N 
ATOM     49  C   UNL A   1      39.787  28.812  29.333  1.00  0.00     0.074 A 
ATOM     50  C   UNL A   1      38.992  27.687  29.764  1.00  0.00     0.031 C 
ATOM     51  C   UNL A   1      45.344  26.795  29.192  1.00  0.00     0.029 A 
ATOM     52  C   UNL A   1      45.421  25.908  28.030  1.00  0.00     0.049 A 
ATOM     53  H   UNL A   1      44.025  24.354  27.918  1.00  0.00     0.167 HD
ATOM     54  C   UNL A   1      40.113  29.906  30.084  1.00  0.00     0.031 A 
ATOM     55  C   UNL A   1      45.851  26.191  26.762  1.00  0.00     0.031 A 
ATOM     56  C   UNL A   1      41.538  30.196  29.939  1.00  0.00     0.049 A 
ATOM     57  C   UNL A   1      45.647  27.672  26.543  1.00  0.00     0.074 A 
ATOM     58  C   UNL A   1      42.608  29.927  30.775  1.00  0.00     0.029 A 
ATOM     59  N   UNL A   1      42.068  30.484  28.692  1.00  0.00    -0.354 N 
ATOM     60  N   UNL A   1      44.669  28.362  27.068  1.00  0.00    -0.248 NA
ATOM     61  C   UNL A   1      46.599  28.496  25.814  1.00  0.00     0.031 C 
ATOM     62  C   UNL A   1      43.796  30.050  30.010  1.00  0.00     0.029 A 
ATOM     63  C   UNL A   1      43.441  30.339  28.703  1.00  0.00     0.049 A 
ATOM     64  H   UNL A   1      41.539  30.753  27.906  1.00  0.00     0.167 HD
ATOM     65  C   UNL A   1      44.934  29.692  26.911  1.00  0.00     0.074 A 
ATOM     66  C   UNL A   1      46.122  29.726  26.073  1.00  0.00     0.031 C 
ATOM     67  C   UNL A   1      44.215  30.679  27.521  1.00  0.00     0.031 A 
BRANCH  54  68
ATOM     68  C   UNL A   1      39.296  30.457  31.235  1.00  0.00    -0.014 A 
ATOM     69  C   UNL A   1      39.250  29.752  32.455  1.00  0.00     0.009 A 
ATOM     70  C   UNL A   1      38.628  31.695  31.209  1.00  0.00     0.009 A 
ATOM     71  C   UNL A   1      38.538  30.218  33.566  1.00  0.00     0.001 A 
ATOM     72  C   UNL A   1      37.898  32.161  32.317  1.00  0.00     0.001 A 
ATOM     73  C   UNL A   1      37.852  31.421  33.494  1.00  0.00     0.000 A 
ENDBRANCH  54  68
BRANCH  55  74
ATOM     74  C   UNL A   1      45.558  25.112  25.737  1.00  0.00    -0.014 A 
ATOM     75  C   UNL A   1      46.549  24.128  25.493  1.00  0.00     0.009 A 
ATOM     76  C   UNL A   1      44.278  24.869  25.213  1.00  0.00     0.009 A 
ATOM     77  C   UNL A   1      46.251  22.915  24.853  1.00  0.00     0.001 A 
ATOM     78  C   UNL A   1      43.989  23.664  24.539  1.00  0.00     0.001 A 
ATOM     79  C   UNL A   1      44.965  22.678  24.384  1.00  0.00     0.000 A 
ENDBRANCH  55  74
BRANCH  67  80
ATOM     80  C   UNL A   1      44.232  32.125  27.114  1.00  0.00    -0.014 A 
ATOM     81  C   UNL A   1      44.049  32.554  25.798  1.00  0.00     0.009 A 
ATOM     82  C   UNL A   1      44.257  33.123  28.117  1.00  0.00     0.009 A 
ATOM     83  C   UNL A   1      43.963  33.913  25.487  1.00  0.00     0.001 A 
ATOM     84  C   UNL A   1      44.096  34.473  27.819  1.00  0.00     0.001 A 
ATOM     85  C   UNL A   1      43.971  34.869  26.497  1.00  0.00     0.000 A 
ENDBRANCH  67  80
ENDBRANCH  41  42
ENDBRANCH  34  36
ENDBRANCH  33  34
ENDBRANCH  32  33
ENDBRANCH   1  32
TORSDOF 14
ENDMDL
