MODEL 1
REMARK VINA RESULT:     -10.1      0.000      0.000
REMARK SMILES CCN(Cc1cn(CC)nc1C)C(=O)c1ccn([C@@H](C)C(=O)OCCOC(=O)c2ccc(-c3c4nc(c(-c5ccccc5)c5ccc([nH]5)c(-c5ccccc5)c5nc(c(-c6ccccc6)c6ccc3[nH]6)C=C5)C=C4)cc2)n1
REMARK SMILES IDX 21 1 22 2 19 3 20 4 18 5 15 6 16 7 77 8 17 9 13 10 14 11
REMARK SMILES IDX 3 12 2 13 1 14 4 15 5 16 6 17 11 18 7 19 10 20 12 21 8 22
REMARK SMILES IDX 9 23 23 24 24 25 25 26 26 27 27 28 28 29 29 30 30 31 76 32
REMARK SMILES IDX 31 33 75 34 32 35 33 36 34 37 69 38 35 39 74 40 68 41 70 42
REMARK SMILES IDX 36 43 73 44 67 45 66 46 37 48 59 49 44 50 58 51 45 52 48 53
REMARK SMILES IDX 57 54 71 55 46 56 47 57 56 59 72 60 49 61 38 62 39 63 43 64
REMARK SMILES IDX 40 65 42 66 41 67 60 68 61 69 65 70 62 71 64 72 63 73 50 74
REMARK SMILES IDX 51 75 55 76 52 77 54 78 53 79
REMARK H PARENT 70 47 48 58
REMARK Flexibility Score: inf
ROOT
ATOM      1  C   UNL A   1      41.718  19.910  26.475  1.00  0.00     0.330 C 
ATOM      2  O   UNL A   1      41.737  19.301  27.541  1.00  0.00    -0.250 OA
ENDROOT
BRANCH   1   3
ATOM      3  C   UNL A   1      40.992  21.236  26.299  1.00  0.00     0.213 C 
ATOM      4  C   UNL A   1      41.226  22.124  27.511  1.00  0.00     0.046 C 
BRANCH   3   5
ATOM      5  N   UNL A   1      39.573  21.138  25.950  1.00  0.00    -0.258 N 
ATOM      6  C   UNL A   1      37.651  21.906  25.427  1.00  0.00     0.150 A 
ATOM      7  C   UNL A   1      37.746  20.589  24.917  1.00  0.00     0.056 A 
ATOM      8  N   UNL A   1      38.770  22.224  26.112  1.00  0.00    -0.167 NA
ATOM      9  C   UNL A   1      38.890  20.063  25.459  1.00  0.00     0.110 A 
BRANCH   6  10
ATOM     10  C   UNL A   1      36.535  22.846  25.215  1.00  0.00     0.274 C 
ATOM     11  O   UNL A   1      36.742  23.976  24.769  1.00  0.00    -0.267 OA
BRANCH  10  12
ATOM     12  N   UNL A   1      35.228  22.401  25.500  1.00  0.00    -0.333 N 
BRANCH  12  13
ATOM     13  C   UNL A   1      34.530  21.625  24.475  1.00  0.00     0.117 C 
ATOM     14  C   UNL A   1      34.142  20.228  24.936  1.00  0.00     0.027 C 
ENDBRANCH  12  13
BRANCH  12  15
ATOM     15  C   UNL A   1      34.450  22.829  26.665  1.00  0.00     0.159 C 
BRANCH  15  16
ATOM     16  C   UNL A   1      33.472  23.919  26.351  1.00  0.00     0.012 A 
ATOM     17  C   UNL A   1      33.815  25.200  25.949  1.00  0.00     0.114 A 
ATOM     18  C   UNL A   1      32.048  23.971  26.459  1.00  0.00     0.064 A 
ATOM     19  N   UNL A   1      32.673  25.943  25.991  1.00  0.00    -0.272 N 
ATOM     20  N   UNL A   1      31.580  25.207  26.235  1.00  0.00    -0.178 NA
ATOM     21  C   UNL A   1      31.084  22.924  26.878  1.00  0.00     0.069 C 
BRANCH  19  22
ATOM     22  C   UNL A   1      32.587  27.390  26.002  1.00  0.00     0.141 C 
ATOM     23  C   UNL A   1      33.921  28.072  26.239  1.00  0.00     0.029 C 
ENDBRANCH  19  22
ENDBRANCH  15  16
ENDBRANCH  12  15
ENDBRANCH  10  12
ENDBRANCH   6  10
ENDBRANCH   3   5
ENDBRANCH   1   3
BRANCH   1  24
ATOM     24  O   UNL A   1      42.272  19.425  25.328  1.00  0.00    -0.460 OA
BRANCH  24  25
ATOM     25  C   UNL A   1      43.569  18.799  25.428  1.00  0.00     0.274 C 
BRANCH  25  26
ATOM     26  C   UNL A   1      44.563  19.354  24.409  1.00  0.00     0.275 C 
BRANCH  26  27
ATOM     27  O   UNL A   1      44.310  20.728  24.100  1.00  0.00    -0.458 OA
BRANCH  27  28
ATOM     28  C   UNL A   1      45.189  21.578  24.660  1.00  0.00     0.338 C 
ATOM     29  O   UNL A   1      46.410  21.487  24.620  1.00  0.00    -0.246 OA
BRANCH  28  30
ATOM     30  C   UNL A   1      44.543  22.560  25.516  1.00  0.00     0.060 A 
ATOM     31  C   UNL A   1      43.732  23.526  24.904  1.00  0.00     0.016 A 
ATOM     32  C   UNL A   1      44.976  22.679  26.839  1.00  0.00     0.016 A 
ATOM     33  C   UNL A   1      43.442  24.683  25.595  1.00  0.00     0.010 A 
ATOM     34  C   UNL A   1      44.704  23.843  27.518  1.00  0.00     0.010 A 
ATOM     35  C   UNL A   1      43.983  24.851  26.871  1.00  0.00    -0.014 A 
BRANCH  35  36
ATOM     36  C   UNL A   1      43.735  26.096  27.568  1.00  0.00     0.031 A 
ATOM     37  C   UNL A   1      44.697  27.183  27.272  1.00  0.00     0.074 A 
ATOM     38  C   UNL A   1      42.597  26.301  28.255  1.00  0.00     0.049 A 
ATOM     39  N   UNL A   1      45.396  27.882  28.104  1.00  0.00    -0.248 NA
ATOM     40  C   UNL A   1      44.969  27.479  25.856  1.00  0.00     0.031 C 
ATOM     41  C   UNL A   1      41.426  25.420  28.325  1.00  0.00     0.029 A 
ATOM     42  N   UNL A   1      42.190  27.419  28.915  1.00  0.00    -0.354 N 
ATOM     43  C   UNL A   1      46.085  28.811  27.332  1.00  0.00     0.074 A 
ATOM     44  C   UNL A   1      45.891  28.434  25.955  1.00  0.00     0.031 C 
ATOM     45  C   UNL A   1      40.371  26.131  28.778  1.00  0.00     0.029 A 
ATOM     46  C   UNL A   1      40.824  27.467  29.136  1.00  0.00     0.049 A 
ATOM     47  H   UNL A   1      42.810  28.127  29.205  1.00  0.00     0.167 HD
ATOM     48  C   UNL A   1      46.582  29.960  27.859  1.00  0.00     0.031 A 
ATOM     49  C   UNL A   1      40.105  28.554  29.501  1.00  0.00     0.031 A 
ATOM     50  C   UNL A   1      46.705  29.896  29.289  1.00  0.00     0.049 A 
ATOM     51  C   UNL A   1      41.044  29.571  30.025  1.00  0.00     0.074 A 
ATOM     52  C   UNL A   1      47.399  29.090  30.170  1.00  0.00     0.029 A 
ATOM     53  N   UNL A   1      45.755  30.544  30.038  1.00  0.00    -0.354 N 
ATOM     54  N   UNL A   1      41.685  29.457  31.152  1.00  0.00    -0.248 NA
ATOM     55  C   UNL A   1      41.581  30.562  29.103  1.00  0.00     0.031 C 
ATOM     56  C   UNL A   1      46.540  28.948  31.299  1.00  0.00     0.029 A 
ATOM     57  C   UNL A   1      45.389  29.700  31.054  1.00  0.00     0.049 A 
ATOM     58  H   UNL A   1      45.400  31.449  29.875  1.00  0.00     0.167 HD
ATOM     59  C   UNL A   1      42.927  30.026  30.913  1.00  0.00     0.074 A 
ATOM     60  C   UNL A   1      42.757  30.802  29.688  1.00  0.00     0.031 C 
ATOM     61  C   UNL A   1      44.042  29.584  31.567  1.00  0.00     0.031 A 
BRANCH  48  62
ATOM     62  C   UNL A   1      46.582  31.266  27.108  1.00  0.00    -0.014 A 
ATOM     63  C   UNL A   1      47.772  32.010  27.038  1.00  0.00     0.009 A 
ATOM     64  C   UNL A   1      45.400  31.923  26.709  1.00  0.00     0.009 A 
ATOM     65  C   UNL A   1      47.765  33.356  26.653  1.00  0.00     0.001 A 
ATOM     66  C   UNL A   1      45.397  33.252  26.281  1.00  0.00     0.001 A 
ATOM     67  C   UNL A   1      46.577  33.977  26.281  1.00  0.00     0.000 A 
ENDBRANCH  48  62
BRANCH  49  68
ATOM     68  C   UNL A   1      38.694  28.865  29.192  1.00  0.00    -0.014 A 
ATOM     69  C   UNL A   1      37.744  28.975  30.218  1.00  0.00     0.009 A 
ATOM     70  C   UNL A   1      38.321  29.291  27.905  1.00  0.00     0.009 A 
ATOM     71  C   UNL A   1      36.478  29.519  29.969  1.00  0.00     0.001 A 
ATOM     72  C   UNL A   1      37.055  29.825  27.652  1.00  0.00     0.001 A 
ATOM     73  C   UNL A   1      36.137  29.953  28.688  1.00  0.00     0.000 A 
ENDBRANCH  49  68
BRANCH  61  74
ATOM     74  C   UNL A   1      43.848  28.652  32.737  1.00  0.00    -0.014 A 
ATOM     75  C   UNL A   1      43.701  27.261  32.586  1.00  0.00     0.009 A 
ATOM     76  C   UNL A   1      43.969  29.170  34.036  1.00  0.00     0.009 A 
ATOM     77  C   UNL A   1      43.638  26.420  33.700  1.00  0.00     0.001 A 
ATOM     78  C   UNL A   1      43.929  28.325  35.149  1.00  0.00     0.001 A 
ATOM     79  C   UNL A   1      43.757  26.953  34.981  1.00  0.00     0.000 A 
ENDBRANCH  61  74
ENDBRANCH  35  36
ENDBRANCH  28  30
ENDBRANCH  27  28
ENDBRANCH  26  27
ENDBRANCH  25  26
ENDBRANCH  24  25
ENDBRANCH   1  24
TORSDOF 18
ENDMDL
MODEL 2
REMARK VINA RESULT:      -9.8      3.060      8.075
REMARK SMILES CCN(Cc1cn(CC)nc1C)C(=O)c1ccn([C@@H](C)C(=O)OCCOC(=O)c2ccc(-c3c4nc(c(-c5ccccc5)c5ccc([nH]5)c(-c5ccccc5)c5nc(c(-c6ccccc6)c6ccc3[nH]6)C=C5)C=C4)cc2)n1
REMARK SMILES IDX 21 1 22 2 19 3 20 4 18 5 15 6 16 7 77 8 17 9 13 10 14 11
REMARK SMILES IDX 3 12 2 13 1 14 4 15 5 16 6 17 11 18 7 19 10 20 12 21 8 22
REMARK SMILES IDX 9 23 23 24 24 25 25 26 26 27 27 28 28 29 29 30 30 31 76 32
REMARK SMILES IDX 31 33 75 34 32 35 33 36 34 37 69 38 35 39 74 40 68 41 70 42
REMARK SMILES IDX 36 43 73 44 67 45 66 46 37 48 59 49 44 50 58 51 45 52 48 53
REMARK SMILES IDX 57 54 71 55 46 56 47 57 56 59 72 60 49 61 38 62 39 63 43 64
REMARK SMILES IDX 40 65 42 66 41 67 60 68 61 69 65 70 62 71 64 72 63 73 50 74
REMARK SMILES IDX 51 75 55 76 52 77 54 78 53 79
REMARK H PARENT 70 47 48 58
REMARK Flexibility Score: inf
ROOT
ATOM      1  C   UNL A   1      32.045  28.413  26.483  1.00  0.00     0.330 C 
ATOM      2  O   UNL A   1      31.580  28.388  27.619  1.00  0.00    -0.250 OA
ENDROOT
BRANCH   1   3
ATOM      3  C   UNL A   1      31.548  27.501  25.370  1.00  0.00     0.213 C 
ATOM      4  C   UNL A   1      30.617  26.444  25.941  1.00  0.00     0.046 C 
BRANCH   3   5
ATOM      5  N   UNL A   1      32.588  26.921  24.517  1.00  0.00    -0.258 N 
ATOM      6  C   UNL A   1      33.792  25.341  23.734  1.00  0.00     0.150 A 
ATOM      7  C   UNL A   1      33.717  26.358  22.752  1.00  0.00     0.056 A 
ATOM      8  N   UNL A   1      33.130  25.719  24.849  1.00  0.00    -0.167 NA
ATOM      9  C   UNL A   1      33.130  27.431  23.371  1.00  0.00     0.110 A 
BRANCH   6  10
ATOM     10  C   UNL A   1      34.438  24.025  23.582  1.00  0.00     0.274 C 
ATOM     11  O   UNL A   1      34.361  23.407  22.518  1.00  0.00    -0.267 OA
BRANCH  10  12
ATOM     12  N   UNL A   1      35.175  23.517  24.671  1.00  0.00    -0.333 N 
BRANCH  12  13
ATOM     13  C   UNL A   1      36.620  23.362  24.508  1.00  0.00     0.117 C 
ATOM     14  C   UNL A   1      37.416  23.817  25.721  1.00  0.00     0.027 C 
ENDBRANCH  12  13
BRANCH  12  15
ATOM     15  C   UNL A   1      34.570  22.949  25.878  1.00  0.00     0.159 C 
BRANCH  15  16
ATOM     16  C   UNL A   1      33.715  21.752  25.600  1.00  0.00     0.012 A 
ATOM     17  C   UNL A   1      34.189  20.461  25.431  1.00  0.00     0.114 A 
ATOM     18  C   UNL A   1      32.312  21.628  25.360  1.00  0.00     0.064 A 
ATOM     19  N   UNL A   1      33.144  19.716  24.972  1.00  0.00    -0.272 N 
ATOM     20  N   UNL A   1      31.982  20.385  24.980  1.00  0.00    -0.178 NA
ATOM     21  C   UNL A   1      31.249  22.663  25.358  1.00  0.00     0.069 C 
BRANCH  19  22
ATOM     22  C   UNL A   1      33.227  18.422  24.323  1.00  0.00     0.141 C 
ATOM     23  C   UNL A   1      34.635  17.860  24.276  1.00  0.00     0.029 C 
ENDBRANCH  19  22
ENDBRANCH  15  16
ENDBRANCH  12  15
ENDBRANCH  10  12
ENDBRANCH   6  10
ENDBRANCH   3   5
ENDBRANCH   1   3
BRANCH   1  24
ATOM     24  O   UNL A   1      33.103  29.196  26.127  1.00  0.00    -0.460 OA
BRANCH  24  25
ATOM     25  C   UNL A   1      34.264  29.174  26.984  1.00  0.00     0.274 C 
BRANCH  25  26
ATOM     26  C   UNL A   1      34.508  30.518  27.669  1.00  0.00     0.275 C 
BRANCH  26  27
ATOM     27  O   UNL A   1      35.902  30.784  27.857  1.00  0.00    -0.458 OA
BRANCH  27  28
ATOM     28  C   UNL A   1      36.416  30.213  28.962  1.00  0.00     0.338 C 
ATOM     29  O   UNL A   1      36.108  30.469  30.119  1.00  0.00    -0.246 OA
BRANCH  28  30
ATOM     30  C   UNL A   1      37.553  29.356  28.665  1.00  0.00     0.060 A 
ATOM     31  C   UNL A   1      38.030  28.528  29.691  1.00  0.00     0.016 A 
ATOM     32  C   UNL A   1      38.285  29.600  27.500  1.00  0.00     0.016 A 
ATOM     33  C   UNL A   1      39.311  28.024  29.594  1.00  0.00     0.010 A 
ATOM     34  C   UNL A   1      39.568  29.114  27.417  1.00  0.00     0.010 A 
ATOM     35  C   UNL A   1      40.083  28.375  28.486  1.00  0.00    -0.014 A 
BRANCH  35  36
ATOM     36  C   UNL A   1      41.450  27.901  28.420  1.00  0.00     0.031 A 
ATOM     37  C   UNL A   1      41.621  26.561  27.811  1.00  0.00     0.074 A 
ATOM     38  C   UNL A   1      42.488  28.712  28.693  1.00  0.00     0.049 A 
ATOM     39  N   UNL A   1      42.220  25.529  28.304  1.00  0.00    -0.248 NA
ATOM     40  C   UNL A   1      40.973  26.321  26.511  1.00  0.00     0.031 C 
ATOM     41  C   UNL A   1      42.447  30.151  28.970  1.00  0.00     0.029 A 
ATOM     42  N   UNL A   1      43.819  28.441  28.628  1.00  0.00    -0.354 N 
ATOM     43  C   UNL A   1      42.160  24.550  27.316  1.00  0.00     0.074 A 
ATOM     44  C   UNL A   1      41.272  25.042  26.296  1.00  0.00     0.031 C 
ATOM     45  C   UNL A   1      43.687  30.663  28.810  1.00  0.00     0.029 A 
ATOM     46  C   UNL A   1      44.613  29.574  28.540  1.00  0.00     0.049 A 
ATOM     47  H   UNL A   1      44.184  27.526  28.641  1.00  0.00     0.167 HD
ATOM     48  C   UNL A   1      43.020  23.498  27.290  1.00  0.00     0.031 A 
ATOM     49  C   UNL A   1      45.917  29.617  28.182  1.00  0.00     0.031 A 
ATOM     50  C   UNL A   1      43.654  23.281  28.561  1.00  0.00     0.049 A 
ATOM     51  C   UNL A   1      46.472  28.250  28.300  1.00  0.00     0.074 A 
ATOM     52  C   UNL A   1      43.206  22.994  29.835  1.00  0.00     0.029 A 
ATOM     53  N   UNL A   1      44.953  23.704  28.703  1.00  0.00    -0.354 N 
ATOM     54  N   UNL A   1      46.670  27.641  29.434  1.00  0.00    -0.248 NA
ATOM     55  C   UNL A   1      46.451  27.387  27.128  1.00  0.00     0.031 C 
ATOM     56  C   UNL A   1      44.093  23.692  30.707  1.00  0.00     0.029 A 
ATOM     57  C   UNL A   1      45.047  24.336  29.915  1.00  0.00     0.049 A 
ATOM     58  H   UNL A   1      45.682  23.576  28.053  1.00  0.00     0.167 HD
ATOM     59  C   UNL A   1      46.367  26.312  29.180  1.00  0.00     0.074 A 
ATOM     60  C   UNL A   1      46.369  26.195  27.724  1.00  0.00     0.031 C 
ATOM     61  C   UNL A   1      45.864  25.504  30.160  1.00  0.00     0.031 A 
BRANCH  48  62
ATOM     62  C   UNL A   1      43.565  22.926  26.009  1.00  0.00    -0.014 A 
ATOM     63  C   UNL A   1      43.588  21.530  25.843  1.00  0.00     0.009 A 
ATOM     64  C   UNL A   1      44.310  23.685  25.083  1.00  0.00     0.009 A 
ATOM     65  C   UNL A   1      44.366  20.929  24.846  1.00  0.00     0.001 A 
ATOM     66  C   UNL A   1      45.049  23.091  24.059  1.00  0.00     0.001 A 
ATOM     67  C   UNL A   1      45.100  21.710  23.959  1.00  0.00     0.000 A 
ENDBRANCH  48  62
BRANCH  49  68
ATOM     68  C   UNL A   1      46.646  30.710  27.506  1.00  0.00    -0.014 A 
ATOM     69  C   UNL A   1      45.951  31.710  26.810  1.00  0.00     0.009 A 
ATOM     70  C   UNL A   1      48.018  30.908  27.743  1.00  0.00     0.009 A 
ATOM     71  C   UNL A   1      46.602  32.879  26.393  1.00  0.00     0.001 A 
ATOM     72  C   UNL A   1      48.671  32.069  27.320  1.00  0.00     0.001 A 
ATOM     73  C   UNL A   1      47.958  33.062  26.657  1.00  0.00     0.000 A 
ENDBRANCH  49  68
BRANCH  61  74
ATOM     74  C   UNL A   1      45.894  26.017  31.578  1.00  0.00    -0.014 A 
ATOM     75  C   UNL A   1      44.799  26.671  32.174  1.00  0.00     0.009 A 
ATOM     76  C   UNL A   1      46.996  25.698  32.385  1.00  0.00     0.009 A 
ATOM     77  C   UNL A   1      44.825  27.029  33.524  1.00  0.00     0.001 A 
ATOM     78  C   UNL A   1      47.011  26.036  33.741  1.00  0.00     0.001 A 
ATOM     79  C   UNL A   1      45.930  26.707  34.308  1.00  0.00     0.000 A 
ENDBRANCH  61  74
ENDBRANCH  35  36
ENDBRANCH  28  30
ENDBRANCH  27  28
ENDBRANCH  26  27
ENDBRANCH  25  26
ENDBRANCH  24  25
ENDBRANCH   1  24
TORSDOF 18
ENDMDL
MODEL 3
REMARK VINA RESULT:      -9.7      2.138      6.304
REMARK SMILES CCN(Cc1cn(CC)nc1C)C(=O)c1ccn([C@@H](C)C(=O)OCCOC(=O)c2ccc(-c3c4nc(c(-c5ccccc5)c5ccc([nH]5)c(-c5ccccc5)c5nc(c(-c6ccccc6)c6ccc3[nH]6)C=C5)C=C4)cc2)n1
REMARK SMILES IDX 21 1 22 2 19 3 20 4 18 5 15 6 16 7 77 8 17 9 13 10 14 11
REMARK SMILES IDX 3 12 2 13 1 14 4 15 5 16 6 17 11 18 7 19 10 20 12 21 8 22
REMARK SMILES IDX 9 23 23 24 24 25 25 26 26 27 27 28 28 29 29 30 30 31 76 32
REMARK SMILES IDX 31 33 75 34 32 35 33 36 34 37 69 38 35 39 74 40 68 41 70 42
REMARK SMILES IDX 36 43 73 44 67 45 66 46 37 48 59 49 44 50 58 51 45 52 48 53
REMARK SMILES IDX 57 54 71 55 46 56 47 57 56 59 72 60 49 61 38 62 39 63 43 64
REMARK SMILES IDX 40 65 42 66 41 67 60 68 61 69 65 70 62 71 64 72 63 73 50 74
REMARK SMILES IDX 51 75 55 76 52 77 54 78 53 79
REMARK H PARENT 70 47 48 58
REMARK Flexibility Score: inf
ROOT
ATOM      1  C   UNL A   1      36.378  21.394  25.036  1.00  0.00     0.330 C 
ATOM      2  O   UNL A   1      35.537  20.503  25.132  1.00  0.00    -0.250 OA
ENDROOT
BRANCH   1   3
ATOM      3  C   UNL A   1      36.017  22.872  25.072  1.00  0.00     0.213 C 
ATOM      4  C   UNL A   1      37.253  23.703  25.374  1.00  0.00     0.046 C 
BRANCH   3   5
ATOM      5  N   UNL A   1      34.887  23.226  25.934  1.00  0.00    -0.258 N 
ATOM      6  C   UNL A   1      33.051  24.204  26.416  1.00  0.00     0.150 A 
ATOM      7  C   UNL A   1      33.148  23.043  27.220  1.00  0.00     0.056 A 
ATOM      8  N   UNL A   1      34.158  24.340  25.656  1.00  0.00    -0.167 NA
ATOM      9  C   UNL A   1      34.424  22.574  27.041  1.00  0.00     0.110 A 
BRANCH   6  10
ATOM     10  C   UNL A   1      31.902  25.124  26.347  1.00  0.00     0.274 C 
ATOM     11  O   UNL A   1      30.787  24.768  26.735  1.00  0.00    -0.267 OA
BRANCH  10  12
ATOM     12  N   UNL A   1      32.124  26.430  25.863  1.00  0.00    -0.333 N 
BRANCH  12  13
ATOM     13  C   UNL A   1      32.713  27.408  26.777  1.00  0.00     0.117 C 
ATOM     14  C   UNL A   1      33.996  28.031  26.249  1.00  0.00     0.027 C 
ENDBRANCH  12  13
BRANCH  12  15
ATOM     15  C   UNL A   1      31.625  26.926  24.578  1.00  0.00     0.159 C 
BRANCH  15  16
ATOM     16  C   UNL A   1      32.243  26.236  23.401  1.00  0.00     0.012 A 
ATOM     17  C   UNL A   1      31.985  24.928  23.024  1.00  0.00     0.114 A 
ATOM     18  C   UNL A   1      33.249  26.659  22.479  1.00  0.00     0.064 A 
ATOM     19  N   UNL A   1      32.901  24.609  22.066  1.00  0.00    -0.272 N 
ATOM     20  N   UNL A   1      33.636  25.658  21.674  1.00  0.00    -0.178 NA
ATOM     21  C   UNL A   1      33.967  27.954  22.377  1.00  0.00     0.069 C 
BRANCH  19  22
ATOM     22  C   UNL A   1      33.258  23.273  21.627  1.00  0.00     0.141 C 
ATOM     23  C   UNL A   1      32.975  22.202  22.662  1.00  0.00     0.029 C 
ENDBRANCH  19  22
ENDBRANCH  15  16
ENDBRANCH  12  15
ENDBRANCH  10  12
ENDBRANCH   6  10
ENDBRANCH   3   5
ENDBRANCH   1   3
BRANCH   1  24
ATOM     24  O   UNL A   1      37.699  21.151  24.806  1.00  0.00    -0.460 OA
BRANCH  24  25
ATOM     25  C   UNL A   1      38.495  20.691  25.919  1.00  0.00     0.274 C 
BRANCH  25  26
ATOM     26  C   UNL A   1      39.282  19.424  25.587  1.00  0.00     0.275 C 
BRANCH  26  27
ATOM     27  O   UNL A   1      40.550  19.717  24.992  1.00  0.00    -0.458 OA
BRANCH  27  28
ATOM     28  C   UNL A   1      41.600  19.379  25.764  1.00  0.00     0.338 C 
ATOM     29  O   UNL A   1      42.001  18.243  25.982  1.00  0.00    -0.246 OA
BRANCH  28  30
ATOM     30  C   UNL A   1      42.133  20.513  26.502  1.00  0.00     0.060 A 
ATOM     31  C   UNL A   1      41.829  20.602  27.868  1.00  0.00     0.016 A 
ATOM     32  C   UNL A   1      42.663  21.586  25.783  1.00  0.00     0.016 A 
ATOM     33  C   UNL A   1      41.956  21.823  28.497  1.00  0.00     0.010 A 
ATOM     34  C   UNL A   1      42.768  22.807  26.407  1.00  0.00     0.010 A 
ATOM     35  C   UNL A   1      42.367  22.922  27.741  1.00  0.00    -0.014 A 
BRANCH  35  36
ATOM     36  C   UNL A   1      42.434  24.217  28.386  1.00  0.00     0.031 A 
ATOM     37  C   UNL A   1      41.293  25.120  28.101  1.00  0.00     0.074 A 
ATOM     38  C   UNL A   1      43.351  24.483  29.333  1.00  0.00     0.049 A 
ATOM     39  N   UNL A   1      41.323  26.329  27.648  1.00  0.00    -0.248 NA
ATOM     40  C   UNL A   1      39.938  24.572  28.277  1.00  0.00     0.031 C 
ATOM     41  C   UNL A   1      44.307  23.549  29.936  1.00  0.00     0.029 A 
ATOM     42  N   UNL A   1      43.514  25.618  30.065  1.00  0.00    -0.354 N 
ATOM     43  C   UNL A   1      39.999  26.755  27.623  1.00  0.00     0.074 A 
ATOM     44  C   UNL A   1      39.184  25.598  27.889  1.00  0.00     0.031 C 
ATOM     45  C   UNL A   1      44.771  24.082  31.088  1.00  0.00     0.029 A 
ATOM     46  C   UNL A   1      44.237  25.428  31.231  1.00  0.00     0.049 A 
ATOM     47  H   UNL A   1      43.151  26.492  29.791  1.00  0.00     0.167 HD
ATOM     48  C   UNL A   1      39.666  28.072  27.610  1.00  0.00     0.031 A 
ATOM     49  C   UNL A   1      44.316  26.281  32.279  1.00  0.00     0.031 A 
ATOM     50  C   UNL A   1      40.758  28.907  27.193  1.00  0.00     0.049 A 
ATOM     51  C   UNL A   1      43.857  27.613  31.822  1.00  0.00     0.074 A 
ATOM     52  C   UNL A   1      41.529  29.003  26.052  1.00  0.00     0.029 A 
ATOM     53  N   UNL A   1      41.438  29.596  28.167  1.00  0.00    -0.354 N 
ATOM     54  N   UNL A   1      44.519  28.365  30.991  1.00  0.00    -0.248 NA
ATOM     55  C   UNL A   1      42.452  27.957  31.986  1.00  0.00     0.031 C 
ATOM     56  C   UNL A   1      42.835  29.342  26.512  1.00  0.00     0.029 A 
ATOM     57  C   UNL A   1      42.776  29.464  27.902  1.00  0.00     0.049 A 
ATOM     58  H   UNL A   1      41.038  30.092  28.918  1.00  0.00     0.167 HD
ATOM     59  C   UNL A   1      43.547  28.981  30.218  1.00  0.00     0.074 A 
ATOM     60  C   UNL A   1      42.302  28.796  30.957  1.00  0.00     0.031 C 
ATOM     61  C   UNL A   1      43.795  29.328  28.920  1.00  0.00     0.031 A 
BRANCH  48  62
ATOM     62  C   UNL A   1      38.472  28.616  28.350  1.00  0.00    -0.014 A 
ATOM     63  C   UNL A   1      37.590  29.479  27.677  1.00  0.00     0.009 A 
ATOM     64  C   UNL A   1      38.336  28.539  29.751  1.00  0.00     0.009 A 
ATOM     65  C   UNL A   1      36.670  30.268  28.378  1.00  0.00     0.001 A 
ATOM     66  C   UNL A   1      37.388  29.289  30.448  1.00  0.00     0.001 A 
ATOM     67  C   UNL A   1      36.574  30.176  29.763  1.00  0.00     0.000 A 
ENDBRANCH  48  62
BRANCH  49  68
ATOM     68  C   UNL A   1      44.523  25.963  33.706  1.00  0.00    -0.014 A 
ATOM     69  C   UNL A   1      45.447  26.686  34.474  1.00  0.00     0.009 A 
ATOM     70  C   UNL A   1      43.637  25.104  34.382  1.00  0.00     0.009 A 
ATOM     71  C   UNL A   1      45.464  26.572  35.871  1.00  0.00     0.001 A 
ATOM     72  C   UNL A   1      43.660  24.983  35.774  1.00  0.00     0.001 A 
ATOM     73  C   UNL A   1      44.564  25.729  36.520  1.00  0.00     0.000 A 
ENDBRANCH  49  68
BRANCH  61  74
ATOM     74  C   UNL A   1      45.223  29.266  28.436  1.00  0.00    -0.014 A 
ATOM     75  C   UNL A   1      45.810  28.085  27.947  1.00  0.00     0.009 A 
ATOM     76  C   UNL A   1      45.948  30.463  28.327  1.00  0.00     0.009 A 
ATOM     77  C   UNL A   1      47.096  28.095  27.402  1.00  0.00     0.001 A 
ATOM     78  C   UNL A   1      47.225  30.476  27.760  1.00  0.00     0.001 A 
ATOM     79  C   UNL A   1      47.801  29.292  27.306  1.00  0.00     0.000 A 
ENDBRANCH  61  74
ENDBRANCH  35  36
ENDBRANCH  28  30
ENDBRANCH  27  28
ENDBRANCH  26  27
ENDBRANCH  25  26
ENDBRANCH  24  25
ENDBRANCH   1  24
TORSDOF 18
ENDMDL
