MODEL 1
REMARK VINA RESULT:     -10.5      0.000      0.000
REMARK SMILES O=C(C[C@H](c1ccc(C2CC2)cc1)[NH+]1CCOCC1)OCCOC(=O)c1ccc(-c2c3nc(c(-c4ccccc4)c4ccc([nH]4)c(-c4ccccc4)c4nc(c(-c5ccccc5)c5ccc2[nH]5)C=C4)C=C3)cc1
REMARK SMILES IDX 21 1 20 2 2 3 1 4 3 5 4 6 14 7 15 8 19 9 16 11 18 12 17 13
REMARK SMILES IDX 5 14 6 15 13 16 7 17 12 18 8 19 9 20 10 21 11 22 22 23 23 24
REMARK SMILES IDX 24 25 25 26 26 27 27 28 73 29 28 30 72 31 29 32 30 33 31 34
REMARK SMILES IDX 66 35 32 36 71 37 65 38 67 39 33 40 70 41 64 42 63 43 34 45
REMARK SMILES IDX 56 46 41 47 55 48 42 49 45 50 54 51 68 52 43 53 44 54 53 56
REMARK SMILES IDX 69 57 46 58 35 59 36 60 40 61 37 62 39 63 38 64 57 65 58 66
REMARK SMILES IDX 62 67 59 68 61 69 60 70 47 71 48 72 52 73 49 74 51 75 50 76
REMARK H PARENT 14 10 67 44 45 55
REMARK Flexibility Score: inf
ROOT
ATOM      1  C   UNL A   1      37.108  20.366  24.627  1.00  0.00     0.274 C 
ENDROOT
BRANCH   1   2
ATOM      2  O   UNL A   1      37.037  21.803  24.299  1.00  0.00    -0.462 OA
BRANCH   2   3
ATOM      3  C   UNL A   1      36.266  22.834  23.914  1.00  0.00     0.312 C 
ATOM      4  O   UNL A   1      36.116  23.025  22.705  1.00  0.00    -0.252 OA
BRANCH   3   5
ATOM      5  C   UNL A   1      35.612  23.761  24.896  1.00  0.00     0.192 C 
BRANCH   5   6
ATOM      6  C   UNL A   1      34.051  23.856  25.060  1.00  0.00     0.226 C 
BRANCH   6   7
ATOM      7  N   UNL A   1      33.234  24.952  24.447  1.00  0.00    -0.324 N 
ATOM      8  C   UNL A   1      33.840  26.303  24.310  1.00  0.00     0.291 C 
ATOM      9  C   UNL A   1      31.881  25.184  24.951  1.00  0.00     0.291 C 
ATOM     10  H   UNL A   1      33.195  24.492  23.538  1.00  0.00     0.348 HD
ATOM     11  C   UNL A   1      33.733  27.211  25.564  1.00  0.00     0.221 C 
ATOM     12  C   UNL A   1      31.956  25.847  26.319  1.00  0.00     0.221 C 
ATOM     13  O   UNL A   1      32.444  27.180  26.196  1.00  0.00    -0.370 OA
ENDBRANCH   6   7
BRANCH   6  14
ATOM     14  C   UNL A   1      33.440  22.438  24.893  1.00  0.00     0.010 A 
ATOM     15  C   UNL A   1      33.571  21.463  25.888  1.00  0.00     0.010 A 
ATOM     16  C   UNL A   1      32.851  22.036  23.682  1.00  0.00     0.010 A 
ATOM     17  C   UNL A   1      33.284  20.122  25.632  1.00  0.00     0.004 A 
ATOM     18  C   UNL A   1      32.580  20.677  23.426  1.00  0.00     0.004 A 
ATOM     19  C   UNL A   1      32.861  19.679  24.372  1.00  0.00    -0.045 A 
BRANCH  19  20
ATOM     20  C   UNL A   1      32.818  18.186  24.117  1.00  0.00     0.019 C 
ATOM     21  C   UNL A   1      32.980  17.593  22.745  1.00  0.00     0.009 C 
ATOM     22  C   UNL A   1      34.061  17.400  23.773  1.00  0.00     0.009 C 
ENDBRANCH  19  20
ENDBRANCH   6  14
ENDBRANCH   5   6
ENDBRANCH   3   5
ENDBRANCH   2   3
ENDBRANCH   1   2
BRANCH   1  23
ATOM     23  C   UNL A   1      38.424  19.686  25.010  1.00  0.00     0.275 C 
BRANCH  23  24
ATOM     24  O   UNL A   1      39.179  20.442  25.946  1.00  0.00    -0.458 OA
BRANCH  24  25
ATOM     25  C   UNL A   1      40.458  20.035  26.065  1.00  0.00     0.338 C 
ATOM     26  O   UNL A   1      40.966  19.029  25.601  1.00  0.00    -0.246 OA
BRANCH  25  27
ATOM     27  C   UNL A   1      41.202  21.169  26.609  1.00  0.00     0.060 A 
ATOM     28  C   UNL A   1      41.183  21.343  27.995  1.00  0.00     0.016 A 
ATOM     29  C   UNL A   1      41.904  22.036  25.769  1.00  0.00     0.016 A 
ATOM     30  C   UNL A   1      41.783  22.464  28.544  1.00  0.00     0.010 A 
ATOM     31  C   UNL A   1      42.493  23.170  26.320  1.00  0.00     0.010 A 
ATOM     32  C   UNL A   1      42.374  23.413  27.699  1.00  0.00    -0.014 A 
BRANCH  32  33
ATOM     33  C   UNL A   1      42.614  24.765  28.240  1.00  0.00     0.031 A 
ATOM     34  C   UNL A   1      44.029  25.144  28.577  1.00  0.00     0.074 A 
ATOM     35  C   UNL A   1      41.616  25.658  28.334  1.00  0.00     0.049 A 
ATOM     36  N   UNL A   1      44.502  26.287  29.002  1.00  0.00    -0.248 NA
ATOM     37  C   UNL A   1      45.054  24.099  28.397  1.00  0.00     0.031 C 
ATOM     38  C   UNL A   1      40.222  25.415  27.968  1.00  0.00     0.029 A 
ATOM     39  N   UNL A   1      41.639  26.961  28.753  1.00  0.00    -0.354 N 
ATOM     40  C   UNL A   1      45.873  26.101  29.126  1.00  0.00     0.074 A 
ATOM     41  C   UNL A   1      46.156  24.729  28.773  1.00  0.00     0.031 C 
ATOM     42  C   UNL A   1      39.518  26.542  28.179  1.00  0.00     0.029 A 
ATOM     43  C   UNL A   1      40.409  27.568  28.718  1.00  0.00     0.049 A 
ATOM     44  H   UNL A   1      42.458  27.419  29.049  1.00  0.00     0.167 HD
ATOM     45  C   UNL A   1      46.816  26.999  29.490  1.00  0.00     0.031 A 
ATOM     46  C   UNL A   1      40.049  28.810  29.094  1.00  0.00     0.031 A 
ATOM     47  C   UNL A   1      46.528  28.356  29.866  1.00  0.00     0.049 A 
ATOM     48  C   UNL A   1      41.108  29.754  29.603  1.00  0.00     0.074 A 
ATOM     49  C   UNL A   1      47.409  29.342  30.272  1.00  0.00     0.029 A 
ATOM     50  N   UNL A   1      45.260  28.913  29.892  1.00  0.00    -0.354 N 
ATOM     51  N   UNL A   1      42.404  29.576  29.701  1.00  0.00    -0.248 NA
ATOM     52  C   UNL A   1      40.650  31.081  30.042  1.00  0.00     0.031 C 
ATOM     53  C   UNL A   1      46.665  30.479  30.603  1.00  0.00     0.029 A 
ATOM     54  C   UNL A   1      45.330  30.221  30.336  1.00  0.00     0.049 A 
ATOM     55  H   UNL A   1      44.432  28.446  29.633  1.00  0.00     0.167 HD
ATOM     56  C   UNL A   1      42.918  30.775  30.182  1.00  0.00     0.074 A 
ATOM     57  C   UNL A   1      41.796  31.679  30.329  1.00  0.00     0.031 C 
ATOM     58  C   UNL A   1      44.201  31.102  30.479  1.00  0.00     0.031 A 
BRANCH  45  59
ATOM     59  C   UNL A   1      48.242  26.528  29.535  1.00  0.00    -0.014 A 
ATOM     60  C   UNL A   1      49.093  26.669  28.427  1.00  0.00     0.009 A 
ATOM     61  C   UNL A   1      48.752  25.969  30.717  1.00  0.00     0.009 A 
ATOM     62  C   UNL A   1      50.420  26.239  28.497  1.00  0.00     0.001 A 
ATOM     63  C   UNL A   1      50.086  25.566  30.792  1.00  0.00     0.001 A 
ATOM     64  C   UNL A   1      50.917  25.696  29.680  1.00  0.00     0.000 A 
ENDBRANCH  45  59
BRANCH  46  65
ATOM     65  C   UNL A   1      38.624  29.229  29.044  1.00  0.00    -0.014 A 
ATOM     66  C   UNL A   1      38.091  29.852  27.906  1.00  0.00     0.009 A 
ATOM     67  C   UNL A   1      37.802  29.061  30.170  1.00  0.00     0.009 A 
ATOM     68  C   UNL A   1      36.781  30.338  27.913  1.00  0.00     0.001 A 
ATOM     69  C   UNL A   1      36.481  29.514  30.161  1.00  0.00     0.001 A 
ATOM     70  C   UNL A   1      35.977  30.167  29.039  1.00  0.00     0.000 A 
ENDBRANCH  46  65
BRANCH  58  71
ATOM     71  C   UNL A   1      44.458  32.505  30.957  1.00  0.00    -0.014 A 
ATOM     72  C   UNL A   1      44.455  32.826  32.324  1.00  0.00     0.009 A 
ATOM     73  C   UNL A   1      44.735  33.517  30.024  1.00  0.00     0.009 A 
ATOM     74  C   UNL A   1      44.675  34.140  32.742  1.00  0.00     0.001 A 
ATOM     75  C   UNL A   1      44.992  34.822  30.446  1.00  0.00     0.001 A 
ATOM     76  C   UNL A   1      44.948  35.135  31.804  1.00  0.00     0.000 A 
ENDBRANCH  58  71
ENDBRANCH  32  33
ENDBRANCH  25  27
ENDBRANCH  24  25
ENDBRANCH  23  24
ENDBRANCH   1  23
TORSDOF 15
ENDMDL
MODEL 2
REMARK VINA RESULT:     -10.4      2.181      3.287
REMARK SMILES O=C(C[C@H](c1ccc(C2CC2)cc1)[NH+]1CCOCC1)OCCOC(=O)c1ccc(-c2c3nc(c(-c4ccccc4)c4ccc([nH]4)c(-c4ccccc4)c4nc(c(-c5ccccc5)c5ccc2[nH]5)C=C4)C=C3)cc1
REMARK SMILES IDX 21 1 20 2 2 3 1 4 3 5 4 6 14 7 15 8 19 9 16 11 18 12 17 13
REMARK SMILES IDX 5 14 6 15 13 16 7 17 12 18 8 19 9 20 10 21 11 22 22 23 23 24
REMARK SMILES IDX 24 25 25 26 26 27 27 28 73 29 28 30 72 31 29 32 30 33 31 34
REMARK SMILES IDX 66 35 32 36 71 37 65 38 67 39 33 40 70 41 64 42 63 43 34 45
REMARK SMILES IDX 56 46 41 47 55 48 42 49 45 50 54 51 68 52 43 53 44 54 53 56
REMARK SMILES IDX 69 57 46 58 35 59 36 60 40 61 37 62 39 63 38 64 57 65 58 66
REMARK SMILES IDX 62 67 59 68 61 69 60 70 47 71 48 72 52 73 49 74 51 75 50 76
REMARK H PARENT 14 10 67 44 45 55
REMARK Flexibility Score: inf
ROOT
ATOM      1  C   UNL A   1      36.186  22.930  23.567  1.00  0.00     0.274 C 
ENDROOT
BRANCH   1   2
ATOM      2  O   UNL A   1      35.259  23.749  22.763  1.00  0.00    -0.462 OA
BRANCH   2   3
ATOM      3  C   UNL A   1      33.984  23.987  22.408  1.00  0.00     0.312 C 
ATOM      4  O   UNL A   1      33.709  25.098  21.951  1.00  0.00    -0.252 OA
BRANCH   3   5
ATOM      5  C   UNL A   1      32.899  22.964  22.571  1.00  0.00     0.192 C 
BRANCH   5   6
ATOM      6  C   UNL A   1      32.379  22.500  23.981  1.00  0.00     0.226 C 
BRANCH   6   7
ATOM      7  N   UNL A   1      31.111  23.016  24.591  1.00  0.00    -0.324 N 
ATOM      8  C   UNL A   1      30.823  24.473  24.512  1.00  0.00     0.291 C 
ATOM      9  C   UNL A   1      30.785  22.630  25.964  1.00  0.00     0.291 C 
ATOM     10  H   UNL A   1      30.522  22.506  23.934  1.00  0.00     0.348 HD
ATOM     11  C   UNL A   1      31.463  25.340  25.627  1.00  0.00     0.221 C 
ATOM     12  C   UNL A   1      31.691  23.379  26.930  1.00  0.00     0.221 C 
ATOM     13  O   UNL A   1      31.362  24.766  26.940  1.00  0.00    -0.370 OA
ENDBRANCH   6   7
BRANCH   6  14
ATOM     14  C   UNL A   1      32.566  20.964  24.106  1.00  0.00     0.010 A 
ATOM     15  C   UNL A   1      33.379  20.403  25.098  1.00  0.00     0.010 A 
ATOM     16  C   UNL A   1      32.036  20.084  23.146  1.00  0.00     0.010 A 
ATOM     17  C   UNL A   1      33.777  19.067  25.040  1.00  0.00     0.004 A 
ATOM     18  C   UNL A   1      32.458  18.741  23.084  1.00  0.00     0.004 A 
ATOM     19  C   UNL A   1      33.397  18.222  23.989  1.00  0.00    -0.045 A 
BRANCH  19  20
ATOM     20  C   UNL A   1      34.078  16.873  23.875  1.00  0.00     0.019 C 
ATOM     21  C   UNL A   1      34.924  16.296  24.975  1.00  0.00     0.009 C 
ATOM     22  C   UNL A   1      33.597  15.670  24.648  1.00  0.00     0.009 C 
ENDBRANCH  19  20
ENDBRANCH   6  14
ENDBRANCH   5   6
ENDBRANCH   3   5
ENDBRANCH   2   3
ENDBRANCH   1   2
BRANCH   1  23
ATOM     23  C   UNL A   1      36.332  23.119  25.079  1.00  0.00     0.275 C 
BRANCH  23  24
ATOM     24  O   UNL A   1      37.420  23.966  25.422  1.00  0.00    -0.458 OA
BRANCH  24  25
ATOM     25  C   UNL A   1      38.424  23.328  26.053  1.00  0.00     0.338 C 
ATOM     26  O   UNL A   1      38.781  22.172  25.907  1.00  0.00    -0.246 OA
BRANCH  25  27
ATOM     27  C   UNL A   1      39.201  24.358  26.739  1.00  0.00     0.060 A 
ATOM     28  C   UNL A   1      39.049  24.461  28.124  1.00  0.00     0.016 A 
ATOM     29  C   UNL A   1      40.059  25.201  26.030  1.00  0.00     0.016 A 
ATOM     30  C   UNL A   1      39.681  25.492  28.799  1.00  0.00     0.010 A 
ATOM     31  C   UNL A   1      40.681  26.246  26.706  1.00  0.00     0.010 A 
ATOM     32  C   UNL A   1      40.438  26.426  28.078  1.00  0.00    -0.014 A 
BRANCH  32  33
ATOM     33  C   UNL A   1      40.733  27.720  28.724  1.00  0.00     0.031 A 
ATOM     34  C   UNL A   1      42.141  27.966  29.190  1.00  0.00     0.074 A 
ATOM     35  C   UNL A   1      39.800  28.682  28.801  1.00  0.00     0.049 A 
ATOM     36  N   UNL A   1      42.662  29.040  29.723  1.00  0.00    -0.248 NA
ATOM     37  C   UNL A   1      43.096  26.855  29.019  1.00  0.00     0.031 C 
ATOM     38  C   UNL A   1      38.425  28.572  28.317  1.00  0.00     0.029 A 
ATOM     39  N   UNL A   1      39.886  29.952  29.305  1.00  0.00    -0.354 N 
ATOM     40  C   UNL A   1      44.001  28.739  29.936  1.00  0.00     0.074 A 
ATOM     41  C   UNL A   1      44.209  27.372  29.516  1.00  0.00     0.031 C 
ATOM     42  C   UNL A   1      37.792  29.736  28.549  1.00  0.00     0.029 A 
ATOM     43  C   UNL A   1      38.711  30.655  29.219  1.00  0.00     0.049 A 
ATOM     44  H   UNL A   1      40.711  30.325  29.692  1.00  0.00     0.167 HD
ATOM     45  C   UNL A   1      44.976  29.536  30.428  1.00  0.00     0.031 A 
ATOM     46  C   UNL A   1      38.415  31.896  29.648  1.00  0.00     0.031 A 
ATOM     47  C   UNL A   1      44.761  30.887  30.871  1.00  0.00     0.049 A 
ATOM     48  C   UNL A   1      39.498  32.722  30.295  1.00  0.00     0.074 A 
ATOM     49  C   UNL A   1      45.678  31.775  31.405  1.00  0.00     0.029 A 
ATOM     50  N   UNL A   1      43.539  31.540  30.838  1.00  0.00    -0.354 N 
ATOM     51  N   UNL A   1      40.765  32.437  30.478  1.00  0.00    -0.248 NA
ATOM     52  C   UNL A   1      39.106  34.052  30.785  1.00  0.00     0.031 C 
ATOM     53  C   UNL A   1      44.996  32.944  31.754  1.00  0.00     0.029 A 
ATOM     54  C   UNL A   1      43.671  32.810  31.371  1.00  0.00     0.049 A 
ATOM     55  H   UNL A   1      42.703  31.156  30.487  1.00  0.00     0.167 HD
ATOM     56  C   UNL A   1      41.326  33.560  31.073  1.00  0.00     0.074 A 
ATOM     57  C   UNL A   1      40.267  34.540  31.196  1.00  0.00     0.031 C 
ATOM     58  C   UNL A   1      42.602  33.767  31.486  1.00  0.00     0.031 A 
BRANCH  45  59
ATOM     59  C   UNL A   1      46.355  28.952  30.549  1.00  0.00    -0.014 A 
ATOM     60  C   UNL A   1      47.294  29.076  29.512  1.00  0.00     0.009 A 
ATOM     61  C   UNL A   1      46.733  28.301  31.733  1.00  0.00     0.009 A 
ATOM     62  C   UNL A   1      48.576  28.540  29.652  1.00  0.00     0.001 A 
ATOM     63  C   UNL A   1      48.024  27.791  31.881  1.00  0.00     0.001 A 
ATOM     64  C   UNL A   1      48.942  27.905  30.838  1.00  0.00     0.000 A 
ENDBRANCH  45  59
BRANCH  46  65
ATOM     65  C   UNL A   1      37.033  32.429  29.519  1.00  0.00    -0.014 A 
ATOM     66  C   UNL A   1      36.070  32.189  30.509  1.00  0.00     0.009 A 
ATOM     67  C   UNL A   1      36.656  33.134  28.365  1.00  0.00     0.009 A 
ATOM     68  C   UNL A   1      34.747  32.603  30.326  1.00  0.00     0.001 A 
ATOM     69  C   UNL A   1      35.343  33.580  28.200  1.00  0.00     0.001 A 
ATOM     70  C   UNL A   1      34.386  33.298  29.173  1.00  0.00     0.000 A 
ENDBRANCH  46  65
BRANCH  58  71
ATOM     71  C   UNL A   1      42.924  35.114  32.074  1.00  0.00    -0.014 A 
ATOM     72  C   UNL A   1      42.621  35.422  33.410  1.00  0.00     0.009 A 
ATOM     73  C   UNL A   1      43.565  36.081  31.283  1.00  0.00     0.009 A 
ATOM     74  C   UNL A   1      42.910  36.688  33.925  1.00  0.00     0.001 A 
ATOM     75  C   UNL A   1      43.887  37.332  31.812  1.00  0.00     0.001 A 
ATOM     76  C   UNL A   1      43.546  37.638  33.128  1.00  0.00     0.000 A 
ENDBRANCH  58  71
ENDBRANCH  32  33
ENDBRANCH  25  27
ENDBRANCH  24  25
ENDBRANCH  23  24
ENDBRANCH   1  23
TORSDOF 15
ENDMDL
MODEL 3
REMARK VINA RESULT:     -10.4      4.305      8.726
REMARK SMILES O=C(C[C@H](c1ccc(C2CC2)cc1)[NH+]1CCOCC1)OCCOC(=O)c1ccc(-c2c3nc(c(-c4ccccc4)c4ccc([nH]4)c(-c4ccccc4)c4nc(c(-c5ccccc5)c5ccc2[nH]5)C=C4)C=C3)cc1
REMARK SMILES IDX 21 1 20 2 2 3 1 4 3 5 4 6 14 7 15 8 19 9 16 11 18 12 17 13
REMARK SMILES IDX 5 14 6 15 13 16 7 17 12 18 8 19 9 20 10 21 11 22 22 23 23 24
REMARK SMILES IDX 24 25 25 26 26 27 27 28 73 29 28 30 72 31 29 32 30 33 31 34
REMARK SMILES IDX 66 35 32 36 71 37 65 38 67 39 33 40 70 41 64 42 63 43 34 45
REMARK SMILES IDX 56 46 41 47 55 48 42 49 45 50 54 51 68 52 43 53 44 54 53 56
REMARK SMILES IDX 69 57 46 58 35 59 36 60 40 61 37 62 39 63 38 64 57 65 58 66
REMARK SMILES IDX 62 67 59 68 61 69 60 70 47 71 48 72 52 73 49 74 51 75 50 76
REMARK H PARENT 14 10 67 44 45 55
REMARK Flexibility Score: inf
ROOT
ATOM      1  C   UNL A   1      31.729  31.158  26.292  1.00  0.00     0.274 C 
ENDROOT
BRANCH   1   2
ATOM      2  O   UNL A   1      31.765  29.875  27.020  1.00  0.00    -0.462 OA
BRANCH   2   3
ATOM      3  C   UNL A   1      32.253  28.624  27.075  1.00  0.00     0.312 C 
ATOM      4  O   UNL A   1      33.393  28.467  27.518  1.00  0.00    -0.252 OA
BRANCH   3   5
ATOM      5  C   UNL A   1      31.474  27.434  26.598  1.00  0.00     0.192 C 
BRANCH   5   6
ATOM      6  C   UNL A   1      31.679  26.804  25.172  1.00  0.00     0.226 C 
BRANCH   6   7
ATOM      7  N   UNL A   1      31.788  25.328  24.942  1.00  0.00    -0.324 N 
ATOM      8  C   UNL A   1      32.386  24.482  26.009  1.00  0.00     0.291 C 
ATOM      9  C   UNL A   1      32.383  24.854  23.693  1.00  0.00     0.291 C 
ATOM     10  H   UNL A   1      30.777  25.199  24.920  1.00  0.00     0.348 HD
ATOM     11  C   UNL A   1      33.935  24.386  25.992  1.00  0.00     0.221 C 
ATOM     12  C   UNL A   1      33.887  25.077  23.731  1.00  0.00     0.221 C 
ATOM     13  O   UNL A   1      34.492  24.203  24.681  1.00  0.00    -0.370 OA
ENDBRANCH   6   7
BRANCH   6  14
ATOM     14  C   UNL A   1      30.757  27.539  24.160  1.00  0.00     0.010 A 
ATOM     15  C   UNL A   1      31.123  28.766  23.595  1.00  0.00     0.010 A 
ATOM     16  C   UNL A   1      29.463  27.069  23.878  1.00  0.00     0.010 A 
ATOM     17  C   UNL A   1      30.193  29.560  22.922  1.00  0.00     0.004 A 
ATOM     18  C   UNL A   1      28.526  27.885  23.214  1.00  0.00     0.004 A 
ATOM     19  C   UNL A   1      28.851  29.181  22.786  1.00  0.00    -0.045 A 
BRANCH  19  20
ATOM     20  C   UNL A   1      27.867  30.212  22.269  1.00  0.00     0.019 C 
ATOM     21  C   UNL A   1      28.235  31.654  22.066  1.00  0.00     0.009 C 
ATOM     22  C   UNL A   1      27.965  30.779  20.874  1.00  0.00     0.009 C 
ENDBRANCH  19  20
ENDBRANCH   6  14
ENDBRANCH   5   6
ENDBRANCH   3   5
ENDBRANCH   2   3
ENDBRANCH   1   2
BRANCH   1  23
ATOM     23  C   UNL A   1      31.656  32.502  27.021  1.00  0.00     0.275 C 
BRANCH  23  24
ATOM     24  O   UNL A   1      32.825  33.288  26.838  1.00  0.00    -0.458 OA
BRANCH  24  25
ATOM     25  C   UNL A   1      33.294  33.835  27.976  1.00  0.00     0.338 C 
ATOM     26  O   UNL A   1      32.718  34.605  28.725  1.00  0.00    -0.246 OA
BRANCH  25  27
ATOM     27  C   UNL A   1      34.517  33.108  28.309  1.00  0.00     0.060 A 
ATOM     28  C   UNL A   1      34.389  31.759  28.650  1.00  0.00     0.016 A 
ATOM     29  C   UNL A   1      35.760  33.744  28.282  1.00  0.00     0.016 A 
ATOM     30  C   UNL A   1      35.507  31.060  29.077  1.00  0.00     0.010 A 
ATOM     31  C   UNL A   1      36.879  33.046  28.726  1.00  0.00     0.010 A 
ATOM     32  C   UNL A   1      36.736  31.725  29.184  1.00  0.00    -0.014 A 
BRANCH  32  33
ATOM     33  C   UNL A   1      37.781  31.111  30.025  1.00  0.00     0.031 A 
ATOM     34  C   UNL A   1      38.715  30.127  29.375  1.00  0.00     0.074 A 
ATOM     35  C   UNL A   1      37.955  31.492  31.300  1.00  0.00     0.049 A 
ATOM     36  N   UNL A   1      39.748  29.506  29.882  1.00  0.00    -0.248 NA
ATOM     37  C   UNL A   1      38.459  29.811  27.958  1.00  0.00     0.031 C 
ATOM     38  C   UNL A   1      37.150  32.488  32.005  1.00  0.00     0.029 A 
ATOM     39  N   UNL A   1      38.886  31.090  32.220  1.00  0.00    -0.354 N 
ATOM     40  C   UNL A   1      40.269  28.741  28.846  1.00  0.00     0.074 A 
ATOM     41  C   UNL A   1      39.420  28.940  27.694  1.00  0.00     0.031 C 
ATOM     42  C   UNL A   1      37.627  32.621  33.255  1.00  0.00     0.029 A 
ATOM     43  C   UNL A   1      38.748  31.701  33.440  1.00  0.00     0.049 A 
ATOM     44  H   UNL A   1      39.587  30.427  32.024  1.00  0.00     0.167 HD
ATOM     45  C   UNL A   1      41.367  27.951  28.851  1.00  0.00     0.031 A 
ATOM     46  C   UNL A   1      39.446  31.522  34.577  1.00  0.00     0.031 A 
ATOM     47  C   UNL A   1      42.194  27.735  30.007  1.00  0.00     0.049 A 
ATOM     48  C   UNL A   1      40.597  30.549  34.582  1.00  0.00     0.074 A 
ATOM     49  C   UNL A   1      43.318  26.937  30.124  1.00  0.00     0.029 A 
ATOM     50  N   UNL A   1      41.978  28.313  31.248  1.00  0.00    -0.354 N 
ATOM     51  N   UNL A   1      41.094  29.843  33.595  1.00  0.00    -0.248 NA
ATOM     52  C   UNL A   1      41.293  30.360  35.864  1.00  0.00     0.031 C 
ATOM     53  C   UNL A   1      43.746  26.984  31.454  1.00  0.00     0.029 A 
ATOM     54  C   UNL A   1      42.931  27.866  32.146  1.00  0.00     0.049 A 
ATOM     55  H   UNL A   1      41.254  28.947  31.458  1.00  0.00     0.167 HD
ATOM     56  C   UNL A   1      42.176  29.152  34.127  1.00  0.00     0.074 A 
ATOM     57  C   UNL A   1      42.279  29.546  35.517  1.00  0.00     0.031 C 
ATOM     58  C   UNL A   1      43.012  28.269  33.526  1.00  0.00     0.031 A 
BRANCH  45  59
ATOM     59  C   UNL A   1      41.711  27.234  27.577  1.00  0.00    -0.014 A 
ATOM     60  C   UNL A   1      41.229  25.942  27.313  1.00  0.00     0.009 A 
ATOM     61  C   UNL A   1      42.498  27.877  26.609  1.00  0.00     0.009 A 
ATOM     62  C   UNL A   1      41.549  25.301  26.114  1.00  0.00     0.001 A 
ATOM     63  C   UNL A   1      42.792  27.244  25.401  1.00  0.00     0.001 A 
ATOM     64  C   UNL A   1      42.322  25.955  25.156  1.00  0.00     0.000 A 
ENDBRANCH  45  59
BRANCH  46  65
ATOM     65  C   UNL A   1      39.061  32.244  35.819  1.00  0.00    -0.014 A 
ATOM     66  C   UNL A   1      38.158  31.682  36.733  1.00  0.00     0.009 A 
ATOM     67  C   UNL A   1      39.556  33.536  36.063  1.00  0.00     0.009 A 
ATOM     68  C   UNL A   1      37.723  32.416  37.840  1.00  0.00     0.001 A 
ATOM     69  C   UNL A   1      39.148  34.253  37.190  1.00  0.00     0.001 A 
ATOM     70  C   UNL A   1      38.219  33.699  38.068  1.00  0.00     0.000 A 
ENDBRANCH  46  65
BRANCH  58  71
ATOM     71  C   UNL A   1      44.126  27.699  34.361  1.00  0.00    -0.014 A 
ATOM     72  C   UNL A   1      43.947  26.538  35.129  1.00  0.00     0.009 A 
ATOM     73  C   UNL A   1      45.385  28.322  34.356  1.00  0.00     0.009 A 
ATOM     74  C   UNL A   1      44.991  26.042  35.913  1.00  0.00     0.001 A 
ATOM     75  C   UNL A   1      46.437  27.803  35.111  1.00  0.00     0.001 A 
ATOM     76  C   UNL A   1      46.235  26.672  35.900  1.00  0.00     0.000 A 
ENDBRANCH  58  71
ENDBRANCH  32  33
ENDBRANCH  25  27
ENDBRANCH  24  25
ENDBRANCH  23  24
ENDBRANCH   1  23
TORSDOF 15
ENDMDL
