MODEL 1
REMARK VINA RESULT:     -12.8      0.000      0.000
REMARK SMILES COc1cc(C)cc2c1[C@@H](C)[C@@H](CC(=O)N[C@@H](Cc1c[nH]c3ccccc13)C(=O)OCCOC(=O)c1ccc(-c3c4nc(c(-c5ccccc5)c5ccc([nH]5)c(-c5ccccc5)c5nc(c(-c6ccccc6)c6ccc3[nH]6)C=C5)C=C4)cc1)C(=O)O2
REMARK SMILES IDX 31 1 30 2 28 3 29 4 17 5 16 6 14 7 15 8 13 10 12 11 3 12
REMARK SMILES IDX 4 13 9 14 5 15 8 16 10 17 6 18 7 19 86 20 11 21 84 22 85 23
REMARK SMILES IDX 2 24 1 25 18 26 19 27 20 28 27 29 21 30 22 31 26 32 23 34
REMARK SMILES IDX 25 35 24 36 32 37 33 38 34 39 35 40 36 41 37 42 83 43 38 44
REMARK SMILES IDX 82 45 39 46 40 47 41 48 76 49 42 50 81 51 75 52 77 53 43 54
REMARK SMILES IDX 80 55 74 56 73 57 44 59 66 60 51 61 65 62 52 63 55 64 64 65
REMARK SMILES IDX 78 66 53 67 54 68 63 70 79 71 56 72 45 73 46 74 50 75 47 76
REMARK SMILES IDX 49 77 48 78 67 79 68 80 72 81 69 82 71 83 70 84 57 85 58 86
REMARK SMILES IDX 62 87 59 88 61 89 60 90
REMARK H PARENT 16 9 21 33 77 58 55 69
REMARK Flexibility Score: inf
ROOT
ATOM      1  C   UNL A   1      38.126  21.079  25.064  1.00  0.00     0.274 C 
ENDROOT
BRANCH   1   2
ATOM      2  O   UNL A   1      36.930  21.438  25.784  1.00  0.00    -0.461 OA
BRANCH   2   3
ATOM      3  C   UNL A   1      36.547  22.728  25.645  1.00  0.00     0.329 C 
ATOM      4  O   UNL A   1      37.069  23.677  26.227  1.00  0.00    -0.250 OA
BRANCH   3   5
ATOM      5  C   UNL A   1      35.313  22.919  24.772  1.00  0.00     0.196 C 
BRANCH   5   6
ATOM      6  N   UNL A   1      35.230  23.978  23.782  1.00  0.00    -0.342 N 
ATOM      7  C   UNL A   1      34.151  24.796  23.545  1.00  0.00     0.221 C 
ATOM      8  O   UNL A   1      33.945  25.231  22.414  1.00  0.00    -0.275 OA
ATOM      9  H   UNL A   1      36.028  24.126  23.223  1.00  0.00     0.164 HD
BRANCH   7  10
ATOM     10  C   UNL A   1      33.358  25.324  24.734  1.00  0.00     0.116 C 
BRANCH  10  11
ATOM     11  C   UNL A   1      31.948  24.768  25.043  1.00  0.00     0.116 C 
ATOM     12  C   UNL A   1      30.803  28.252  24.459  1.00  0.00     0.126 A 
ATOM     13  C   UNL A   1      31.339  29.403  25.057  1.00  0.00     0.050 A 
ATOM     14  C   UNL A   1      30.936  27.021  25.105  1.00  0.00     0.041 A 
ATOM     15  C   UNL A   1      32.008  29.331  26.295  1.00  0.00    -0.044 A 
ATOM     16  C   UNL A   1      31.389  27.031  26.432  1.00  0.00     0.138 A 
ATOM     17  C   UNL A   1      30.798  25.650  24.460  1.00  0.00     0.038 C 
ATOM     18  C   UNL A   1      32.857  30.432  26.854  1.00  0.00     0.044 C 
ATOM     19  C   UNL A   1      31.911  28.164  27.035  1.00  0.00     0.051 A 
ATOM     20  O   UNL A   1      31.470  25.847  27.183  1.00  0.00    -0.426 OA
ATOM     21  C   UNL A   1      30.837  25.583  22.930  1.00  0.00     0.014 C 
ATOM     22  C   UNL A   1      31.618  24.646  26.508  1.00  0.00     0.315 C 
ATOM     23  O   UNL A   1      31.488  23.573  27.083  1.00  0.00    -0.251 OA
BRANCH  12  24
ATOM     24  O   UNL A   1      30.075  28.277  23.303  1.00  0.00    -0.496 OA
ATOM     25  C   UNL A   1      30.324  29.352  22.404  1.00  0.00     0.278 C 
ENDBRANCH  12  24
ENDBRANCH  10  11
ENDBRANCH   7  10
ENDBRANCH   5   6
BRANCH   5  26
ATOM     26  C   UNL A   1      34.900  21.559  24.226  1.00  0.00     0.074 C 
BRANCH  26  27
ATOM     27  C   UNL A   1      34.294  20.438  25.027  1.00  0.00    -0.020 A 
ATOM     28  C   UNL A   1      33.310  20.712  25.970  1.00  0.00     0.087 A 
ATOM     29  C   UNL A   1      34.177  19.015  24.816  1.00  0.00     0.003 A 
ATOM     30  N   UNL A   1      32.293  19.881  25.577  1.00  0.00    -0.361 N 
ATOM     31  C   UNL A   1      32.851  18.707  25.148  1.00  0.00     0.046 A 
ATOM     32  C   UNL A   1      34.961  17.954  24.322  1.00  0.00     0.010 A 
ATOM     33  H   UNL A   1      31.330  20.092  25.598  1.00  0.00     0.166 HD
ATOM     34  C   UNL A   1      32.267  17.446  24.987  1.00  0.00     0.026 A 
ATOM     35  C   UNL A   1      34.423  16.659  24.232  1.00  0.00     0.001 A 
ATOM     36  C   UNL A   1      33.093  16.413  24.553  1.00  0.00     0.002 A 
ENDBRANCH  26  27
ENDBRANCH   5  26
ENDBRANCH   3   5
ENDBRANCH   2   3
ENDBRANCH   1   2
BRANCH   1  37
ATOM     37  C   UNL A   1      39.272  20.816  26.041  1.00  0.00     0.275 C 
BRANCH  37  38
ATOM     38  O   UNL A   1      40.009  19.621  25.700  1.00  0.00    -0.458 OA
BRANCH  38  39
ATOM     39  C   UNL A   1      41.346  19.676  25.953  1.00  0.00     0.338 C 
ATOM     40  O   UNL A   1      42.175  18.860  25.630  1.00  0.00    -0.246 OA
BRANCH  39  41
ATOM     41  C   UNL A   1      41.695  20.981  26.577  1.00  0.00     0.060 A 
ATOM     42  C   UNL A   1      41.677  21.219  27.956  1.00  0.00     0.016 A 
ATOM     43  C   UNL A   1      42.092  21.998  25.715  1.00  0.00     0.016 A 
ATOM     44  C   UNL A   1      42.013  22.491  28.469  1.00  0.00     0.010 A 
ATOM     45  C   UNL A   1      42.410  23.258  26.229  1.00  0.00     0.010 A 
ATOM     46  C   UNL A   1      42.353  23.543  27.607  1.00  0.00    -0.014 A 
BRANCH  46  47
ATOM     47  C   UNL A   1      42.756  24.906  28.090  1.00  0.00     0.031 A 
ATOM     48  C   UNL A   1      44.173  25.276  28.482  1.00  0.00     0.074 A 
ATOM     49  C   UNL A   1      41.778  25.795  28.339  1.00  0.00     0.049 A 
ATOM     50  N   UNL A   1      44.614  26.354  29.091  1.00  0.00    -0.248 NA
ATOM     51  C   UNL A   1      45.219  24.281  28.240  1.00  0.00     0.031 C 
ATOM     52  C   UNL A   1      40.356  25.571  28.075  1.00  0.00     0.029 A 
ATOM     53  N   UNL A   1      41.825  27.050  28.890  1.00  0.00    -0.354 N 
ATOM     54  C   UNL A   1      45.960  26.118  29.378  1.00  0.00     0.074 A 
ATOM     55  C   UNL A   1      46.237  24.770  28.937  1.00  0.00     0.031 C 
ATOM     56  C   UNL A   1      39.666  26.652  28.464  1.00  0.00     0.029 A 
ATOM     57  C   UNL A   1      40.596  27.653  28.978  1.00  0.00     0.049 A 
ATOM     58  H   UNL A   1      42.659  27.477  29.194  1.00  0.00     0.167 HD
ATOM     59  C   UNL A   1      46.890  26.952  29.919  1.00  0.00     0.031 A 
ATOM     60  C   UNL A   1      40.247  28.891  29.375  1.00  0.00     0.031 A 
ATOM     61  C   UNL A   1      46.636  28.334  30.245  1.00  0.00     0.049 A 
ATOM     62  C   UNL A   1      41.309  29.874  29.774  1.00  0.00     0.074 A 
ATOM     63  C   UNL A   1      47.531  29.303  30.673  1.00  0.00     0.029 A 
ATOM     64  N   UNL A   1      45.400  28.951  30.152  1.00  0.00    -0.354 N 
ATOM     65  N   UNL A   1      42.594  29.673  29.929  1.00  0.00    -0.248 NA
ATOM     66  C   UNL A   1      40.882  31.261  30.002  1.00  0.00     0.031 C 
ATOM     67  C   UNL A   1      46.825  30.487  30.897  1.00  0.00     0.029 A 
ATOM     68  C   UNL A   1      45.506  30.278  30.530  1.00  0.00     0.049 A 
ATOM     69  H   UNL A   1      44.569  28.512  29.859  1.00  0.00     0.167 HD
ATOM     70  C   UNL A   1      43.135  30.914  30.246  1.00  0.00     0.074 A 
ATOM     71  C   UNL A   1      42.040  31.862  30.245  1.00  0.00     0.031 C 
ATOM     72  C   UNL A   1      44.424  31.229  30.513  1.00  0.00     0.031 A 
BRANCH  59  73
ATOM     73  C   UNL A   1      48.288  26.425  30.175  1.00  0.00    -0.014 A 
ATOM     74  C   UNL A   1      48.607  25.866  31.426  1.00  0.00     0.009 A 
ATOM     75  C   UNL A   1      49.318  26.557  29.228  1.00  0.00     0.009 A 
ATOM     76  C   UNL A   1      49.909  25.442  31.716  1.00  0.00     0.001 A 
ATOM     77  C   UNL A   1      50.606  26.089  29.501  1.00  0.00     0.001 A 
ATOM     78  C   UNL A   1      50.904  25.537  30.745  1.00  0.00     0.000 A 
ENDBRANCH  59  73
BRANCH  60  79
ATOM     79  C   UNL A   1      38.827  29.294  29.228  1.00  0.00    -0.014 A 
ATOM     80  C   UNL A   1      37.920  29.164  30.290  1.00  0.00     0.009 A 
ATOM     81  C   UNL A   1      38.351  29.680  27.965  1.00  0.00     0.009 A 
ATOM     82  C   UNL A   1      36.558  29.389  30.082  1.00  0.00     0.001 A 
ATOM     83  C   UNL A   1      36.994  29.929  27.768  1.00  0.00     0.001 A 
ATOM     84  C   UNL A   1      36.097  29.772  28.822  1.00  0.00     0.000 A 
ENDBRANCH  60  79
BRANCH  72  85
ATOM     85  C   UNL A   1      44.769  32.659  30.820  1.00  0.00    -0.014 A 
ATOM     86  C   UNL A   1      44.612  33.145  32.128  1.00  0.00     0.009 A 
ATOM     87  C   UNL A   1      45.096  33.559  29.795  1.00  0.00     0.009 A 
ATOM     88  C   UNL A   1      44.750  34.506  32.402  1.00  0.00     0.001 A 
ATOM     89  C   UNL A   1      45.259  34.919  30.077  1.00  0.00     0.001 A 
ATOM     90  C   UNL A   1      45.073  35.392  31.375  1.00  0.00     0.000 A 
ENDBRANCH  72  85
ENDBRANCH  46  47
ENDBRANCH  39  41
ENDBRANCH  38  39
ENDBRANCH  37  38
ENDBRANCH   1  37
TORSDOF 17
ENDMDL
MODEL 2
REMARK VINA RESULT:     -12.6      3.879      5.127
REMARK SMILES COc1cc(C)cc2c1[C@@H](C)[C@@H](CC(=O)N[C@@H](Cc1c[nH]c3ccccc13)C(=O)OCCOC(=O)c1ccc(-c3c4nc(c(-c5ccccc5)c5ccc([nH]5)c(-c5ccccc5)c5nc(c(-c6ccccc6)c6ccc3[nH]6)C=C5)C=C4)cc1)C(=O)O2
REMARK SMILES IDX 31 1 30 2 28 3 29 4 17 5 16 6 14 7 15 8 13 10 12 11 3 12
REMARK SMILES IDX 4 13 9 14 5 15 8 16 10 17 6 18 7 19 86 20 11 21 84 22 85 23
REMARK SMILES IDX 2 24 1 25 18 26 19 27 20 28 27 29 21 30 22 31 26 32 23 34
REMARK SMILES IDX 25 35 24 36 32 37 33 38 34 39 35 40 36 41 37 42 83 43 38 44
REMARK SMILES IDX 82 45 39 46 40 47 41 48 76 49 42 50 81 51 75 52 77 53 43 54
REMARK SMILES IDX 80 55 74 56 73 57 44 59 66 60 51 61 65 62 52 63 55 64 64 65
REMARK SMILES IDX 78 66 53 67 54 68 63 70 79 71 56 72 45 73 46 74 50 75 47 76
REMARK SMILES IDX 49 77 48 78 67 79 68 80 72 81 69 82 71 83 70 84 57 85 58 86
REMARK SMILES IDX 62 87 59 88 61 89 60 90
REMARK H PARENT 16 9 21 33 77 58 55 69
REMARK Flexibility Score: inf
ROOT
ATOM      1  C   UNL A   1      38.952  21.803  25.895  1.00  0.00     0.274 C 
ENDROOT
BRANCH   1   2
ATOM      2  O   UNL A   1      37.612  22.331  25.841  1.00  0.00    -0.461 OA
BRANCH   2   3
ATOM      3  C   UNL A   1      36.690  21.490  25.320  1.00  0.00     0.329 C 
ATOM      4  O   UNL A   1      36.931  20.353  24.919  1.00  0.00    -0.250 OA
BRANCH   3   5
ATOM      5  C   UNL A   1      35.307  22.108  25.156  1.00  0.00     0.196 C 
BRANCH   5   6
ATOM      6  N   UNL A   1      34.799  22.520  23.860  1.00  0.00    -0.342 N 
ATOM      7  C   UNL A   1      33.560  23.053  23.597  1.00  0.00     0.221 C 
ATOM      8  O   UNL A   1      33.021  22.849  22.510  1.00  0.00    -0.275 OA
ATOM      9  H   UNL A   1      35.405  22.407  23.090  1.00  0.00     0.164 HD
BRANCH   7  10
ATOM     10  C   UNL A   1      32.976  24.065  24.573  1.00  0.00     0.116 C 
BRANCH  10  11
ATOM     11  C   UNL A   1      31.570  23.847  25.178  1.00  0.00     0.116 C 
ATOM     12  C   UNL A   1      31.000  27.413  24.308  1.00  0.00     0.126 A 
ATOM     13  C   UNL A   1      31.841  28.484  24.647  1.00  0.00     0.050 A 
ATOM     14  C   UNL A   1      31.021  26.255  25.089  1.00  0.00     0.041 A 
ATOM     15  C   UNL A   1      32.702  28.406  25.760  1.00  0.00    -0.044 A 
ATOM     16  C   UNL A   1      31.705  26.310  26.312  1.00  0.00     0.138 A 
ATOM     17  C   UNL A   1      30.515  24.882  24.671  1.00  0.00     0.038 C 
ATOM     18  C   UNL A   1      33.828  29.360  26.017  1.00  0.00     0.044 C 
ATOM     19  C   UNL A   1      32.529  27.367  26.661  1.00  0.00     0.051 A 
ATOM     20  O   UNL A   1      31.703  25.219  27.196  1.00  0.00    -0.426 OA
ATOM     21  C   UNL A   1      30.258  24.649  23.179  1.00  0.00     0.014 C 
ATOM     22  C   UNL A   1      31.499  23.950  26.680  1.00  0.00     0.315 C 
ATOM     23  O   UNL A   1      31.282  22.992  27.412  1.00  0.00    -0.251 OA
BRANCH  12  24
ATOM     24  O   UNL A   1      30.089  27.466  23.292  1.00  0.00    -0.496 OA
ATOM     25  C   UNL A   1      29.963  28.704  22.600  1.00  0.00     0.278 C 
ENDBRANCH  12  24
ENDBRANCH  10  11
ENDBRANCH   7  10
ENDBRANCH   5   6
BRANCH   5  26
ATOM     26  C   UNL A   1      34.313  21.266  25.945  1.00  0.00     0.074 C 
BRANCH  26  27
ATOM     27  C   UNL A   1      33.447  20.171  25.382  1.00  0.00    -0.020 A 
ATOM     28  C   UNL A   1      32.118  20.430  25.068  1.00  0.00     0.087 A 
ATOM     29  C   UNL A   1      33.728  18.940  24.682  1.00  0.00     0.003 A 
ATOM     30  N   UNL A   1      32.047  20.033  23.757  1.00  0.00    -0.361 N 
ATOM     31  C   UNL A   1      32.822  18.914  23.613  1.00  0.00     0.046 A 
ATOM     32  C   UNL A   1      34.660  17.884  24.739  1.00  0.00     0.010 A 
ATOM     33  H   UNL A   1      31.530  20.476  23.044  1.00  0.00     0.166 HD
ATOM     34  C   UNL A   1      32.813  17.944  22.607  1.00  0.00     0.026 A 
ATOM     35  C   UNL A   1      34.614  16.850  23.788  1.00  0.00     0.001 A 
ATOM     36  C   UNL A   1      33.709  16.886  22.734  1.00  0.00     0.002 A 
ENDBRANCH  26  27
ENDBRANCH   5  26
ENDBRANCH   3   5
ENDBRANCH   2   3
ENDBRANCH   1   2
BRANCH   1  37
ATOM     37  C   UNL A   1      39.818  22.652  26.827  1.00  0.00     0.275 C 
BRANCH  37  38
ATOM     38  O   UNL A   1      39.695  24.063  26.542  1.00  0.00    -0.458 OA
BRANCH  38  39
ATOM     39  C   UNL A   1      40.873  24.743  26.479  1.00  0.00     0.338 C 
ATOM     40  O   UNL A   1      41.740  24.611  25.649  1.00  0.00    -0.246 OA
BRANCH  39  41
ATOM     41  C   UNL A   1      40.904  25.808  27.517  1.00  0.00     0.060 A 
ATOM     42  C   UNL A   1      41.846  26.845  27.548  1.00  0.00     0.016 A 
ATOM     43  C   UNL A   1      39.906  25.767  28.485  1.00  0.00     0.016 A 
ATOM     44  C   UNL A   1      41.812  27.814  28.576  1.00  0.00     0.010 A 
ATOM     45  C   UNL A   1      39.888  26.720  29.506  1.00  0.00     0.010 A 
ATOM     46  C   UNL A   1      40.851  27.745  29.593  1.00  0.00    -0.014 A 
BRANCH  46  47
ATOM     47  C   UNL A   1      40.738  28.763  30.690  1.00  0.00     0.031 A 
ATOM     48  C   UNL A   1      41.564  28.728  31.961  1.00  0.00     0.074 A 
ATOM     49  C   UNL A   1      39.738  29.659  30.610  1.00  0.00     0.049 A 
ATOM     50  N   UNL A   1      41.429  29.433  33.062  1.00  0.00    -0.248 NA
ATOM     51  C   UNL A   1      42.622  27.720  32.047  1.00  0.00     0.031 C 
ATOM     52  C   UNL A   1      38.815  29.785  29.481  1.00  0.00     0.029 A 
ATOM     53  N   UNL A   1      39.315  30.614  31.499  1.00  0.00    -0.354 N 
ATOM     54  C   UNL A   1      42.321  28.888  33.988  1.00  0.00     0.074 A 
ATOM     55  C   UNL A   1      42.937  27.755  33.336  1.00  0.00     0.031 C 
ATOM     56  C   UNL A   1      37.935  30.760  29.745  1.00  0.00     0.029 A 
ATOM     57  C   UNL A   1      38.247  31.346  31.046  1.00  0.00     0.049 A 
ATOM     58  H   UNL A   1      39.736  30.760  32.377  1.00  0.00     0.167 HD
ATOM     59  C   UNL A   1      42.632  29.310  35.244  1.00  0.00     0.031 A 
ATOM     60  C   UNL A   1      37.613  32.405  31.581  1.00  0.00     0.031 A 
ATOM     61  C   UNL A   1      42.102  30.512  35.841  1.00  0.00     0.049 A 
ATOM     62  C   UNL A   1      38.100  32.992  32.874  1.00  0.00     0.074 A 
ATOM     63  C   UNL A   1      42.443  31.103  37.048  1.00  0.00     0.029 A 
ATOM     64  N   UNL A   1      41.139  31.321  35.262  1.00  0.00    -0.354 N 
ATOM     65  N   UNL A   1      39.023  32.537  33.684  1.00  0.00    -0.248 NA
ATOM     66  C   UNL A   1      37.496  34.261  33.300  1.00  0.00     0.031 C 
ATOM     67  C   UNL A   1      41.643  32.234  37.225  1.00  0.00     0.029 A 
ATOM     68  C   UNL A   1      40.862  32.393  36.093  1.00  0.00     0.049 A 
ATOM     69  H   UNL A   1      40.714  31.159  34.389  1.00  0.00     0.167 HD
ATOM     70  C   UNL A   1      39.132  33.478  34.701  1.00  0.00     0.074 A 
ATOM     71  C   UNL A   1      38.191  34.536  34.397  1.00  0.00     0.031 C 
ATOM     72  C   UNL A   1      39.941  33.456  35.786  1.00  0.00     0.031 A 
BRANCH  59  73
ATOM     73  C   UNL A   1      43.611  28.500  36.069  1.00  0.00    -0.014 A 
ATOM     74  C   UNL A   1      43.151  27.409  36.830  1.00  0.00     0.009 A 
ATOM     75  C   UNL A   1      44.966  28.856  36.177  1.00  0.00     0.009 A 
ATOM     76  C   UNL A   1      44.020  26.691  37.659  1.00  0.00     0.001 A 
ATOM     77  C   UNL A   1      45.843  28.108  36.968  1.00  0.00     0.001 A 
ATOM     78  C   UNL A   1      45.370  27.030  37.714  1.00  0.00     0.000 A 
ENDBRANCH  59  73
BRANCH  60  79
ATOM     79  C   UNL A   1      36.560  33.067  30.772  1.00  0.00    -0.014 A 
ATOM     80  C   UNL A   1      35.199  32.827  31.014  1.00  0.00     0.009 A 
ATOM     81  C   UNL A   1      36.933  33.836  29.659  1.00  0.00     0.009 A 
ATOM     82  C   UNL A   1      34.232  33.326  30.138  1.00  0.00     0.001 A 
ATOM     83  C   UNL A   1      35.963  34.353  28.801  1.00  0.00     0.001 A 
ATOM     84  C   UNL A   1      34.615  34.088  29.034  1.00  0.00     0.000 A 
ENDBRANCH  60  79
BRANCH  72  85
ATOM     85  C   UNL A   1      39.885  34.609  36.750  1.00  0.00    -0.014 A 
ATOM     86  C   UNL A   1      40.785  35.678  36.607  1.00  0.00     0.009 A 
ATOM     87  C   UNL A   1      39.058  34.564  37.882  1.00  0.00     0.009 A 
ATOM     88  C   UNL A   1      40.877  36.665  37.588  1.00  0.00     0.001 A 
ATOM     89  C   UNL A   1      39.134  35.568  38.851  1.00  0.00     0.001 A 
ATOM     90  C   UNL A   1      40.051  36.609  38.710  1.00  0.00     0.000 A 
ENDBRANCH  72  85
ENDBRANCH  46  47
ENDBRANCH  39  41
ENDBRANCH  38  39
ENDBRANCH  37  38
ENDBRANCH   1  37
TORSDOF 17
ENDMDL
MODEL 3
REMARK VINA RESULT:     -12.5      2.463      8.461
REMARK SMILES COc1cc(C)cc2c1[C@@H](C)[C@@H](CC(=O)N[C@@H](Cc1c[nH]c3ccccc13)C(=O)OCCOC(=O)c1ccc(-c3c4nc(c(-c5ccccc5)c5ccc([nH]5)c(-c5ccccc5)c5nc(c(-c6ccccc6)c6ccc3[nH]6)C=C5)C=C4)cc1)C(=O)O2
REMARK SMILES IDX 31 1 30 2 28 3 29 4 17 5 16 6 14 7 15 8 13 10 12 11 3 12
REMARK SMILES IDX 4 13 9 14 5 15 8 16 10 17 6 18 7 19 86 20 11 21 84 22 85 23
REMARK SMILES IDX 2 24 1 25 18 26 19 27 20 28 27 29 21 30 22 31 26 32 23 34
REMARK SMILES IDX 25 35 24 36 32 37 33 38 34 39 35 40 36 41 37 42 83 43 38 44
REMARK SMILES IDX 82 45 39 46 40 47 41 48 76 49 42 50 81 51 75 52 77 53 43 54
REMARK SMILES IDX 80 55 74 56 73 57 44 59 66 60 51 61 65 62 52 63 55 64 64 65
REMARK SMILES IDX 78 66 53 67 54 68 63 70 79 71 56 72 45 73 46 74 50 75 47 76
REMARK SMILES IDX 49 77 48 78 67 79 68 80 72 81 69 82 71 83 70 84 57 85 58 86
REMARK SMILES IDX 62 87 59 88 61 89 60 90
REMARK H PARENT 16 9 21 33 77 58 55 69
REMARK Flexibility Score: inf
ROOT
ATOM      1  C   UNL A   1      32.848  30.086  27.057  1.00  0.00     0.274 C 
ENDROOT
BRANCH   1   2
ATOM      2  O   UNL A   1      32.977  28.698  27.424  1.00  0.00    -0.461 OA
BRANCH   2   3
ATOM      3  C   UNL A   1      31.987  27.896  26.972  1.00  0.00     0.329 C 
ATOM      4  O   UNL A   1      31.057  27.479  27.660  1.00  0.00    -0.250 OA
BRANCH   3   5
ATOM      5  C   UNL A   1      32.167  27.438  25.529  1.00  0.00     0.196 C 
BRANCH   5   6
ATOM      6  N   UNL A   1      33.430  26.910  25.045  1.00  0.00    -0.342 N 
ATOM      7  C   UNL A   1      33.971  25.681  25.339  1.00  0.00     0.221 C 
ATOM      8  O   UNL A   1      35.192  25.540  25.378  1.00  0.00    -0.275 OA
ATOM      9  H   UNL A   1      33.952  27.491  24.444  1.00  0.00     0.164 HD
BRANCH   7  10
ATOM     10  C   UNL A   1      33.049  24.471  25.397  1.00  0.00     0.116 C 
BRANCH  10  11
ATOM     11  C   UNL A   1      32.436  23.891  24.101  1.00  0.00     0.116 C 
ATOM     12  C   UNL A   1      34.295  20.801  24.989  1.00  0.00     0.126 A 
ATOM     13  C   UNL A   1      35.659  20.728  25.311  1.00  0.00     0.050 A 
ATOM     14  C   UNL A   1      33.835  21.857  24.198  1.00  0.00     0.041 A 
ATOM     15  C   UNL A   1      36.565  21.703  24.847  1.00  0.00    -0.044 A 
ATOM     16  C   UNL A   1      34.795  22.660  23.566  1.00  0.00     0.138 A 
ATOM     17  C   UNL A   1      32.393  22.330  24.085  1.00  0.00     0.038 C 
ATOM     18  C   UNL A   1      37.957  21.872  25.376  1.00  0.00     0.044 C 
ATOM     19  C   UNL A   1      36.144  22.589  23.868  1.00  0.00     0.051 A 
ATOM     20  O   UNL A   1      34.418  23.687  22.686  1.00  0.00    -0.426 OA
ATOM     21  C   UNL A   1      31.404  21.842  25.149  1.00  0.00     0.014 C 
ATOM     22  C   UNL A   1      33.163  24.256  22.833  1.00  0.00     0.315 C 
ATOM     23  O   UNL A   1      32.700  25.003  21.980  1.00  0.00    -0.251 OA
BRANCH  12  24
ATOM     24  O   UNL A   1      33.389  19.842  25.342  1.00  0.00    -0.496 OA
ATOM     25  C   UNL A   1      33.219  18.751  24.443  1.00  0.00     0.278 C 
ENDBRANCH  12  24
ENDBRANCH  10  11
ENDBRANCH   7  10
ENDBRANCH   5   6
BRANCH   5  26
ATOM     26  C   UNL A   1      30.974  26.570  25.152  1.00  0.00     0.074 C 
BRANCH  26  27
ATOM     27  C   UNL A   1      29.981  26.867  24.061  1.00  0.00    -0.020 A 
ATOM     28  C   UNL A   1      28.977  25.951  23.770  1.00  0.00     0.087 A 
ATOM     29  C   UNL A   1      29.522  28.085  23.438  1.00  0.00     0.003 A 
ATOM     30  N   UNL A   1      27.845  26.718  23.878  1.00  0.00    -0.361 N 
ATOM     31  C   UNL A   1      28.128  27.959  23.377  1.00  0.00     0.046 A 
ATOM     32  C   UNL A   1      30.060  29.308  22.988  1.00  0.00     0.010 A 
ATOM     33  H   UNL A   1      26.981  26.426  24.253  1.00  0.00     0.166 HD
ATOM     34  C   UNL A   1      27.260  28.965  22.939  1.00  0.00     0.026 A 
ATOM     35  C   UNL A   1      29.217  30.301  22.463  1.00  0.00     0.001 A 
ATOM     36  C   UNL A   1      27.837  30.133  22.447  1.00  0.00     0.002 A 
ENDBRANCH  26  27
ENDBRANCH   5  26
ENDBRANCH   3   5
ENDBRANCH   2   3
ENDBRANCH   1   2
BRANCH   1  37
ATOM     37  C   UNL A   1      33.898  30.925  27.785  1.00  0.00     0.275 C 
BRANCH  37  38
ATOM     38  O   UNL A   1      35.134  30.200  27.972  1.00  0.00    -0.458 OA
BRANCH  38  39
ATOM     39  C   UNL A   1      35.899  30.624  29.016  1.00  0.00     0.338 C 
ATOM     40  O   UNL A   1      35.517  31.221  29.994  1.00  0.00    -0.246 OA
BRANCH  39  41
ATOM     41  C   UNL A   1      37.291  30.122  28.867  1.00  0.00     0.060 A 
ATOM     42  C   UNL A   1      38.131  29.810  29.943  1.00  0.00     0.016 A 
ATOM     43  C   UNL A   1      37.749  29.930  27.568  1.00  0.00     0.016 A 
ATOM     44  C   UNL A   1      39.446  29.346  29.716  1.00  0.00     0.010 A 
ATOM     45  C   UNL A   1      39.056  29.485  27.351  1.00  0.00     0.010 A 
ATOM     46  C   UNL A   1      39.941  29.210  28.411  1.00  0.00    -0.014 A 
BRANCH  46  47
ATOM     47  C   UNL A   1      41.314  28.688  28.102  1.00  0.00     0.031 A 
ATOM     48  C   UNL A   1      41.603  27.251  27.717  1.00  0.00     0.074 A 
ATOM     49  C   UNL A   1      42.358  29.503  28.337  1.00  0.00     0.049 A 
ATOM     50  N   UNL A   1      42.758  26.632  27.612  1.00  0.00    -0.248 NA
ATOM     51  C   UNL A   1      40.454  26.369  27.505  1.00  0.00     0.031 C 
ATOM     52  C   UNL A   1      42.253  30.896  28.770  1.00  0.00     0.029 A 
ATOM     53  N   UNL A   1      43.709  29.272  28.268  1.00  0.00    -0.354 N 
ATOM     54  C   UNL A   1      42.462  25.282  27.413  1.00  0.00     0.074 A 
ATOM     55  C   UNL A   1      41.023  25.169  27.482  1.00  0.00     0.031 C 
ATOM     56  C   UNL A   1      43.485  31.397  28.928  1.00  0.00     0.029 A 
ATOM     57  C   UNL A   1      44.466  30.372  28.583  1.00  0.00     0.049 A 
ATOM     58  H   UNL A   1      44.098  28.403  28.018  1.00  0.00     0.167 HD
ATOM     59  C   UNL A   1      43.299  24.240  27.157  1.00  0.00     0.031 A 
ATOM     60  C   UNL A   1      45.798  30.565  28.550  1.00  0.00     0.031 A 
ATOM     61  C   UNL A   1      44.723  24.382  26.971  1.00  0.00     0.049 A 
ATOM     62  C   UNL A   1      46.699  29.468  28.065  1.00  0.00     0.074 A 
ATOM     63  C   UNL A   1      45.646  23.423  26.581  1.00  0.00     0.029 A 
ATOM     64  N   UNL A   1      45.425  25.564  27.133  1.00  0.00    -0.354 N 
ATOM     65  N   UNL A   1      46.395  28.229  27.767  1.00  0.00    -0.248 NA
ATOM     66  C   UNL A   1      48.114  29.806  27.864  1.00  0.00     0.031 C 
ATOM     67  C   UNL A   1      46.913  24.011  26.567  1.00  0.00     0.029 A 
ATOM     68  C   UNL A   1      46.768  25.355  26.870  1.00  0.00     0.049 A 
ATOM     69  H   UNL A   1      45.029  26.426  27.396  1.00  0.00     0.167 HD
ATOM     70  C   UNL A   1      47.574  27.648  27.315  1.00  0.00     0.074 A 
ATOM     71  C   UNL A   1      48.594  28.674  27.365  1.00  0.00     0.031 C 
ATOM     72  C   UNL A   1      47.782  26.376  26.900  1.00  0.00     0.031 A 
BRANCH  59  73
ATOM     73  C   UNL A   1      42.719  22.846  27.028  1.00  0.00    -0.014 A 
ATOM     74  C   UNL A   1      42.282  22.384  25.772  1.00  0.00     0.009 A 
ATOM     75  C   UNL A   1      42.512  22.020  28.144  1.00  0.00     0.009 A 
ATOM     76  C   UNL A   1      41.673  21.132  25.637  1.00  0.00     0.001 A 
ATOM     77  C   UNL A   1      41.947  20.749  28.001  1.00  0.00     0.001 A 
ATOM     78  C   UNL A   1      41.522  20.307  26.750  1.00  0.00     0.000 A 
ENDBRANCH  59  73
BRANCH  60  79
ATOM     79  C   UNL A   1      46.309  31.930  28.827  1.00  0.00    -0.014 A 
ATOM     80  C   UNL A   1      46.461  32.873  27.800  1.00  0.00     0.009 A 
ATOM     81  C   UNL A   1      46.780  32.237  30.114  1.00  0.00     0.009 A 
ATOM     82  C   UNL A   1      47.099  34.089  28.052  1.00  0.00     0.001 A 
ATOM     83  C   UNL A   1      47.394  33.463  30.366  1.00  0.00     0.001 A 
ATOM     84  C   UNL A   1      47.563  34.382  29.334  1.00  0.00     0.000 A 
ENDBRANCH  60  79
BRANCH  72  85
ATOM     85  C   UNL A   1      49.159  25.983  26.441  1.00  0.00    -0.014 A 
ATOM     86  C   UNL A   1      50.051  25.393  27.352  1.00  0.00     0.009 A 
ATOM     87  C   UNL A   1      49.623  26.335  25.166  1.00  0.00     0.009 A 
ATOM     88  C   UNL A   1      51.386  25.187  27.005  1.00  0.00     0.001 A 
ATOM     89  C   UNL A   1      50.956  26.104  24.812  1.00  0.00     0.001 A 
ATOM     90  C   UNL A   1      51.838  25.543  25.735  1.00  0.00     0.000 A 
ENDBRANCH  72  85
ENDBRANCH  46  47
ENDBRANCH  39  41
ENDBRANCH  38  39
ENDBRANCH  37  38
ENDBRANCH   1  37
TORSDOF 17
ENDMDL
