MODEL 1
REMARK VINA RESULT:     -13.7      0.000      0.000
REMARK SMILES O=C(Cn1nc(C(=O)OCCOC(=O)c2ccc(-c3c4nc(c(-c5ccccc5)c5ccc([nH]5)c(-c5ccccc5)c5nc(c(-c6ccccc6)c6ccc3[nH]6)C=C5)C=C4)cc2)c2ccccc2c1=O)Nc1ccc2c(c1)C(=O)c1ccccc1C2=O
REMARK SMILES IDX 10 1 9 2 7 3 8 4 6 5 4 6 5 7 69 8 68 9 70 10 63 11 67 12
REMARK SMILES IDX 64 13 66 14 65 15 3 16 2 17 1 18 71 19 72 21 73 22 77 23
REMARK SMILES IDX 74 24 76 25 75 26 78 27 86 28 79 29 80 30 85 31 87 32 81 33
REMARK SMILES IDX 84 34 82 35 83 36 11 37 12 38 13 39 14 40 15 41 16 42 62 43
REMARK SMILES IDX 17 44 61 45 18 46 19 47 20 48 55 49 21 50 60 51 54 52 56 53
REMARK SMILES IDX 22 54 59 55 53 56 52 57 23 59 45 60 30 61 44 62 31 63 34 64
REMARK SMILES IDX 43 65 57 66 32 67 33 68 42 70 58 71 35 72 24 73 25 74 29 75
REMARK SMILES IDX 26 76 28 77 27 78 46 79 47 80 51 81 48 82 50 83 49 84 36 85
REMARK SMILES IDX 37 86 41 87 38 88 40 89 39 90
REMARK H PARENT 71 20 56 58 34 69
REMARK Flexibility Score: inf
ROOT
ATOM      1  C   UNL A   1      45.728  22.826  38.180  1.00  0.00     0.275 C 
ENDROOT
BRANCH   1   2
ATOM      2  O   UNL A   1      46.001  21.455  38.538  1.00  0.00    -0.457 OA
BRANCH   2   3
ATOM      3  C   UNL A   1      46.170  20.561  37.541  1.00  0.00     0.359 C 
ATOM      4  O   UNL A   1      46.277  20.763  36.347  1.00  0.00    -0.244 OA
BRANCH   3   5
ATOM      5  C   UNL A   1      46.280  19.177  38.167  1.00  0.00     0.176 A 
ATOM      6  N   UNL A   1      45.261  17.163  38.651  1.00  0.00    -0.219 N 
ATOM      7  N   UNL A   1      45.327  18.327  37.905  1.00  0.00    -0.161 NA
ATOM      8  C   UNL A   1      45.959  17.030  39.858  1.00  0.00     0.275 A 
ATOM      9  C   UNL A   1      47.193  17.832  39.970  1.00  0.00     0.051 A 
ATOM     10  O   UNL A   1      45.684  16.204  40.719  1.00  0.00    -0.267 OA
ATOM     11  C   UNL A   1      47.392  18.881  39.082  1.00  0.00     0.022 A 
ATOM     12  C   UNL A   1      48.197  17.474  40.881  1.00  0.00     0.014 A 
ATOM     13  C   UNL A   1      48.617  19.553  39.067  1.00  0.00     0.011 A 
ATOM     14  C   UNL A   1      49.407  18.168  40.888  1.00  0.00     0.001 A 
ATOM     15  C   UNL A   1      49.620  19.199  39.976  1.00  0.00     0.001 A 
BRANCH   6  16
ATOM     16  C   UNL A   1      44.138  16.248  38.348  1.00  0.00     0.248 C 
BRANCH  16  17
ATOM     17  C   UNL A   1      43.032  16.181  39.431  1.00  0.00     0.246 C 
ATOM     18  O   UNL A   1      42.628  17.177  40.024  1.00  0.00    -0.273 OA
ATOM     19  N   UNL A   1      42.538  14.910  39.616  1.00  0.00    -0.324 N 
ATOM     20  H   UNL A   1      42.580  14.291  38.851  1.00  0.00     0.169 HD
BRANCH  19  21
ATOM     21  C   UNL A   1      41.981  14.427  40.806  1.00  0.00     0.042 A 
ATOM     22  C   UNL A   1      41.138  13.315  40.803  1.00  0.00     0.027 A 
ATOM     23  C   UNL A   1      42.665  14.799  41.963  1.00  0.00     0.039 A 
ATOM     24  C   UNL A   1      41.154  12.447  41.906  1.00  0.00     0.015 A 
ATOM     25  C   UNL A   1      42.702  13.927  43.036  1.00  0.00     0.036 A 
ATOM     26  C   UNL A   1      42.032  12.710  42.965  1.00  0.00     0.034 A 
ATOM     27  C   UNL A   1      43.768  14.135  44.028  1.00  0.00     0.194 C 
ATOM     28  C   UNL A   1      42.548  11.594  43.794  1.00  0.00     0.194 C 
ATOM     29  O   UNL A   1      44.074  15.245  44.435  1.00  0.00    -0.289 OA
ATOM     30  C   UNL A   1      44.577  12.943  44.309  1.00  0.00     0.034 A 
ATOM     31  C   UNL A   1      43.988  11.686  44.160  1.00  0.00     0.034 A 
ATOM     32  O   UNL A   1      41.884  10.598  44.028  1.00  0.00    -0.289 OA
ATOM     33  C   UNL A   1      45.952  13.085  44.498  1.00  0.00     0.013 A 
ATOM     34  C   UNL A   1      44.790  10.546  44.175  1.00  0.00     0.013 A 
ATOM     35  C   UNL A   1      46.755  11.947  44.479  1.00  0.00     0.001 A 
ATOM     36  C   UNL A   1      46.177  10.684  44.312  1.00  0.00     0.001 A 
ENDBRANCH  19  21
ENDBRANCH  16  17
ENDBRANCH   6  16
ENDBRANCH   3   5
ENDBRANCH   2   3
ENDBRANCH   1   2
BRANCH   1  37
ATOM     37  C   UNL A   1      46.943  23.687  38.523  1.00  0.00     0.275 C 
BRANCH  37  38
ATOM     38  O   UNL A   1      46.768  24.941  37.846  1.00  0.00    -0.458 OA
BRANCH  38  39
ATOM     39  C   UNL A   1      47.141  25.002  36.546  1.00  0.00     0.338 C 
ATOM     40  O   UNL A   1      48.120  24.505  36.033  1.00  0.00    -0.246 OA
BRANCH  39  41
ATOM     41  C   UNL A   1      46.106  25.773  35.818  1.00  0.00     0.060 A 
ATOM     42  C   UNL A   1      46.437  26.960  35.170  1.00  0.00     0.016 A 
ATOM     43  C   UNL A   1      44.805  25.278  35.727  1.00  0.00     0.016 A 
ATOM     44  C   UNL A   1      45.452  27.660  34.459  1.00  0.00     0.010 A 
ATOM     45  C   UNL A   1      43.859  25.924  34.932  1.00  0.00     0.010 A 
ATOM     46  C   UNL A   1      44.154  27.136  34.295  1.00  0.00    -0.014 A 
BRANCH  46  47
ATOM     47  C   UNL A   1      43.117  27.825  33.461  1.00  0.00     0.031 A 
ATOM     48  C   UNL A   1      42.919  27.481  31.999  1.00  0.00     0.074 A 
ATOM     49  C   UNL A   1      42.381  28.828  33.986  1.00  0.00     0.049 A 
ATOM     50  N   UNL A   1      42.140  28.057  31.114  1.00  0.00    -0.248 NA
ATOM     51  C   UNL A   1      43.745  26.401  31.437  1.00  0.00     0.031 C 
ATOM     52  C   UNL A   1      42.514  29.368  35.341  1.00  0.00     0.029 A 
ATOM     53  N   UNL A   1      41.351  29.561  33.443  1.00  0.00    -0.354 N 
ATOM     54  C   UNL A   1      42.448  27.471  29.891  1.00  0.00     0.074 A 
ATOM     55  C   UNL A   1      43.512  26.524  30.139  1.00  0.00     0.031 C 
ATOM     56  C   UNL A   1      41.538  30.263  35.556  1.00  0.00     0.029 A 
ATOM     57  C   UNL A   1      40.742  30.405  34.343  1.00  0.00     0.049 A 
ATOM     58  H   UNL A   1      41.075  29.489  32.500  1.00  0.00     0.167 HD
ATOM     59  C   UNL A   1      41.883  27.674  28.675  1.00  0.00     0.031 A 
ATOM     60  C   UNL A   1      39.652  31.186  34.222  1.00  0.00     0.031 A 
ATOM     61  C   UNL A   1      40.732  28.504  28.442  1.00  0.00     0.049 A 
ATOM     62  C   UNL A   1      38.914  31.249  32.916  1.00  0.00     0.074 A 
ATOM     63  C   UNL A   1      40.021  28.675  27.265  1.00  0.00     0.029 A 
ATOM     64  N   UNL A   1      40.092  29.258  29.409  1.00  0.00    -0.354 N 
ATOM     65  N   UNL A   1      39.202  30.662  31.781  1.00  0.00    -0.248 NA
ATOM     66  C   UNL A   1      37.697  32.075  32.875  1.00  0.00     0.031 C 
ATOM     67  C   UNL A   1      38.953  29.538  27.519  1.00  0.00     0.029 A 
ATOM     68  C   UNL A   1      38.983  29.877  28.862  1.00  0.00     0.049 A 
ATOM     69  H   UNL A   1      40.384  29.343  30.346  1.00  0.00     0.167 HD
ATOM     70  C   UNL A   1      38.197  31.032  30.899  1.00  0.00     0.074 A 
ATOM     71  C   UNL A   1      37.280  31.880  31.630  1.00  0.00     0.031 C 
ATOM     72  C   UNL A   1      38.057  30.699  29.595  1.00  0.00     0.031 A 
BRANCH  59  73
ATOM     73  C   UNL A   1      42.470  26.951  27.493  1.00  0.00    -0.014 A 
ATOM     74  C   UNL A   1      42.188  25.588  27.299  1.00  0.00     0.009 A 
ATOM     75  C   UNL A   1      43.358  27.590  26.614  1.00  0.00     0.009 A 
ATOM     76  C   UNL A   1      42.776  24.885  26.246  1.00  0.00     0.001 A 
ATOM     77  C   UNL A   1      43.916  26.892  25.540  1.00  0.00     0.001 A 
ATOM     78  C   UNL A   1      43.631  25.539  25.361  1.00  0.00     0.000 A 
ENDBRANCH  59  73
BRANCH  60  79
ATOM     79  C   UNL A   1      39.136  31.906  35.415  1.00  0.00    -0.014 A 
ATOM     80  C   UNL A   1      38.282  31.277  36.330  1.00  0.00     0.009 A 
ATOM     81  C   UNL A   1      39.475  33.254  35.612  1.00  0.00     0.009 A 
ATOM     82  C   UNL A   1      37.767  31.988  37.418  1.00  0.00     0.001 A 
ATOM     83  C   UNL A   1      38.979  33.956  36.712  1.00  0.00     0.001 A 
ATOM     84  C   UNL A   1      38.121  33.324  37.609  1.00  0.00     0.000 A 
ENDBRANCH  60  79
BRANCH  72  85
ATOM     85  C   UNL A   1      36.857  31.212  28.855  1.00  0.00    -0.014 A 
ATOM     86  C   UNL A   1      36.749  32.583  28.572  1.00  0.00     0.009 A 
ATOM     87  C   UNL A   1      35.785  30.364  28.541  1.00  0.00     0.009 A 
ATOM     88  C   UNL A   1      35.586  33.098  28.000  1.00  0.00     0.001 A 
ATOM     89  C   UNL A   1      34.629  30.880  27.951  1.00  0.00     0.001 A 
ATOM     90  C   UNL A   1      34.527  32.246  27.689  1.00  0.00     0.000 A 
ENDBRANCH  72  85
ENDBRANCH  46  47
ENDBRANCH  39  41
ENDBRANCH  38  39
ENDBRANCH  37  38
ENDBRANCH   1  37
TORSDOF 14
ENDMDL
MODEL 2
REMARK VINA RESULT:     -13.6     10.940     16.990
REMARK SMILES O=C(Cn1nc(C(=O)OCCOC(=O)c2ccc(-c3c4nc(c(-c5ccccc5)c5ccc([nH]5)c(-c5ccccc5)c5nc(c(-c6ccccc6)c6ccc3[nH]6)C=C5)C=C4)cc2)c2ccccc2c1=O)Nc1ccc2c(c1)C(=O)c1ccccc1C2=O
REMARK SMILES IDX 10 1 9 2 7 3 8 4 6 5 4 6 5 7 69 8 68 9 70 10 63 11 67 12
REMARK SMILES IDX 64 13 66 14 65 15 3 16 2 17 1 18 71 19 72 21 73 22 77 23
REMARK SMILES IDX 74 24 76 25 75 26 78 27 86 28 79 29 80 30 85 31 87 32 81 33
REMARK SMILES IDX 84 34 82 35 83 36 11 37 12 38 13 39 14 40 15 41 16 42 62 43
REMARK SMILES IDX 17 44 61 45 18 46 19 47 20 48 55 49 21 50 60 51 54 52 56 53
REMARK SMILES IDX 22 54 59 55 53 56 52 57 23 59 45 60 30 61 44 62 31 63 34 64
REMARK SMILES IDX 43 65 57 66 32 67 33 68 42 70 58 71 35 72 24 73 25 74 29 75
REMARK SMILES IDX 26 76 28 77 27 78 46 79 47 80 51 81 48 82 50 83 49 84 36 85
REMARK SMILES IDX 37 86 41 87 38 88 40 89 39 90
REMARK H PARENT 71 20 56 58 34 69
REMARK Flexibility Score: inf
ROOT
ATOM      1  C   UNL A   1      35.647  34.385  34.170  1.00  0.00     0.275 C 
ENDROOT
BRANCH   1   2
ATOM      2  O   UNL A   1      35.641  33.679  32.912  1.00  0.00    -0.457 OA
BRANCH   2   3
ATOM      3  C   UNL A   1      34.455  33.247  32.433  1.00  0.00     0.359 C 
ATOM      4  O   UNL A   1      33.455  32.931  33.049  1.00  0.00    -0.244 OA
BRANCH   3   5
ATOM      5  C   UNL A   1      34.525  33.275  30.913  1.00  0.00     0.176 A 
ATOM      6  N   UNL A   1      35.329  32.314  28.974  1.00  0.00    -0.219 N 
ATOM      7  N   UNL A   1      35.016  32.223  30.319  1.00  0.00    -0.161 NA
ATOM      8  C   UNL A   1      35.445  33.555  28.335  1.00  0.00     0.275 A 
ATOM      9  C   UNL A   1      34.636  34.645  28.911  1.00  0.00     0.051 A 
ATOM     10  O   UNL A   1      36.043  33.726  27.280  1.00  0.00    -0.267 OA
ATOM     11  C   UNL A   1      34.117  34.488  30.190  1.00  0.00     0.022 A 
ATOM     12  C   UNL A   1      34.302  35.770  28.143  1.00  0.00     0.014 A 
ATOM     13  C   UNL A   1      33.222  35.435  30.695  1.00  0.00     0.011 A 
ATOM     14  C   UNL A   1      33.435  36.732  28.662  1.00  0.00     0.001 A 
ATOM     15  C   UNL A   1      32.888  36.559  29.932  1.00  0.00     0.001 A 
BRANCH   6  16
ATOM     16  C   UNL A   1      35.923  31.109  28.353  1.00  0.00     0.248 C 
BRANCH  16  17
ATOM     17  C   UNL A   1      34.908  30.124  27.722  1.00  0.00     0.246 C 
ATOM     18  O   UNL A   1      35.252  29.197  26.995  1.00  0.00    -0.273 OA
ATOM     19  N   UNL A   1      33.608  30.379  28.096  1.00  0.00    -0.324 N 
ATOM     20  H   UNL A   1      33.464  30.814  28.968  1.00  0.00     0.169 HD
BRANCH  19  21
ATOM     21  C   UNL A   1      32.475  30.068  27.336  1.00  0.00     0.042 A 
ATOM     22  C   UNL A   1      32.038  30.920  26.321  1.00  0.00     0.027 A 
ATOM     23  C   UNL A   1      32.129  28.717  27.329  1.00  0.00     0.039 A 
ATOM     24  C   UNL A   1      31.434  30.367  25.181  1.00  0.00     0.015 A 
ATOM     25  C   UNL A   1      31.562  28.170  26.192  1.00  0.00     0.036 A 
ATOM     26  C   UNL A   1      31.311  28.974  25.085  1.00  0.00     0.034 A 
ATOM     27  C   UNL A   1      31.628  26.707  26.052  1.00  0.00     0.194 C 
ATOM     28  C   UNL A   1      31.291  28.322  23.754  1.00  0.00     0.194 C 
ATOM     29  O   UNL A   1      31.404  25.951  26.984  1.00  0.00    -0.289 OA
ATOM     30  C   UNL A   1      32.201  26.244  24.782  1.00  0.00     0.034 A 
ATOM     31  C   UNL A   1      32.068  27.056  23.654  1.00  0.00     0.034 A 
ATOM     32  O   UNL A   1      30.805  28.861  22.774  1.00  0.00    -0.289 OA
ATOM     33  C   UNL A   1      33.043  25.132  24.783  1.00  0.00     0.013 A 
ATOM     34  C   UNL A   1      32.808  26.767  22.509  1.00  0.00     0.013 A 
ATOM     35  C   UNL A   1      33.807  24.865  23.650  1.00  0.00     0.001 A 
ATOM     36  C   UNL A   1      33.694  25.683  22.521  1.00  0.00     0.001 A 
ENDBRANCH  19  21
ENDBRANCH  16  17
ENDBRANCH   6  16
ENDBRANCH   3   5
ENDBRANCH   2   3
ENDBRANCH   1   2
BRANCH   1  37
ATOM     37  C   UNL A   1      36.552  33.648  35.156  1.00  0.00     0.275 C 
BRANCH  37  38
ATOM     38  O   UNL A   1      36.744  32.325  34.635  1.00  0.00    -0.458 OA
BRANCH  38  39
ATOM     39  C   UNL A   1      37.756  31.592  35.158  1.00  0.00     0.338 C 
ATOM     40  O   UNL A   1      37.934  31.301  36.320  1.00  0.00    -0.246 OA
BRANCH  39  41
ATOM     41  C   UNL A   1      38.623  31.160  34.037  1.00  0.00     0.060 A 
ATOM     42  C   UNL A   1      38.435  31.682  32.759  1.00  0.00     0.016 A 
ATOM     43  C   UNL A   1      39.673  30.272  34.271  1.00  0.00     0.016 A 
ATOM     44  C   UNL A   1      39.286  31.286  31.716  1.00  0.00     0.010 A 
ATOM     45  C   UNL A   1      40.577  29.965  33.254  1.00  0.00     0.010 A 
ATOM     46  C   UNL A   1      40.396  30.450  31.953  1.00  0.00    -0.014 A 
BRANCH  46  47
ATOM     47  C   UNL A   1      41.367  30.092  30.870  1.00  0.00     0.031 A 
ATOM     48  C   UNL A   1      42.573  30.958  30.569  1.00  0.00     0.074 A 
ATOM     49  C   UNL A   1      41.142  29.017  30.084  1.00  0.00     0.049 A 
ATOM     50  N   UNL A   1      43.448  30.846  29.598  1.00  0.00    -0.248 NA
ATOM     51  C   UNL A   1      42.791  32.139  31.420  1.00  0.00     0.031 C 
ATOM     52  C   UNL A   1      39.975  28.135  30.155  1.00  0.00     0.029 A 
ATOM     53  N   UNL A   1      41.904  28.468  29.078  1.00  0.00    -0.354 N 
ATOM     54  C   UNL A   1      44.254  31.977  29.673  1.00  0.00     0.074 A 
ATOM     55  C   UNL A   1      43.740  32.782  30.758  1.00  0.00     0.031 C 
ATOM     56  C   UNL A   1      40.150  27.104  29.315  1.00  0.00     0.029 A 
ATOM     57  C   UNL A   1      41.411  27.275  28.603  1.00  0.00     0.049 A 
ATOM     58  H   UNL A   1      42.724  28.888  28.731  1.00  0.00     0.167 HD
ATOM     59  C   UNL A   1      45.340  32.308  28.933  1.00  0.00     0.031 A 
ATOM     60  C   UNL A   1      41.922  26.398  27.718  1.00  0.00     0.031 A 
ATOM     61  C   UNL A   1      45.946  31.451  27.950  1.00  0.00     0.049 A 
ATOM     62  C   UNL A   1      43.234  26.687  27.048  1.00  0.00     0.074 A 
ATOM     63  C   UNL A   1      47.117  31.655  27.236  1.00  0.00     0.029 A 
ATOM     64  N   UNL A   1      45.464  30.208  27.580  1.00  0.00    -0.354 N 
ATOM     65  N   UNL A   1      43.996  27.747  27.157  1.00  0.00    -0.248 NA
ATOM     66  C   UNL A   1      43.761  25.657  26.138  1.00  0.00     0.031 C 
ATOM     67  C   UNL A   1      47.340  30.537  26.430  1.00  0.00     0.029 A 
ATOM     68  C   UNL A   1      46.324  29.625  26.667  1.00  0.00     0.049 A 
ATOM     69  H   UNL A   1      44.633  29.800  27.914  1.00  0.00     0.167 HD
ATOM     70  C   UNL A   1      45.097  27.505  26.347  1.00  0.00     0.074 A 
ATOM     71  C   UNL A   1      44.916  26.193  25.764  1.00  0.00     0.031 C 
ATOM     72  C   UNL A   1      46.159  28.310  26.107  1.00  0.00     0.031 A 
BRANCH  59  73
ATOM     73  C   UNL A   1      45.985  33.645  29.181  1.00  0.00    -0.014 A 
ATOM     74  C   UNL A   1      45.541  34.775  28.474  1.00  0.00     0.009 A 
ATOM     75  C   UNL A   1      47.077  33.779  30.053  1.00  0.00     0.009 A 
ATOM     76  C   UNL A   1      46.170  36.010  28.642  1.00  0.00     0.001 A 
ATOM     77  C   UNL A   1      47.681  35.023  30.246  1.00  0.00     0.001 A 
ATOM     78  C   UNL A   1      47.232  36.135  29.536  1.00  0.00     0.000 A 
ENDBRANCH  59  73
BRANCH  60  79
ATOM     79  C   UNL A   1      41.224  25.108  27.484  1.00  0.00    -0.014 A 
ATOM     80  C   UNL A   1      40.100  25.030  26.651  1.00  0.00     0.009 A 
ATOM     81  C   UNL A   1      41.670  23.949  28.140  1.00  0.00     0.009 A 
ATOM     82  C   UNL A   1      39.428  23.816  26.487  1.00  0.00     0.001 A 
ATOM     83  C   UNL A   1      41.012  22.733  27.954  1.00  0.00     0.001 A 
ATOM     84  C   UNL A   1      39.888  22.669  27.134  1.00  0.00     0.000 A 
ENDBRANCH  60  79
BRANCH  72  85
ATOM     85  C   UNL A   1      47.243  27.804  25.203  1.00  0.00    -0.014 A 
ATOM     86  C   UNL A   1      47.109  27.943  23.812  1.00  0.00     0.009 A 
ATOM     87  C   UNL A   1      48.338  27.094  25.714  1.00  0.00     0.009 A 
ATOM     88  C   UNL A   1      48.042  27.368  22.950  1.00  0.00     0.001 A 
ATOM     89  C   UNL A   1      49.281  26.535  24.849  1.00  0.00     0.001 A 
ATOM     90  C   UNL A   1      49.128  26.665  23.469  1.00  0.00     0.000 A 
ENDBRANCH  72  85
ENDBRANCH  46  47
ENDBRANCH  39  41
ENDBRANCH  38  39
ENDBRANCH  37  38
ENDBRANCH   1  37
TORSDOF 14
ENDMDL
MODEL 3
REMARK VINA RESULT:     -13.4     10.685     16.898
REMARK SMILES O=C(Cn1nc(C(=O)OCCOC(=O)c2ccc(-c3c4nc(c(-c5ccccc5)c5ccc([nH]5)c(-c5ccccc5)c5nc(c(-c6ccccc6)c6ccc3[nH]6)C=C5)C=C4)cc2)c2ccccc2c1=O)Nc1ccc2c(c1)C(=O)c1ccccc1C2=O
REMARK SMILES IDX 10 1 9 2 7 3 8 4 6 5 4 6 5 7 69 8 68 9 70 10 63 11 67 12
REMARK SMILES IDX 64 13 66 14 65 15 3 16 2 17 1 18 71 19 72 21 73 22 77 23
REMARK SMILES IDX 74 24 76 25 75 26 78 27 86 28 79 29 80 30 85 31 87 32 81 33
REMARK SMILES IDX 84 34 82 35 83 36 11 37 12 38 13 39 14 40 15 41 16 42 62 43
REMARK SMILES IDX 17 44 61 45 18 46 19 47 20 48 55 49 21 50 60 51 54 52 56 53
REMARK SMILES IDX 22 54 59 55 53 56 52 57 23 59 45 60 30 61 44 62 31 63 34 64
REMARK SMILES IDX 43 65 57 66 32 67 33 68 42 70 58 71 35 72 24 73 25 74 29 75
REMARK SMILES IDX 26 76 28 77 27 78 46 79 47 80 51 81 48 82 50 83 49 84 36 85
REMARK SMILES IDX 37 86 41 87 38 88 40 89 39 90
REMARK H PARENT 71 20 56 58 34 69
REMARK Flexibility Score: inf
ROOT
ATOM      1  C   UNL A   1      36.264  33.096  34.217  1.00  0.00     0.275 C 
ENDROOT
BRANCH   1   2
ATOM      2  O   UNL A   1      35.869  33.464  32.879  1.00  0.00    -0.457 OA
BRANCH   2   3
ATOM      3  C   UNL A   1      34.634  33.110  32.464  1.00  0.00     0.359 C 
ATOM      4  O   UNL A   1      33.654  32.840  33.131  1.00  0.00    -0.244 OA
BRANCH   3   5
ATOM      5  C   UNL A   1      34.619  33.162  30.942  1.00  0.00     0.176 A 
ATOM      6  N   UNL A   1      35.322  32.241  28.946  1.00  0.00    -0.219 N 
ATOM      7  N   UNL A   1      35.086  32.125  30.305  1.00  0.00    -0.161 NA
ATOM      8  C   UNL A   1      35.391  33.492  28.322  1.00  0.00     0.275 A 
ATOM      9  C   UNL A   1      34.605  34.565  28.960  1.00  0.00     0.051 A 
ATOM     10  O   UNL A   1      35.927  33.687  27.238  1.00  0.00    -0.267 OA
ATOM     11  C   UNL A   1      34.159  34.383  30.263  1.00  0.00     0.022 A 
ATOM     12  C   UNL A   1      34.218  35.698  28.230  1.00  0.00     0.014 A 
ATOM     13  C   UNL A   1      33.285  35.312  30.833  1.00  0.00     0.011 A 
ATOM     14  C   UNL A   1      33.372  36.643  28.812  1.00  0.00     0.001 A 
ATOM     15  C   UNL A   1      32.899  36.445  30.108  1.00  0.00     0.001 A 
BRANCH   6  16
ATOM     16  C   UNL A   1      35.892  31.052  28.273  1.00  0.00     0.248 C 
BRANCH  16  17
ATOM     17  C   UNL A   1      34.852  30.052  27.709  1.00  0.00     0.246 C 
ATOM     18  O   UNL A   1      35.174  29.059  27.063  1.00  0.00    -0.273 OA
ATOM     19  N   UNL A   1      33.557  30.377  28.044  1.00  0.00    -0.324 N 
ATOM     20  H   UNL A   1      33.418  30.885  28.876  1.00  0.00     0.169 HD
BRANCH  19  21
ATOM     21  C   UNL A   1      32.423  30.042  27.296  1.00  0.00     0.042 A 
ATOM     22  C   UNL A   1      31.966  30.877  26.275  1.00  0.00     0.027 A 
ATOM     23  C   UNL A   1      32.096  28.686  27.305  1.00  0.00     0.039 A 
ATOM     24  C   UNL A   1      31.362  30.304  25.146  1.00  0.00     0.015 A 
ATOM     25  C   UNL A   1      31.529  28.120  26.178  1.00  0.00     0.036 A 
ATOM     26  C   UNL A   1      31.258  28.909  25.065  1.00  0.00     0.034 A 
ATOM     27  C   UNL A   1      31.615  26.657  26.052  1.00  0.00     0.194 C 
ATOM     28  C   UNL A   1      31.237  28.242  23.741  1.00  0.00     0.194 C 
ATOM     29  O   UNL A   1      31.409  25.907  26.994  1.00  0.00    -0.289 OA
ATOM     30  C   UNL A   1      32.184  26.189  24.783  1.00  0.00     0.034 A 
ATOM     31  C   UNL A   1      32.031  26.988  23.648  1.00  0.00     0.034 A 
ATOM     32  O   UNL A   1      30.736  28.765  22.759  1.00  0.00    -0.289 OA
ATOM     33  C   UNL A   1      33.042  25.089  24.789  1.00  0.00     0.013 A 
ATOM     34  C   UNL A   1      32.767  26.697  22.500  1.00  0.00     0.013 A 
ATOM     35  C   UNL A   1      33.802  24.821  23.653  1.00  0.00     0.001 A 
ATOM     36  C   UNL A   1      33.669  25.626  22.516  1.00  0.00     0.001 A 
ENDBRANCH  19  21
ENDBRANCH  16  17
ENDBRANCH   6  16
ENDBRANCH   3   5
ENDBRANCH   2   3
ENDBRANCH   1   2
BRANCH   1  37
ATOM     37  C   UNL A   1      37.405  32.082  34.143  1.00  0.00     0.275 C 
BRANCH  37  38
ATOM     38  O   UNL A   1      37.602  31.779  32.753  1.00  0.00    -0.458 OA
BRANCH  38  39
ATOM     39  C   UNL A   1      37.357  30.509  32.354  1.00  0.00     0.338 C 
ATOM     40  O   UNL A   1      36.319  29.891  32.449  1.00  0.00    -0.246 OA
BRANCH  39  41
ATOM     41  C   UNL A   1      38.595  29.989  31.727  1.00  0.00     0.060 A 
ATOM     42  C   UNL A   1      39.138  30.619  30.610  1.00  0.00     0.016 A 
ATOM     43  C   UNL A   1      39.257  28.900  32.293  1.00  0.00     0.016 A 
ATOM     44  C   UNL A   1      40.328  30.133  30.049  1.00  0.00     0.010 A 
ATOM     45  C   UNL A   1      40.493  28.489  31.794  1.00  0.00     0.010 A 
ATOM     46  C   UNL A   1      41.048  29.083  30.654  1.00  0.00    -0.014 A 
BRANCH  46  47
ATOM     47  C   UNL A   1      42.366  28.613  30.121  1.00  0.00     0.031 A 
ATOM     48  C   UNL A   1      42.482  27.347  29.295  1.00  0.00     0.074 A 
ATOM     49  C   UNL A   1      43.500  29.277  30.432  1.00  0.00     0.049 A 
ATOM     50  N   UNL A   1      43.561  26.748  28.851  1.00  0.00    -0.248 NA
ATOM     51  C   UNL A   1      41.239  26.623  28.985  1.00  0.00     0.031 C 
ATOM     52  C   UNL A   1      43.593  30.448  31.306  1.00  0.00     0.029 A 
ATOM     53  N   UNL A   1      44.799  29.071  30.025  1.00  0.00    -0.354 N 
ATOM     54  C   UNL A   1      43.132  25.548  28.293  1.00  0.00     0.074 A 
ATOM     55  C   UNL A   1      41.702  25.485  28.491  1.00  0.00     0.031 C 
ATOM     56  C   UNL A   1      44.850  30.917  31.283  1.00  0.00     0.029 A 
ATOM     57  C   UNL A   1      45.667  30.053  30.440  1.00  0.00     0.049 A 
ATOM     58  H   UNL A   1      45.079  28.295  29.488  1.00  0.00     0.167 HD
ATOM     59  C   UNL A   1      43.850  24.596  27.648  1.00  0.00     0.031 A 
ATOM     60  C   UNL A   1      46.968  30.259  30.156  1.00  0.00     0.031 A 
ATOM     61  C   UNL A   1      45.245  24.713  27.319  1.00  0.00     0.049 A 
ATOM     62  C   UNL A   1      47.705  29.295  29.273  1.00  0.00     0.074 A 
ATOM     63  C   UNL A   1      46.025  23.851  26.565  1.00  0.00     0.029 A 
ATOM     64  N   UNL A   1      46.055  25.777  27.676  1.00  0.00    -0.354 N 
ATOM     65  N   UNL A   1      47.273  28.184  28.729  1.00  0.00    -0.248 NA
ATOM     66  C   UNL A   1      49.107  29.615  28.957  1.00  0.00     0.031 C 
ATOM     67  C   UNL A   1      47.309  24.392  26.470  1.00  0.00     0.029 A 
ATOM     68  C   UNL A   1      47.318  25.605  27.138  1.00  0.00     0.049 A 
ATOM     69  H   UNL A   1      45.775  26.541  28.230  1.00  0.00     0.167 HD
ATOM     70  C   UNL A   1      48.340  27.684  27.995  1.00  0.00     0.074 A 
ATOM     71  C   UNL A   1      49.435  28.617  28.146  1.00  0.00     0.031 C 
ATOM     72  C   UNL A   1      48.400  26.545  27.267  1.00  0.00     0.031 A 
BRANCH  59  73
ATOM     73  C   UNL A   1      43.135  23.347  27.207  1.00  0.00    -0.014 A 
ATOM     74  C   UNL A   1      42.901  22.315  28.132  1.00  0.00     0.009 A 
ATOM     75  C   UNL A   1      42.758  23.155  25.869  1.00  0.00     0.009 A 
ATOM     76  C   UNL A   1      42.299  21.122  27.726  1.00  0.00     0.001 A 
ATOM     77  C   UNL A   1      42.122  21.976  25.475  1.00  0.00     0.001 A 
ATOM     78  C   UNL A   1      41.900  20.958  26.401  1.00  0.00     0.000 A 
ENDBRANCH  59  73
BRANCH  60  79
ATOM     79  C   UNL A   1      47.634  31.492  30.648  1.00  0.00    -0.014 A 
ATOM     80  C   UNL A   1      47.616  32.676  29.899  1.00  0.00     0.009 A 
ATOM     81  C   UNL A   1      48.331  31.466  31.867  1.00  0.00     0.009 A 
ATOM     82  C   UNL A   1      48.293  33.810  30.356  1.00  0.00     0.001 A 
ATOM     83  C   UNL A   1      48.986  32.607  32.333  1.00  0.00     0.001 A 
ATOM     84  C   UNL A   1      48.972  33.775  31.574  1.00  0.00     0.000 A 
ENDBRANCH  60  79
BRANCH  72  85
ATOM     85  C   UNL A   1      49.672  26.234  26.537  1.00  0.00    -0.014 A 
ATOM     86  C   UNL A   1      50.716  25.578  27.209  1.00  0.00     0.009 A 
ATOM     87  C   UNL A   1      49.883  26.688  25.227  1.00  0.00     0.009 A 
ATOM     88  C   UNL A   1      51.951  25.394  26.588  1.00  0.00     0.001 A 
ATOM     89  C   UNL A   1      51.115  26.486  24.601  1.00  0.00     0.001 A 
ATOM     90  C   UNL A   1      52.150  25.847  25.284  1.00  0.00     0.000 A 
ENDBRANCH  72  85
ENDBRANCH  46  47
ENDBRANCH  39  41
ENDBRANCH  38  39
ENDBRANCH  37  38
ENDBRANCH   1  37
TORSDOF 14
ENDMDL
