MODEL 1
REMARK VINA RESULT:     -11.5      0.000      0.000
REMARK SMILES Cc1cc(C)c2c(c1)C=C(C(=O)OCCOC(=O)c1ccc(-c3c4nc(c(-c5ccccc5)c5ccc([nH]5)c(-c5ccccc5)c5nc(c(-c6ccccc6)c6ccc3[nH]6)C=C5)C=C4)cc1)[C@@H](C(F)(F)F)O2
REMARK SMILES IDX 15 1 14 2 13 3 11 4 12 5 10 6 1 7 2 8 3 9 8 10 4 11 7 12
REMARK SMILES IDX 5 13 6 14 9 15 72 16 67 17 68 18 69 19 70 20 71 21 16 22
REMARK SMILES IDX 17 23 18 24 19 25 20 26 66 27 21 28 65 29 22 30 23 31 24 32
REMARK SMILES IDX 59 33 25 34 64 35 58 36 60 37 26 38 63 39 57 40 56 41 27 43
REMARK SMILES IDX 49 44 34 45 48 46 35 47 38 48 47 49 61 50 36 51 37 52 46 54
REMARK SMILES IDX 62 55 39 56 28 57 29 58 33 59 30 60 32 61 31 62 50 63 51 64
REMARK SMILES IDX 55 65 52 66 54 67 53 68 40 69 41 70 45 71 42 72 44 73 43 74
REMARK H PARENT 60 42 38 53
REMARK Flexibility Score: inf
ROOT
ATOM      1  C   UNL A   1      31.717  30.452  25.770  1.00  0.00     0.275 C 
ENDROOT
BRANCH   1   2
ATOM      2  C   UNL A   1      31.626  29.069  25.123  1.00  0.00     0.275 C 
BRANCH   2   3
ATOM      3  O   UNL A   1      32.446  28.102  25.817  1.00  0.00    -0.459 OA
BRANCH   3   4
ATOM      4  C   UNL A   1      31.770  27.131  26.469  1.00  0.00     0.338 C 
ATOM      5  O   UNL A   1      30.912  27.290  27.325  1.00  0.00    -0.246 OA
BRANCH   4   6
ATOM      6  C   UNL A   1      32.183  25.797  25.999  1.00  0.00     0.087 C 
ATOM      7  C   UNL A   1      37.254  22.585  24.600  1.00  0.00     0.044 C 
ATOM      8  C   UNL A   1      35.783  22.861  24.707  1.00  0.00    -0.050 A 
ATOM      9  C   UNL A   1      34.852  21.982  24.139  1.00  0.00     0.010 A 
ATOM     10  C   UNL A   1      35.317  24.010  25.348  1.00  0.00     0.015 A 
ATOM     11  C   UNL A   1      33.470  22.238  24.212  1.00  0.00    -0.008 A 
ATOM     12  C   UNL A   1      33.945  24.280  25.414  1.00  0.00     0.018 A 
ATOM     13  C   UNL A   1      32.496  21.281  23.588  1.00  0.00     0.048 C 
ATOM     14  C   UNL A   1      33.019  23.398  24.858  1.00  0.00     0.130 A 
ATOM     15  C   UNL A   1      33.487  25.510  26.024  1.00  0.00     0.027 C 
ATOM     16  O   UNL A   1      31.666  23.604  24.922  1.00  0.00    -0.475 OA
ATOM     17  C   UNL A   1      31.160  24.892  25.377  1.00  0.00     0.316 C 
BRANCH  17  18
ATOM     18  C   UNL A   1      30.443  25.586  24.208  1.00  0.00     0.430 C 
ATOM     19  F   UNL A   1      29.847  24.687  23.390  1.00  0.00    -0.167 F 
ATOM     20  F   UNL A   1      29.463  26.413  24.648  1.00  0.00    -0.167 F 
ATOM     21  F   UNL A   1      31.287  26.326  23.454  1.00  0.00    -0.167 F 
ENDBRANCH  17  18
ENDBRANCH   4   6
ENDBRANCH   3   4
ENDBRANCH   2   3
ENDBRANCH   1   2
BRANCH   1  22
ATOM     22  O   UNL A   1      32.456  30.386  27.004  1.00  0.00    -0.458 OA
BRANCH  22  23
ATOM     23  C   UNL A   1      33.169  31.497  27.295  1.00  0.00     0.338 C 
ATOM     24  O   UNL A   1      32.755  32.639  27.397  1.00  0.00    -0.246 OA
BRANCH  23  25
ATOM     25  C   UNL A   1      34.571  31.158  27.577  1.00  0.00     0.060 A 
ATOM     26  C   UNL A   1      34.893  29.833  27.839  1.00  0.00     0.016 A 
ATOM     27  C   UNL A   1      35.495  32.166  27.846  1.00  0.00     0.016 A 
ATOM     28  C   UNL A   1      36.043  29.528  28.560  1.00  0.00     0.010 A 
ATOM     29  C   UNL A   1      36.727  31.833  28.419  1.00  0.00     0.010 A 
ATOM     30  C   UNL A   1      36.990  30.518  28.851  1.00  0.00    -0.014 A 
BRANCH  30  31
ATOM     31  C   UNL A   1      38.220  30.203  29.637  1.00  0.00     0.031 A 
ATOM     32  C   UNL A   1      39.332  29.394  29.012  1.00  0.00     0.074 A 
ATOM     33  C   UNL A   1      38.364  30.641  30.905  1.00  0.00     0.049 A 
ATOM     34  N   UNL A   1      40.345  28.796  29.587  1.00  0.00    -0.248 NA
ATOM     35  C   UNL A   1      39.292  29.224  27.549  1.00  0.00     0.031 C 
ATOM     36  C   UNL A   1      37.427  31.508  31.624  1.00  0.00     0.029 A 
ATOM     37  N   UNL A   1      39.367  30.418  31.818  1.00  0.00    -0.354 N 
ATOM     38  C   UNL A   1      41.020  28.126  28.571  1.00  0.00     0.074 A 
ATOM     39  C   UNL A   1      40.300  28.387  27.344  1.00  0.00     0.031 C 
ATOM     40  C   UNL A   1      37.922  31.784  32.838  1.00  0.00     0.029 A 
ATOM     41  C   UNL A   1      39.140  31.012  33.036  1.00  0.00     0.049 A 
ATOM     42  H   UNL A   1      40.170  29.885  31.618  1.00  0.00     0.167 HD
ATOM     43  C   UNL A   1      42.133  27.359  28.657  1.00  0.00     0.031 A 
ATOM     44  C   UNL A   1      39.790  30.901  34.209  1.00  0.00     0.031 A 
ATOM     45  C   UNL A   1      42.870  27.139  29.875  1.00  0.00     0.049 A 
ATOM     46  C   UNL A   1      40.965  29.973  34.304  1.00  0.00     0.074 A 
ATOM     47  C   UNL A   1      44.006  26.372  30.069  1.00  0.00     0.029 A 
ATOM     48  N   UNL A   1      42.555  27.703  31.101  1.00  0.00    -0.354 N 
ATOM     49  N   UNL A   1      41.534  29.264  33.361  1.00  0.00    -0.248 NA
ATOM     50  C   UNL A   1      41.570  29.813  35.633  1.00  0.00     0.031 C 
ATOM     51  C   UNL A   1      44.349  26.434  31.424  1.00  0.00     0.029 A 
ATOM     52  C   UNL A   1      43.462  27.287  32.061  1.00  0.00     0.049 A 
ATOM     53  H   UNL A   1      41.797  28.311  31.265  1.00  0.00     0.167 HD
ATOM     54  C   UNL A   1      42.571  28.579  33.979  1.00  0.00     0.074 A 
ATOM     55  C   UNL A   1      42.569  28.982  35.371  1.00  0.00     0.031 C 
ATOM     56  C   UNL A   1      43.441  27.688  33.443  1.00  0.00     0.031 A 
BRANCH  43  57
ATOM     57  C   UNL A   1      42.607  26.661  27.409  1.00  0.00    -0.014 A 
ATOM     58  C   UNL A   1      43.570  27.233  26.564  1.00  0.00     0.009 A 
ATOM     59  C   UNL A   1      42.125  25.376  27.110  1.00  0.00     0.009 A 
ATOM     60  C   UNL A   1      44.016  26.546  25.431  1.00  0.00     0.001 A 
ATOM     61  C   UNL A   1      42.595  24.678  25.996  1.00  0.00     0.001 A 
ATOM     62  C   UNL A   1      43.534  25.266  25.153  1.00  0.00     0.000 A 
ENDBRANCH  43  57
BRANCH  44  63
ATOM     63  C   UNL A   1      39.296  31.639  35.402  1.00  0.00    -0.014 A 
ATOM     64  C   UNL A   1      38.306  31.082  36.224  1.00  0.00     0.009 A 
ATOM     65  C   UNL A   1      39.831  32.894  35.742  1.00  0.00     0.009 A 
ATOM     66  C   UNL A   1      37.859  31.766  37.356  1.00  0.00     0.001 A 
ATOM     67  C   UNL A   1      39.409  33.558  36.894  1.00  0.00     0.001 A 
ATOM     68  C   UNL A   1      38.418  32.998  37.697  1.00  0.00     0.000 A 
ENDBRANCH  44  63
BRANCH  56  69
ATOM     69  C   UNL A   1      44.476  27.107  34.364  1.00  0.00    -0.014 A 
ATOM     70  C   UNL A   1      45.711  27.744  34.562  1.00  0.00     0.009 A 
ATOM     71  C   UNL A   1      44.199  25.923  35.064  1.00  0.00     0.009 A 
ATOM     72  C   UNL A   1      46.662  27.187  35.419  1.00  0.00     0.001 A 
ATOM     73  C   UNL A   1      45.139  25.386  35.944  1.00  0.00     0.001 A 
ATOM     74  C   UNL A   1      46.373  26.012  36.113  1.00  0.00     0.000 A 
ENDBRANCH  56  69
ENDBRANCH  30  31
ENDBRANCH  23  25
ENDBRANCH  22  23
ENDBRANCH   1  22
TORSDOF 12
ENDMDL
MODEL 2
REMARK VINA RESULT:     -11.3      3.727      8.684
REMARK SMILES Cc1cc(C)c2c(c1)C=C(C(=O)OCCOC(=O)c1ccc(-c3c4nc(c(-c5ccccc5)c5ccc([nH]5)c(-c5ccccc5)c5nc(c(-c6ccccc6)c6ccc3[nH]6)C=C5)C=C4)cc1)[C@@H](C(F)(F)F)O2
REMARK SMILES IDX 15 1 14 2 13 3 11 4 12 5 10 6 1 7 2 8 3 9 8 10 4 11 7 12
REMARK SMILES IDX 5 13 6 14 9 15 72 16 67 17 68 18 69 19 70 20 71 21 16 22
REMARK SMILES IDX 17 23 18 24 19 25 20 26 66 27 21 28 65 29 22 30 23 31 24 32
REMARK SMILES IDX 59 33 25 34 64 35 58 36 60 37 26 38 63 39 57 40 56 41 27 43
REMARK SMILES IDX 49 44 34 45 48 46 35 47 38 48 47 49 61 50 36 51 37 52 46 54
REMARK SMILES IDX 62 55 39 56 28 57 29 58 33 59 30 60 32 61 31 62 50 63 51 64
REMARK SMILES IDX 55 65 52 66 54 67 53 68 40 69 41 70 45 71 42 72 44 73 43 74
REMARK H PARENT 60 42 38 53
REMARK Flexibility Score: inf
ROOT
ATOM      1  C   UNL A   1      36.475  20.844  25.280  1.00  0.00     0.275 C 
ENDROOT
BRANCH   1   2
ATOM      2  C   UNL A   1      35.351  21.796  25.688  1.00  0.00     0.275 C 
BRANCH   2   3
ATOM      3  O   UNL A   1      34.260  21.769  24.741  1.00  0.00    -0.459 OA
BRANCH   3   4
ATOM      4  C   UNL A   1      33.187  22.521  25.071  1.00  0.00     0.338 C 
ATOM      5  O   UNL A   1      32.138  22.120  25.555  1.00  0.00    -0.246 OA
BRANCH   4   6
ATOM      6  C   UNL A   1      33.437  23.946  24.792  1.00  0.00     0.087 C 
ATOM      7  C   UNL A   1      32.394  29.534  27.174  1.00  0.00     0.044 C 
ATOM      8  C   UNL A   1      32.841  28.534  26.148  1.00  0.00    -0.050 A 
ATOM      9  C   UNL A   1      33.239  28.955  24.874  1.00  0.00     0.010 A 
ATOM     10  C   UNL A   1      32.840  27.169  26.435  1.00  0.00     0.015 A 
ATOM     11  C   UNL A   1      33.642  28.028  23.894  1.00  0.00    -0.008 A 
ATOM     12  C   UNL A   1      33.226  26.238  25.462  1.00  0.00     0.018 A 
ATOM     13  C   UNL A   1      34.058  28.508  22.533  1.00  0.00     0.048 C 
ATOM     14  C   UNL A   1      33.634  26.659  24.198  1.00  0.00     0.130 A 
ATOM     15  C   UNL A   1      33.154  24.823  25.759  1.00  0.00     0.027 C 
ATOM     16  O   UNL A   1      34.047  25.790  23.222  1.00  0.00    -0.475 OA
ATOM     17  C   UNL A   1      33.843  24.360  23.408  1.00  0.00     0.316 C 
BRANCH  17  18
ATOM     18  C   UNL A   1      32.835  23.860  22.361  1.00  0.00     0.430 C 
ATOM     19  F   UNL A   1      32.887  24.603  21.230  1.00  0.00    -0.167 F 
ATOM     20  F   UNL A   1      33.094  22.582  21.993  1.00  0.00    -0.167 F 
ATOM     21  F   UNL A   1      31.562  23.899  22.816  1.00  0.00    -0.167 F 
ENDBRANCH  17  18
ENDBRANCH   4   6
ENDBRANCH   3   4
ENDBRANCH   2   3
ENDBRANCH   1   2
BRANCH   1  22
ATOM     22  O   UNL A   1      37.675  21.579  24.971  1.00  0.00    -0.458 OA
BRANCH  22  23
ATOM     23  C   UNL A   1      38.748  21.251  25.724  1.00  0.00     0.338 C 
ATOM     24  O   UNL A   1      39.342  20.187  25.746  1.00  0.00    -0.246 OA
BRANCH  23  25
ATOM     25  C   UNL A   1      39.211  22.407  26.505  1.00  0.00     0.060 A 
ATOM     26  C   UNL A   1      38.694  23.660  26.204  1.00  0.00     0.016 A 
ATOM     27  C   UNL A   1      40.330  22.294  27.327  1.00  0.00     0.016 A 
ATOM     28  C   UNL A   1      39.406  24.805  26.545  1.00  0.00     0.010 A 
ATOM     29  C   UNL A   1      40.947  23.453  27.810  1.00  0.00     0.010 A 
ATOM     30  C   UNL A   1      40.538  24.726  27.366  1.00  0.00    -0.014 A 
BRANCH  30  31
ATOM     31  C   UNL A   1      41.318  25.948  27.724  1.00  0.00     0.031 A 
ATOM     32  C   UNL A   1      40.722  26.984  28.648  1.00  0.00     0.074 A 
ATOM     33  C   UNL A   1      42.564  26.141  27.243  1.00  0.00     0.049 A 
ATOM     34  N   UNL A   1      41.111  28.214  28.873  1.00  0.00    -0.248 NA
ATOM     35  C   UNL A   1      39.524  26.589  29.408  1.00  0.00     0.031 C 
ATOM     36  C   UNL A   1      43.320  25.198  26.415  1.00  0.00     0.029 A 
ATOM     37  N   UNL A   1      43.422  27.205  27.390  1.00  0.00    -0.354 N 
ATOM     38  C   UNL A   1      40.170  28.758  29.742  1.00  0.00     0.074 A 
ATOM     39  C   UNL A   1      39.190  27.727  30.002  1.00  0.00     0.031 C 
ATOM     40  C   UNL A   1      44.538  25.698  26.172  1.00  0.00     0.029 A 
ATOM     41  C   UNL A   1      44.607  27.049  26.711  1.00  0.00     0.049 A 
ATOM     42  H   UNL A   1      43.209  28.001  27.927  1.00  0.00     0.167 HD
ATOM     43  C   UNL A   1      40.127  30.006  30.270  1.00  0.00     0.031 A 
ATOM     44  C   UNL A   1      45.615  27.911  26.480  1.00  0.00     0.031 A 
ATOM     45  C   UNL A   1      41.130  31.014  30.042  1.00  0.00     0.049 A 
ATOM     46  C   UNL A   1      45.502  29.315  26.995  1.00  0.00     0.074 A 
ATOM     47  C   UNL A   1      41.174  32.311  30.523  1.00  0.00     0.029 A 
ATOM     48  N   UNL A   1      42.276  30.830  29.284  1.00  0.00    -0.354 N 
ATOM     49  N   UNL A   1      44.559  29.851  27.731  1.00  0.00    -0.248 NA
ATOM     50  C   UNL A   1      46.581  30.240  26.624  1.00  0.00     0.031 C 
ATOM     51  C   UNL A   1      42.323  32.927  30.015  1.00  0.00     0.029 A 
ATOM     52  C   UNL A   1      43.024  31.995  29.268  1.00  0.00     0.049 A 
ATOM     53  H   UNL A   1      42.521  29.994  28.825  1.00  0.00     0.167 HD
ATOM     54  C   UNL A   1      44.935  31.174  27.920  1.00  0.00     0.074 A 
ATOM     55  C   UNL A   1      46.207  31.349  27.246  1.00  0.00     0.031 C 
ATOM     56  C   UNL A   1      44.281  32.157  28.585  1.00  0.00     0.031 A 
BRANCH  43  57
ATOM     57  C   UNL A   1      38.935  30.373  31.115  1.00  0.00    -0.014 A 
ATOM     58  C   UNL A   1      37.752  30.868  30.547  1.00  0.00     0.009 A 
ATOM     59  C   UNL A   1      38.980  30.158  32.503  1.00  0.00     0.009 A 
ATOM     60  C   UNL A   1      36.650  31.167  31.354  1.00  0.00     0.001 A 
ATOM     61  C   UNL A   1      37.868  30.427  33.303  1.00  0.00     0.001 A 
ATOM     62  C   UNL A   1      36.706  30.939  32.729  1.00  0.00     0.000 A 
ENDBRANCH  43  57
BRANCH  44  63
ATOM     63  C   UNL A   1      46.783  27.483  25.666  1.00  0.00    -0.014 A 
ATOM     64  C   UNL A   1      46.835  27.765  24.294  1.00  0.00     0.009 A 
ATOM     65  C   UNL A   1      47.867  26.814  26.261  1.00  0.00     0.009 A 
ATOM     66  C   UNL A   1      47.943  27.383  23.534  1.00  0.00     0.001 A 
ATOM     67  C   UNL A   1      48.988  26.466  25.507  1.00  0.00     0.001 A 
ATOM     68  C   UNL A   1      49.024  26.744  24.143  1.00  0.00     0.000 A 
ENDBRANCH  44  63
BRANCH  56  69
ATOM     69  C   UNL A   1      44.942  33.505  28.632  1.00  0.00    -0.014 A 
ATOM     70  C   UNL A   1      44.594  34.517  27.724  1.00  0.00     0.009 A 
ATOM     71  C   UNL A   1      45.905  33.775  29.617  1.00  0.00     0.009 A 
ATOM     72  C   UNL A   1      45.222  35.763  27.781  1.00  0.00     0.001 A 
ATOM     73  C   UNL A   1      46.508  35.031  29.691  1.00  0.00     0.001 A 
ATOM     74  C   UNL A   1      46.173  36.020  28.767  1.00  0.00     0.000 A 
ENDBRANCH  56  69
ENDBRANCH  30  31
ENDBRANCH  23  25
ENDBRANCH  22  23
ENDBRANCH   1  22
TORSDOF 12
ENDMDL
MODEL 3
REMARK VINA RESULT:     -11.2      3.760      6.829
REMARK SMILES Cc1cc(C)c2c(c1)C=C(C(=O)OCCOC(=O)c1ccc(-c3c4nc(c(-c5ccccc5)c5ccc([nH]5)c(-c5ccccc5)c5nc(c(-c6ccccc6)c6ccc3[nH]6)C=C5)C=C4)cc1)[C@@H](C(F)(F)F)O2
REMARK SMILES IDX 15 1 14 2 13 3 11 4 12 5 10 6 1 7 2 8 3 9 8 10 4 11 7 12
REMARK SMILES IDX 5 13 6 14 9 15 72 16 67 17 68 18 69 19 70 20 71 21 16 22
REMARK SMILES IDX 17 23 18 24 19 25 20 26 66 27 21 28 65 29 22 30 23 31 24 32
REMARK SMILES IDX 59 33 25 34 64 35 58 36 60 37 26 38 63 39 57 40 56 41 27 43
REMARK SMILES IDX 49 44 34 45 48 46 35 47 38 48 47 49 61 50 36 51 37 52 46 54
REMARK SMILES IDX 62 55 39 56 28 57 29 58 33 59 30 60 32 61 31 62 50 63 51 64
REMARK SMILES IDX 55 65 52 66 54 67 53 68 40 69 41 70 45 71 42 72 44 73 43 74
REMARK H PARENT 60 42 38 53
REMARK Flexibility Score: inf
ROOT
ATOM      1  C   UNL A   1      33.223  30.896  27.615  1.00  0.00     0.275 C 
ENDROOT
BRANCH   1   2
ATOM      2  C   UNL A   1      33.077  30.249  26.237  1.00  0.00     0.275 C 
BRANCH   2   3
ATOM      3  O   UNL A   1      33.979  29.132  26.075  1.00  0.00    -0.459 OA
BRANCH   3   4
ATOM      4  C   UNL A   1      33.683  28.290  25.061  1.00  0.00     0.338 C 
ATOM      5  O   UNL A   1      33.802  28.519  23.866  1.00  0.00    -0.246 OA
BRANCH   4   6
ATOM      6  C   UNL A   1      33.200  26.996  25.576  1.00  0.00     0.087 C 
ATOM      7  C   UNL A   1      34.885  21.080  25.959  1.00  0.00     0.044 C 
ATOM      8  C   UNL A   1      33.972  22.264  26.086  1.00  0.00    -0.050 A 
ATOM      9  C   UNL A   1      32.628  22.091  26.439  1.00  0.00     0.010 A 
ATOM     10  C   UNL A   1      34.438  23.554  25.828  1.00  0.00     0.015 A 
ATOM     11  C   UNL A   1      31.755  23.190  26.542  1.00  0.00    -0.008 A 
ATOM     12  C   UNL A   1      33.573  24.653  25.914  1.00  0.00     0.018 A 
ATOM     13  C   UNL A   1      30.317  22.972  26.917  1.00  0.00     0.048 C 
ATOM     14  C   UNL A   1      32.238  24.479  26.277  1.00  0.00     0.130 A 
ATOM     15  C   UNL A   1      34.059  25.973  25.577  1.00  0.00     0.027 C 
ATOM     16  O   UNL A   1      31.361  25.525  26.403  1.00  0.00    -0.475 OA
ATOM     17  C   UNL A   1      31.749  26.844  25.924  1.00  0.00     0.316 C 
BRANCH  17  18
ATOM     18  C   UNL A   1      30.850  27.227  24.737  1.00  0.00     0.430 C 
ATOM     19  F   UNL A   1      29.611  26.694  24.863  1.00  0.00    -0.167 F 
ATOM     20  F   UNL A   1      30.683  28.569  24.654  1.00  0.00    -0.167 F 
ATOM     21  F   UNL A   1      31.355  26.808  23.555  1.00  0.00    -0.167 F 
ENDBRANCH  17  18
ENDBRANCH   4   6
ENDBRANCH   3   4
ENDBRANCH   2   3
ENDBRANCH   1   2
BRANCH   1  22
ATOM     22  O   UNL A   1      34.488  31.576  27.724  1.00  0.00    -0.458 OA
BRANCH  22  23
ATOM     23  C   UNL A   1      35.110  31.426  28.914  1.00  0.00     0.338 C 
ATOM     24  O   UNL A   1      34.810  31.938  29.979  1.00  0.00    -0.246 OA
BRANCH  23  25
ATOM     25  C   UNL A   1      36.209  30.455  28.809  1.00  0.00     0.060 A 
ATOM     26  C   UNL A   1      36.664  29.841  29.968  1.00  0.00     0.016 A 
ATOM     27  C   UNL A   1      36.952  30.364  27.635  1.00  0.00     0.016 A 
ATOM     28  C   UNL A   1      37.951  29.317  30.016  1.00  0.00     0.010 A 
ATOM     29  C   UNL A   1      38.176  29.684  27.647  1.00  0.00     0.010 A 
ATOM     30  C   UNL A   1      38.727  29.214  28.855  1.00  0.00    -0.014 A 
BRANCH  30  31
ATOM     31  C   UNL A   1      40.115  28.666  28.900  1.00  0.00     0.031 A 
ATOM     32  C   UNL A   1      41.272  29.561  29.275  1.00  0.00     0.074 A 
ATOM     33  C   UNL A   1      40.357  27.368  28.620  1.00  0.00     0.049 A 
ATOM     34  N   UNL A   1      42.557  29.362  29.122  1.00  0.00    -0.248 NA
ATOM     35  C   UNL A   1      40.939  30.858  29.890  1.00  0.00     0.031 C 
ATOM     36  C   UNL A   1      39.345  26.349  28.329  1.00  0.00     0.029 A 
ATOM     37  N   UNL A   1      41.545  26.679  28.540  1.00  0.00    -0.354 N 
ATOM     38  C   UNL A   1      43.179  30.529  29.556  1.00  0.00     0.074 A 
ATOM     39  C   UNL A   1      42.131  31.434  29.974  1.00  0.00     0.031 C 
ATOM     40  C   UNL A   1      39.945  25.164  28.157  1.00  0.00     0.029 A 
ATOM     41  C   UNL A   1      41.387  25.359  28.191  1.00  0.00     0.049 A 
ATOM     42  H   UNL A   1      42.420  27.091  28.716  1.00  0.00     0.167 HD
ATOM     43  C   UNL A   1      44.502  30.819  29.595  1.00  0.00     0.031 A 
ATOM     44  C   UNL A   1      42.292  24.417  27.863  1.00  0.00     0.031 A 
ATOM     45  C   UNL A   1      45.542  29.897  29.218  1.00  0.00     0.049 A 
ATOM     46  C   UNL A   1      43.744  24.788  27.824  1.00  0.00     0.074 A 
ATOM     47  C   UNL A   1      46.912  30.096  29.214  1.00  0.00     0.029 A 
ATOM     48  N   UNL A   1      45.327  28.594  28.798  1.00  0.00    -0.354 N 
ATOM     49  N   UNL A   1      44.315  25.925  28.138  1.00  0.00    -0.248 NA
ATOM     50  C   UNL A   1      44.675  23.750  27.358  1.00  0.00     0.031 C 
ATOM     51  C   UNL A   1      47.523  28.929  28.744  1.00  0.00     0.029 A 
ATOM     52  C   UNL A   1      46.537  27.983  28.514  1.00  0.00     0.049 A 
ATOM     53  H   UNL A   1      44.445  28.165  28.715  1.00  0.00     0.167 HD
ATOM     54  C   UNL A   1      45.673  25.738  27.917  1.00  0.00     0.074 A 
ATOM     55  C   UNL A   1      45.842  24.369  27.472  1.00  0.00     0.031 C 
ATOM     56  C   UNL A   1      46.688  26.625  28.062  1.00  0.00     0.031 A 
BRANCH  43  57
ATOM     57  C   UNL A   1      44.907  32.205  30.022  1.00  0.00    -0.014 A 
ATOM     58  C   UNL A   1      45.271  32.493  31.347  1.00  0.00     0.009 A 
ATOM     59  C   UNL A   1      44.987  33.228  29.063  1.00  0.00     0.009 A 
ATOM     60  C   UNL A   1      45.677  33.782  31.705  1.00  0.00     0.001 A 
ATOM     61  C   UNL A   1      45.423  34.507  29.416  1.00  0.00     0.001 A 
ATOM     62  C   UNL A   1      45.760  34.785  30.739  1.00  0.00     0.000 A 
ENDBRANCH  43  57
BRANCH  44  63
ATOM     63  C   UNL A   1      41.836  23.054  27.481  1.00  0.00    -0.014 A 
ATOM     64  C   UNL A   1      41.743  22.039  28.444  1.00  0.00     0.009 A 
ATOM     65  C   UNL A   1      41.464  22.767  26.156  1.00  0.00     0.009 A 
ATOM     66  C   UNL A   1      41.293  20.766  28.089  1.00  0.00     0.001 A 
ATOM     67  C   UNL A   1      40.980  21.504  25.812  1.00  0.00     0.001 A 
ATOM     68  C   UNL A   1      40.901  20.502  26.777  1.00  0.00     0.000 A 
ENDBRANCH  44  63
BRANCH  56  69
ATOM     69  C   UNL A   1      48.073  26.131  27.755  1.00  0.00    -0.014 A 
ATOM     70  C   UNL A   1      48.841  25.471  28.728  1.00  0.00     0.009 A 
ATOM     71  C   UNL A   1      48.604  26.302  26.468  1.00  0.00     0.009 A 
ATOM     72  C   UNL A   1      50.128  25.023  28.425  1.00  0.00     0.001 A 
ATOM     73  C   UNL A   1      49.878  25.824  26.159  1.00  0.00     0.001 A 
ATOM     74  C   UNL A   1      50.643  25.195  27.141  1.00  0.00     0.000 A 
ENDBRANCH  56  69
ENDBRANCH  30  31
ENDBRANCH  23  25
ENDBRANCH  22  23
ENDBRANCH   1  22
TORSDOF 12
ENDMDL
