MODEL 1
REMARK VINA RESULT:     -11.4      0.000      0.000
REMARK SMILES Cc1ccc(OC2(C(=O)OCCOC(=O)c3ccc(-c4c5nc(c(-c6ccccc6)c6ccc([nH]6)c(-c6ccccc6)c6nc(c(-c7ccccc7)c7ccc4[nH]7)C=C6)C=C5)cc3)CC[NH+](C[C@@H]3CC=CCC3)CC2)cn1
REMARK SMILES IDX 11 1 10 2 8 3 9 4 7 5 64 6 75 7 65 8 74 9 66 10 6 12 5 13
REMARK SMILES IDX 1 14 2 15 3 16 77 17 4 18 76 19 67 20 68 21 69 22 73 23
REMARK SMILES IDX 70 24 72 25 71 26 12 27 13 28 14 29 15 30 16 31 17 32 63 33
REMARK SMILES IDX 18 34 62 35 19 36 20 37 21 38 56 39 22 40 61 41 55 42 57 43
REMARK SMILES IDX 23 44 60 45 54 46 53 47 24 49 46 50 31 51 45 52 32 53 35 54
REMARK SMILES IDX 44 55 58 56 33 57 34 58 43 60 59 61 36 62 25 63 26 64 30 65
REMARK SMILES IDX 27 66 29 67 28 68 47 69 48 70 52 71 49 72 51 73 50 74 37 75
REMARK SMILES IDX 38 76 42 77 39 78 41 79 40 80
REMARK H PARENT 66 11 57 48 35 59
REMARK Flexibility Score: inf
ROOT
ATOM      1  C   UNL A   1      32.205  29.464  26.355  1.00  0.00     0.274 C 
ENDROOT
BRANCH   1   2
ATOM      2  O   UNL A   1      32.836  28.193  26.108  1.00  0.00    -0.459 OA
BRANCH   2   3
ATOM      3  C   UNL A   1      32.128  27.061  26.390  1.00  0.00     0.351 C 
ATOM      4  O   UNL A   1      31.250  26.994  27.242  1.00  0.00    -0.247 OA
BRANCH   3   5
ATOM      5  C   UNL A   1      32.533  25.898  25.458  1.00  0.00     0.216 C 
ATOM      6  C   UNL A   1      34.010  25.537  25.637  1.00  0.00     0.122 C 
ATOM      7  C   UNL A   1      31.757  24.633  25.885  1.00  0.00     0.122 C 
ATOM      8  C   UNL A   1      34.413  24.366  24.776  1.00  0.00     0.267 C 
ATOM      9  C   UNL A   1      32.160  23.429  25.008  1.00  0.00     0.267 C 
ATOM     10  N   UNL A   1      33.606  23.181  25.011  1.00  0.00    -0.334 N 
ATOM     11  H   UNL A   1      33.790  22.905  25.975  1.00  0.00     0.348 HD
BRANCH   5  12
ATOM     12  O   UNL A   1      32.006  26.175  24.148  1.00  0.00    -0.473 OA
BRANCH  12  13
ATOM     13  C   UNL A   1      30.957  26.926  23.756  1.00  0.00     0.139 A 
ATOM     14  C   UNL A   1      28.130  29.649  22.063  1.00  0.00     0.066 C 
ATOM     15  C   UNL A   1      29.115  28.728  22.719  1.00  0.00     0.038 A 
ATOM     16  C   UNL A   1      28.676  27.647  23.472  1.00  0.00     0.027 A 
ATOM     17  N   UNL A   1      30.424  28.938  22.469  1.00  0.00    -0.258 NA
ATOM     18  C   UNL A   1      29.607  26.733  23.980  1.00  0.00     0.050 A 
ATOM     19  C   UNL A   1      31.298  28.045  22.996  1.00  0.00     0.157 A 
ENDBRANCH  12  13
ENDBRANCH   5  12
BRANCH  10  20
ATOM     20  C   UNL A   1      34.038  22.030  24.188  1.00  0.00     0.266 C 
BRANCH  20  21
ATOM     21  C   UNL A   1      33.641  20.553  24.517  1.00  0.00     0.048 C 
ATOM     22  C   UNL A   1      34.832  19.599  24.814  1.00  0.00     0.036 C 
ATOM     23  C   UNL A   1      32.629  19.964  23.524  1.00  0.00     0.014 C 
ATOM     24  C   UNL A   1      34.614  18.155  24.454  1.00  0.00    -0.031 C 
ATOM     25  C   UNL A   1      32.230  18.535  23.885  1.00  0.00     0.027 C 
ATOM     26  C   UNL A   1      33.437  17.666  24.045  1.00  0.00    -0.031 C 
ENDBRANCH  20  21
ENDBRANCH  10  20
ENDBRANCH   3   5
ENDBRANCH   2   3
ENDBRANCH   1   2
BRANCH   1  27
ATOM     27  C   UNL A   1      33.291  30.469  26.728  1.00  0.00     0.275 C 
BRANCH  27  28
ATOM     28  O   UNL A   1      34.053  29.919  27.816  1.00  0.00    -0.458 OA
BRANCH  28  29
ATOM     29  C   UNL A   1      34.831  30.778  28.507  1.00  0.00     0.338 C 
ATOM     30  O   UNL A   1      34.511  31.883  28.927  1.00  0.00    -0.246 OA
BRANCH  29  31
ATOM     31  C   UNL A   1      36.182  30.200  28.654  1.00  0.00     0.060 A 
ATOM     32  C   UNL A   1      36.634  29.707  29.883  1.00  0.00     0.016 A 
ATOM     33  C   UNL A   1      37.034  30.201  27.550  1.00  0.00     0.016 A 
ATOM     34  C   UNL A   1      37.947  29.258  30.018  1.00  0.00     0.010 A 
ATOM     35  C   UNL A   1      38.320  29.671  27.668  1.00  0.00     0.010 A 
ATOM     36  C   UNL A   1      38.798  29.205  28.906  1.00  0.00    -0.014 A 
BRANCH  36  37
ATOM     37  C   UNL A   1      40.178  28.657  29.001  1.00  0.00     0.031 A 
ATOM     38  C   UNL A   1      41.336  29.568  29.304  1.00  0.00     0.074 A 
ATOM     39  C   UNL A   1      40.411  27.354  28.752  1.00  0.00     0.049 A 
ATOM     40  N   UNL A   1      42.619  29.369  29.141  1.00  0.00    -0.248 NA
ATOM     41  C   UNL A   1      40.998  30.886  29.853  1.00  0.00     0.031 C 
ATOM     42  C   UNL A   1      39.392  26.334  28.503  1.00  0.00     0.029 A 
ATOM     43  N   UNL A   1      41.598  26.671  28.644  1.00  0.00    -0.354 N 
ATOM     44  C   UNL A   1      43.235  30.556  29.521  1.00  0.00     0.074 A 
ATOM     45  C   UNL A   1      42.186  31.469  29.918  1.00  0.00     0.031 C 
ATOM     46  C   UNL A   1      39.992  25.157  28.277  1.00  0.00     0.029 A 
ATOM     47  C   UNL A   1      41.437  25.360  28.271  1.00  0.00     0.049 A 
ATOM     48  H   UNL A   1      42.477  27.081  28.817  1.00  0.00     0.167 HD
ATOM     49  C   UNL A   1      44.556  30.857  29.535  1.00  0.00     0.031 A 
ATOM     50  C   UNL A   1      42.341  24.434  27.901  1.00  0.00     0.031 A 
ATOM     51  C   UNL A   1      45.598  29.934  29.167  1.00  0.00     0.049 A 
ATOM     52  C   UNL A   1      43.794  24.804  27.848  1.00  0.00     0.074 A 
ATOM     53  C   UNL A   1      46.966  30.138  29.141  1.00  0.00     0.029 A 
ATOM     54  N   UNL A   1      45.382  28.621  28.778  1.00  0.00    -0.354 N 
ATOM     55  N   UNL A   1      44.363  25.949  28.134  1.00  0.00    -0.248 NA
ATOM     56  C   UNL A   1      44.725  23.757  27.407  1.00  0.00     0.031 C 
ATOM     57  C   UNL A   1      47.576  28.961  28.697  1.00  0.00     0.029 A 
ATOM     58  C   UNL A   1      46.589  28.008  28.497  1.00  0.00     0.049 A 
ATOM     59  H   UNL A   1      44.499  28.190  28.711  1.00  0.00     0.167 HD
ATOM     60  C   UNL A   1      45.722  25.757  27.926  1.00  0.00     0.074 A 
ATOM     61  C   UNL A   1      45.891  24.382  27.500  1.00  0.00     0.031 C 
ATOM     62  C   UNL A   1      46.739  26.640  28.077  1.00  0.00     0.031 A 
BRANCH  49  63
ATOM     63  C   UNL A   1      44.952  32.254  29.927  1.00  0.00    -0.014 A 
ATOM     64  C   UNL A   1      45.278  32.582  31.251  1.00  0.00     0.009 A 
ATOM     65  C   UNL A   1      45.043  33.248  28.938  1.00  0.00     0.009 A 
ATOM     66  C   UNL A   1      45.663  33.884  31.582  1.00  0.00     0.001 A 
ATOM     67  C   UNL A   1      45.453  34.541  29.267  1.00  0.00     0.001 A 
ATOM     68  C   UNL A   1      45.757  34.861  30.590  1.00  0.00     0.000 A 
ENDBRANCH  49  63
BRANCH  50  69
ATOM     69  C   UNL A   1      41.874  23.083  27.493  1.00  0.00    -0.014 A 
ATOM     70  C   UNL A   1      41.779  22.049  28.435  1.00  0.00     0.009 A 
ATOM     71  C   UNL A   1      41.478  22.838  26.168  1.00  0.00     0.009 A 
ATOM     72  C   UNL A   1      41.299  20.794  28.054  1.00  0.00     0.001 A 
ATOM     73  C   UNL A   1      40.971  21.591  25.799  1.00  0.00     0.001 A 
ATOM     74  C   UNL A   1      40.886  20.569  26.742  1.00  0.00     0.000 A 
ENDBRANCH  50  69
BRANCH  62  75
ATOM     75  C   UNL A   1      48.126  26.133  27.822  1.00  0.00    -0.014 A 
ATOM     76  C   UNL A   1      48.878  25.527  28.840  1.00  0.00     0.009 A 
ATOM     77  C   UNL A   1      48.672  26.228  26.532  1.00  0.00     0.009 A 
ATOM     78  C   UNL A   1      50.164  25.051  28.576  1.00  0.00     0.001 A 
ATOM     79  C   UNL A   1      49.948  25.731  26.266  1.00  0.00     0.001 A 
ATOM     80  C   UNL A   1      50.695  25.150  27.289  1.00  0.00     0.000 A 
ENDBRANCH  62  75
ENDBRANCH  36  37
ENDBRANCH  29  31
ENDBRANCH  28  29
ENDBRANCH  27  28
ENDBRANCH   1  27
TORSDOF 15
ENDMDL
MODEL 2
REMARK VINA RESULT:     -11.3      3.601      7.218
REMARK SMILES Cc1ccc(OC2(C(=O)OCCOC(=O)c3ccc(-c4c5nc(c(-c6ccccc6)c6ccc([nH]6)c(-c6ccccc6)c6nc(c(-c7ccccc7)c7ccc4[nH]7)C=C6)C=C5)cc3)CC[NH+](C[C@@H]3CC=CCC3)CC2)cn1
REMARK SMILES IDX 11 1 10 2 8 3 9 4 7 5 64 6 75 7 65 8 74 9 66 10 6 12 5 13
REMARK SMILES IDX 1 14 2 15 3 16 77 17 4 18 76 19 67 20 68 21 69 22 73 23
REMARK SMILES IDX 70 24 72 25 71 26 12 27 13 28 14 29 15 30 16 31 17 32 63 33
REMARK SMILES IDX 18 34 62 35 19 36 20 37 21 38 56 39 22 40 61 41 55 42 57 43
REMARK SMILES IDX 23 44 60 45 54 46 53 47 24 49 46 50 31 51 45 52 32 53 35 54
REMARK SMILES IDX 44 55 58 56 33 57 34 58 43 60 59 61 36 62 25 63 26 64 30 65
REMARK SMILES IDX 27 66 29 67 28 68 47 69 48 70 52 71 49 72 51 73 50 74 37 75
REMARK SMILES IDX 38 76 42 77 39 78 41 79 40 80
REMARK H PARENT 66 11 57 48 35 59
REMARK Flexibility Score: inf
ROOT
ATOM      1  C   UNL A   1      31.937  27.731  26.363  1.00  0.00     0.274 C 
ENDROOT
BRANCH   1   2
ATOM      2  O   UNL A   1      31.926  26.693  25.365  1.00  0.00    -0.459 OA
BRANCH   2   3
ATOM      3  C   UNL A   1      33.125  26.254  24.884  1.00  0.00     0.351 C 
ATOM      4  O   UNL A   1      34.060  26.990  24.594  1.00  0.00    -0.247 OA
BRANCH   3   5
ATOM      5  C   UNL A   1      33.170  24.712  24.811  1.00  0.00     0.216 C 
ATOM      6  C   UNL A   1      32.879  24.086  26.178  1.00  0.00     0.122 C 
ATOM      7  C   UNL A   1      32.021  24.229  23.897  1.00  0.00     0.122 C 
ATOM      8  C   UNL A   1      32.863  22.579  26.117  1.00  0.00     0.267 C 
ATOM      9  C   UNL A   1      31.998  22.688  23.826  1.00  0.00     0.267 C 
ATOM     10  N   UNL A   1      31.914  22.058  25.149  1.00  0.00    -0.334 N 
ATOM     11  H   UNL A   1      30.993  22.341  25.481  1.00  0.00     0.348 HD
BRANCH   5  12
ATOM     12  O   UNL A   1      34.348  24.336  24.076  1.00  0.00    -0.473 OA
BRANCH  12  13
ATOM     13  C   UNL A   1      35.421  23.603  24.437  1.00  0.00     0.139 A 
ATOM     14  C   UNL A   1      38.906  21.794  26.125  1.00  0.00     0.066 C 
ATOM     15  C   UNL A   1      37.722  22.445  25.475  1.00  0.00     0.038 A 
ATOM     16  C   UNL A   1      36.960  21.752  24.545  1.00  0.00     0.027 A 
ATOM     17  N   UNL A   1      37.381  23.680  25.900  1.00  0.00    -0.258 NA
ATOM     18  C   UNL A   1      35.792  22.333  24.035  1.00  0.00     0.050 A 
ATOM     19  C   UNL A   1      36.257  24.220  25.367  1.00  0.00     0.157 A 
ENDBRANCH  12  13
ENDBRANCH   5  12
BRANCH  10  20
ATOM     20  C   UNL A   1      31.881  20.579  25.128  1.00  0.00     0.266 C 
BRANCH  20  21
ATOM     21  C   UNL A   1      32.864  19.720  24.267  1.00  0.00     0.048 C 
ATOM     22  C   UNL A   1      32.213  18.973  23.068  1.00  0.00     0.036 C 
ATOM     23  C   UNL A   1      33.780  18.821  25.111  1.00  0.00     0.014 C 
ATOM     24  C   UNL A   1      32.872  17.681  22.671  1.00  0.00    -0.031 C 
ATOM     25  C   UNL A   1      34.754  18.018  24.251  1.00  0.00     0.027 C 
ATOM     26  C   UNL A   1      34.027  17.250  23.194  1.00  0.00    -0.031 C 
ENDBRANCH  20  21
ENDBRANCH  10  20
ENDBRANCH   3   5
ENDBRANCH   2   3
ENDBRANCH   1   2
BRANCH   1  27
ATOM     27  C   UNL A   1      31.702  29.067  25.664  1.00  0.00     0.275 C 
BRANCH  27  28
ATOM     28  O   UNL A   1      32.918  29.829  25.739  1.00  0.00    -0.458 OA
BRANCH  28  29
ATOM     29  C   UNL A   1      32.969  30.797  26.678  1.00  0.00     0.338 C 
ATOM     30  O   UNL A   1      32.138  31.675  26.874  1.00  0.00    -0.246 OA
BRANCH  29  31
ATOM     31  C   UNL A   1      34.231  30.674  27.435  1.00  0.00     0.060 A 
ATOM     32  C   UNL A   1      35.019  31.794  27.724  1.00  0.00     0.016 A 
ATOM     33  C   UNL A   1      34.662  29.404  27.815  1.00  0.00     0.016 A 
ATOM     34  C   UNL A   1      36.254  31.638  28.353  1.00  0.00     0.010 A 
ATOM     35  C   UNL A   1      35.858  29.261  28.521  1.00  0.00     0.010 A 
ATOM     36  C   UNL A   1      36.676  30.374  28.787  1.00  0.00    -0.014 A 
BRANCH  36  37
ATOM     37  C   UNL A   1      37.952  30.187  29.531  1.00  0.00     0.031 A 
ATOM     38  C   UNL A   1      39.050  29.338  28.951  1.00  0.00     0.074 A 
ATOM     39  C   UNL A   1      38.108  30.720  30.757  1.00  0.00     0.049 A 
ATOM     40  N   UNL A   1      40.092  28.807  29.538  1.00  0.00    -0.248 NA
ATOM     41  C   UNL A   1      38.950  29.039  27.517  1.00  0.00     0.031 C 
ATOM     42  C   UNL A   1      37.164  31.613  31.429  1.00  0.00     0.029 A 
ATOM     43  N   UNL A   1      39.124  30.563  31.669  1.00  0.00    -0.354 N 
ATOM     44  C   UNL A   1      40.743  28.070  28.553  1.00  0.00     0.074 A 
ATOM     45  C   UNL A   1      39.976  28.221  27.336  1.00  0.00     0.031 C 
ATOM     46  C   UNL A   1      37.642  31.929  32.641  1.00  0.00     0.029 A 
ATOM     47  C   UNL A   1      38.878  31.187  32.867  1.00  0.00     0.049 A 
ATOM     48  H   UNL A   1      39.945  30.053  31.482  1.00  0.00     0.167 HD
ATOM     49  C   UNL A   1      41.875  27.334  28.658  1.00  0.00     0.031 A 
ATOM     50  C   UNL A   1      39.532  31.124  34.041  1.00  0.00     0.031 A 
ATOM     51  C   UNL A   1      42.649  27.212  29.865  1.00  0.00     0.049 A 
ATOM     52  C   UNL A   1      40.742  30.244  34.163  1.00  0.00     0.074 A 
ATOM     53  C   UNL A   1      43.809  26.488  30.080  1.00  0.00     0.029 A 
ATOM     54  N   UNL A   1      42.348  27.849  31.059  1.00  0.00    -0.354 N 
ATOM     55  N   UNL A   1      41.308  29.491  33.253  1.00  0.00    -0.248 NA
ATOM     56  C   UNL A   1      41.392  30.197  35.479  1.00  0.00     0.031 C 
ATOM     57  C   UNL A   1      44.188  26.655  31.416  1.00  0.00     0.029 A 
ATOM     58  C   UNL A   1      43.291  27.525  32.017  1.00  0.00     0.049 A 
ATOM     59  H   UNL A   1      41.577  28.444  31.203  1.00  0.00     0.167 HD
ATOM     60  C   UNL A   1      42.392  28.893  33.879  1.00  0.00     0.074 A 
ATOM     61  C   UNL A   1      42.410  29.380  35.243  1.00  0.00     0.031 C 
ATOM     62  C   UNL A   1      43.294  28.020  33.368  1.00  0.00     0.031 A 
BRANCH  49  63
ATOM     63  C   UNL A   1      42.328  26.571  27.444  1.00  0.00    -0.014 A 
ATOM     64  C   UNL A   1      41.868  25.272  27.178  1.00  0.00     0.009 A 
ATOM     65  C   UNL A   1      43.195  27.185  26.526  1.00  0.00     0.009 A 
ATOM     66  C   UNL A   1      42.289  24.595  26.030  1.00  0.00     0.001 A 
ATOM     67  C   UNL A   1      43.594  26.516  25.367  1.00  0.00     0.001 A 
ATOM     68  C   UNL A   1      43.145  25.219  25.123  1.00  0.00     0.000 A 
ENDBRANCH  49  63
BRANCH  50  69
ATOM     69  C   UNL A   1      39.007  31.879  35.208  1.00  0.00    -0.014 A 
ATOM     70  C   UNL A   1      38.170  31.254  36.142  1.00  0.00     0.009 A 
ATOM     71  C   UNL A   1      39.382  33.217  35.416  1.00  0.00     0.009 A 
ATOM     72  C   UNL A   1      37.715  31.957  37.261  1.00  0.00     0.001 A 
ATOM     73  C   UNL A   1      38.949  33.907  36.549  1.00  0.00     0.001 A 
ATOM     74  C   UNL A   1      38.113  33.277  37.468  1.00  0.00     0.000 A 
ENDBRANCH  50  69
BRANCH  62  75
ATOM     75  C   UNL A   1      44.399  27.572  34.276  1.00  0.00    -0.014 A 
ATOM     76  C   UNL A   1      44.276  26.411  35.054  1.00  0.00     0.009 A 
ATOM     77  C   UNL A   1      45.596  28.305  34.324  1.00  0.00     0.009 A 
ATOM     78  C   UNL A   1      45.324  26.007  35.884  1.00  0.00     0.001 A 
ATOM     79  C   UNL A   1      46.649  27.886  35.137  1.00  0.00     0.001 A 
ATOM     80  C   UNL A   1      46.510  26.741  35.921  1.00  0.00     0.000 A 
ENDBRANCH  62  75
ENDBRANCH  36  37
ENDBRANCH  29  31
ENDBRANCH  28  29
ENDBRANCH  27  28
ENDBRANCH   1  27
TORSDOF 15
ENDMDL
MODEL 3
REMARK VINA RESULT:     -11.2      3.561      6.563
REMARK SMILES Cc1ccc(OC2(C(=O)OCCOC(=O)c3ccc(-c4c5nc(c(-c6ccccc6)c6ccc([nH]6)c(-c6ccccc6)c6nc(c(-c7ccccc7)c7ccc4[nH]7)C=C6)C=C5)cc3)CC[NH+](C[C@@H]3CC=CCC3)CC2)cn1
REMARK SMILES IDX 11 1 10 2 8 3 9 4 7 5 64 6 75 7 65 8 74 9 66 10 6 12 5 13
REMARK SMILES IDX 1 14 2 15 3 16 77 17 4 18 76 19 67 20 68 21 69 22 73 23
REMARK SMILES IDX 70 24 72 25 71 26 12 27 13 28 14 29 15 30 16 31 17 32 63 33
REMARK SMILES IDX 18 34 62 35 19 36 20 37 21 38 56 39 22 40 61 41 55 42 57 43
REMARK SMILES IDX 23 44 60 45 54 46 53 47 24 49 46 50 31 51 45 52 32 53 35 54
REMARK SMILES IDX 44 55 58 56 33 57 34 58 43 60 59 61 36 62 25 63 26 64 30 65
REMARK SMILES IDX 27 66 29 67 28 68 47 69 48 70 52 71 49 72 51 73 50 74 37 75
REMARK SMILES IDX 38 76 42 77 39 78 41 79 40 80
REMARK H PARENT 66 11 57 48 35 59
REMARK Flexibility Score: inf
ROOT
ATOM      1  C   UNL A   1      31.725  28.625  26.712  1.00  0.00     0.274 C 
ENDROOT
BRANCH   1   2
ATOM      2  O   UNL A   1      32.094  27.401  26.050  1.00  0.00    -0.459 OA
BRANCH   2   3
ATOM      3  C   UNL A   1      31.215  26.359  26.094  1.00  0.00     0.351 C 
ATOM      4  O   UNL A   1      30.227  26.322  26.817  1.00  0.00    -0.247 OA
BRANCH   3   5
ATOM      5  C   UNL A   1      31.592  25.262  25.073  1.00  0.00     0.216 C 
ATOM      6  C   UNL A   1      33.088  24.943  25.134  1.00  0.00     0.122 C 
ATOM      7  C   UNL A   1      30.886  23.949  25.478  1.00  0.00     0.122 C 
ATOM      8  C   UNL A   1      33.468  23.835  24.184  1.00  0.00     0.267 C 
ATOM      9  C   UNL A   1      31.267  22.809  24.511  1.00  0.00     0.267 C 
ATOM     10  N   UNL A   1      32.717  22.612  24.405  1.00  0.00    -0.334 N 
ATOM     11  H   UNL A   1      32.974  22.291  25.338  1.00  0.00     0.348 HD
BRANCH   5  12
ATOM     12  O   UNL A   1      30.970  25.591  23.818  1.00  0.00    -0.473 OA
BRANCH  12  13
ATOM     13  C   UNL A   1      30.159  26.612  23.472  1.00  0.00     0.139 A 
ATOM     14  C   UNL A   1      28.144  30.038  21.900  1.00  0.00     0.066 C 
ATOM     15  C   UNL A   1      28.857  28.870  22.514  1.00  0.00     0.038 A 
ATOM     16  C   UNL A   1      28.166  27.953  23.294  1.00  0.00     0.027 A 
ATOM     17  N   UNL A   1      30.158  28.702  22.199  1.00  0.00    -0.258 NA
ATOM     18  C   UNL A   1      28.822  26.808  23.762  1.00  0.00     0.050 A 
ATOM     19  C   UNL A   1      30.767  27.594  22.690  1.00  0.00     0.157 A 
ENDBRANCH  12  13
ENDBRANCH   5  12
BRANCH  10  20
ATOM     20  C   UNL A   1      33.127  21.523  23.492  1.00  0.00     0.266 C 
BRANCH  20  21
ATOM     21  C   UNL A   1      32.961  20.009  23.846  1.00  0.00     0.048 C 
ATOM     22  C   UNL A   1      34.170  19.364  24.582  1.00  0.00     0.036 C 
ATOM     23  C   UNL A   1      32.453  19.165  22.668  1.00  0.00     0.014 C 
ATOM     24  C   UNL A   1      34.377  17.896  24.331  1.00  0.00    -0.031 C 
ATOM     25  C   UNL A   1      32.264  17.697  23.047  1.00  0.00     0.027 C 
ATOM     26  C   UNL A   1      33.513  17.135  23.648  1.00  0.00    -0.031 C 
ENDBRANCH  20  21
ENDBRANCH  10  20
ENDBRANCH   3   5
ENDBRANCH   2   3
ENDBRANCH   1   2
BRANCH   1  27
ATOM     27  C   UNL A   1      31.811  29.760  25.696  1.00  0.00     0.275 C 
BRANCH  27  28
ATOM     28  O   UNL A   1      33.079  30.415  25.866  1.00  0.00    -0.458 OA
BRANCH  28  29
ATOM     29  C   UNL A   1      33.158  31.341  26.845  1.00  0.00     0.338 C 
ATOM     30  O   UNL A   1      32.352  32.234  27.077  1.00  0.00    -0.246 OA
BRANCH  29  31
ATOM     31  C   UNL A   1      34.414  31.149  27.595  1.00  0.00     0.060 A 
ATOM     32  C   UNL A   1      35.261  32.224  27.886  1.00  0.00     0.016 A 
ATOM     33  C   UNL A   1      34.780  29.857  27.970  1.00  0.00     0.016 A 
ATOM     34  C   UNL A   1      36.489  32.001  28.509  1.00  0.00     0.010 A 
ATOM     35  C   UNL A   1      35.969  29.649  28.670  1.00  0.00     0.010 A 
ATOM     36  C   UNL A   1      36.845  30.716  28.937  1.00  0.00    -0.014 A 
BRANCH  36  37
ATOM     37  C   UNL A   1      38.112  30.459  29.674  1.00  0.00     0.031 A 
ATOM     38  C   UNL A   1      39.174  29.580  29.074  1.00  0.00     0.074 A 
ATOM     39  C   UNL A   1      38.291  30.957  30.913  1.00  0.00     0.049 A 
ATOM     40  N   UNL A   1      40.193  28.992  29.647  1.00  0.00    -0.248 NA
ATOM     41  C   UNL A   1      39.063  29.318  27.634  1.00  0.00     0.031 C 
ATOM     42  C   UNL A   1      37.384  31.873  31.606  1.00  0.00     0.029 A 
ATOM     43  N   UNL A   1      39.299  30.738  31.820  1.00  0.00    -0.354 N 
ATOM     44  C   UNL A   1      40.813  28.252  28.645  1.00  0.00     0.074 A 
ATOM     45  C   UNL A   1      40.054  28.462  27.433  1.00  0.00     0.031 C 
ATOM     46  C   UNL A   1      37.875  32.140  32.824  1.00  0.00     0.029 A 
ATOM     47  C   UNL A   1      39.079  31.343  33.032  1.00  0.00     0.049 A 
ATOM     48  H   UNL A   1      40.099  30.199  31.620  1.00  0.00     0.167 HD
ATOM     49  C   UNL A   1      41.915  27.468  28.732  1.00  0.00     0.031 A 
ATOM     50  C   UNL A   1      39.731  31.226  34.203  1.00  0.00     0.031 A 
ATOM     51  C   UNL A   1      42.683  27.286  29.935  1.00  0.00     0.049 A 
ATOM     52  C   UNL A   1      40.903  30.295  34.304  1.00  0.00     0.074 A 
ATOM     53  C   UNL A   1      43.812  26.510  30.133  1.00  0.00     0.029 A 
ATOM     54  N   UNL A   1      42.409  27.908  31.143  1.00  0.00    -0.354 N 
ATOM     55  N   UNL A   1      41.437  29.540  33.376  1.00  0.00    -0.248 NA
ATOM     56  C   UNL A   1      41.552  30.191  35.618  1.00  0.00     0.031 C 
ATOM     57  C   UNL A   1      44.197  26.631  31.471  1.00  0.00     0.029 A 
ATOM     58  C   UNL A   1      43.338  27.523  32.093  1.00  0.00     0.049 A 
ATOM     59  H   UNL A   1      41.663  28.530  31.302  1.00  0.00     0.167 HD
ATOM     60  C   UNL A   1      42.496  28.884  33.986  1.00  0.00     0.074 A 
ATOM     61  C   UNL A   1      42.535  29.338  35.362  1.00  0.00     0.031 C 
ATOM     62  C   UNL A   1      43.362  27.986  33.455  1.00  0.00     0.031 A 
BRANCH  49  63
ATOM     63  C   UNL A   1      42.335  26.714  27.500  1.00  0.00    -0.014 A 
ATOM     64  C   UNL A   1      41.831  25.438  27.211  1.00  0.00     0.009 A 
ATOM     65  C   UNL A   1      43.218  27.318  26.590  1.00  0.00     0.009 A 
ATOM     66  C   UNL A   1      42.223  24.770  26.047  1.00  0.00     0.001 A 
ATOM     67  C   UNL A   1      43.587  26.660  25.415  1.00  0.00     0.001 A 
ATOM     68  C   UNL A   1      43.095  25.383  25.148  1.00  0.00     0.000 A 
ENDBRANCH  49  63
BRANCH  50  69
ATOM     69  C   UNL A   1      39.238  31.975  35.388  1.00  0.00    -0.014 A 
ATOM     70  C   UNL A   1      38.311  31.393  36.263  1.00  0.00     0.009 A 
ATOM     71  C   UNL A   1      39.731  33.260  35.672  1.00  0.00     0.009 A 
ATOM     72  C   UNL A   1      37.884  32.086  37.399  1.00  0.00     0.001 A 
ATOM     73  C   UNL A   1      39.324  33.937  36.823  1.00  0.00     0.001 A 
ATOM     74  C   UNL A   1      38.398  33.351  37.683  1.00  0.00     0.000 A 
ENDBRANCH  50  69
BRANCH  62  75
ATOM     75  C   UNL A   1      44.447  27.472  34.352  1.00  0.00    -0.014 A 
ATOM     76  C   UNL A   1      44.276  26.300  35.103  1.00  0.00     0.009 A 
ATOM     77  C   UNL A   1      45.674  28.153  34.414  1.00  0.00     0.009 A 
ATOM     78  C   UNL A   1      45.307  25.834  35.922  1.00  0.00     0.001 A 
ATOM     79  C   UNL A   1      46.709  27.672  35.216  1.00  0.00     0.001 A 
ATOM     80  C   UNL A   1      46.522  26.518  35.975  1.00  0.00     0.000 A 
ENDBRANCH  62  75
ENDBRANCH  36  37
ENDBRANCH  29  31
ENDBRANCH  28  29
ENDBRANCH  27  28
ENDBRANCH   1  27
TORSDOF 15
ENDMDL
