MODEL 1
REMARK VINA RESULT:     -11.2      0.000      0.000
REMARK SMILES C[C@@H](c1cccc(O)c1)[N@H+]1[C@@H]2CC[C@H]1C[C@H](CC(=O)OCCOC(=O)c1ccc(-c3c4nc(c(-c5ccccc5)c5ccc([nH]5)c(-c5ccccc5)c5nc(c(-c6ccccc6)c6ccc3[nH]6)C=C5)C=C4)cc1)C2
REMARK SMILES IDX 21 1 20 2 18 3 19 4 17 5 16 6 10 7 11 8 14 9 12 11 74 12
REMARK SMILES IDX 13 13 15 14 2 15 1 16 3 17 4 18 9 19 5 20 7 21 6 22 8 23
REMARK SMILES IDX 22 25 23 26 24 27 25 28 26 29 27 30 73 31 28 32 72 33 29 34
REMARK SMILES IDX 30 35 31 36 66 37 32 38 71 39 65 40 67 41 33 42 70 43 64 44
REMARK SMILES IDX 63 45 34 47 56 48 41 49 55 50 42 51 45 52 54 53 68 54 43 55
REMARK SMILES IDX 44 56 53 58 69 59 46 60 35 61 36 62 40 63 37 64 39 65 38 66
REMARK SMILES IDX 57 67 58 68 62 69 59 70 61 71 60 72 47 73 48 74 52 75 49 76
REMARK SMILES IDX 51 77 50 78
REMARK H PARENT 10 10 8 24 67 46 45 57
REMARK Flexibility Score: inf
ROOT
ATOM      1  C   UNL A   1      32.645  29.208  25.326  1.00  0.00     0.274 C 
ENDROOT
BRANCH   1   2
ATOM      2  O   UNL A   1      31.409  28.485  25.469  1.00  0.00    -0.462 OA
BRANCH   2   3
ATOM      3  C   UNL A   1      31.498  27.294  26.100  1.00  0.00     0.306 C 
ATOM      4  O   UNL A   1      31.121  27.080  27.250  1.00  0.00    -0.252 OA
BRANCH   3   5
ATOM      5  C   UNL A   1      32.007  26.178  25.223  1.00  0.00     0.126 C 
BRANCH   5   6
ATOM      6  C   UNL A   1      33.296  25.416  25.555  1.00  0.00     0.012 C 
ATOM      7  N   UNL A   1      33.992  22.736  24.597  1.00  0.00    -0.324 N 
ATOM      8  C   UNL A   1      34.741  23.847  24.032  1.00  0.00     0.185 C 
ATOM      9  C   UNL A   1      33.981  22.979  26.029  1.00  0.00     0.185 C 
ATOM     10  H   UNL A   1      34.442  21.842  24.401  1.00  0.00     0.349 HD
ATOM     11  C   UNL A   1      35.987  23.789  24.920  1.00  0.00     0.071 C 
ATOM     12  C   UNL A   1      34.054  25.206  24.212  1.00  0.00     0.069 C 
ATOM     13  C   UNL A   1      35.452  23.357  26.284  1.00  0.00     0.071 C 
ATOM     14  C   UNL A   1      33.050  24.137  26.377  1.00  0.00     0.069 C 
BRANCH   7  15
ATOM     15  C   UNL A   1      32.878  22.106  23.884  1.00  0.00     0.212 C 
ATOM     16  C   UNL A   1      32.816  22.639  22.439  1.00  0.00     0.081 C 
BRANCH  15  17
ATOM     17  C   UNL A   1      32.729  20.585  23.939  1.00  0.00     0.013 A 
ATOM     18  C   UNL A   1      32.506  19.790  22.800  1.00  0.00     0.010 A 
ATOM     19  C   UNL A   1      32.778  19.932  25.184  1.00  0.00     0.056 A 
ATOM     20  C   UNL A   1      32.393  18.397  22.895  1.00  0.00     0.004 A 
ATOM     21  C   UNL A   1      32.692  18.542  25.269  1.00  0.00     0.116 A 
ATOM     22  C   UNL A   1      32.498  17.767  24.133  1.00  0.00     0.046 A 
BRANCH  21  23
ATOM     23  O   UNL A   1      32.853  17.969  26.496  1.00  0.00    -0.508 OA
ATOM     24  H   UNL A   1      33.710  17.878  26.863  1.00  0.00     0.293 HD
ENDBRANCH  21  23
ENDBRANCH  15  17
ENDBRANCH   7  15
ENDBRANCH   5   6
ENDBRANCH   3   5
ENDBRANCH   2   3
ENDBRANCH   1   2
BRANCH   1  25
ATOM     25  C   UNL A   1      32.867  30.066  26.568  1.00  0.00     0.275 C 
BRANCH  25  26
ATOM     26  O   UNL A   1      34.035  29.613  27.281  1.00  0.00    -0.458 OA
BRANCH  26  27
ATOM     27  C   UNL A   1      34.625  30.539  28.068  1.00  0.00     0.338 C 
ATOM     28  O   UNL A   1      34.116  31.540  28.559  1.00  0.00    -0.246 OA
BRANCH  27  29
ATOM     29  C   UNL A   1      36.028  30.178  28.305  1.00  0.00     0.060 A 
ATOM     30  C   UNL A   1      36.955  30.270  27.269  1.00  0.00     0.016 A 
ATOM     31  C   UNL A   1      36.394  29.614  29.526  1.00  0.00     0.016 A 
ATOM     32  C   UNL A   1      38.216  29.702  27.407  1.00  0.00     0.010 A 
ATOM     33  C   UNL A   1      37.703  29.162  29.705  1.00  0.00     0.010 A 
ATOM     34  C   UNL A   1      38.621  29.176  28.639  1.00  0.00    -0.014 A 
BRANCH  34  35
ATOM     35  C   UNL A   1      40.002  28.657  28.825  1.00  0.00     0.031 A 
ATOM     36  C   UNL A   1      41.102  29.574  29.285  1.00  0.00     0.074 A 
ATOM     37  C   UNL A   1      40.279  27.366  28.554  1.00  0.00     0.049 A 
ATOM     38  N   UNL A   1      42.396  29.380  29.277  1.00  0.00    -0.248 NA
ATOM     39  C   UNL A   1      40.693  30.887  29.809  1.00  0.00     0.031 C 
ATOM     40  C   UNL A   1      39.303  26.349  28.151  1.00  0.00     0.029 A 
ATOM     41  N   UNL A   1      41.472  26.686  28.574  1.00  0.00    -0.354 N 
ATOM     42  C   UNL A   1      42.958  30.564  29.735  1.00  0.00     0.074 A 
ATOM     43  C   UNL A   1      41.866  31.470  30.018  1.00  0.00     0.031 C 
ATOM     44  C   UNL A   1      39.929  25.174  27.996  1.00  0.00     0.029 A 
ATOM     45  C   UNL A   1      41.358  25.373  28.189  1.00  0.00     0.049 A 
ATOM     46  H   UNL A   1      42.324  27.100  28.839  1.00  0.00     0.167 HD
ATOM     47  C   UNL A   1      44.269  30.870  29.893  1.00  0.00     0.031 A 
ATOM     48  C   UNL A   1      42.301  24.441  27.957  1.00  0.00     0.031 A 
ATOM     49  C   UNL A   1      45.349  29.955  29.642  1.00  0.00     0.049 A 
ATOM     50  C   UNL A   1      43.746  24.818  28.089  1.00  0.00     0.074 A 
ATOM     51  C   UNL A   1      46.711  30.166  29.775  1.00  0.00     0.029 A 
ATOM     52  N   UNL A   1      45.187  28.644  29.219  1.00  0.00    -0.354 N 
ATOM     53  N   UNL A   1      44.268  25.963  28.454  1.00  0.00    -0.248 NA
ATOM     54  C   UNL A   1      44.730  23.781  27.751  1.00  0.00     0.031 C 
ATOM     55  C   UNL A   1      47.374  28.992  29.400  1.00  0.00     0.029 A 
ATOM     56  C   UNL A   1      46.424  28.038  29.073  1.00  0.00     0.049 A 
ATOM     57  H   UNL A   1      44.321  28.208  29.048  1.00  0.00     0.167 HD
ATOM     58  C   UNL A   1      45.642  25.785  28.394  1.00  0.00     0.074 A 
ATOM     59  C   UNL A   1      45.872  24.415  27.980  1.00  0.00     0.031 C 
ATOM     60  C   UNL A   1      46.627  26.679  28.651  1.00  0.00     0.031 A 
BRANCH  47  61
ATOM     61  C   UNL A   1      44.605  32.273  30.311  1.00  0.00    -0.014 A 
ATOM     62  C   UNL A   1      44.809  32.611  31.657  1.00  0.00     0.009 A 
ATOM     63  C   UNL A   1      44.745  33.270  29.331  1.00  0.00     0.009 A 
ATOM     64  C   UNL A   1      45.115  33.926  32.016  1.00  0.00     0.001 A 
ATOM     65  C   UNL A   1      45.073  34.578  29.690  1.00  0.00     0.001 A 
ATOM     66  C   UNL A   1      45.250  34.908  31.032  1.00  0.00     0.000 A 
ENDBRANCH  47  61
BRANCH  48  67
ATOM     67  C   UNL A   1      41.901  23.083  27.508  1.00  0.00    -0.014 A 
ATOM     68  C   UNL A   1      41.562  22.096  28.445  1.00  0.00     0.009 A 
ATOM     69  C   UNL A   1      41.840  22.773  26.139  1.00  0.00     0.009 A 
ATOM     70  C   UNL A   1      41.179  20.822  28.019  1.00  0.00     0.001 A 
ATOM     71  C   UNL A   1      41.429  21.508  25.717  1.00  0.00     0.001 A 
ATOM     72  C   UNL A   1      41.105  20.532  26.657  1.00  0.00     0.000 A 
ENDBRANCH  48  67
BRANCH  60  73
ATOM     73  C   UNL A   1      48.037  26.186  28.510  1.00  0.00    -0.014 A 
ATOM     74  C   UNL A   1      48.739  25.680  29.615  1.00  0.00     0.009 A 
ATOM     75  C   UNL A   1      48.661  26.210  27.254  1.00  0.00     0.009 A 
ATOM     76  C   UNL A   1      50.053  25.234  29.468  1.00  0.00     0.001 A 
ATOM     77  C   UNL A   1      49.967  25.743  27.107  1.00  0.00     0.001 A 
ATOM     78  C   UNL A   1      50.665  25.263  28.215  1.00  0.00     0.000 A 
ENDBRANCH  60  73
ENDBRANCH  34  35
ENDBRANCH  27  29
ENDBRANCH  26  27
ENDBRANCH  25  26
ENDBRANCH   1  25
TORSDOF 15
ENDMDL
MODEL 2
REMARK VINA RESULT:     -11.1      2.881      7.513
REMARK SMILES C[C@@H](c1cccc(O)c1)[N@H+]1[C@@H]2CC[C@H]1C[C@H](CC(=O)OCCOC(=O)c1ccc(-c3c4nc(c(-c5ccccc5)c5ccc([nH]5)c(-c5ccccc5)c5nc(c(-c6ccccc6)c6ccc3[nH]6)C=C5)C=C4)cc1)C2
REMARK SMILES IDX 21 1 20 2 18 3 19 4 17 5 16 6 10 7 11 8 14 9 12 11 74 12
REMARK SMILES IDX 13 13 15 14 2 15 1 16 3 17 4 18 9 19 5 20 7 21 6 22 8 23
REMARK SMILES IDX 22 25 23 26 24 27 25 28 26 29 27 30 73 31 28 32 72 33 29 34
REMARK SMILES IDX 30 35 31 36 66 37 32 38 71 39 65 40 67 41 33 42 70 43 64 44
REMARK SMILES IDX 63 45 34 47 56 48 41 49 55 50 42 51 45 52 54 53 68 54 43 55
REMARK SMILES IDX 44 56 53 58 69 59 46 60 35 61 36 62 40 63 37 64 39 65 38 66
REMARK SMILES IDX 57 67 58 68 62 69 59 70 61 71 60 72 47 73 48 74 52 75 49 76
REMARK SMILES IDX 51 77 50 78
REMARK H PARENT 10 10 8 24 67 46 45 57
REMARK Flexibility Score: inf
ROOT
ATOM      1  C   UNL A   1      34.372  21.504  24.688  1.00  0.00     0.274 C 
ENDROOT
BRANCH   1   2
ATOM      2  O   UNL A   1      34.673  22.902  24.528  1.00  0.00    -0.462 OA
BRANCH   2   3
ATOM      3  C   UNL A   1      34.209  23.715  25.502  1.00  0.00     0.306 C 
ATOM      4  O   UNL A   1      34.327  23.505  26.706  1.00  0.00    -0.252 OA
BRANCH   3   5
ATOM      5  C   UNL A   1      33.613  25.001  24.986  1.00  0.00     0.126 C 
BRANCH   5   6
ATOM      6  C   UNL A   1      33.375  26.204  25.906  1.00  0.00     0.012 C 
ATOM      7  N   UNL A   1      31.515  28.409  25.390  1.00  0.00    -0.324 N 
ATOM      8  C   UNL A   1      31.145  27.475  26.442  1.00  0.00     0.185 C 
ATOM      9  C   UNL A   1      32.911  28.724  25.639  1.00  0.00     0.185 C 
ATOM     10  H   UNL A   1      30.954  29.260  25.431  1.00  0.00     0.349 HD
ATOM     11  C   UNL A   1      31.642  28.257  27.660  1.00  0.00     0.071 C 
ATOM     12  C   UNL A   1      31.888  26.136  26.362  1.00  0.00     0.069 C 
ATOM     13  C   UNL A   1      32.900  28.966  27.160  1.00  0.00     0.071 C 
ATOM     14  C   UNL A   1      33.807  27.543  25.279  1.00  0.00     0.069 C 
BRANCH   7  15
ATOM     15  C   UNL A   1      30.939  28.332  24.044  1.00  0.00     0.212 C 
ATOM     16  C   UNL A   1      30.317  26.939  23.821  1.00  0.00     0.081 C 
BRANCH  15  17
ATOM     17  C   UNL A   1      30.014  29.454  23.571  1.00  0.00     0.013 A 
ATOM     18  C   UNL A   1      29.870  30.676  24.256  1.00  0.00     0.010 A 
ATOM     19  C   UNL A   1      29.232  29.264  22.417  1.00  0.00     0.056 A 
ATOM     20  C   UNL A   1      29.024  31.684  23.776  1.00  0.00     0.004 A 
ATOM     21  C   UNL A   1      28.412  30.281  21.930  1.00  0.00     0.116 A 
ATOM     22  C   UNL A   1      28.299  31.492  22.601  1.00  0.00     0.046 A 
BRANCH  21  23
ATOM     23  O   UNL A   1      27.764  30.066  20.749  1.00  0.00    -0.508 OA
ATOM     24  H   UNL A   1      27.983  30.576  19.994  1.00  0.00     0.293 HD
ENDBRANCH  21  23
ENDBRANCH  15  17
ENDBRANCH   7  15
ENDBRANCH   5   6
ENDBRANCH   3   5
ENDBRANCH   2   3
ENDBRANCH   1   2
BRANCH   1  25
ATOM     25  C   UNL A   1      35.643  20.762  25.089  1.00  0.00     0.275 C 
BRANCH  25  26
ATOM     26  O   UNL A   1      36.801  21.569  24.798  1.00  0.00    -0.458 OA
BRANCH  26  27
ATOM     27  C   UNL A   1      37.961  21.126  25.327  1.00  0.00     0.338 C 
ATOM     28  O   UNL A   1      38.398  19.981  25.324  1.00  0.00    -0.246 OA
BRANCH  27  29
ATOM     29  C   UNL A   1      38.701  22.243  25.926  1.00  0.00     0.060 A 
ATOM     30  C   UNL A   1      38.188  23.536  25.855  1.00  0.00     0.016 A 
ATOM     31  C   UNL A   1      39.979  22.023  26.438  1.00  0.00     0.016 A 
ATOM     32  C   UNL A   1      38.985  24.624  26.191  1.00  0.00     0.010 A 
ATOM     33  C   UNL A   1      40.728  23.108  26.898  1.00  0.00     0.010 A 
ATOM     34  C   UNL A   1      40.250  24.424  26.755  1.00  0.00    -0.014 A 
BRANCH  34  35
ATOM     35  C   UNL A   1      41.068  25.579  27.210  1.00  0.00     0.031 A 
ATOM     36  C   UNL A   1      40.522  26.542  28.228  1.00  0.00     0.074 A 
ATOM     37  C   UNL A   1      42.296  25.782  26.690  1.00  0.00     0.049 A 
ATOM     38  N   UNL A   1      40.970  27.722  28.571  1.00  0.00    -0.248 NA
ATOM     39  C   UNL A   1      39.303  26.129  28.942  1.00  0.00     0.031 C 
ATOM     40  C   UNL A   1      42.975  24.902  25.736  1.00  0.00     0.029 A 
ATOM     41  N   UNL A   1      43.192  26.802  26.892  1.00  0.00    -0.354 N 
ATOM     42  C   UNL A   1      40.058  28.219  29.493  1.00  0.00     0.074 A 
ATOM     43  C   UNL A   1      39.034  27.210  29.661  1.00  0.00     0.031 C 
ATOM     44  C   UNL A   1      44.189  25.400  25.463  1.00  0.00     0.029 A 
ATOM     45  C   UNL A   1      44.335  26.681  26.140  1.00  0.00     0.049 A 
ATOM     46  H   UNL A   1      43.031  27.547  27.514  1.00  0.00     0.167 HD
ATOM     47  C   UNL A   1      40.070  29.414  30.131  1.00  0.00     0.031 A 
ATOM     48  C   UNL A   1      45.365  27.529  25.964  1.00  0.00     0.031 A 
ATOM     49  C   UNL A   1      41.107  30.399  29.986  1.00  0.00     0.049 A 
ATOM     50  C   UNL A   1      45.331  28.866  26.641  1.00  0.00     0.074 A 
ATOM     51  C   UNL A   1      41.214  31.639  30.592  1.00  0.00     0.029 A 
ATOM     52  N   UNL A   1      42.229  30.247  29.186  1.00  0.00    -0.354 N 
ATOM     53  N   UNL A   1      44.427  29.355  27.455  1.00  0.00    -0.248 NA
ATOM     54  C   UNL A   1      46.445  29.779  26.353  1.00  0.00     0.031 C 
ATOM     55  C   UNL A   1      42.385  32.252  30.131  1.00  0.00     0.029 A 
ATOM     56  C   UNL A   1      43.027  31.376  29.271  1.00  0.00     0.049 A 
ATOM     57  H   UNL A   1      42.429  29.453  28.638  1.00  0.00     0.167 HD
ATOM     58  C   UNL A   1      44.864  30.630  27.781  1.00  0.00     0.074 A 
ATOM     59  C   UNL A   1      46.125  30.830  27.095  1.00  0.00     0.031 C 
ATOM     60  C   UNL A   1      44.271  31.556  28.572  1.00  0.00     0.031 A 
BRANCH  47  61
ATOM     61  C   UNL A   1      38.894  29.740  31.008  1.00  0.00    -0.014 A 
ATOM     62  C   UNL A   1      38.890  29.437  32.377  1.00  0.00     0.009 A 
ATOM     63  C   UNL A   1      37.778  30.389  30.452  1.00  0.00     0.009 A 
ATOM     64  C   UNL A   1      37.779  29.748  33.166  1.00  0.00     0.001 A 
ATOM     65  C   UNL A   1      36.680  30.719  31.246  1.00  0.00     0.001 A 
ATOM     66  C   UNL A   1      36.677  30.391  32.601  1.00  0.00     0.000 A 
ENDBRANCH  47  61
BRANCH  48  67
ATOM     67  C   UNL A   1      46.477  27.160  25.053  1.00  0.00    -0.014 A 
ATOM     68  C   UNL A   1      46.709  27.894  23.881  1.00  0.00     0.009 A 
ATOM     69  C   UNL A   1      47.325  26.083  25.362  1.00  0.00     0.009 A 
ATOM     70  C   UNL A   1      47.762  27.549  23.030  1.00  0.00     0.001 A 
ATOM     71  C   UNL A   1      48.393  25.760  24.524  1.00  0.00     0.001 A 
ATOM     72  C   UNL A   1      48.607  26.489  23.355  1.00  0.00     0.000 A 
ENDBRANCH  48  67
BRANCH  60  73
ATOM     73  C   UNL A   1      44.998  32.857  28.747  1.00  0.00    -0.014 A 
ATOM     74  C   UNL A   1      44.750  33.942  27.893  1.00  0.00     0.009 A 
ATOM     75  C   UNL A   1      45.923  33.002  29.791  1.00  0.00     0.009 A 
ATOM     76  C   UNL A   1      45.441  35.142  28.066  1.00  0.00     0.001 A 
ATOM     77  C   UNL A   1      46.596  34.210  29.973  1.00  0.00     0.001 A 
ATOM     78  C   UNL A   1      46.360  35.277  29.106  1.00  0.00     0.000 A 
ENDBRANCH  60  73
ENDBRANCH  34  35
ENDBRANCH  27  29
ENDBRANCH  26  27
ENDBRANCH  25  26
ENDBRANCH   1  25
TORSDOF 15
ENDMDL
MODEL 3
REMARK VINA RESULT:     -11.0      2.342      7.128
REMARK SMILES C[C@@H](c1cccc(O)c1)[N@H+]1[C@@H]2CC[C@H]1C[C@H](CC(=O)OCCOC(=O)c1ccc(-c3c4nc(c(-c5ccccc5)c5ccc([nH]5)c(-c5ccccc5)c5nc(c(-c6ccccc6)c6ccc3[nH]6)C=C5)C=C4)cc1)C2
REMARK SMILES IDX 21 1 20 2 18 3 19 4 17 5 16 6 10 7 11 8 14 9 12 11 74 12
REMARK SMILES IDX 13 13 15 14 2 15 1 16 3 17 4 18 9 19 5 20 7 21 6 22 8 23
REMARK SMILES IDX 22 25 23 26 24 27 25 28 26 29 27 30 73 31 28 32 72 33 29 34
REMARK SMILES IDX 30 35 31 36 66 37 32 38 71 39 65 40 67 41 33 42 70 43 64 44
REMARK SMILES IDX 63 45 34 47 56 48 41 49 55 50 42 51 45 52 54 53 68 54 43 55
REMARK SMILES IDX 44 56 53 58 69 59 46 60 35 61 36 62 40 63 37 64 39 65 38 66
REMARK SMILES IDX 57 67 58 68 62 69 59 70 61 71 60 72 47 73 48 74 52 75 49 76
REMARK SMILES IDX 51 77 50 78
REMARK H PARENT 10 10 8 24 67 46 45 57
REMARK Flexibility Score: inf
ROOT
ATOM      1  C   UNL A   1      37.683  20.660  24.666  1.00  0.00     0.274 C 
ENDROOT
BRANCH   1   2
ATOM      2  O   UNL A   1      37.720  21.684  25.676  1.00  0.00    -0.462 OA
BRANCH   2   3
ATOM      3  C   UNL A   1      36.559  22.345  25.881  1.00  0.00     0.306 C 
ATOM      4  O   UNL A   1      35.655  21.961  26.620  1.00  0.00    -0.252 OA
BRANCH   3   5
ATOM      5  C   UNL A   1      36.498  23.690  25.202  1.00  0.00     0.126 C 
BRANCH   5   6
ATOM      6  C   UNL A   1      35.422  24.019  24.162  1.00  0.00     0.012 C 
ATOM      7  N   UNL A   1      32.799  22.730  23.948  1.00  0.00    -0.324 N 
ATOM      8  C   UNL A   1      32.816  24.102  24.431  1.00  0.00     0.185 C 
ATOM      9  C   UNL A   1      33.668  22.730  22.784  1.00  0.00     0.185 C 
ATOM     10  H   UNL A   1      31.860  22.438  23.679  1.00  0.00     0.349 HD
ATOM     11  C   UNL A   1      32.497  24.832  23.124  1.00  0.00     0.071 C 
ATOM     12  C   UNL A   1      34.187  24.555  24.944  1.00  0.00     0.069 C 
ATOM     13  C   UNL A   1      33.193  23.998  22.051  1.00  0.00     0.071 C 
ATOM     14  C   UNL A   1      35.131  22.853  23.198  1.00  0.00     0.069 C 
BRANCH   7  15
ATOM     15  C   UNL A   1      32.679  21.587  24.858  1.00  0.00     0.212 C 
ATOM     16  C   UNL A   1      31.301  21.612  25.549  1.00  0.00     0.081 C 
BRANCH  15  17
ATOM     17  C   UNL A   1      33.035  20.192  24.343  1.00  0.00     0.013 A 
ATOM     18  C   UNL A   1      34.131  19.449  24.823  1.00  0.00     0.010 A 
ATOM     19  C   UNL A   1      32.267  19.618  23.314  1.00  0.00     0.056 A 
ATOM     20  C   UNL A   1      34.411  18.166  24.334  1.00  0.00     0.004 A 
ATOM     21  C   UNL A   1      32.534  18.329  22.851  1.00  0.00     0.116 A 
ATOM     22  C   UNL A   1      33.602  17.597  23.352  1.00  0.00     0.046 A 
BRANCH  21  23
ATOM     23  O   UNL A   1      31.684  17.796  21.928  1.00  0.00    -0.508 OA
ATOM     24  H   UNL A   1      31.723  16.882  21.727  1.00  0.00     0.293 HD
ENDBRANCH  21  23
ENDBRANCH  15  17
ENDBRANCH   7  15
ENDBRANCH   5   6
ENDBRANCH   3   5
ENDBRANCH   2   3
ENDBRANCH   1   2
BRANCH   1  25
ATOM     25  C   UNL A   1      38.688  19.569  25.023  1.00  0.00     0.275 C 
BRANCH  25  26
ATOM     26  O   UNL A   1      39.426  19.943  26.204  1.00  0.00    -0.458 OA
BRANCH  26  27
ATOM     27  C   UNL A   1      40.770  19.929  26.072  1.00  0.00     0.338 C 
ATOM     28  O   UNL A   1      41.463  19.064  25.548  1.00  0.00    -0.246 OA
BRANCH  27  29
ATOM     29  C   UNL A   1      41.345  21.153  26.641  1.00  0.00     0.060 A 
ATOM     30  C   UNL A   1      41.500  21.273  28.021  1.00  0.00     0.016 A 
ATOM     31  C   UNL A   1      41.602  22.241  25.810  1.00  0.00     0.016 A 
ATOM     32  C   UNL A   1      41.805  22.506  28.585  1.00  0.00     0.010 A 
ATOM     33  C   UNL A   1      42.036  23.444  26.371  1.00  0.00     0.010 A 
ATOM     34  C   UNL A   1      42.116  23.598  27.767  1.00  0.00    -0.014 A 
BRANCH  34  35
ATOM     35  C   UNL A   1      42.541  24.893  28.361  1.00  0.00     0.031 A 
ATOM     36  C   UNL A   1      41.530  25.972  28.634  1.00  0.00     0.074 A 
ATOM     37  C   UNL A   1      43.843  25.114  28.634  1.00  0.00     0.049 A 
ATOM     38  N   UNL A   1      41.725  27.234  28.918  1.00  0.00    -0.248 NA
ATOM     39  C   UNL A   1      40.112  25.583  28.562  1.00  0.00     0.031 C 
ATOM     40  C   UNL A   1      44.927  24.142  28.472  1.00  0.00     0.029 A 
ATOM     41  N   UNL A   1      44.477  26.237  29.104  1.00  0.00    -0.354 N 
ATOM     42  C   UNL A   1      40.461  27.803  28.998  1.00  0.00     0.074 A 
ATOM     43  C   UNL A   1      39.504  26.749  28.740  1.00  0.00     0.031 C 
ATOM     44  C   UNL A   1      46.081  24.697  28.868  1.00  0.00     0.029 A 
ATOM     45  C   UNL A   1      45.838  26.090  29.214  1.00  0.00     0.049 A 
ATOM     46  H   UNL A   1      44.003  27.067  29.340  1.00  0.00     0.167 HD
ATOM     47  C   UNL A   1      40.131  29.093  29.253  1.00  0.00     0.031 A 
ATOM     48  C   UNL A   1      46.799  26.987  29.504  1.00  0.00     0.031 A 
ATOM     49  C   UNL A   1      41.084  30.129  29.543  1.00  0.00     0.049 A 
ATOM     50  C   UNL A   1      46.414  28.418  29.732  1.00  0.00     0.074 A 
ATOM     51  C   UNL A   1      40.851  31.466  29.819  1.00  0.00     0.029 A 
ATOM     52  N   UNL A   1      42.456  29.941  29.609  1.00  0.00    -0.354 N 
ATOM     53  N   UNL A   1      45.220  28.959  29.735  1.00  0.00    -0.248 NA
ATOM     54  C   UNL A   1      47.511  29.365  29.971  1.00  0.00     0.031 C 
ATOM     55  C   UNL A   1      42.087  32.093  30.019  1.00  0.00     0.029 A 
ATOM     56  C   UNL A   1      43.085  31.138  29.908  1.00  0.00     0.049 A 
ATOM     57  H   UNL A   1      42.916  29.082  29.465  1.00  0.00     0.167 HD
ATOM     58  C   UNL A   1      45.421  30.310  29.979  1.00  0.00     0.074 A 
ATOM     59  C   UNL A   1      46.848  30.501  30.141  1.00  0.00     0.031 C 
ATOM     60  C   UNL A   1      44.505  31.305  30.055  1.00  0.00     0.031 A 
BRANCH  47  61
ATOM     61  C   UNL A   1      38.676  29.461  29.179  1.00  0.00    -0.014 A 
ATOM     62  C   UNL A   1      38.083  29.878  27.980  1.00  0.00     0.009 A 
ATOM     63  C   UNL A   1      37.880  29.361  30.333  1.00  0.00     0.009 A 
ATOM     64  C   UNL A   1      36.728  30.219  27.943  1.00  0.00     0.001 A 
ATOM     65  C   UNL A   1      36.523  29.679  30.289  1.00  0.00     0.001 A 
ATOM     66  C   UNL A   1      35.949  30.117  29.097  1.00  0.00     0.000 A 
ENDBRANCH  47  61
BRANCH  48  67
ATOM     67  C   UNL A   1      48.222  26.565  29.523  1.00  0.00    -0.014 A 
ATOM     68  C   UNL A   1      48.787  26.021  30.686  1.00  0.00     0.009 A 
ATOM     69  C   UNL A   1      49.018  26.686  28.371  1.00  0.00     0.009 A 
ATOM     70  C   UNL A   1      50.124  25.617  30.697  1.00  0.00     0.001 A 
ATOM     71  C   UNL A   1      50.345  26.255  28.379  1.00  0.00     0.001 A 
ATOM     72  C   UNL A   1      50.899  25.727  29.544  1.00  0.00     0.000 A 
ENDBRANCH  48  67
BRANCH  60  73
ATOM     73  C   UNL A   1      45.028  32.681  30.346  1.00  0.00    -0.014 A 
ATOM     74  C   UNL A   1      45.366  33.559  29.305  1.00  0.00     0.009 A 
ATOM     75  C   UNL A   1      45.163  33.107  31.676  1.00  0.00     0.009 A 
ATOM     76  C   UNL A   1      45.859  34.832  29.595  1.00  0.00     0.001 A 
ATOM     77  C   UNL A   1      45.636  34.388  31.960  1.00  0.00     0.001 A 
ATOM     78  C   UNL A   1      45.991  35.247  30.920  1.00  0.00     0.000 A 
ENDBRANCH  60  73
ENDBRANCH  34  35
ENDBRANCH  27  29
ENDBRANCH  26  27
ENDBRANCH  25  26
ENDBRANCH   1  25
TORSDOF 15
ENDMDL
