MODEL 1
REMARK VINA RESULT:     -10.4      0.000      0.000
REMARK SMILES O=C(OCCOC(=O)C1(NC(=O)c2ccncc2Cl)CCCCC1)c1ccc(-c2c3nc(c(-c4ccccc4)c4ccc([nH]4)c(-c4ccccc4)c4nc(c(-c5ccccc5)c5ccc2[nH]5)C=C4)C=C3)cc1
REMARK SMILES IDX 4 1 3 2 2 3 1 4 25 5 26 6 72 7 27 8 71 9 28 10 29 11 30 12
REMARK SMILES IDX 65 13 31 14 70 15 64 16 66 17 32 18 69 19 63 20 62 21 33 23
REMARK SMILES IDX 55 24 40 25 54 26 41 27 44 28 53 29 67 30 42 31 43 32 52 34
REMARK SMILES IDX 68 35 45 36 34 37 35 38 39 39 36 40 38 41 37 42 56 43 57 44
REMARK SMILES IDX 61 45 58 46 60 47 59 48 46 49 47 50 51 51 48 52 50 53 49 54
REMARK SMILES IDX 5 55 6 56 7 57 8 58 9 59 20 60 24 61 21 62 23 63 22 64 10 65
REMARK SMILES IDX 11 66 12 68 13 69 14 70 18 71 15 72 17 73 19 74 16 75
REMARK H PARENT 66 22 44 33 10 67
REMARK Flexibility Score: inf
ROOT
ATOM      1  C   UNL A   1      37.220  21.786  24.625  1.00  0.00     0.275 C 
ENDROOT
BRANCH   1   2
ATOM      2  O   UNL A   1      37.659  22.543  25.767  1.00  0.00    -0.458 OA
BRANCH   2   3
ATOM      3  C   UNL A   1      38.935  22.780  26.159  1.00  0.00     0.338 C 
ATOM      4  O   UNL A   1      39.743  21.858  26.213  1.00  0.00    -0.246 OA
BRANCH   3   5
ATOM      5  C   UNL A   1      39.341  24.097  26.720  1.00  0.00     0.060 A 
ATOM      6  C   UNL A   1      40.119  25.045  26.052  1.00  0.00     0.016 A 
ATOM      7  C   UNL A   1      38.944  24.362  28.040  1.00  0.00     0.016 A 
ATOM      8  C   UNL A   1      40.398  26.282  26.643  1.00  0.00     0.010 A 
ATOM      9  C   UNL A   1      39.218  25.599  28.633  1.00  0.00     0.010 A 
ATOM     10  C   UNL A   1      39.937  26.575  27.931  1.00  0.00    -0.014 A 
BRANCH  10  11
ATOM     11  C   UNL A   1      40.324  27.846  28.585  1.00  0.00     0.031 A 
ATOM     12  C   UNL A   1      41.726  27.987  29.105  1.00  0.00     0.074 A 
ATOM     13  C   UNL A   1      39.452  28.866  28.698  1.00  0.00     0.049 A 
ATOM     14  N   UNL A   1      42.316  29.037  29.610  1.00  0.00    -0.248 NA
ATOM     15  C   UNL A   1      42.576  26.786  29.040  1.00  0.00     0.031 C 
ATOM     16  C   UNL A   1      38.058  28.848  28.252  1.00  0.00     0.029 A 
ATOM     17  N   UNL A   1      39.607  30.117  29.240  1.00  0.00    -0.354 N 
ATOM     18  C   UNL A   1      43.619  28.637  29.869  1.00  0.00     0.074 A 
ATOM     19  C   UNL A   1      43.703  27.225  29.574  1.00  0.00     0.031 C 
ATOM     20  C   UNL A   1      37.475  30.016  28.577  1.00  0.00     0.029 A 
ATOM     21  C   UNL A   1      38.461  30.876  29.224  1.00  0.00     0.049 A 
ATOM     22  H   UNL A   1      40.461  30.442  29.607  1.00  0.00     0.167 HD
ATOM     23  C   UNL A   1      44.676  29.389  30.253  1.00  0.00     0.031 A 
ATOM     24  C   UNL A   1      38.243  32.129  29.670  1.00  0.00     0.031 A 
ATOM     25  C   UNL A   1      44.592  30.783  30.574  1.00  0.00     0.049 A 
ATOM     26  C   UNL A   1      39.410  32.926  30.191  1.00  0.00     0.074 A 
ATOM     27  C   UNL A   1      45.597  31.649  30.960  1.00  0.00     0.029 A 
ATOM     28  N   UNL A   1      43.413  31.513  30.555  1.00  0.00    -0.354 N 
ATOM     29  N   UNL A   1      40.664  32.563  30.321  1.00  0.00    -0.248 NA
ATOM     30  C   UNL A   1      39.142  34.318  30.577  1.00  0.00     0.031 C 
ATOM     31  C   UNL A   1      45.020  32.902  31.198  1.00  0.00     0.029 A 
ATOM     32  C   UNL A   1      43.662  32.820  30.928  1.00  0.00     0.049 A 
ATOM     33  H   UNL A   1      42.529  31.153  30.311  1.00  0.00     0.167 HD
ATOM     34  C   UNL A   1      41.343  33.696  30.749  1.00  0.00     0.074 A 
ATOM     35  C   UNL A   1      40.361  34.756  30.862  1.00  0.00     0.031 C 
ATOM     36  C   UNL A   1      42.664  33.854  31.012  1.00  0.00     0.031 A 
BRANCH  23  37
ATOM     37  C   UNL A   1      46.003  28.689  30.289  1.00  0.00    -0.014 A 
ATOM     38  C   UNL A   1      46.454  28.099  31.484  1.00  0.00     0.009 A 
ATOM     39  C   UNL A   1      46.839  28.676  29.165  1.00  0.00     0.009 A 
ATOM     40  C   UNL A   1      47.738  27.562  31.569  1.00  0.00     0.001 A 
ATOM     41  C   UNL A   1      48.115  28.113  29.247  1.00  0.00     0.001 A 
ATOM     42  C   UNL A   1      48.568  27.571  30.450  1.00  0.00     0.000 A 
ENDBRANCH  23  37
BRANCH  24  43
ATOM     43  C   UNL A   1      36.883  32.729  29.610  1.00  0.00    -0.014 A 
ATOM     44  C   UNL A   1      35.967  32.550  30.659  1.00  0.00     0.009 A 
ATOM     45  C   UNL A   1      36.477  33.447  28.475  1.00  0.00     0.009 A 
ATOM     46  C   UNL A   1      34.663  33.045  30.556  1.00  0.00     0.001 A 
ATOM     47  C   UNL A   1      35.180  33.960  28.383  1.00  0.00     0.001 A 
ATOM     48  C   UNL A   1      34.271  33.749  29.419  1.00  0.00     0.000 A 
ENDBRANCH  24  43
BRANCH  36  49
ATOM     49  C   UNL A   1      43.124  35.232  31.385  1.00  0.00    -0.014 A 
ATOM     50  C   UNL A   1      43.154  35.654  32.723  1.00  0.00     0.009 A 
ATOM     51  C   UNL A   1      43.573  36.105  30.382  1.00  0.00     0.009 A 
ATOM     52  C   UNL A   1      43.601  36.936  33.045  1.00  0.00     0.001 A 
ATOM     53  C   UNL A   1      44.041  37.377  30.710  1.00  0.00     0.001 A 
ATOM     54  C   UNL A   1      44.048  37.794  32.039  1.00  0.00     0.000 A 
ENDBRANCH  36  49
ENDBRANCH  10  11
ENDBRANCH   3   5
ENDBRANCH   2   3
ENDBRANCH   1   2
BRANCH   1  55
ATOM     55  C   UNL A   1      36.405  22.571  23.596  1.00  0.00     0.274 C 
BRANCH  55  56
ATOM     56  O   UNL A   1      35.611  23.615  24.176  1.00  0.00    -0.460 OA
BRANCH  56  57
ATOM     57  C   UNL A   1      34.560  24.016  23.396  1.00  0.00     0.331 C 
ATOM     58  O   UNL A   1      34.332  23.562  22.279  1.00  0.00    -0.249 OA
BRANCH  57  59
ATOM     59  C   UNL A   1      33.642  25.058  24.108  1.00  0.00     0.138 C 
ATOM     60  C   UNL A   1      34.192  25.474  25.479  1.00  0.00     0.040 C 
ATOM     61  C   UNL A   1      33.669  26.296  23.166  1.00  0.00     0.040 C 
ATOM     62  C   UNL A   1      33.531  26.713  26.077  1.00  0.00     0.003 C 
ATOM     63  C   UNL A   1      33.096  27.583  23.765  1.00  0.00     0.003 C 
ATOM     64  C   UNL A   1      33.670  27.901  25.138  1.00  0.00     0.000 C 
BRANCH  59  65
ATOM     65  N   UNL A   1      32.237  24.598  24.256  1.00  0.00    -0.336 N 
ATOM     66  C   UNL A   1      31.760  23.557  25.018  1.00  0.00     0.253 C 
ATOM     67  H   UNL A   1      31.564  25.102  23.744  1.00  0.00     0.165 HD
ATOM     68  O   UNL A   1      30.664  23.638  25.561  1.00  0.00    -0.269 OA
BRANCH  66  69
ATOM     69  C   UNL A   1      32.484  22.279  25.043  1.00  0.00     0.061 A 
ATOM     70  C   UNL A   1      32.296  21.426  23.950  1.00  0.00     0.035 A 
ATOM     71  C   UNL A   1      33.257  21.872  26.124  1.00  0.00     0.072 A 
ATOM     72  C   UNL A   1      32.950  20.210  23.951  1.00  0.00     0.112 A 
ATOM     73  C   UNL A   1      33.872  20.633  26.026  1.00  0.00     0.132 A 
ATOM     74  Cl  UNL A   1      33.508  22.834  27.526  1.00  0.00    -0.082 Cl
ATOM     75  N   UNL A   1      33.751  19.802  24.957  1.00  0.00    -0.263 NA
ENDBRANCH  66  69
ENDBRANCH  59  65
ENDBRANCH  57  59
ENDBRANCH  56  57
ENDBRANCH  55  56
ENDBRANCH   1  55
TORSDOF 13
ENDMDL
MODEL 2
REMARK VINA RESULT:     -10.4      2.829      7.816
REMARK SMILES O=C(OCCOC(=O)C1(NC(=O)c2ccncc2Cl)CCCCC1)c1ccc(-c2c3nc(c(-c4ccccc4)c4ccc([nH]4)c(-c4ccccc4)c4nc(c(-c5ccccc5)c5ccc2[nH]5)C=C4)C=C3)cc1
REMARK SMILES IDX 4 1 3 2 2 3 1 4 25 5 26 6 72 7 27 8 71 9 28 10 29 11 30 12
REMARK SMILES IDX 65 13 31 14 70 15 64 16 66 17 32 18 69 19 63 20 62 21 33 23
REMARK SMILES IDX 55 24 40 25 54 26 41 27 44 28 53 29 67 30 42 31 43 32 52 34
REMARK SMILES IDX 68 35 45 36 34 37 35 38 39 39 36 40 38 41 37 42 56 43 57 44
REMARK SMILES IDX 61 45 58 46 60 47 59 48 46 49 47 50 51 51 48 52 50 53 49 54
REMARK SMILES IDX 5 55 6 56 7 57 8 58 9 59 20 60 24 61 21 62 23 63 22 64 10 65
REMARK SMILES IDX 11 66 12 68 13 69 14 70 18 71 15 72 17 73 19 74 16 75
REMARK H PARENT 66 22 44 33 10 67
REMARK Flexibility Score: inf
ROOT
ATOM      1  C   UNL A   1      32.272  29.786  26.710  1.00  0.00     0.275 C 
ENDROOT
BRANCH   1   2
ATOM      2  O   UNL A   1      33.649  30.200  26.730  1.00  0.00    -0.458 OA
BRANCH   2   3
ATOM      3  C   UNL A   1      34.330  30.753  27.764  1.00  0.00     0.338 C 
ATOM      4  O   UNL A   1      33.945  31.810  28.258  1.00  0.00    -0.246 OA
BRANCH   3   5
ATOM      5  C   UNL A   1      35.650  30.221  28.195  1.00  0.00     0.060 A 
ATOM      6  C   UNL A   1      35.938  29.734  29.472  1.00  0.00     0.016 A 
ATOM      7  C   UNL A   1      36.683  30.270  27.245  1.00  0.00     0.016 A 
ATOM      8  C   UNL A   1      37.197  29.198  29.763  1.00  0.00     0.010 A 
ATOM      9  C   UNL A   1      37.942  29.732  27.532  1.00  0.00     0.010 A 
ATOM     10  C   UNL A   1      38.203  29.178  28.792  1.00  0.00    -0.014 A 
BRANCH  10  11
ATOM     11  C   UNL A   1      39.561  28.702  29.142  1.00  0.00     0.031 A 
ATOM     12  C   UNL A   1      40.454  29.606  29.942  1.00  0.00     0.074 A 
ATOM     13  C   UNL A   1      39.988  27.479  28.772  1.00  0.00     0.049 A 
ATOM     14  N   UNL A   1      41.631  29.361  30.453  1.00  0.00    -0.248 NA
ATOM     15  C   UNL A   1      39.949  30.964  30.206  1.00  0.00     0.031 C 
ATOM     16  C   UNL A   1      39.226  26.515  27.977  1.00  0.00     0.029 A 
ATOM     17  N   UNL A   1      41.181  26.843  29.006  1.00  0.00    -0.354 N 
ATOM     18  C   UNL A   1      41.978  30.513  31.144  1.00  0.00     0.074 A 
ATOM     19  C   UNL A   1      40.946  31.493  30.894  1.00  0.00     0.031 C 
ATOM     20  C   UNL A   1      39.985  25.427  27.754  1.00  0.00     0.029 A 
ATOM     21  C   UNL A   1      41.275  25.604  28.415  1.00  0.00     0.049 A 
ATOM     22  H   UNL A   1      41.904  27.236  29.546  1.00  0.00     0.167 HD
ATOM     23  C   UNL A   1      43.027  30.720  31.973  1.00  0.00     0.031 A 
ATOM     24  C   UNL A   1      42.284  24.712  28.425  1.00  0.00     0.031 A 
ATOM     25  C   UNL A   1      44.068  29.762  32.201  1.00  0.00     0.049 A 
ATOM     26  C   UNL A   1      43.496  24.998  29.273  1.00  0.00     0.074 A 
ATOM     27  C   UNL A   1      45.171  29.856  33.028  1.00  0.00     0.029 A 
ATOM     28  N   UNL A   1      44.133  28.525  31.579  1.00  0.00    -0.354 N 
ATOM     29  N   UNL A   1      43.755  26.050  30.014  1.00  0.00    -0.248 NA
ATOM     30  C   UNL A   1      44.529  23.954  29.327  1.00  0.00     0.031 C 
ATOM     31  C   UNL A   1      45.918  28.680  32.888  1.00  0.00     0.029 A 
ATOM     32  C   UNL A   1      45.260  27.844  31.998  1.00  0.00     0.049 A 
ATOM     33  H   UNL A   1      43.472  28.181  30.934  1.00  0.00     0.167 HD
ATOM     34  C   UNL A   1      44.950  25.770  30.664  1.00  0.00     0.074 A 
ATOM     35  C   UNL A   1      45.367  24.454  30.225  1.00  0.00     0.031 C 
ATOM     36  C   UNL A   1      45.636  26.527  31.556  1.00  0.00     0.031 A 
BRANCH  23  37
ATOM     37  C   UNL A   1      43.038  32.029  32.706  1.00  0.00    -0.014 A 
ATOM     38  C   UNL A   1      42.360  32.154  33.932  1.00  0.00     0.009 A 
ATOM     39  C   UNL A   1      43.654  33.158  32.150  1.00  0.00     0.009 A 
ATOM     40  C   UNL A   1      42.250  33.395  34.558  1.00  0.00     0.001 A 
ATOM     41  C   UNL A   1      43.564  34.395  32.794  1.00  0.00     0.001 A 
ATOM     42  C   UNL A   1      42.851  34.515  33.987  1.00  0.00     0.000 A 
ENDBRANCH  23  37
BRANCH  24  43
ATOM     43  C   UNL A   1      42.187  23.448  27.647  1.00  0.00    -0.014 A 
ATOM     44  C   UNL A   1      41.665  22.281  28.226  1.00  0.00     0.009 A 
ATOM     45  C   UNL A   1      42.665  23.392  26.328  1.00  0.00     0.009 A 
ATOM     46  C   UNL A   1      41.657  21.077  27.513  1.00  0.00     0.001 A 
ATOM     47  C   UNL A   1      42.636  22.193  25.611  1.00  0.00     0.001 A 
ATOM     48  C   UNL A   1      42.143  21.034  26.208  1.00  0.00     0.000 A 
ENDBRANCH  24  43
BRANCH  36  49
ATOM     49  C   UNL A   1      46.869  25.920  32.157  1.00  0.00    -0.014 A 
ATOM     50  C   UNL A   1      48.130  26.098  31.568  1.00  0.00     0.009 A 
ATOM     51  C   UNL A   1      46.768  25.194  33.354  1.00  0.00     0.009 A 
ATOM     52  C   UNL A   1      49.265  25.534  32.156  1.00  0.00     0.001 A 
ATOM     53  C   UNL A   1      47.906  24.654  33.951  1.00  0.00     0.001 A 
ATOM     54  C   UNL A   1      49.152  24.818  33.348  1.00  0.00     0.000 A 
ENDBRANCH  36  49
ENDBRANCH  10  11
ENDBRANCH   3   5
ENDBRANCH   2   3
ENDBRANCH   1   2
BRANCH   1  55
ATOM     55  C   UNL A   1      32.007  28.376  27.241  1.00  0.00     0.274 C 
BRANCH  55  56
ATOM     56  O   UNL A   1      32.668  27.351  26.487  1.00  0.00    -0.460 OA
BRANCH  56  57
ATOM     57  C   UNL A   1      31.975  26.172  26.421  1.00  0.00     0.331 C 
ATOM     58  O   UNL A   1      30.807  26.050  26.777  1.00  0.00    -0.249 OA
BRANCH  57  59
ATOM     59  C   UNL A   1      32.807  25.018  25.777  1.00  0.00     0.138 C 
ATOM     60  C   UNL A   1      34.271  25.415  25.553  1.00  0.00     0.040 C 
ATOM     61  C   UNL A   1      32.757  23.878  26.834  1.00  0.00     0.040 C 
ATOM     62  C   UNL A   1      35.203  24.247  25.238  1.00  0.00     0.003 C 
ATOM     63  C   UNL A   1      33.742  22.730  26.600  1.00  0.00     0.003 C 
ATOM     64  C   UNL A   1      35.163  23.214  26.353  1.00  0.00     0.000 C 
BRANCH  59  65
ATOM     65  N   UNL A   1      32.228  24.518  24.504  1.00  0.00    -0.336 N 
ATOM     66  C   UNL A   1      32.200  25.145  23.279  1.00  0.00     0.253 C 
ATOM     67  H   UNL A   1      31.811  23.627  24.541  1.00  0.00     0.165 HD
ATOM     68  O   UNL A   1      32.301  24.491  22.247  1.00  0.00    -0.269 OA
BRANCH  66  69
ATOM     69  C   UNL A   1      31.876  26.575  23.198  1.00  0.00     0.061 A 
ATOM     70  C   UNL A   1      32.942  27.450  22.963  1.00  0.00     0.035 A 
ATOM     71  C   UNL A   1      30.598  27.072  23.425  1.00  0.00     0.072 A 
ATOM     72  C   UNL A   1      32.673  28.804  22.898  1.00  0.00     0.112 A 
ATOM     73  C   UNL A   1      30.434  28.446  23.337  1.00  0.00     0.132 A 
ATOM     74  Cl  UNL A   1      29.239  26.076  23.764  1.00  0.00    -0.082 Cl
ATOM     75  N   UNL A   1      31.437  29.321  23.061  1.00  0.00    -0.263 NA
ENDBRANCH  66  69
ENDBRANCH  59  65
ENDBRANCH  57  59
ENDBRANCH  56  57
ENDBRANCH  55  56
ENDBRANCH   1  55
TORSDOF 13
ENDMDL
MODEL 3
REMARK VINA RESULT:     -10.3      1.027      6.135
REMARK SMILES O=C(OCCOC(=O)C1(NC(=O)c2ccncc2Cl)CCCCC1)c1ccc(-c2c3nc(c(-c4ccccc4)c4ccc([nH]4)c(-c4ccccc4)c4nc(c(-c5ccccc5)c5ccc2[nH]5)C=C4)C=C3)cc1
REMARK SMILES IDX 4 1 3 2 2 3 1 4 25 5 26 6 72 7 27 8 71 9 28 10 29 11 30 12
REMARK SMILES IDX 65 13 31 14 70 15 64 16 66 17 32 18 69 19 63 20 62 21 33 23
REMARK SMILES IDX 55 24 40 25 54 26 41 27 44 28 53 29 67 30 42 31 43 32 52 34
REMARK SMILES IDX 68 35 45 36 34 37 35 38 39 39 36 40 38 41 37 42 56 43 57 44
REMARK SMILES IDX 61 45 58 46 60 47 59 48 46 49 47 50 51 51 48 52 50 53 49 54
REMARK SMILES IDX 5 55 6 56 7 57 8 58 9 59 20 60 24 61 21 62 23 63 22 64 10 65
REMARK SMILES IDX 11 66 12 68 13 69 14 70 18 71 15 72 17 73 19 74 16 75
REMARK H PARENT 66 22 44 33 10 67
REMARK Flexibility Score: inf
ROOT
ATOM      1  C   UNL A   1      37.333  21.843  24.907  1.00  0.00     0.275 C 
ENDROOT
BRANCH   1   2
ATOM      2  O   UNL A   1      37.822  22.844  25.817  1.00  0.00    -0.458 OA
BRANCH   2   3
ATOM      3  C   UNL A   1      39.102  23.039  26.219  1.00  0.00     0.338 C 
ATOM      4  O   UNL A   1      39.890  22.098  26.240  1.00  0.00    -0.246 OA
BRANCH   3   5
ATOM      5  C   UNL A   1      39.536  24.326  26.826  1.00  0.00     0.060 A 
ATOM      6  C   UNL A   1      40.357  25.268  26.203  1.00  0.00     0.016 A 
ATOM      7  C   UNL A   1      39.119  24.565  28.145  1.00  0.00     0.016 A 
ATOM      8  C   UNL A   1      40.660  26.479  26.835  1.00  0.00     0.010 A 
ATOM      9  C   UNL A   1      39.418  25.775  28.780  1.00  0.00     0.010 A 
ATOM     10  C   UNL A   1      40.181  26.748  28.122  1.00  0.00    -0.014 A 
BRANCH  10  11
ATOM     11  C   UNL A   1      40.592  27.987  28.821  1.00  0.00     0.031 A 
ATOM     12  C   UNL A   1      39.644  29.151  28.835  1.00  0.00     0.074 A 
ATOM     13  C   UNL A   1      41.780  28.070  29.451  1.00  0.00     0.049 A 
ATOM     14  N   UNL A   1      39.744  30.287  29.473  1.00  0.00    -0.248 NA
ATOM     15  C   UNL A   1      38.420  29.013  28.029  1.00  0.00     0.031 C 
ATOM     16  C   UNL A   1      42.797  27.018  29.494  1.00  0.00     0.029 A 
ATOM     17  N   UNL A   1      42.340  29.099  30.166  1.00  0.00    -0.354 N 
ATOM     18  C   UNL A   1      38.570  30.971  29.188  1.00  0.00     0.074 A 
ATOM     19  C   UNL A   1      37.829  30.177  28.235  1.00  0.00     0.031 C 
ATOM     20  C   UNL A   1      43.874  27.471  30.163  1.00  0.00     0.029 A 
ATOM     21  C   UNL A   1      43.611  28.832  30.621  1.00  0.00     0.049 A 
ATOM     22  H   UNL A   1      41.877  29.950  30.338  1.00  0.00     0.167 HD
ATOM     23  C   UNL A   1      38.111  32.126  29.722  1.00  0.00     0.031 A 
ATOM     24  C   UNL A   1      44.454  29.598  31.340  1.00  0.00     0.031 A 
ATOM     25  C   UNL A   1      38.855  32.932  30.645  1.00  0.00     0.049 A 
ATOM     26  C   UNL A   1      43.969  30.931  31.847  1.00  0.00     0.074 A 
ATOM     27  C   UNL A   1      38.488  34.112  31.263  1.00  0.00     0.029 A 
ATOM     28  N   UNL A   1      40.139  32.633  31.074  1.00  0.00    -0.354 N 
ATOM     29  N   UNL A   1      42.807  31.511  31.660  1.00  0.00    -0.248 NA
ATOM     30  C   UNL A   1      44.890  31.689  32.705  1.00  0.00     0.031 C 
ATOM     31  C   UNL A   1      39.563  34.541  32.051  1.00  0.00     0.029 A 
ATOM     32  C   UNL A   1      40.585  33.609  31.946  1.00  0.00     0.049 A 
ATOM     33  H   UNL A   1      40.658  31.842  30.799  1.00  0.00     0.167 HD
ATOM     34  C   UNL A   1      42.837  32.672  32.421  1.00  0.00     0.074 A 
ATOM     35  C   UNL A   1      44.133  32.717  33.067  1.00  0.00     0.031 C 
ATOM     36  C   UNL A   1      41.874  33.613  32.585  1.00  0.00     0.031 A 
BRANCH  23  37
ATOM     37  C   UNL A   1      36.720  32.527  29.329  1.00  0.00    -0.014 A 
ATOM     38  C   UNL A   1      36.524  33.522  28.354  1.00  0.00     0.009 A 
ATOM     39  C   UNL A   1      35.605  31.975  29.973  1.00  0.00     0.009 A 
ATOM     40  C   UNL A   1      35.243  33.997  28.073  1.00  0.00     0.001 A 
ATOM     41  C   UNL A   1      34.321  32.436  29.670  1.00  0.00     0.001 A 
ATOM     42  C   UNL A   1      34.143  33.454  28.733  1.00  0.00     0.000 A 
ENDBRANCH  23  37
BRANCH  24  43
ATOM     43  C   UNL A   1      45.825  29.120  31.662  1.00  0.00    -0.014 A 
ATOM     44  C   UNL A   1      46.078  28.386  32.831  1.00  0.00     0.009 A 
ATOM     45  C   UNL A   1      46.902  29.440  30.819  1.00  0.00     0.009 A 
ATOM     46  C   UNL A   1      47.384  28.015  33.168  1.00  0.00     0.001 A 
ATOM     47  C   UNL A   1      48.203  29.049  31.147  1.00  0.00     0.001 A 
ATOM     48  C   UNL A   1      48.445  28.347  32.327  1.00  0.00     0.000 A 
ENDBRANCH  24  43
BRANCH  36  49
ATOM     49  C   UNL A   1      42.169  34.729  33.544  1.00  0.00    -0.014 A 
ATOM     50  C   UNL A   1      42.829  35.894  33.126  1.00  0.00     0.009 A 
ATOM     51  C   UNL A   1      41.740  34.625  34.877  1.00  0.00     0.009 A 
ATOM     52  C   UNL A   1      43.078  36.924  34.034  1.00  0.00     0.001 A 
ATOM     53  C   UNL A   1      41.969  35.666  35.775  1.00  0.00     0.001 A 
ATOM     54  C   UNL A   1      42.644  36.811  35.356  1.00  0.00     0.000 A 
ENDBRANCH  36  49
ENDBRANCH  10  11
ENDBRANCH   3   5
ENDBRANCH   2   3
ENDBRANCH   1   2
BRANCH   1  55
ATOM     55  C   UNL A   1      36.277  22.327  23.912  1.00  0.00     0.274 C 
BRANCH  55  56
ATOM     56  O   UNL A   1      35.627  23.539  24.317  1.00  0.00    -0.460 OA
BRANCH  56  57
ATOM     57  C   UNL A   1      34.669  23.978  23.442  1.00  0.00     0.331 C 
ATOM     58  O   UNL A   1      34.557  23.561  22.293  1.00  0.00    -0.249 OA
BRANCH  57  59
ATOM     59  C   UNL A   1      33.692  25.011  24.085  1.00  0.00     0.138 C 
ATOM     60  C   UNL A   1      34.137  25.432  25.492  1.00  0.00     0.040 C 
ATOM     61  C   UNL A   1      33.776  26.250  23.147  1.00  0.00     0.040 C 
ATOM     62  C   UNL A   1      33.422  26.665  26.040  1.00  0.00     0.003 C 
ATOM     63  C   UNL A   1      33.148  27.531  23.702  1.00  0.00     0.003 C 
ATOM     64  C   UNL A   1      33.618  27.854  25.112  1.00  0.00     0.000 C 
BRANCH  59  65
ATOM     65  N   UNL A   1      32.285  24.537  24.131  1.00  0.00    -0.336 N 
ATOM     66  C   UNL A   1      31.757  23.513  24.882  1.00  0.00     0.253 C 
ATOM     67  H   UNL A   1      31.651  25.017  23.549  1.00  0.00     0.165 HD
ATOM     68  O   UNL A   1      30.619  23.596  25.330  1.00  0.00    -0.269 OA
BRANCH  66  69
ATOM     69  C   UNL A   1      32.490  22.246  25.005  1.00  0.00     0.061 A 
ATOM     70  C   UNL A   1      32.436  21.378  23.909  1.00  0.00     0.035 A 
ATOM     71  C   UNL A   1      33.141  21.863  26.172  1.00  0.00     0.072 A 
ATOM     72  C   UNL A   1      33.102  20.170  24.000  1.00  0.00     0.112 A 
ATOM     73  C   UNL A   1      33.779  20.632  26.159  1.00  0.00     0.132 A 
ATOM     74  Cl  UNL A   1      33.221  22.845  27.580  1.00  0.00    -0.082 Cl
ATOM     75  N   UNL A   1      33.790  19.786  25.095  1.00  0.00    -0.263 NA
ENDBRANCH  66  69
ENDBRANCH  59  65
ENDBRANCH  57  59
ENDBRANCH  56  57
ENDBRANCH  55  56
ENDBRANCH   1  55
TORSDOF 13
ENDMDL
