MODEL 1
REMARK VINA RESULT:     -10.4      0.000      0.000
REMARK SMILES CCC[NH2+][C@@]1(C(=O)OCCOC(=O)c2ccc(-c3c4nc(c(-c5ccccc5)c5ccc([nH]5)c(-c5ccccc5)c5nc(c(-c6ccccc6)c6ccc3[nH]6)C=C5)C=C4)cc2)CCC[C@H](n2nc(C)c(C)c2C)C1
REMARK SMILES IDX 9 1 8 2 6 3 7 4 5 5 62 6 74 7 63 8 65 9 64 10 4 11 3 14 2 15
REMARK SMILES IDX 1 16 66 17 67 18 72 19 68 20 70 21 73 22 69 23 71 24 10 25
REMARK SMILES IDX 11 26 12 27 13 28 14 29 15 30 61 31 16 32 60 33 17 34 18 35
REMARK SMILES IDX 19 36 54 37 20 38 59 39 53 40 55 41 21 42 58 43 52 44 51 45
REMARK SMILES IDX 22 47 44 48 29 49 43 50 30 51 33 52 42 53 56 54 31 55 32 56
REMARK SMILES IDX 41 58 57 59 34 60 23 61 24 62 28 63 25 64 27 65 26 66 45 67
REMARK SMILES IDX 46 68 50 69 47 70 49 71 48 72 35 73 36 74 40 75 37 76 39 77
REMARK SMILES IDX 38 78
REMARK H PARENT 4 12 4 13 55 46 33 57
REMARK Flexibility Score: inf
ROOT
ATOM      1  C   UNL A   1      36.149  21.104  25.103  1.00  0.00     0.274 C 
ENDROOT
BRANCH   1   2
ATOM      2  O   UNL A   1      35.172  22.114  24.767  1.00  0.00    -0.457 OA
BRANCH   2   3
ATOM      3  C   UNL A   1      34.816  22.980  25.743  1.00  0.00     0.368 C 
ATOM      4  O   UNL A   1      35.328  22.999  26.860  1.00  0.00    -0.245 OA
BRANCH   3   5
ATOM      5  C   UNL A   1      33.656  23.945  25.309  1.00  0.00     0.196 C 
ATOM      6  C   UNL A   1      32.802  24.162  26.574  1.00  0.00     0.081 C 
ATOM      7  C   UNL A   1      32.758  23.466  24.136  1.00  0.00     0.108 C 
ATOM      8  C   UNL A   1      31.935  22.943  26.889  1.00  0.00     0.009 C 
ATOM      9  C   UNL A   1      31.712  22.352  24.403  1.00  0.00     0.114 C 
ATOM     10  C   UNL A   1      30.979  22.653  25.735  1.00  0.00     0.028 C 
BRANCH   5  11
ATOM     11  N   UNL A   1      34.373  25.154  24.797  1.00  0.00    -0.332 N 
ATOM     12  H   UNL A   1      34.631  25.711  25.613  1.00  0.00     0.347 HD
ATOM     13  H   UNL A   1      35.133  24.762  24.242  1.00  0.00     0.347 HD
BRANCH  11  14
ATOM     14  C   UNL A   1      33.705  26.049  23.871  1.00  0.00     0.261 C 
BRANCH  14  15
ATOM     15  C   UNL A   1      33.756  27.493  24.393  1.00  0.00     0.058 C 
ATOM     16  C   UNL A   1      33.754  27.618  25.911  1.00  0.00     0.010 C 
ENDBRANCH  14  15
ENDBRANCH  11  14
ENDBRANCH   5  11
BRANCH   9  17
ATOM     17  N   UNL A   1      32.140  20.955  24.244  1.00  0.00    -0.266 N 
ATOM     18  N   UNL A   1      32.284  20.208  25.363  1.00  0.00    -0.178 NA
ATOM     19  C   UNL A   1      32.215  20.171  23.105  1.00  0.00     0.039 A 
ATOM     20  C   UNL A   1      32.591  18.984  24.933  1.00  0.00     0.063 A 
ATOM     21  C   UNL A   1      32.681  18.932  23.523  1.00  0.00    -0.007 A 
ATOM     22  C   UNL A   1      31.874  20.613  21.729  1.00  0.00     0.066 C 
ATOM     23  C   UNL A   1      32.730  17.867  25.901  1.00  0.00     0.069 C 
ATOM     24  C   UNL A   1      33.092  17.772  22.692  1.00  0.00     0.048 C 
ENDBRANCH   9  17
ENDBRANCH   3   5
ENDBRANCH   2   3
ENDBRANCH   1   2
BRANCH   1  25
ATOM     25  C   UNL A   1      37.530  21.559  24.649  1.00  0.00     0.275 C 
BRANCH  25  26
ATOM     26  O   UNL A   1      38.376  21.625  25.802  1.00  0.00    -0.458 OA
BRANCH  26  27
ATOM     27  C   UNL A   1      39.443  20.798  25.811  1.00  0.00     0.338 C 
ATOM     28  O   UNL A   1      39.493  19.627  25.489  1.00  0.00    -0.246 OA
BRANCH  27  29
ATOM     29  C   UNL A   1      40.589  21.577  26.306  1.00  0.00     0.060 A 
ATOM     30  C   UNL A   1      41.876  21.033  26.249  1.00  0.00     0.016 A 
ATOM     31  C   UNL A   1      40.375  22.854  26.820  1.00  0.00     0.016 A 
ATOM     32  C   UNL A   1      42.956  21.765  26.716  1.00  0.00     0.010 A 
ATOM     33  C   UNL A   1      41.469  23.611  27.230  1.00  0.00     0.010 A 
ATOM     34  C   UNL A   1      42.764  23.066  27.188  1.00  0.00    -0.014 A 
BRANCH  34  35
ATOM     35  C   UNL A   1      43.917  23.857  27.668  1.00  0.00     0.031 A 
ATOM     36  C   UNL A   1      44.181  23.938  29.140  1.00  0.00     0.074 A 
ATOM     37  C   UNL A   1      44.696  24.500  26.778  1.00  0.00     0.049 A 
ATOM     38  N   UNL A   1      44.992  24.724  29.795  1.00  0.00    -0.248 NA
ATOM     39  C   UNL A   1      43.406  23.022  29.995  1.00  0.00     0.031 C 
ATOM     40  C   UNL A   1      44.547  24.438  25.322  1.00  0.00     0.029 A 
ATOM     41  N   UNL A   1      45.770  25.329  26.966  1.00  0.00    -0.354 N 
ATOM     42  C   UNL A   1      44.775  24.449  31.139  1.00  0.00     0.074 A 
ATOM     43  C   UNL A   1      43.761  23.420  31.208  1.00  0.00     0.031 C 
ATOM     44  C   UNL A   1      45.514  25.171  24.748  1.00  0.00     0.029 A 
ATOM     45  C   UNL A   1      46.296  25.815  25.795  1.00  0.00     0.049 A 
ATOM     46  H   UNL A   1      46.130  25.553  27.855  1.00  0.00     0.167 HD
ATOM     47  C   UNL A   1      45.363  25.024  32.214  1.00  0.00     0.031 A 
ATOM     48  C   UNL A   1      47.278  26.712  25.595  1.00  0.00     0.031 A 
ATOM     49  C   UNL A   1      46.385  26.032  32.106  1.00  0.00     0.049 A 
ATOM     50  C   UNL A   1      47.926  27.326  26.803  1.00  0.00     0.074 A 
ATOM     51  C   UNL A   1      47.053  26.706  33.112  1.00  0.00     0.029 A 
ATOM     52  N   UNL A   1      46.898  26.495  30.900  1.00  0.00    -0.354 N 
ATOM     53  N   UNL A   1      47.668  27.113  28.072  1.00  0.00    -0.248 NA
ATOM     54  C   UNL A   1      48.986  28.307  26.554  1.00  0.00     0.031 C 
ATOM     55  C   UNL A   1      47.951  27.599  32.511  1.00  0.00     0.029 A 
ATOM     56  C   UNL A   1      47.875  27.445  31.135  1.00  0.00     0.049 A 
ATOM     57  H   UNL A   1      46.608  26.192  30.009  1.00  0.00     0.167 HD
ATOM     58  C   UNL A   1      48.534  27.931  28.778  1.00  0.00     0.074 A 
ATOM     59  C   UNL A   1      49.348  28.619  27.791  1.00  0.00     0.031 C 
ATOM     60  C   UNL A   1      48.647  28.113  30.118  1.00  0.00     0.031 A 
BRANCH  47  61
ATOM     61  C   UNL A   1      44.867  24.616  33.575  1.00  0.00    -0.014 A 
ATOM     62  C   UNL A   1      45.442  23.547  34.283  1.00  0.00     0.009 A 
ATOM     63  C   UNL A   1      43.789  25.304  34.153  1.00  0.00     0.009 A 
ATOM     64  C   UNL A   1      44.918  23.150  35.516  1.00  0.00     0.001 A 
ATOM     65  C   UNL A   1      43.285  24.925  35.399  1.00  0.00     0.001 A 
ATOM     66  C   UNL A   1      43.842  23.840  36.074  1.00  0.00     0.000 A 
ENDBRANCH  47  61
BRANCH  48  67
ATOM     67  C   UNL A   1      47.672  27.091  24.211  1.00  0.00    -0.014 A 
ATOM     68  C   UNL A   1      48.717  26.421  23.557  1.00  0.00     0.009 A 
ATOM     69  C   UNL A   1      46.978  28.097  23.519  1.00  0.00     0.009 A 
ATOM     70  C   UNL A   1      49.061  26.755  22.243  1.00  0.00     0.001 A 
ATOM     71  C   UNL A   1      47.303  28.407  22.196  1.00  0.00     0.001 A 
ATOM     72  C   UNL A   1      48.349  27.740  21.561  1.00  0.00     0.000 A 
ENDBRANCH  48  67
BRANCH  60  73
ATOM     73  C   UNL A   1      49.703  29.079  30.567  1.00  0.00    -0.014 A 
ATOM     74  C   UNL A   1      51.035  28.670  30.733  1.00  0.00     0.009 A 
ATOM     75  C   UNL A   1      49.357  30.415  30.819  1.00  0.00     0.009 A 
ATOM     76  C   UNL A   1      51.995  29.574  31.186  1.00  0.00     0.001 A 
ATOM     77  C   UNL A   1      50.326  31.323  31.244  1.00  0.00     0.001 A 
ATOM     78  C   UNL A   1      51.640  30.899  31.440  1.00  0.00     0.000 A 
ENDBRANCH  60  73
ENDBRANCH  34  35
ENDBRANCH  27  29
ENDBRANCH  26  27
ENDBRANCH  25  26
ENDBRANCH   1  25
TORSDOF 15
ENDMDL
MODEL 2
REMARK VINA RESULT:     -10.3      3.942      4.619
REMARK SMILES CCC[NH2+][C@@]1(C(=O)OCCOC(=O)c2ccc(-c3c4nc(c(-c5ccccc5)c5ccc([nH]5)c(-c5ccccc5)c5nc(c(-c6ccccc6)c6ccc3[nH]6)C=C5)C=C4)cc2)CCC[C@H](n2nc(C)c(C)c2C)C1
REMARK SMILES IDX 9 1 8 2 6 3 7 4 5 5 62 6 74 7 63 8 65 9 64 10 4 11 3 14 2 15
REMARK SMILES IDX 1 16 66 17 67 18 72 19 68 20 70 21 73 22 69 23 71 24 10 25
REMARK SMILES IDX 11 26 12 27 13 28 14 29 15 30 61 31 16 32 60 33 17 34 18 35
REMARK SMILES IDX 19 36 54 37 20 38 59 39 53 40 55 41 21 42 58 43 52 44 51 45
REMARK SMILES IDX 22 47 44 48 29 49 43 50 30 51 33 52 42 53 56 54 31 55 32 56
REMARK SMILES IDX 41 58 57 59 34 60 23 61 24 62 28 63 25 64 27 65 26 66 45 67
REMARK SMILES IDX 46 68 50 69 47 70 49 71 48 72 35 73 36 74 40 75 37 76 39 77
REMARK SMILES IDX 38 78
REMARK H PARENT 4 12 4 13 55 46 33 57
REMARK Flexibility Score: inf
ROOT
ATOM      1  C   UNL A   1      35.641  20.862  25.033  1.00  0.00     0.274 C 
ENDROOT
BRANCH   1   2
ATOM      2  O   UNL A   1      35.183  22.174  24.638  1.00  0.00    -0.457 OA
BRANCH   2   3
ATOM      3  C   UNL A   1      34.791  23.014  25.622  1.00  0.00     0.368 C 
ATOM      4  O   UNL A   1      35.263  23.007  26.756  1.00  0.00    -0.245 OA
BRANCH   3   5
ATOM      5  C   UNL A   1      33.643  23.987  25.171  1.00  0.00     0.196 C 
ATOM      6  C   UNL A   1      32.791  24.236  26.432  1.00  0.00     0.081 C 
ATOM      7  C   UNL A   1      32.740  23.501  24.005  1.00  0.00     0.108 C 
ATOM      8  C   UNL A   1      31.908  23.033  26.766  1.00  0.00     0.009 C 
ATOM      9  C   UNL A   1      31.679  22.405  24.289  1.00  0.00     0.114 C 
ATOM     10  C   UNL A   1      30.949  22.737  25.616  1.00  0.00     0.028 C 
BRANCH   5  11
ATOM     11  N   UNL A   1      34.376  25.178  24.641  1.00  0.00    -0.332 N 
ATOM     12  H   UNL A   1      34.585  25.777  25.440  1.00  0.00     0.347 HD
ATOM     13  H   UNL A   1      35.168  24.769  24.146  1.00  0.00     0.347 HD
BRANCH  11  14
ATOM     14  C   UNL A   1      33.751  26.021  23.637  1.00  0.00     0.261 C 
BRANCH  14  15
ATOM     15  C   UNL A   1      33.697  27.478  24.122  1.00  0.00     0.058 C 
ATOM     16  C   UNL A   1      33.911  28.517  23.030  1.00  0.00     0.010 C 
ENDBRANCH  14  15
ENDBRANCH  11  14
ENDBRANCH   5  11
BRANCH   9  17
ATOM     17  N   UNL A   1      32.089  21.000  24.154  1.00  0.00    -0.266 N 
ATOM     18  N   UNL A   1      32.198  20.262  25.283  1.00  0.00    -0.178 NA
ATOM     19  C   UNL A   1      32.177  20.203  23.025  1.00  0.00     0.039 A 
ATOM     20  C   UNL A   1      32.496  19.029  24.872  1.00  0.00     0.063 A 
ATOM     21  C   UNL A   1      32.615  18.962  23.465  1.00  0.00    -0.007 A 
ATOM     22  C   UNL A   1      31.872  20.635  21.637  1.00  0.00     0.066 C 
ATOM     23  C   UNL A   1      32.598  17.921  25.854  1.00  0.00     0.069 C 
ATOM     24  C   UNL A   1      33.026  17.787  22.655  1.00  0.00     0.048 C 
ENDBRANCH   9  17
ENDBRANCH   3   5
ENDBRANCH   2   3
ENDBRANCH   1   2
BRANCH   1  25
ATOM     25  C   UNL A   1      37.146  20.761  24.821  1.00  0.00     0.275 C 
BRANCH  25  26
ATOM     26  O   UNL A   1      37.792  21.451  25.896  1.00  0.00    -0.458 OA
BRANCH  26  27
ATOM     27  C   UNL A   1      39.094  21.158  26.101  1.00  0.00     0.338 C 
ATOM     28  O   UNL A   1      39.648  20.079  26.009  1.00  0.00    -0.246 OA
BRANCH  27  29
ATOM     29  C   UNL A   1      39.765  22.411  26.479  1.00  0.00     0.060 A 
ATOM     30  C   UNL A   1      40.938  22.370  27.238  1.00  0.00     0.016 A 
ATOM     31  C   UNL A   1      39.222  23.626  26.068  1.00  0.00     0.016 A 
ATOM     32  C   UNL A   1      41.571  23.550  27.596  1.00  0.00     0.010 A 
ATOM     33  C   UNL A   1      39.893  24.807  26.375  1.00  0.00     0.010 A 
ATOM     34  C   UNL A   1      41.066  24.775  27.149  1.00  0.00    -0.014 A 
BRANCH  34  35
ATOM     35  C   UNL A   1      41.750  26.034  27.511  1.00  0.00     0.031 A 
ATOM     36  C   UNL A   1      41.078  26.978  28.461  1.00  0.00     0.074 A 
ATOM     37  C   UNL A   1      42.951  26.315  26.974  1.00  0.00     0.049 A 
ATOM     38  N   UNL A   1      41.384  28.212  28.757  1.00  0.00    -0.248 NA
ATOM     39  C   UNL A   1      39.881  26.469  29.153  1.00  0.00     0.031 C 
ATOM     40  C   UNL A   1      43.706  25.432  26.080  1.00  0.00     0.029 A 
ATOM     41  N   UNL A   1      43.750  27.420  27.101  1.00  0.00    -0.354 N 
ATOM     42  C   UNL A   1      40.381  28.651  29.613  1.00  0.00     0.074 A 
ATOM     43  C   UNL A   1      39.460  27.550  29.794  1.00  0.00     0.031 C 
ATOM     44  C   UNL A   1      44.873  26.017  25.767  1.00  0.00     0.029 A 
ATOM     45  C   UNL A   1      44.910  27.342  26.369  1.00  0.00     0.049 A 
ATOM     46  H   UNL A   1      43.516  28.193  27.664  1.00  0.00     0.167 HD
ATOM     47  C   UNL A   1      40.241  29.873  30.179  1.00  0.00     0.031 A 
ATOM     48  C   UNL A   1      45.874  28.260  26.178  1.00  0.00     0.031 A 
ATOM     49  C   UNL A   1      41.191  30.938  29.993  1.00  0.00     0.049 A 
ATOM     50  C   UNL A   1      45.705  29.603  26.828  1.00  0.00     0.074 A 
ATOM     51  C   UNL A   1      41.164  32.226  30.495  1.00  0.00     0.029 A 
ATOM     52  N   UNL A   1      42.358  30.820  29.248  1.00  0.00    -0.354 N 
ATOM     53  N   UNL A   1      44.719  30.035  27.580  1.00  0.00    -0.248 NA
ATOM     54  C   UNL A   1      46.767  30.586  26.595  1.00  0.00     0.031 C 
ATOM     55  C   UNL A   1      42.302  32.896  30.029  1.00  0.00     0.029 A 
ATOM     56  C   UNL A   1      43.061  32.011  29.277  1.00  0.00     0.049 A 
ATOM     57  H   UNL A   1      42.643  30.008  28.769  1.00  0.00     0.167 HD
ATOM     58  C   UNL A   1      45.041  31.340  27.915  1.00  0.00     0.074 A 
ATOM     59  C   UNL A   1      46.332  31.616  27.308  1.00  0.00     0.031 C 
ATOM     60  C   UNL A   1      44.336  32.240  28.645  1.00  0.00     0.031 A 
BRANCH  47  61
ATOM     61  C   UNL A   1      38.997  30.122  30.988  1.00  0.00    -0.014 A 
ATOM     62  C   UNL A   1      38.953  29.878  32.371  1.00  0.00     0.009 A 
ATOM     63  C   UNL A   1      37.841  30.593  30.349  1.00  0.00     0.009 A 
ATOM     64  C   UNL A   1      37.765  30.058  33.084  1.00  0.00     0.001 A 
ATOM     65  C   UNL A   1      36.661  30.801  31.069  1.00  0.00     0.001 A 
ATOM     66  C   UNL A   1      36.621  30.521  32.435  1.00  0.00     0.000 A 
ENDBRANCH  47  61
BRANCH  48  67
ATOM     67  C   UNL A   1      47.049  27.941  25.323  1.00  0.00    -0.014 A 
ATOM     68  C   UNL A   1      48.252  27.500  25.895  1.00  0.00     0.009 A 
ATOM     69  C   UNL A   1      46.962  28.034  23.924  1.00  0.00     0.009 A 
ATOM     70  C   UNL A   1      49.342  27.166  25.087  1.00  0.00     0.001 A 
ATOM     71  C   UNL A   1      48.043  27.670  23.117  1.00  0.00     0.001 A 
ATOM     72  C   UNL A   1      49.235  27.241  23.699  1.00  0.00     0.000 A 
ENDBRANCH  48  67
BRANCH  60  73
ATOM     73  C   UNL A   1      44.973  33.585  28.831  1.00  0.00    -0.014 A 
ATOM     74  C   UNL A   1      45.834  33.835  29.910  1.00  0.00     0.009 A 
ATOM     75  C   UNL A   1      44.711  34.609  27.908  1.00  0.00     0.009 A 
ATOM     76  C   UNL A   1      46.389  35.102  30.085  1.00  0.00     0.001 A 
ATOM     77  C   UNL A   1      45.289  35.866  28.071  1.00  0.00     0.001 A 
ATOM     78  C   UNL A   1      46.117  36.116  29.166  1.00  0.00     0.000 A 
ENDBRANCH  60  73
ENDBRANCH  34  35
ENDBRANCH  27  29
ENDBRANCH  26  27
ENDBRANCH  25  26
ENDBRANCH   1  25
TORSDOF 15
ENDMDL
MODEL 3
REMARK VINA RESULT:     -10.2      3.961      6.689
REMARK SMILES CCC[NH2+][C@@]1(C(=O)OCCOC(=O)c2ccc(-c3c4nc(c(-c5ccccc5)c5ccc([nH]5)c(-c5ccccc5)c5nc(c(-c6ccccc6)c6ccc3[nH]6)C=C5)C=C4)cc2)CCC[C@H](n2nc(C)c(C)c2C)C1
REMARK SMILES IDX 9 1 8 2 6 3 7 4 5 5 62 6 74 7 63 8 65 9 64 10 4 11 3 14 2 15
REMARK SMILES IDX 1 16 66 17 67 18 72 19 68 20 70 21 73 22 69 23 71 24 10 25
REMARK SMILES IDX 11 26 12 27 13 28 14 29 15 30 61 31 16 32 60 33 17 34 18 35
REMARK SMILES IDX 19 36 54 37 20 38 59 39 53 40 55 41 21 42 58 43 52 44 51 45
REMARK SMILES IDX 22 47 44 48 29 49 43 50 30 51 33 52 42 53 56 54 31 55 32 56
REMARK SMILES IDX 41 58 57 59 34 60 23 61 24 62 28 63 25 64 27 65 26 66 45 67
REMARK SMILES IDX 46 68 50 69 47 70 49 71 48 72 35 73 36 74 40 75 37 76 39 77
REMARK SMILES IDX 38 78
REMARK H PARENT 4 12 4 13 55 46 33 57
REMARK Flexibility Score: inf
ROOT
ATOM      1  C   UNL A   1      32.324  28.285  26.433  1.00  0.00     0.274 C 
ENDROOT
BRANCH   1   2
ATOM      2  O   UNL A   1      31.902  26.919  26.638  1.00  0.00    -0.457 OA
BRANCH   2   3
ATOM      3  C   UNL A   1      32.119  26.046  25.629  1.00  0.00     0.368 C 
ATOM      4  O   UNL A   1      33.215  25.872  25.100  1.00  0.00    -0.245 OA
BRANCH   3   5
ATOM      5  C   UNL A   1      30.816  25.294  25.181  1.00  0.00     0.196 C 
ATOM      6  C   UNL A   1      30.248  24.648  26.462  1.00  0.00     0.081 C 
ATOM      7  C   UNL A   1      30.981  24.219  24.073  1.00  0.00     0.108 C 
ATOM      8  C   UNL A   1      31.051  23.417  26.880  1.00  0.00     0.009 C 
ATOM      9  C   UNL A   1      31.623  22.856  24.443  1.00  0.00     0.114 C 
ATOM     10  C   UNL A   1      31.019  22.358  25.781  1.00  0.00     0.028 C 
BRANCH   5  11
ATOM     11  N   UNL A   1      29.975  26.372  24.573  1.00  0.00    -0.332 N 
ATOM     12  H   UNL A   1      29.019  26.016  24.538  1.00  0.00     0.347 HD
ATOM     13  H   UNL A   1      30.151  27.176  25.175  1.00  0.00     0.347 HD
BRANCH  11  14
ATOM     14  C   UNL A   1      30.289  26.868  23.246  1.00  0.00     0.261 C 
BRANCH  14  15
ATOM     15  C   UNL A   1      29.552  28.190  22.982  1.00  0.00     0.058 C 
ATOM     16  C   UNL A   1      30.289  29.433  23.462  1.00  0.00     0.010 C 
ENDBRANCH  14  15
ENDBRANCH  11  14
ENDBRANCH   5  11
BRANCH   9  17
ATOM     17  N   UNL A   1      33.085  22.737  24.352  1.00  0.00    -0.266 N 
ATOM     18  N   UNL A   1      33.735  22.139  25.377  1.00  0.00    -0.178 NA
ATOM     19  C   UNL A   1      33.928  22.937  23.272  1.00  0.00     0.039 A 
ATOM     20  C   UNL A   1      35.014  22.091  25.003  1.00  0.00     0.063 A 
ATOM     21  C   UNL A   1      35.212  22.689  23.738  1.00  0.00    -0.007 A 
ATOM     22  C   UNL A   1      33.505  23.352  21.911  1.00  0.00     0.066 C 
ATOM     23  C   UNL A   1      36.014  21.404  25.859  1.00  0.00     0.069 C 
ATOM     24  C   UNL A   1      36.505  22.907  23.042  1.00  0.00     0.048 C 
ENDBRANCH   9  17
ENDBRANCH   3   5
ENDBRANCH   2   3
ENDBRANCH   1   2
BRANCH   1  25
ATOM     25  C   UNL A   1      33.326  28.677  27.512  1.00  0.00     0.275 C 
BRANCH  25  26
ATOM     26  O   UNL A   1      34.062  29.811  27.041  1.00  0.00    -0.458 OA
BRANCH  26  27
ATOM     27  C   UNL A   1      34.595  30.614  27.987  1.00  0.00     0.338 C 
ATOM     28  O   UNL A   1      34.095  31.586  28.520  1.00  0.00    -0.246 OA
BRANCH  27  29
ATOM     29  C   UNL A   1      35.944  30.106  28.276  1.00  0.00     0.060 A 
ATOM     30  C   UNL A   1      36.938  30.172  27.296  1.00  0.00     0.016 A 
ATOM     31  C   UNL A   1      36.216  29.568  29.533  1.00  0.00     0.016 A 
ATOM     32  C   UNL A   1      38.209  29.692  27.566  1.00  0.00     0.010 A 
ATOM     33  C   UNL A   1      37.510  29.144  29.824  1.00  0.00     0.010 A 
ATOM     34  C   UNL A   1      38.511  29.196  28.838  1.00  0.00    -0.014 A 
BRANCH  34  35
ATOM     35  C   UNL A   1      39.871  28.702  29.137  1.00  0.00     0.031 A 
ATOM     36  C   UNL A   1      40.838  29.612  29.830  1.00  0.00     0.074 A 
ATOM     37  C   UNL A   1      40.220  27.455  28.770  1.00  0.00     0.049 A 
ATOM     38  N   UNL A   1      42.125  29.475  30.007  1.00  0.00    -0.248 NA
ATOM     39  C   UNL A   1      40.283  30.862  30.379  1.00  0.00     0.031 C 
ATOM     40  C   UNL A   1      39.329  26.478  28.137  1.00  0.00     0.029 A 
ATOM     41  N   UNL A   1      41.413  26.793  28.879  1.00  0.00    -0.354 N 
ATOM     42  C   UNL A   1      42.545  30.648  30.622  1.00  0.00     0.074 A 
ATOM     43  C   UNL A   1      41.377  31.483  30.794  1.00  0.00     0.031 C 
ATOM     44  C   UNL A   1      39.999  25.332  27.944  1.00  0.00     0.029 A 
ATOM     45  C   UNL A   1      41.381  25.520  28.363  1.00  0.00     0.049 A 
ATOM     46  H   UNL A   1      42.216  27.190  29.289  1.00  0.00     0.167 HD
ATOM     47  C   UNL A   1      43.801  30.993  30.990  1.00  0.00     0.031 A 
ATOM     48  C   UNL A   1      42.372  24.623  28.213  1.00  0.00     0.031 A 
ATOM     49  C   UNL A   1      44.936  30.125  30.822  1.00  0.00     0.049 A 
ATOM     50  C   UNL A   1      43.754  25.024  28.642  1.00  0.00     0.074 A 
ATOM     51  C   UNL A   1      46.262  30.355  31.138  1.00  0.00     0.029 A 
ATOM     52  N   UNL A   1      44.863  28.839  30.300  1.00  0.00    -0.354 N 
ATOM     53  N   UNL A   1      44.158  26.161  29.159  1.00  0.00    -0.248 NA
ATOM     54  C   UNL A   1      44.815  24.029  28.458  1.00  0.00     0.031 C 
ATOM     55  C   UNL A   1      46.996  29.217  30.779  1.00  0.00     0.029 A 
ATOM     56  C   UNL A   1      46.120  28.261  30.286  1.00  0.00     0.049 A 
ATOM     57  H   UNL A   1      44.038  28.403  29.986  1.00  0.00     0.167 HD
ATOM     58  C   UNL A   1      45.520  26.021  29.366  1.00  0.00     0.074 A 
ATOM     59  C   UNL A   1      45.865  24.674  28.948  1.00  0.00     0.031 C 
ATOM     60  C   UNL A   1      46.415  26.921  29.846  1.00  0.00     0.031 A 
BRANCH  47  61
ATOM     61  C   UNL A   1      44.002  32.378  31.545  1.00  0.00    -0.014 A 
ATOM     62  C   UNL A   1      43.923  32.641  32.923  1.00  0.00     0.009 A 
ATOM     63  C   UNL A   1      44.259  33.443  30.668  1.00  0.00     0.009 A 
ATOM     64  C   UNL A   1      44.051  33.948  33.402  1.00  0.00     0.001 A 
ATOM     65  C   UNL A   1      44.416  34.744  31.152  1.00  0.00     0.001 A 
ATOM     66  C   UNL A   1      44.300  34.997  32.518  1.00  0.00     0.000 A 
ENDBRANCH  47  61
BRANCH  48  67
ATOM     67  C   UNL A   1      42.088  23.292  27.611  1.00  0.00    -0.014 A 
ATOM     68  C   UNL A   1      41.532  22.262  28.383  1.00  0.00     0.009 A 
ATOM     69  C   UNL A   1      42.332  23.057  26.248  1.00  0.00     0.009 A 
ATOM     70  C   UNL A   1      41.233  21.024  27.806  1.00  0.00     0.001 A 
ATOM     71  C   UNL A   1      42.004  21.830  25.666  1.00  0.00     0.001 A 
ATOM     72  C   UNL A   1      41.459  20.812  26.447  1.00  0.00     0.000 A 
ENDBRANCH  48  67
BRANCH  60  73
ATOM     73  C   UNL A   1      47.834  26.450  29.953  1.00  0.00    -0.014 A 
ATOM     74  C   UNL A   1      48.730  26.598  28.884  1.00  0.00     0.009 A 
ATOM     75  C   UNL A   1      48.278  25.858  31.145  1.00  0.00     0.009 A 
ATOM     76  C   UNL A   1      50.036  26.121  28.991  1.00  0.00     0.001 A 
ATOM     77  C   UNL A   1      49.592  25.408  31.259  1.00  0.00     0.001 A 
ATOM     78  C   UNL A   1      50.466  25.527  30.178  1.00  0.00     0.000 A 
ENDBRANCH  60  73
ENDBRANCH  34  35
ENDBRANCH  27  29
ENDBRANCH  26  27
ENDBRANCH  25  26
ENDBRANCH   1  25
TORSDOF 15
ENDMDL
