MODEL 1
REMARK VINA RESULT:      -9.8      0.000      0.000
REMARK SMILES Cc1cc(Cl)cc2c1O[C@H](C(F)(F)F)C(C(=O)OCCOC(=O)c1ccc(-c3c4nc(c(-c5ccccc5)c5ccc([nH]5)c(-c5ccccc5)c5nc(c(-c6ccccc6)c6ccc3[nH]6)C=C5)C=C4)cc1)=C2
REMARK SMILES IDX 20 1 19 2 18 3 16 4 17 5 15 6 1 7 2 8 3 9 8 10 4 11 7 12
REMARK SMILES IDX 9 13 5 14 6 15 72 16 10 17 11 18 12 19 13 20 14 21 21 22
REMARK SMILES IDX 22 23 23 24 24 25 25 26 71 27 26 28 70 29 27 30 28 31 29 32
REMARK SMILES IDX 64 33 30 34 69 35 63 36 65 37 31 38 68 39 62 40 61 41 32 43
REMARK SMILES IDX 54 44 39 45 53 46 40 47 43 48 52 49 66 50 41 51 42 52 51 54
REMARK SMILES IDX 67 55 44 56 33 57 34 58 38 59 35 60 37 61 36 62 55 63 56 64
REMARK SMILES IDX 60 65 57 66 59 67 58 68 45 69 46 70 50 71 47 72 49 73 48 74
REMARK H PARENT 65 42 43 53
REMARK Flexibility Score: inf
ROOT
ATOM      1  C   UNL A   1      33.762  33.628  28.315  1.00  0.00     0.275 C 
ENDROOT
BRANCH   1   2
ATOM      2  C   UNL A   1      34.425  34.802  29.035  1.00  0.00     0.275 C 
BRANCH   2   3
ATOM      3  O   UNL A   1      34.216  34.725  30.462  1.00  0.00    -0.459 OA
BRANCH   3   4
ATOM      4  C   UNL A   1      34.788  33.663  31.078  1.00  0.00     0.338 C 
ATOM      5  O   UNL A   1      34.338  32.537  31.159  1.00  0.00    -0.246 OA
BRANCH   4   6
ATOM      6  C   UNL A   1      36.104  34.043  31.634  1.00  0.00     0.087 C 
ATOM      7  C   UNL A   1      40.030  35.203  34.732  1.00  0.00     0.048 C 
ATOM      8  C   UNL A   1      39.874  34.748  33.309  1.00  0.00    -0.007 A 
ATOM      9  C   UNL A   1      41.016  34.525  32.521  1.00  0.00     0.027 A 
ATOM     10  C   UNL A   1      38.603  34.564  32.742  1.00  0.00     0.131 A 
ATOM     11  C   UNL A   1      40.890  34.115  31.196  1.00  0.00     0.042 A 
ATOM     12  C   UNL A   1      38.488  34.132  31.418  1.00  0.00     0.019 A 
ATOM     13  O   UNL A   1      37.517  34.848  33.525  1.00  0.00    -0.475 OA
ATOM     14  Cl  UNL A   1      42.295  33.845  30.242  1.00  0.00    -0.084 Cl
ATOM     15  C   UNL A   1      39.631  33.916  30.641  1.00  0.00     0.032 A 
ATOM     16  C   UNL A   1      37.177  33.881  30.854  1.00  0.00     0.027 C 
ATOM     17  C   UNL A   1      36.190  34.458  33.073  1.00  0.00     0.316 C 
BRANCH  17  18
ATOM     18  C   UNL A   1      35.653  33.358  34.002  1.00  0.00     0.430 C 
ATOM     19  F   UNL A   1      34.299  33.340  34.016  1.00  0.00    -0.167 F 
ATOM     20  F   UNL A   1      36.053  32.128  33.599  1.00  0.00    -0.167 F 
ATOM     21  F   UNL A   1      36.071  33.520  35.279  1.00  0.00    -0.167 F 
ENDBRANCH  17  18
ENDBRANCH   4   6
ENDBRANCH   3   4
ENDBRANCH   2   3
ENDBRANCH   1   2
BRANCH   1  22
ATOM     22  O   UNL A   1      34.756  32.840  27.634  1.00  0.00    -0.458 OA
BRANCH  22  23
ATOM     23  C   UNL A   1      34.653  31.502  27.787  1.00  0.00     0.338 C 
ATOM     24  O   UNL A   1      33.770  30.769  27.372  1.00  0.00    -0.246 OA
BRANCH  23  25
ATOM     25  C   UNL A   1      35.833  30.993  28.502  1.00  0.00     0.060 A 
ATOM     26  C   UNL A   1      37.059  31.614  28.294  1.00  0.00     0.016 A 
ATOM     27  C   UNL A   1      35.763  29.823  29.255  1.00  0.00     0.016 A 
ATOM     28  C   UNL A   1      38.233  31.004  28.719  1.00  0.00     0.010 A 
ATOM     29  C   UNL A   1      36.936  29.287  29.806  1.00  0.00     0.010 A 
ATOM     30  C   UNL A   1      38.192  29.846  29.509  1.00  0.00    -0.014 A 
BRANCH  30  31
ATOM     31  C   UNL A   1      39.464  29.240  30.003  1.00  0.00     0.031 A 
ATOM     32  C   UNL A   1      40.112  29.727  31.275  1.00  0.00     0.074 A 
ATOM     33  C   UNL A   1      40.023  28.208  29.333  1.00  0.00     0.049 A 
ATOM     34  N   UNL A   1      41.261  29.383  31.799  1.00  0.00    -0.248 NA
ATOM     35  C   UNL A   1      39.382  30.741  32.056  1.00  0.00     0.031 C 
ATOM     36  C   UNL A   1      39.488  27.600  28.112  1.00  0.00     0.029 A 
ATOM     37  N   UNL A   1      41.145  27.461  29.603  1.00  0.00    -0.354 N 
ATOM     38  C   UNL A   1      41.414  30.168  32.935  1.00  0.00     0.074 A 
ATOM     39  C   UNL A   1      40.247  31.018  33.021  1.00  0.00     0.031 C 
ATOM     40  C   UNL A   1      40.222  26.524  27.793  1.00  0.00     0.029 A 
ATOM     41  C   UNL A   1      41.343  26.427  28.719  1.00  0.00     0.049 A 
ATOM     42  H   UNL A   1      41.748  27.650  30.357  1.00  0.00     0.167 HD
ATOM     43  C   UNL A   1      42.433  30.180  33.829  1.00  0.00     0.031 A 
ATOM     44  C   UNL A   1      42.328  25.512  28.636  1.00  0.00     0.031 A 
ATOM     45  C   UNL A   1      43.573  29.305  33.771  1.00  0.00     0.049 A 
ATOM     46  C   UNL A   1      43.467  25.574  29.611  1.00  0.00     0.074 A 
ATOM     47  C   UNL A   1      44.658  29.247  34.631  1.00  0.00     0.029 A 
ATOM     48  N   UNL A   1      43.767  28.321  32.816  1.00  0.00    -0.354 N 
ATOM     49  N   UNL A   1      43.627  26.371  30.638  1.00  0.00    -0.248 NA
ATOM     50  C   UNL A   1      44.576  24.632  29.398  1.00  0.00     0.031 C 
ATOM     51  C   UNL A   1      45.525  28.252  34.173  1.00  0.00     0.029 A 
ATOM     52  C   UNL A   1      44.957  27.659  33.058  1.00  0.00     0.049 A 
ATOM     53  H   UNL A   1      43.148  28.121  32.076  1.00  0.00     0.167 HD
ATOM     54  C   UNL A   1      44.847  26.025  31.199  1.00  0.00     0.074 A 
ATOM     55  C   UNL A   1      45.379  24.932  30.411  1.00  0.00     0.031 C 
ATOM     56  C   UNL A   1      45.472  26.571  32.268  1.00  0.00     0.031 A 
BRANCH  43  57
ATOM     57  C   UNL A   1      42.380  31.190  34.942  1.00  0.00    -0.014 A 
ATOM     58  C   UNL A   1      41.785  30.887  36.176  1.00  0.00     0.009 A 
ATOM     59  C   UNL A   1      42.996  32.441  34.773  1.00  0.00     0.009 A 
ATOM     60  C   UNL A   1      41.787  31.828  37.209  1.00  0.00     0.001 A 
ATOM     61  C   UNL A   1      43.019  33.368  35.815  1.00  0.00     0.001 A 
ATOM     62  C   UNL A   1      42.409  33.064  37.031  1.00  0.00     0.000 A 
ENDBRANCH  43  57
BRANCH  44  63
ATOM     63  C   UNL A   1      42.288  24.476  27.570  1.00  0.00    -0.014 A 
ATOM     64  C   UNL A   1      42.968  24.675  26.360  1.00  0.00     0.009 A 
ATOM     65  C   UNL A   1      41.599  23.268  27.770  1.00  0.00     0.009 A 
ATOM     66  C   UNL A   1      42.959  23.688  25.372  1.00  0.00     0.001 A 
ATOM     67  C   UNL A   1      41.618  22.270  26.792  1.00  0.00     0.001 A 
ATOM     68  C   UNL A   1      42.292  22.483  25.592  1.00  0.00     0.000 A 
ENDBRANCH  44  63
BRANCH  56  69
ATOM     69  C   UNL A   1      46.795  25.990  32.671  1.00  0.00    -0.014 A 
ATOM     70  C   UNL A   1      47.993  26.501  32.154  1.00  0.00     0.009 A 
ATOM     71  C   UNL A   1      46.843  24.984  33.648  1.00  0.00     0.009 A 
ATOM     72  C   UNL A   1      49.219  26.006  32.602  1.00  0.00     0.001 A 
ATOM     73  C   UNL A   1      48.070  24.507  34.111  1.00  0.00     0.001 A 
ATOM     74  C   UNL A   1      49.256  25.017  33.585  1.00  0.00     0.000 A 
ENDBRANCH  56  69
ENDBRANCH  30  31
ENDBRANCH  23  25
ENDBRANCH  22  23
ENDBRANCH   1  22
TORSDOF 12
ENDMDL
MODEL 2
REMARK VINA RESULT:      -9.6      0.483      6.082
REMARK SMILES Cc1cc(Cl)cc2c1O[C@H](C(F)(F)F)C(C(=O)OCCOC(=O)c1ccc(-c3c4nc(c(-c5ccccc5)c5ccc([nH]5)c(-c5ccccc5)c5nc(c(-c6ccccc6)c6ccc3[nH]6)C=C5)C=C4)cc1)=C2
REMARK SMILES IDX 20 1 19 2 18 3 16 4 17 5 15 6 1 7 2 8 3 9 8 10 4 11 7 12
REMARK SMILES IDX 9 13 5 14 6 15 72 16 10 17 11 18 12 19 13 20 14 21 21 22
REMARK SMILES IDX 22 23 23 24 24 25 25 26 71 27 26 28 70 29 27 30 28 31 29 32
REMARK SMILES IDX 64 33 30 34 69 35 63 36 65 37 31 38 68 39 62 40 61 41 32 43
REMARK SMILES IDX 54 44 39 45 53 46 40 47 43 48 52 49 66 50 41 51 42 52 51 54
REMARK SMILES IDX 67 55 44 56 33 57 34 58 38 59 35 60 37 61 36 62 55 63 56 64
REMARK SMILES IDX 60 65 57 66 59 67 58 68 45 69 46 70 50 71 47 72 49 73 48 74
REMARK H PARENT 65 42 43 53
REMARK Flexibility Score: inf
ROOT
ATOM      1  C   UNL A   1      33.668  33.712  28.272  1.00  0.00     0.275 C 
ENDROOT
BRANCH   1   2
ATOM      2  C   UNL A   1      34.389  34.810  29.052  1.00  0.00     0.275 C 
BRANCH   2   3
ATOM      3  O   UNL A   1      34.174  34.668  30.474  1.00  0.00    -0.459 OA
BRANCH   3   4
ATOM      4  C   UNL A   1      34.790  33.610  31.052  1.00  0.00     0.338 C 
ATOM      5  O   UNL A   1      34.390  32.463  31.089  1.00  0.00    -0.246 OA
BRANCH   4   6
ATOM      6  C   UNL A   1      36.085  34.026  31.630  1.00  0.00     0.087 C 
ATOM      7  C   UNL A   1      39.927  35.291  34.792  1.00  0.00     0.048 C 
ATOM      8  C   UNL A   1      39.806  34.835  33.366  1.00  0.00    -0.007 A 
ATOM      9  C   UNL A   1      40.967  34.648  32.596  1.00  0.00     0.027 A 
ATOM     10  C   UNL A   1      38.551  34.617  32.778  1.00  0.00     0.131 A 
ATOM     11  C   UNL A   1      40.873  34.238  31.268  1.00  0.00     0.042 A 
ATOM     12  C   UNL A   1      38.469  34.185  31.452  1.00  0.00     0.019 A 
ATOM     13  O   UNL A   1      37.445  34.867  33.545  1.00  0.00    -0.475 OA
ATOM     14  Cl  UNL A   1      42.301  34.011  30.335  1.00  0.00    -0.084 Cl
ATOM     15  C   UNL A   1      39.630  34.003  30.692  1.00  0.00     0.032 A 
ATOM     16  C   UNL A   1      37.175  33.897  30.867  1.00  0.00     0.027 C 
ATOM     17  C   UNL A   1      36.137  34.441  33.072  1.00  0.00     0.316 C 
BRANCH  17  18
ATOM     18  C   UNL A   1      35.618  33.323  33.990  1.00  0.00     0.430 C 
ATOM     19  F   UNL A   1      34.264  33.285  34.005  1.00  0.00    -0.167 F 
ATOM     20  F   UNL A   1      36.034  32.103  33.573  1.00  0.00    -0.167 F 
ATOM     21  F   UNL A   1      36.034  33.478  35.267  1.00  0.00    -0.167 F 
ENDBRANCH  17  18
ENDBRANCH   4   6
ENDBRANCH   3   4
ENDBRANCH   2   3
ENDBRANCH   1   2
BRANCH   1  22
ATOM     22  O   UNL A   1      34.626  32.867  27.607  1.00  0.00    -0.458 OA
BRANCH  22  23
ATOM     23  C   UNL A   1      34.468  31.538  27.792  1.00  0.00     0.338 C 
ATOM     24  O   UNL A   1      33.451  30.880  27.645  1.00  0.00    -0.246 OA
BRANCH  23  25
ATOM     25  C   UNL A   1      35.758  30.932  28.153  1.00  0.00     0.060 A 
ATOM     26  C   UNL A   1      35.763  29.658  28.709  1.00  0.00     0.016 A 
ATOM     27  C   UNL A   1      36.939  31.666  28.083  1.00  0.00     0.016 A 
ATOM     28  C   UNL A   1      36.911  29.166  29.319  1.00  0.00     0.010 A 
ATOM     29  C   UNL A   1      38.129  31.106  28.570  1.00  0.00     0.010 A 
ATOM     30  C   UNL A   1      38.123  29.866  29.233  1.00  0.00    -0.014 A 
BRANCH  30  31
ATOM     31  C   UNL A   1      39.357  29.291  29.846  1.00  0.00     0.031 A 
ATOM     32  C   UNL A   1      40.148  28.222  29.134  1.00  0.00     0.074 A 
ATOM     33  C   UNL A   1      39.803  29.762  31.030  1.00  0.00     0.049 A 
ATOM     34  N   UNL A   1      41.186  27.545  29.558  1.00  0.00    -0.248 NA
ATOM     35  C   UNL A   1      39.715  27.857  27.775  1.00  0.00     0.031 C 
ATOM     36  C   UNL A   1      39.168  30.824  31.815  1.00  0.00     0.029 A 
ATOM     37  N   UNL A   1      40.918  29.437  31.766  1.00  0.00    -0.354 N 
ATOM     38  C   UNL A   1      41.495  26.645  28.545  1.00  0.00     0.074 A 
ATOM     39  C   UNL A   1      40.530  26.851  27.488  1.00  0.00     0.031 C 
ATOM     40  C   UNL A   1      39.945  31.125  32.865  1.00  0.00     0.029 A 
ATOM     41  C   UNL A   1      41.077  30.208  32.894  1.00  0.00     0.049 A 
ATOM     42  H   UNL A   1      41.542  28.721  31.510  1.00  0.00     0.167 HD
ATOM     43  C   UNL A   1      42.495  25.730  28.497  1.00  0.00     0.031 A 
ATOM     44  C   UNL A   1      42.011  30.173  33.864  1.00  0.00     0.031 A 
ATOM     45  C   UNL A   1      43.484  25.555  29.527  1.00  0.00     0.049 A 
ATOM     46  C   UNL A   1      43.081  29.123  33.810  1.00  0.00     0.074 A 
ATOM     47  C   UNL A   1      44.533  24.651  29.566  1.00  0.00     0.029 A 
ATOM     48  N   UNL A   1      43.562  26.311  30.685  1.00  0.00    -0.354 N 
ATOM     49  N   UNL A   1      43.314  28.234  32.876  1.00  0.00    -0.248 NA
ATOM     50  C   UNL A   1      43.998  29.049  34.957  1.00  0.00     0.031 C 
ATOM     51  C   UNL A   1      45.223  24.836  30.768  1.00  0.00     0.029 A 
ATOM     52  C   UNL A   1      44.633  25.887  31.451  1.00  0.00     0.049 A 
ATOM     53  H   UNL A   1      42.948  27.042  30.925  1.00  0.00     0.167 HD
ATOM     54  C   UNL A   1      44.407  27.502  33.316  1.00  0.00     0.074 A 
ATOM     55  C   UNL A   1      44.804  28.060  34.592  1.00  0.00     0.031 C 
ATOM     56  C   UNL A   1      45.019  26.454  32.716  1.00  0.00     0.031 A 
BRANCH  43  57
ATOM     57  C   UNL A   1      42.561  24.825  27.299  1.00  0.00    -0.014 A 
ATOM     58  C   UNL A   1      43.346  25.147  26.181  1.00  0.00     0.009 A 
ATOM     59  C   UNL A   1      41.879  23.597  27.319  1.00  0.00     0.009 A 
ATOM     60  C   UNL A   1      43.426  24.267  25.098  1.00  0.00     0.001 A 
ATOM     61  C   UNL A   1      41.981  22.709  26.248  1.00  0.00     0.001 A 
ATOM     62  C   UNL A   1      42.750  23.047  25.134  1.00  0.00     0.000 A 
ENDBRANCH  43  57
BRANCH  44  63
ATOM     63  C   UNL A   1      41.953  31.150  34.982  1.00  0.00    -0.014 A 
ATOM     64  C   UNL A   1      42.774  32.288  34.975  1.00  0.00     0.009 A 
ATOM     65  C   UNL A   1      41.054  30.971  36.047  1.00  0.00     0.009 A 
ATOM     66  C   UNL A   1      42.696  33.224  36.009  1.00  0.00     0.001 A 
ATOM     67  C   UNL A   1      40.957  31.925  37.063  1.00  0.00     0.001 A 
ATOM     68  C   UNL A   1      41.781  33.047  37.046  1.00  0.00     0.000 A 
ENDBRANCH  44  63
BRANCH  56  69
ATOM     69  C   UNL A   1      46.200  25.846  33.415  1.00  0.00    -0.014 A 
ATOM     70  C   UNL A   1      46.038  24.765  34.293  1.00  0.00     0.009 A 
ATOM     71  C   UNL A   1      47.493  26.302  33.118  1.00  0.00     0.009 A 
ATOM     72  C   UNL A   1      47.154  24.157  34.870  1.00  0.00     0.001 A 
ATOM     73  C   UNL A   1      48.607  25.678  33.679  1.00  0.00     0.001 A 
ATOM     74  C   UNL A   1      48.436  24.608  34.556  1.00  0.00     0.000 A 
ENDBRANCH  56  69
ENDBRANCH  30  31
ENDBRANCH  23  25
ENDBRANCH  22  23
ENDBRANCH   1  22
TORSDOF 12
ENDMDL
MODEL 3
REMARK VINA RESULT:      -9.5      5.636     10.937
REMARK SMILES Cc1cc(Cl)cc2c1O[C@H](C(F)(F)F)C(C(=O)OCCOC(=O)c1ccc(-c3c4nc(c(-c5ccccc5)c5ccc([nH]5)c(-c5ccccc5)c5nc(c(-c6ccccc6)c6ccc3[nH]6)C=C5)C=C4)cc1)=C2
REMARK SMILES IDX 20 1 19 2 18 3 16 4 17 5 15 6 1 7 2 8 3 9 8 10 4 11 7 12
REMARK SMILES IDX 9 13 5 14 6 15 72 16 10 17 11 18 12 19 13 20 14 21 21 22
REMARK SMILES IDX 22 23 23 24 24 25 25 26 71 27 26 28 70 29 27 30 28 31 29 32
REMARK SMILES IDX 64 33 30 34 69 35 63 36 65 37 31 38 68 39 62 40 61 41 32 43
REMARK SMILES IDX 54 44 39 45 53 46 40 47 43 48 52 49 66 50 41 51 42 52 51 54
REMARK SMILES IDX 67 55 44 56 33 57 34 58 38 59 35 60 37 61 36 62 55 63 56 64
REMARK SMILES IDX 60 65 57 66 59 67 58 68 45 69 46 70 50 71 47 72 49 73 48 74
REMARK H PARENT 65 42 43 53
REMARK Flexibility Score: inf
ROOT
ATOM      1  C   UNL A   1      40.650  19.964  26.285  1.00  0.00     0.275 C 
ENDROOT
BRANCH   1   2
ATOM      2  C   UNL A   1      42.135  19.828  25.949  1.00  0.00     0.275 C 
BRANCH   2   3
ATOM      3  O   UNL A   1      42.922  20.819  26.647  1.00  0.00    -0.459 OA
BRANCH   3   4
ATOM      4  C   UNL A   1      43.257  21.912  25.921  1.00  0.00     0.338 C 
ATOM      5  O   UNL A   1      42.698  22.325  24.924  1.00  0.00    -0.246 OA
BRANCH   4   6
ATOM      6  C   UNL A   1      44.414  22.597  26.534  1.00  0.00     0.087 C 
ATOM      7  C   UNL A   1      48.890  24.956  27.402  1.00  0.00     0.048 C 
ATOM      8  C   UNL A   1      47.565  24.861  28.102  1.00  0.00    -0.007 A 
ATOM      9  C   UNL A   1      47.360  25.567  29.301  1.00  0.00     0.027 A 
ATOM     10  C   UNL A   1      46.533  24.057  27.595  1.00  0.00     0.131 A 
ATOM     11  C   UNL A   1      46.142  25.479  29.971  1.00  0.00     0.042 A 
ATOM     12  C   UNL A   1      45.308  23.994  28.263  1.00  0.00     0.019 A 
ATOM     13  O   UNL A   1      46.793  23.342  26.457  1.00  0.00    -0.475 OA
ATOM     14  Cl  UNL A   1      45.902  26.348  31.436  1.00  0.00    -0.084 Cl
ATOM     15  C   UNL A   1      45.113  24.698  29.456  1.00  0.00     0.032 A 
ATOM     16  C   UNL A   1      44.221  23.215  27.703  1.00  0.00     0.027 C 
ATOM     17  C   UNL A   1      45.699  22.681  25.763  1.00  0.00     0.316 C 
BRANCH  17  18
ATOM     18  C   UNL A   1      45.487  23.367  24.404  1.00  0.00     0.430 C 
ATOM     19  F   UNL A   1      46.650  23.854  23.910  1.00  0.00    -0.167 F 
ATOM     20  F   UNL A   1      45.006  22.502  23.480  1.00  0.00    -0.167 F 
ATOM     21  F   UNL A   1      44.616  24.399  24.484  1.00  0.00    -0.167 F 
ENDBRANCH  17  18
ENDBRANCH   4   6
ENDBRANCH   3   4
ENDBRANCH   2   3
ENDBRANCH   1   2
BRANCH   1  22
ATOM     22  O   UNL A   1      40.426  21.157  27.059  1.00  0.00    -0.458 OA
BRANCH  22  23
ATOM     23  C   UNL A   1      39.593  22.068  26.509  1.00  0.00     0.338 C 
ATOM     24  O   UNL A   1      38.711  21.873  25.688  1.00  0.00    -0.246 OA
BRANCH  23  25
ATOM     25  C   UNL A   1      39.850  23.391  27.096  1.00  0.00     0.060 A 
ATOM     26  C   UNL A   1      39.325  24.514  26.465  1.00  0.00     0.016 A 
ATOM     27  C   UNL A   1      40.721  23.540  28.172  1.00  0.00     0.016 A 
ATOM     28  C   UNL A   1      39.770  25.783  26.814  1.00  0.00     0.010 A 
ATOM     29  C   UNL A   1      41.054  24.828  28.616  1.00  0.00     0.010 A 
ATOM     30  C   UNL A   1      40.617  25.967  27.916  1.00  0.00    -0.014 A 
BRANCH  30  31
ATOM     31  C   UNL A   1      41.036  27.345  28.308  1.00  0.00     0.031 A 
ATOM     32  C   UNL A   1      42.454  27.814  28.094  1.00  0.00     0.074 A 
ATOM     33  C   UNL A   1      40.128  28.206  28.816  1.00  0.00     0.049 A 
ATOM     34  N   UNL A   1      43.014  28.940  28.460  1.00  0.00    -0.248 NA
ATOM     35  C   UNL A   1      43.366  26.898  27.389  1.00  0.00     0.031 C 
ATOM     36  C   UNL A   1      38.710  27.910  29.039  1.00  0.00     0.029 A 
ATOM     37  N   UNL A   1      40.249  29.520  29.203  1.00  0.00    -0.354 N 
ATOM     38  C   UNL A   1      44.347  28.847  28.077  1.00  0.00     0.074 A 
ATOM     39  C   UNL A   1      44.518  27.550  27.461  1.00  0.00     0.031 C 
ATOM     40  C   UNL A   1      38.080  29.027  29.432  1.00  0.00     0.029 A 
ATOM     41  C   UNL A   1      39.062  30.091  29.595  1.00  0.00     0.049 A 
ATOM     42  H   UNL A   1      41.106  30.004  29.200  1.00  0.00     0.167 HD
ATOM     43  C   UNL A   1      45.339  29.759  28.222  1.00  0.00     0.031 A 
ATOM     44  C   UNL A   1      38.785  31.324  30.061  1.00  0.00     0.031 A 
ATOM     45  C   UNL A   1      45.160  31.067  28.793  1.00  0.00     0.049 A 
ATOM     46  C   UNL A   1      39.908  32.301  30.254  1.00  0.00     0.074 A 
ATOM     47  C   UNL A   1      46.108  32.058  28.985  1.00  0.00     0.029 A 
ATOM     48  N   UNL A   1      43.952  31.575  29.243  1.00  0.00    -0.354 N 
ATOM     49  N   UNL A   1      41.175  32.167  29.949  1.00  0.00    -0.248 NA
ATOM     50  C   UNL A   1      39.570  33.586  30.883  1.00  0.00     0.031 C 
ATOM     51  C   UNL A   1      45.480  33.153  29.585  1.00  0.00     0.029 A 
ATOM     52  C   UNL A   1      44.133  32.861  29.722  1.00  0.00     0.049 A 
ATOM     53  H   UNL A   1      43.094  31.094  29.222  1.00  0.00     0.167 HD
ATOM     54  C   UNL A   1      41.784  33.350  30.340  1.00  0.00     0.074 A 
ATOM     55  C   UNL A   1      40.746  34.199  30.887  1.00  0.00     0.031 C 
ATOM     56  C   UNL A   1      43.091  33.696  30.259  1.00  0.00     0.031 A 
BRANCH  43  57
ATOM     57  C   UNL A   1      46.721  29.370  27.778  1.00  0.00    -0.014 A 
ATOM     58  C   UNL A   1      47.734  29.081  28.706  1.00  0.00     0.009 A 
ATOM     59  C   UNL A   1      46.994  29.226  26.408  1.00  0.00     0.009 A 
ATOM     60  C   UNL A   1      48.998  28.680  28.268  1.00  0.00     0.001 A 
ATOM     61  C   UNL A   1      48.250  28.800  25.974  1.00  0.00     0.001 A 
ATOM     62  C   UNL A   1      49.254  28.533  26.904  1.00  0.00     0.000 A 
ENDBRANCH  43  57
BRANCH  44  63
ATOM     63  C   UNL A   1      37.385  31.690  30.401  1.00  0.00    -0.014 A 
ATOM     64  C   UNL A   1      36.901  31.511  31.706  1.00  0.00     0.009 A 
ATOM     65  C   UNL A   1      36.535  32.252  29.434  1.00  0.00     0.009 A 
ATOM     66  C   UNL A   1      35.596  31.886  32.034  1.00  0.00     0.001 A 
ATOM     67  C   UNL A   1      35.241  32.655  29.774  1.00  0.00     0.001 A 
ATOM     68  C   UNL A   1      34.771  32.466  31.071  1.00  0.00     0.000 A 
ENDBRANCH  44  63
BRANCH  56  69
ATOM     69  C   UNL A   1      43.481  35.057  30.752  1.00  0.00    -0.014 A 
ATOM     70  C   UNL A   1      43.873  35.256  32.083  1.00  0.00     0.009 A 
ATOM     71  C   UNL A   1      43.545  36.130  29.851  1.00  0.00     0.009 A 
ATOM     72  C   UNL A   1      44.314  36.511  32.505  1.00  0.00     0.001 A 
ATOM     73  C   UNL A   1      44.007  37.378  30.270  1.00  0.00     0.001 A 
ATOM     74  C   UNL A   1      44.388  37.567  31.598  1.00  0.00     0.000 A 
ENDBRANCH  56  69
ENDBRANCH  30  31
ENDBRANCH  23  25
ENDBRANCH  22  23
ENDBRANCH   1  22
TORSDOF 12
ENDMDL
