MODEL 1
REMARK VINA RESULT:     -10.9      0.000      0.000
REMARK SMILES O=C(OCCOC(=O)[C@H]1CC[C@H]2CCCC[C@@H]2[N@H+]1[C@@H]1C[N@H+]2CC[C@@H]1CC2)c1ccc(-c2c3nc(c(-c4ccccc4)c4ccc([nH]4)c(-c4ccccc4)c4nc(c(-c5ccccc5)c5ccc2[nH]5)C=C4)C=C3)cc1
REMARK SMILES IDX 4 1 3 2 2 3 1 4 27 5 28 6 74 7 29 8 73 9 30 10 31 11 32 12
REMARK SMILES IDX 67 13 33 14 72 15 66 16 68 17 34 18 71 19 65 20 64 21 35 23
REMARK SMILES IDX 57 24 42 25 56 26 43 27 46 28 55 29 69 30 44 31 45 32 54 34
REMARK SMILES IDX 70 35 47 36 36 37 37 38 41 39 38 40 40 41 39 42 58 43 59 44
REMARK SMILES IDX 63 45 60 46 62 47 61 48 48 49 49 50 53 51 50 52 52 53 51 54
REMARK SMILES IDX 5 55 6 56 7 57 8 58 9 59 10 60 18 61 11 62 17 63 12 65 16 66
REMARK SMILES IDX 13 67 15 68 14 69 19 70 20 71 24 72 21 73 25 74 23 75 26 76
REMARK SMILES IDX 22 77
REMARK H PARENT 68 22 46 33 18 64 21 78
REMARK Flexibility Score: inf
ROOT
ATOM      1  C   UNL A   1      36.829  23.581  25.191  1.00  0.00     0.275 C 
ENDROOT
BRANCH   1   2
ATOM      2  O   UNL A   1      37.954  22.809  25.644  1.00  0.00    -0.458 OA
BRANCH   2   3
ATOM      3  C   UNL A   1      39.174  23.176  26.098  1.00  0.00     0.338 C 
ATOM      4  O   UNL A   1      40.100  22.384  25.909  1.00  0.00    -0.246 OA
BRANCH   3   5
ATOM      5  C   UNL A   1      39.501  24.427  26.880  1.00  0.00     0.060 A 
ATOM      6  C   UNL A   1      40.193  25.557  26.437  1.00  0.00     0.016 A 
ATOM      7  C   UNL A   1      38.961  24.490  28.185  1.00  0.00     0.016 A 
ATOM      8  C   UNL A   1      40.274  26.726  27.228  1.00  0.00     0.010 A 
ATOM      9  C   UNL A   1      39.021  25.659  28.964  1.00  0.00     0.010 A 
ATOM     10  C   UNL A   1      39.669  26.804  28.490  1.00  0.00    -0.014 A 
BRANCH  10  11
ATOM     11  C   UNL A   1      39.861  28.015  29.345  1.00  0.00     0.031 A 
ATOM     12  C   UNL A   1      38.870  29.115  29.261  1.00  0.00     0.074 A 
ATOM     13  C   UNL A   1      40.912  28.220  30.163  1.00  0.00     0.049 A 
ATOM     14  N   UNL A   1      38.799  30.196  29.989  1.00  0.00    -0.248 NA
ATOM     15  C   UNL A   1      37.894  29.033  28.167  1.00  0.00     0.031 C 
ATOM     16  C   UNL A   1      42.111  27.429  30.126  1.00  0.00     0.029 A 
ATOM     17  N   UNL A   1      41.187  29.145  31.150  1.00  0.00    -0.354 N 
ATOM     18  C   UNL A   1      37.777  30.934  29.434  1.00  0.00     0.074 A 
ATOM     19  C   UNL A   1      37.308  30.213  28.268  1.00  0.00     0.031 C 
ATOM     20  C   UNL A   1      42.943  27.800  31.102  1.00  0.00     0.029 A 
ATOM     21  C   UNL A   1      42.337  28.862  31.863  1.00  0.00     0.049 A 
ATOM     22  H   UNL A   1      40.619  29.930  31.328  1.00  0.00     0.167 HD
ATOM     23  C   UNL A   1      37.261  32.103  29.871  1.00  0.00     0.031 A 
ATOM     24  C   UNL A   1      42.861  29.365  33.000  1.00  0.00     0.031 A 
ATOM     25  C   UNL A   1      37.776  32.860  30.975  1.00  0.00     0.049 A 
ATOM     26  C   UNL A   1      42.207  30.590  33.547  1.00  0.00     0.074 A 
ATOM     27  C   UNL A   1      37.332  34.071  31.472  1.00  0.00     0.029 A 
ATOM     28  N   UNL A   1      38.870  32.488  31.749  1.00  0.00    -0.354 N 
ATOM     29  N   UNL A   1      41.165  31.227  33.074  1.00  0.00    -0.248 NA
ATOM     30  C   UNL A   1      42.818  31.207  34.729  1.00  0.00     0.031 C 
ATOM     31  C   UNL A   1      38.171  34.444  32.530  1.00  0.00     0.029 A 
ATOM     32  C   UNL A   1      39.108  33.443  32.727  1.00  0.00     0.049 A 
ATOM     33  H   UNL A   1      39.399  31.668  31.621  1.00  0.00     0.167 HD
ATOM     34  C   UNL A   1      41.012  32.339  33.877  1.00  0.00     0.074 A 
ATOM     35  C   UNL A   1      42.025  32.251  34.914  1.00  0.00     0.031 C 
ATOM     36  C   UNL A   1      40.132  33.359  33.738  1.00  0.00     0.031 A 
BRANCH  23  37
ATOM     37  C   UNL A   1      36.082  32.583  29.085  1.00  0.00    -0.014 A 
ATOM     38  C   UNL A   1      36.127  33.836  28.445  1.00  0.00     0.009 A 
ATOM     39  C   UNL A   1      34.876  31.874  29.125  1.00  0.00     0.009 A 
ATOM     40  C   UNL A   1      34.965  34.402  27.925  1.00  0.00     0.001 A 
ATOM     41  C   UNL A   1      33.723  32.429  28.571  1.00  0.00     0.001 A 
ATOM     42  C   UNL A   1      33.764  33.698  27.990  1.00  0.00     0.000 A 
ENDBRANCH  23  37
BRANCH  24  43
ATOM     43  C   UNL A   1      44.019  28.723  33.704  1.00  0.00    -0.014 A 
ATOM     44  C   UNL A   1      43.794  27.706  34.654  1.00  0.00     0.009 A 
ATOM     45  C   UNL A   1      45.349  29.095  33.451  1.00  0.00     0.009 A 
ATOM     46  C   UNL A   1      44.857  27.099  35.332  1.00  0.00     0.001 A 
ATOM     47  C   UNL A   1      46.415  28.449  34.090  1.00  0.00     0.001 A 
ATOM     48  C   UNL A   1      46.169  27.460  35.039  1.00  0.00     0.000 A 
ENDBRANCH  24  43
BRANCH  36  49
ATOM     49  C   UNL A   1      40.235  34.444  34.764  1.00  0.00    -0.014 A 
ATOM     50  C   UNL A   1      41.077  35.552  34.573  1.00  0.00     0.009 A 
ATOM     51  C   UNL A   1      39.520  34.324  35.963  1.00  0.00     0.009 A 
ATOM     52  C   UNL A   1      41.243  36.491  35.591  1.00  0.00     0.001 A 
ATOM     53  C   UNL A   1      39.664  35.280  36.966  1.00  0.00     0.001 A 
ATOM     54  C   UNL A   1      40.537  36.353  36.786  1.00  0.00     0.000 A 
ENDBRANCH  36  49
ENDBRANCH  10  11
ENDBRANCH   3   5
ENDBRANCH   2   3
ENDBRANCH   1   2
BRANCH   1  55
ATOM     55  C   UNL A   1      35.953  22.840  24.180  1.00  0.00     0.274 C 
BRANCH  55  56
ATOM     56  O   UNL A   1      35.732  23.620  22.999  1.00  0.00    -0.458 OA
BRANCH  56  57
ATOM     57  C   UNL A   1      34.440  24.020  22.738  1.00  0.00     0.365 C 
ATOM     58  O   UNL A   1      33.642  23.386  22.066  1.00  0.00    -0.245 OA
BRANCH  57  59
ATOM     59  C   UNL A   1      34.170  25.427  23.328  1.00  0.00     0.295 C 
ATOM     60  C   UNL A   1      33.481  26.278  22.261  1.00  0.00     0.078 C 
ATOM     61  N   UNL A   1      33.485  25.419  24.671  1.00  0.00    -0.313 N 
ATOM     62  C   UNL A   1      33.183  27.710  22.626  1.00  0.00     0.016 C 
ATOM     63  C   UNL A   1      33.116  26.818  25.058  1.00  0.00     0.188 C 
ATOM     64  H   UNL A   1      34.144  25.107  25.385  1.00  0.00     0.349 HD
ATOM     65  C   UNL A   1      33.473  27.991  24.079  1.00  0.00     0.048 C 
ATOM     66  C   UNL A   1      33.794  27.248  26.377  1.00  0.00     0.065 C 
ATOM     67  C   UNL A   1      32.751  29.280  24.519  1.00  0.00     0.010 C 
ATOM     68  C   UNL A   1      33.159  28.544  26.916  1.00  0.00     0.006 C 
ATOM     69  C   UNL A   1      33.179  29.701  25.916  1.00  0.00     0.001 C 
BRANCH  61  70
ATOM     70  C   UNL A   1      32.413  24.350  24.810  1.00  0.00     0.244 C 
ATOM     71  C   UNL A   1      31.117  24.747  25.554  1.00  0.00     0.328 C 
ATOM     72  C   UNL A   1      32.746  22.898  25.312  1.00  0.00     0.064 C 
ATOM     73  N   UNL A   1      30.830  23.907  26.745  1.00  0.00    -0.330 N 
ATOM     74  C   UNL A   1      31.417  22.052  25.245  1.00  0.00     0.071 C 
ATOM     75  C   UNL A   1      33.122  22.883  26.785  1.00  0.00     0.071 C 
ATOM     76  C   UNL A   1      30.376  22.601  26.246  1.00  0.00     0.262 C 
ATOM     77  C   UNL A   1      32.049  23.651  27.554  1.00  0.00     0.262 C 
ATOM     78  H   UNL A   1      30.143  24.389  27.325  1.00  0.00     0.348 HD
ENDBRANCH  61  70
ENDBRANCH  57  59
ENDBRANCH  56  57
ENDBRANCH  55  56
ENDBRANCH   1  55
TORSDOF 12
ENDMDL
MODEL 2
REMARK VINA RESULT:     -10.8      4.378      8.824
REMARK SMILES O=C(OCCOC(=O)[C@H]1CC[C@H]2CCCC[C@@H]2[N@H+]1[C@@H]1C[N@H+]2CC[C@@H]1CC2)c1ccc(-c2c3nc(c(-c4ccccc4)c4ccc([nH]4)c(-c4ccccc4)c4nc(c(-c5ccccc5)c5ccc2[nH]5)C=C4)C=C3)cc1
REMARK SMILES IDX 4 1 3 2 2 3 1 4 27 5 28 6 74 7 29 8 73 9 30 10 31 11 32 12
REMARK SMILES IDX 67 13 33 14 72 15 66 16 68 17 34 18 71 19 65 20 64 21 35 23
REMARK SMILES IDX 57 24 42 25 56 26 43 27 46 28 55 29 69 30 44 31 45 32 54 34
REMARK SMILES IDX 70 35 47 36 36 37 37 38 41 39 38 40 40 41 39 42 58 43 59 44
REMARK SMILES IDX 63 45 60 46 62 47 61 48 48 49 49 50 53 51 50 52 52 53 51 54
REMARK SMILES IDX 5 55 6 56 7 57 8 58 9 59 10 60 18 61 11 62 17 63 12 65 16 66
REMARK SMILES IDX 13 67 15 68 14 69 19 70 20 71 24 72 21 73 25 74 23 75 26 76
REMARK SMILES IDX 22 77
REMARK H PARENT 68 22 46 33 18 64 21 78
REMARK Flexibility Score: inf
ROOT
ATOM      1  C   UNL A   1      32.697  29.924  27.167  1.00  0.00     0.275 C 
ENDROOT
BRANCH   1   2
ATOM      2  O   UNL A   1      34.001  29.550  27.644  1.00  0.00    -0.458 OA
BRANCH   2   3
ATOM      3  C   UNL A   1      34.969  30.258  28.270  1.00  0.00     0.338 C 
ATOM      4  O   UNL A   1      34.653  31.367  28.707  1.00  0.00    -0.246 OA
BRANCH   3   5
ATOM      5  C   UNL A   1      36.417  29.857  28.422  1.00  0.00     0.060 A 
ATOM      6  C   UNL A   1      37.044  29.319  29.549  1.00  0.00     0.016 A 
ATOM      7  C   UNL A   1      37.205  29.959  27.252  1.00  0.00     0.016 A 
ATOM      8  C   UNL A   1      38.369  28.829  29.490  1.00  0.00     0.010 A 
ATOM      9  C   UNL A   1      38.515  29.453  27.185  1.00  0.00     0.010 A 
ATOM     10  C   UNL A   1      39.115  28.865  28.304  1.00  0.00    -0.014 A 
BRANCH  10  11
ATOM     11  C   UNL A   1      40.547  28.437  28.300  1.00  0.00     0.031 A 
ATOM     12  C   UNL A   1      40.872  27.028  27.969  1.00  0.00     0.074 A 
ATOM     13  C   UNL A   1      41.586  29.227  28.634  1.00  0.00     0.049 A 
ATOM     14  N   UNL A   1      42.049  26.488  27.810  1.00  0.00    -0.248 NA
ATOM     15  C   UNL A   1      39.741  26.096  27.896  1.00  0.00     0.031 C 
ATOM     16  C   UNL A   1      41.438  30.499  29.287  1.00  0.00     0.029 A 
ATOM     17  N   UNL A   1      42.956  29.099  28.521  1.00  0.00    -0.354 N 
ATOM     18  C   UNL A   1      41.803  25.144  27.631  1.00  0.00     0.074 A 
ATOM     19  C   UNL A   1      40.375  24.945  27.774  1.00  0.00     0.031 C 
ATOM     20  C   UNL A   1      42.625  31.096  29.415  1.00  0.00     0.029 A 
ATOM     21  C   UNL A   1      43.643  30.257  28.840  1.00  0.00     0.049 A 
ATOM     22  H   UNL A   1      43.400  28.266  28.242  1.00  0.00     0.167 HD
ATOM     23  C   UNL A   1      42.689  24.164  27.351  1.00  0.00     0.031 A 
ATOM     24  C   UNL A   1      44.930  30.633  28.687  1.00  0.00     0.031 A 
ATOM     25  C   UNL A   1      44.111  24.344  27.291  1.00  0.00     0.049 A 
ATOM     26  C   UNL A   1      45.886  29.571  28.257  1.00  0.00     0.074 A 
ATOM     27  C   UNL A   1      45.090  23.400  27.041  1.00  0.00     0.029 A 
ATOM     28  N   UNL A   1      44.767  25.552  27.503  1.00  0.00    -0.354 N 
ATOM     29  N   UNL A   1      45.627  28.317  27.981  1.00  0.00    -0.248 NA
ATOM     30  C   UNL A   1      47.304  29.936  28.176  1.00  0.00     0.031 C 
ATOM     31  C   UNL A   1      46.338  24.031  27.125  1.00  0.00     0.029 A 
ATOM     32  C   UNL A   1      46.138  25.378  27.378  1.00  0.00     0.049 A 
ATOM     33  H   UNL A   1      44.324  26.405  27.713  1.00  0.00     0.167 HD
ATOM     34  C   UNL A   1      46.851  27.731  27.727  1.00  0.00     0.074 A 
ATOM     35  C   UNL A   1      47.846  28.785  27.809  1.00  0.00     0.031 C 
ATOM     36  C   UNL A   1      47.121  26.426  27.486  1.00  0.00     0.031 A 
BRANCH  23  37
ATOM     37  C   UNL A   1      42.067  22.824  27.117  1.00  0.00    -0.014 A 
ATOM     38  C   UNL A   1      41.431  22.548  25.892  1.00  0.00     0.009 A 
ATOM     39  C   UNL A   1      41.965  21.905  28.167  1.00  0.00     0.009 A 
ATOM     40  C   UNL A   1      40.640  21.410  25.751  1.00  0.00     0.001 A 
ATOM     41  C   UNL A   1      41.202  20.749  28.008  1.00  0.00     0.001 A 
ATOM     42  C   UNL A   1      40.525  20.512  26.810  1.00  0.00     0.000 A 
ENDBRANCH  23  37
BRANCH  24  43
ATOM     43  C   UNL A   1      45.385  32.045  28.906  1.00  0.00    -0.014 A 
ATOM     44  C   UNL A   1      45.859  32.447  30.171  1.00  0.00     0.009 A 
ATOM     45  C   UNL A   1      45.363  33.005  27.882  1.00  0.00     0.009 A 
ATOM     46  C   UNL A   1      46.280  33.763  30.403  1.00  0.00     0.001 A 
ATOM     47  C   UNL A   1      45.836  34.306  28.100  1.00  0.00     0.001 A 
ATOM     48  C   UNL A   1      46.282  34.688  29.363  1.00  0.00     0.000 A 
ENDBRANCH  24  43
BRANCH  36  49
ATOM     49  C   UNL A   1      48.566  26.096  27.274  1.00  0.00    -0.014 A 
ATOM     50  C   UNL A   1      49.166  26.223  26.010  1.00  0.00     0.009 A 
ATOM     51  C   UNL A   1      49.319  25.597  28.344  1.00  0.00     0.009 A 
ATOM     52  C   UNL A   1      50.481  25.802  25.811  1.00  0.00     0.001 A 
ATOM     53  C   UNL A   1      50.642  25.206  28.150  1.00  0.00     0.001 A 
ATOM     54  C   UNL A   1      51.216  25.293  26.882  1.00  0.00     0.000 A 
ENDBRANCH  36  49
ENDBRANCH  10  11
ENDBRANCH   3   5
ENDBRANCH   2   3
ENDBRANCH   1   2
BRANCH   1  55
ATOM     55  C   UNL A   1      31.830  28.728  26.772  1.00  0.00     0.274 C 
BRANCH  55  56
ATOM     56  O   UNL A   1      32.552  27.495  26.876  1.00  0.00    -0.458 OA
BRANCH  56  57
ATOM     57  C   UNL A   1      31.846  26.330  26.674  1.00  0.00     0.365 C 
ATOM     58  O   UNL A   1      30.633  26.230  26.772  1.00  0.00    -0.245 OA
BRANCH  57  59
ATOM     59  C   UNL A   1      32.806  25.144  26.406  1.00  0.00     0.295 C 
ATOM     60  C   UNL A   1      32.130  23.855  26.875  1.00  0.00     0.078 C 
ATOM     61  N   UNL A   1      33.360  25.094  25.005  1.00  0.00    -0.313 N 
ATOM     62  C   UNL A   1      32.934  22.585  26.750  1.00  0.00     0.016 C 
ATOM     63  C   UNL A   1      34.125  23.821  24.808  1.00  0.00     0.188 C 
ATOM     64  H   UNL A   1      34.045  25.842  24.885  1.00  0.00     0.349 HD
ATOM     65  C   UNL A   1      34.224  22.809  26.003  1.00  0.00     0.048 C 
ATOM     66  C   UNL A   1      35.604  24.087  24.453  1.00  0.00     0.065 C 
ATOM     67  C   UNL A   1      34.783  21.462  25.504  1.00  0.00     0.010 C 
ATOM     68  C   UNL A   1      36.280  22.800  23.947  1.00  0.00     0.006 C 
ATOM     69  C   UNL A   1      36.179  21.626  24.922  1.00  0.00     0.001 C 
BRANCH  61  70
ATOM     70  C   UNL A   1      32.355  25.478  23.930  1.00  0.00     0.244 C 
ATOM     71  C   UNL A   1      32.456  24.738  22.576  1.00  0.00     0.328 C 
ATOM     72  C   UNL A   1      32.068  26.978  23.557  1.00  0.00     0.064 C 
ATOM     73  N   UNL A   1      32.675  25.640  21.417  1.00  0.00    -0.330 N 
ATOM     74  C   UNL A   1      30.920  26.992  22.476  1.00  0.00     0.071 C 
ATOM     75  C   UNL A   1      33.251  27.620  22.850  1.00  0.00     0.071 C 
ATOM     76  C   UNL A   1      31.403  26.331  21.167  1.00  0.00     0.262 C 
ATOM     77  C   UNL A   1      33.679  26.695  21.712  1.00  0.00     0.262 C 
ATOM     78  H   UNL A   1      33.005  25.082  20.629  1.00  0.00     0.348 HD
ENDBRANCH  61  70
ENDBRANCH  57  59
ENDBRANCH  56  57
ENDBRANCH  55  56
ENDBRANCH   1  55
TORSDOF 12
ENDMDL
MODEL 3
REMARK VINA RESULT:     -10.7      5.290     10.712
REMARK SMILES O=C(OCCOC(=O)[C@H]1CC[C@H]2CCCC[C@@H]2[N@H+]1[C@@H]1C[N@H+]2CC[C@@H]1CC2)c1ccc(-c2c3nc(c(-c4ccccc4)c4ccc([nH]4)c(-c4ccccc4)c4nc(c(-c5ccccc5)c5ccc2[nH]5)C=C4)C=C3)cc1
REMARK SMILES IDX 4 1 3 2 2 3 1 4 27 5 28 6 74 7 29 8 73 9 30 10 31 11 32 12
REMARK SMILES IDX 67 13 33 14 72 15 66 16 68 17 34 18 71 19 65 20 64 21 35 23
REMARK SMILES IDX 57 24 42 25 56 26 43 27 46 28 55 29 69 30 44 31 45 32 54 34
REMARK SMILES IDX 70 35 47 36 36 37 37 38 41 39 38 40 40 41 39 42 58 43 59 44
REMARK SMILES IDX 63 45 60 46 62 47 61 48 48 49 49 50 53 51 50 52 52 53 51 54
REMARK SMILES IDX 5 55 6 56 7 57 8 58 9 59 10 60 18 61 11 62 17 63 12 65 16 66
REMARK SMILES IDX 13 67 15 68 14 69 19 70 20 71 24 72 21 73 25 74 23 75 26 76
REMARK SMILES IDX 22 77
REMARK H PARENT 68 22 46 33 18 64 21 78
REMARK Flexibility Score: inf
ROOT
ATOM      1  C   UNL A   1      34.475  30.878  27.250  1.00  0.00     0.275 C 
ENDROOT
BRANCH   1   2
ATOM      2  O   UNL A   1      34.753  29.859  28.225  1.00  0.00    -0.458 OA
BRANCH   2   3
ATOM      3  C   UNL A   1      35.776  29.701  29.096  1.00  0.00     0.338 C 
ATOM      4  O   UNL A   1      35.541  29.945  30.281  1.00  0.00    -0.246 OA
BRANCH   3   5
ATOM      5  C   UNL A   1      37.198  29.326  28.750  1.00  0.00     0.060 A 
ATOM      6  C   UNL A   1      37.890  29.592  27.566  1.00  0.00     0.016 A 
ATOM      7  C   UNL A   1      37.937  28.711  29.787  1.00  0.00     0.016 A 
ATOM      8  C   UNL A   1      39.275  29.333  27.450  1.00  0.00     0.010 A 
ATOM      9  C   UNL A   1      39.319  28.473  29.682  1.00  0.00     0.010 A 
ATOM     10  C   UNL A   1      40.015  28.794  28.511  1.00  0.00    -0.014 A 
BRANCH  10  11
ATOM     11  C   UNL A   1      41.453  28.434  28.323  1.00  0.00     0.031 A 
ATOM     12  C   UNL A   1      41.800  27.037  27.963  1.00  0.00     0.074 A 
ATOM     13  C   UNL A   1      42.487  29.277  28.512  1.00  0.00     0.049 A 
ATOM     14  N   UNL A   1      42.971  26.551  27.655  1.00  0.00    -0.248 NA
ATOM     15  C   UNL A   1      40.716  26.052  28.046  1.00  0.00     0.031 C 
ATOM     16  C   UNL A   1      42.364  30.549  29.169  1.00  0.00     0.029 A 
ATOM     17  N   UNL A   1      43.836  29.212  28.221  1.00  0.00    -0.354 N 
ATOM     18  C   UNL A   1      42.770  25.195  27.519  1.00  0.00     0.074 A 
ATOM     19  C   UNL A   1      41.384  24.930  27.850  1.00  0.00     0.031 C 
ATOM     20  C   UNL A   1      43.527  31.203  29.136  1.00  0.00     0.029 A 
ATOM     21  C   UNL A   1      44.501  30.405  28.438  1.00  0.00     0.049 A 
ATOM     22  H   UNL A   1      44.279  28.397  27.893  1.00  0.00     0.167 HD
ATOM     23  C   UNL A   1      43.658  24.254  27.133  1.00  0.00     0.031 A 
ATOM     24  C   UNL A   1      45.737  30.839  28.116  1.00  0.00     0.031 A 
ATOM     25  C   UNL A   1      45.050  24.500  26.886  1.00  0.00     0.049 A 
ATOM     26  C   UNL A   1      46.679  29.818  27.572  1.00  0.00     0.074 A 
ATOM     27  C   UNL A   1      46.032  23.600  26.517  1.00  0.00     0.029 A 
ATOM     28  N   UNL A   1      45.668  25.740  27.001  1.00  0.00    -0.354 N 
ATOM     29  N   UNL A   1      46.448  28.549  27.342  1.00  0.00    -0.248 NA
ATOM     30  C   UNL A   1      48.055  30.248  27.303  1.00  0.00     0.031 C 
ATOM     31  C   UNL A   1      47.248  24.290  26.432  1.00  0.00     0.029 A 
ATOM     32  C   UNL A   1      47.018  25.629  26.699  1.00  0.00     0.049 A 
ATOM     33  H   UNL A   1      45.215  26.575  27.261  1.00  0.00     0.167 HD
ATOM     34  C   UNL A   1      47.655  28.018  26.934  1.00  0.00     0.074 A 
ATOM     35  C   UNL A   1      48.600  29.119  26.876  1.00  0.00     0.031 C 
ATOM     36  C   UNL A   1      47.954  26.725  26.669  1.00  0.00     0.031 A 
BRANCH  23  37
ATOM     37  C   UNL A   1      43.077  22.883  26.992  1.00  0.00    -0.014 A 
ATOM     38  C   UNL A   1      42.560  22.462  25.753  1.00  0.00     0.009 A 
ATOM     39  C   UNL A   1      42.889  22.082  28.124  1.00  0.00     0.009 A 
ATOM     40  C   UNL A   1      41.800  21.297  25.667  1.00  0.00     0.001 A 
ATOM     41  C   UNL A   1      42.158  20.898  28.025  1.00  0.00     0.001 A 
ATOM     42  C   UNL A   1      41.598  20.518  26.804  1.00  0.00     0.000 A 
ENDBRANCH  23  37
BRANCH  24  43
ATOM     43  C   UNL A   1      46.148  32.274  28.262  1.00  0.00    -0.014 A 
ATOM     44  C   UNL A   1      46.759  32.717  29.453  1.00  0.00     0.009 A 
ATOM     45  C   UNL A   1      45.950  33.217  27.241  1.00  0.00     0.009 A 
ATOM     46  C   UNL A   1      47.141  34.053  29.618  1.00  0.00     0.001 A 
ATOM     47  C   UNL A   1      46.383  34.541  27.386  1.00  0.00     0.001 A 
ATOM     48  C   UNL A   1      46.967  34.962  28.578  1.00  0.00     0.000 A 
ENDBRANCH  24  43
BRANCH  36  49
ATOM     49  C   UNL A   1      49.374  26.460  26.271  1.00  0.00    -0.014 A 
ATOM     50  C   UNL A   1      49.821  26.696  24.961  1.00  0.00     0.009 A 
ATOM     51  C   UNL A   1      50.258  25.913  27.210  1.00  0.00     0.009 A 
ATOM     52  C   UNL A   1      51.115  26.336  24.585  1.00  0.00     0.001 A 
ATOM     53  C   UNL A   1      51.560  25.582  26.840  1.00  0.00     0.001 A 
ATOM     54  C   UNL A   1      51.982  25.778  25.525  1.00  0.00     0.000 A 
ENDBRANCH  36  49
ENDBRANCH  10  11
ENDBRANCH   3   5
ENDBRANCH   2   3
ENDBRANCH   1   2
BRANCH   1  55
ATOM     55  C   UNL A   1      33.500  31.945  27.750  1.00  0.00     0.274 C 
BRANCH  55  56
ATOM     56  O   UNL A   1      34.038  32.673  28.861  1.00  0.00    -0.458 OA
BRANCH  56  57
ATOM     57  C   UNL A   1      35.134  33.472  28.623  1.00  0.00     0.365 C 
ATOM     58  O   UNL A   1      35.142  34.426  27.861  1.00  0.00    -0.245 OA
BRANCH  57  59
ATOM     59  C   UNL A   1      36.378  32.937  29.374  1.00  0.00     0.295 C 
ATOM     60  C   UNL A   1      37.611  33.689  28.871  1.00  0.00     0.078 C 
ATOM     61  N   UNL A   1      36.231  32.895  30.874  1.00  0.00    -0.313 N 
ATOM     62  C   UNL A   1      38.941  33.269  29.446  1.00  0.00     0.016 C 
ATOM     63  C   UNL A   1      37.543  32.536  31.502  1.00  0.00     0.188 C 
ATOM     64  H   UNL A   1      35.594  32.141  31.131  1.00  0.00     0.349 HD
ATOM     65  C   UNL A   1      38.778  32.277  30.570  1.00  0.00     0.048 C 
ATOM     66  C   UNL A   1      37.449  31.233  32.325  1.00  0.00     0.065 C 
ATOM     67  C   UNL A   1      40.068  32.221  31.412  1.00  0.00     0.010 C 
ATOM     68  C   UNL A   1      38.698  31.059  33.209  1.00  0.00     0.006 C 
ATOM     69  C   UNL A   1      40.014  31.091  32.429  1.00  0.00     0.001 C 
BRANCH  61  70
ATOM     70  C   UNL A   1      35.483  34.085  31.454  1.00  0.00     0.244 C 
ATOM     71  C   UNL A   1      36.251  34.977  32.457  1.00  0.00     0.328 C 
ATOM     72  C   UNL A   1      34.036  33.947  32.051  1.00  0.00     0.064 C 
ATOM     73  N   UNL A   1      35.602  35.073  33.790  1.00  0.00    -0.330 N 
ATOM     74  C   UNL A   1      33.552  35.388  32.473  1.00  0.00     0.071 C 
ATOM     75  C   UNL A   1      34.035  33.160  33.352  1.00  0.00     0.071 C 
ATOM     76  C   UNL A   1      34.420  35.932  33.628  1.00  0.00     0.262 C 
ATOM     77  C   UNL A   1      35.105  33.756  34.265  1.00  0.00     0.262 C 
ATOM     78  H   UNL A   1      36.284  35.430  34.459  1.00  0.00     0.348 HD
ENDBRANCH  61  70
ENDBRANCH  57  59
ENDBRANCH  56  57
ENDBRANCH  55  56
ENDBRANCH   1  55
TORSDOF 12
ENDMDL
