MODEL 1
REMARK VINA RESULT:     -10.3      0.000      0.000
REMARK SMILES COc1c(N)cc(-c2ccccc2)cc1C(=O)OCCOC(=O)c1ccc(-c2c3nc(c(-c4ccccc4)c4ccc([nH]4)c(-c4ccccc4)c4nc(c(-c5ccccc5)c5ccc2[nH]5)C=C4)C=C3)cc1
REMARK SMILES IDX 20 1 19 2 18 3 16 4 17 5 15 6 3 7 4 8 6 9 14 10 7 11 2 12
REMARK SMILES IDX 1 13 5 14 8 17 9 18 13 19 10 20 12 21 11 22 21 23 22 24
REMARK SMILES IDX 23 25 24 26 25 27 71 28 26 29 70 30 27 31 28 32 29 33 64 34
REMARK SMILES IDX 30 35 69 36 63 37 65 38 31 39 68 40 62 41 61 42 32 44 54 45
REMARK SMILES IDX 39 46 53 47 40 48 43 49 52 50 66 51 41 52 42 53 51 55 67 56
REMARK SMILES IDX 44 57 33 58 34 59 38 60 35 61 37 62 36 63 55 64 56 65 60 66
REMARK SMILES IDX 57 67 59 68 58 69 45 70 46 71 50 72 47 73 49 74 48 75
REMARK H PARENT 5 15 5 16 65 43 43 54
REMARK Flexibility Score: inf
ROOT
ATOM      1  C   UNL A   1      33.044  30.367  27.247  1.00  0.00     0.275 C 
ENDROOT
BRANCH   1   2
ATOM      2  C   UNL A   1      32.974  29.703  25.874  1.00  0.00     0.275 C 
BRANCH   2   3
ATOM      3  O   UNL A   1      33.844  28.555  25.820  1.00  0.00    -0.458 OA
BRANCH   3   4
ATOM      4  C   UNL A   1      33.615  27.680  24.806  1.00  0.00     0.342 C 
ATOM      5  O   UNL A   1      33.674  27.920  23.614  1.00  0.00    -0.246 OA
BRANCH   4   6
ATOM      6  C   UNL A   1      33.424  26.308  25.329  1.00  0.00     0.104 A 
ATOM      7  C   UNL A   1      32.242  25.870  25.928  1.00  0.00     0.156 A 
ATOM      8  C   UNL A   1      32.108  24.519  26.311  1.00  0.00     0.076 A 
ATOM      9  C   UNL A   1      33.222  23.672  26.230  1.00  0.00     0.038 A 
ATOM     10  C   UNL A   1      34.487  25.408  25.159  1.00  0.00     0.028 A 
ATOM     11  C   UNL A   1      34.423  24.099  25.647  1.00  0.00    -0.015 A 
BRANCH   7  12
ATOM     12  O   UNL A   1      31.162  26.715  26.020  1.00  0.00    -0.494 OA
ATOM     13  C   UNL A   1      30.453  26.767  24.779  1.00  0.00     0.278 C 
ENDBRANCH   7  12
BRANCH   8  14
ATOM     14  N   UNL A   1      30.924  24.042  26.876  1.00  0.00    -0.396 N 
ATOM     15  H   UNL A   1      30.607  24.405  27.734  1.00  0.00     0.156 HD
ATOM     16  H   UNL A   1      30.408  23.341  26.416  1.00  0.00     0.156 HD
ENDBRANCH   8  14
BRANCH  11  17
ATOM     17  C   UNL A   1      35.584  23.208  25.516  1.00  0.00    -0.018 A 
ATOM     18  C   UNL A   1      36.874  23.656  25.835  1.00  0.00     0.009 A 
ATOM     19  C   UNL A   1      35.426  21.873  25.105  1.00  0.00     0.009 A 
ATOM     20  C   UNL A   1      37.972  22.796  25.751  1.00  0.00     0.001 A 
ATOM     21  C   UNL A   1      36.524  21.012  25.021  1.00  0.00     0.001 A 
ATOM     22  C   UNL A   1      37.797  21.475  25.345  1.00  0.00     0.000 A 
ENDBRANCH  11  17
ENDBRANCH   4   6
ENDBRANCH   3   4
ENDBRANCH   2   3
ENDBRANCH   1   2
BRANCH   1  23
ATOM     23  O   UNL A   1      34.236  31.166  27.330  1.00  0.00    -0.458 OA
BRANCH  23  24
ATOM     24  C   UNL A   1      34.818  31.236  28.546  1.00  0.00     0.338 C 
ATOM     25  O   UNL A   1      34.418  31.831  29.536  1.00  0.00    -0.246 OA
BRANCH  24  26
ATOM     26  C   UNL A   1      36.054  30.440  28.547  1.00  0.00     0.060 A 
ATOM     27  C   UNL A   1      36.523  29.914  29.747  1.00  0.00     0.016 A 
ATOM     28  C   UNL A   1      36.824  30.334  27.391  1.00  0.00     0.016 A 
ATOM     29  C   UNL A   1      37.810  29.384  29.828  1.00  0.00     0.010 A 
ATOM     30  C   UNL A   1      38.070  29.700  27.449  1.00  0.00     0.010 A 
ATOM     31  C   UNL A   1      38.603  29.264  28.678  1.00  0.00    -0.014 A 
BRANCH  31  32
ATOM     32  C   UNL A   1      40.000  28.739  28.759  1.00  0.00     0.031 A 
ATOM     33  C   UNL A   1      41.125  29.644  29.199  1.00  0.00     0.074 A 
ATOM     34  C   UNL A   1      40.279  27.456  28.448  1.00  0.00     0.049 A 
ATOM     35  N   UNL A   1      42.418  29.439  29.160  1.00  0.00    -0.248 NA
ATOM     36  C   UNL A   1      40.748  30.962  29.738  1.00  0.00     0.031 C 
ATOM     37  C   UNL A   1      39.302  26.440  28.053  1.00  0.00     0.029 A 
ATOM     38  N   UNL A   1      41.478  26.784  28.429  1.00  0.00    -0.354 N 
ATOM     39  C   UNL A   1      43.006  30.624  29.590  1.00  0.00     0.074 A 
ATOM     40  C   UNL A   1      41.930  31.540  29.897  1.00  0.00     0.031 C 
ATOM     41  C   UNL A   1      39.930  25.266  27.885  1.00  0.00     0.029 A 
ATOM     42  C   UNL A   1      41.363  25.463  28.068  1.00  0.00     0.049 A 
ATOM     43  H   UNL A   1      42.338  27.209  28.653  1.00  0.00     0.167 HD
ATOM     44  C   UNL A   1      44.321  30.926  29.711  1.00  0.00     0.031 A 
ATOM     45  C   UNL A   1      42.303  24.519  27.869  1.00  0.00     0.031 A 
ATOM     46  C   UNL A   1      45.397  29.998  29.476  1.00  0.00     0.049 A 
ATOM     47  C   UNL A   1      43.754  24.878  28.009  1.00  0.00     0.074 A 
ATOM     48  C   UNL A   1      46.759  30.209  29.602  1.00  0.00     0.029 A 
ATOM     49  N   UNL A   1      45.230  28.679  29.089  1.00  0.00    -0.354 N 
ATOM     50  N   UNL A   1      44.293  26.019  28.360  1.00  0.00    -0.248 NA
ATOM     51  C   UNL A   1      44.727  23.818  27.706  1.00  0.00     0.031 C 
ATOM     52  C   UNL A   1      47.421  29.023  29.263  1.00  0.00     0.029 A 
ATOM     53  C   UNL A   1      46.466  28.065  28.966  1.00  0.00     0.049 A 
ATOM     54  H   UNL A   1      44.363  28.243  28.925  1.00  0.00     0.167 HD
ATOM     55  C   UNL A   1      45.666  25.811  28.332  1.00  0.00     0.074 A 
ATOM     56  C   UNL A   1      45.877  24.431  27.952  1.00  0.00     0.031 C 
ATOM     57  C   UNL A   1      46.663  26.691  28.594  1.00  0.00     0.031 A 
BRANCH  44  58
ATOM     58  C   UNL A   1      44.681  32.338  30.079  1.00  0.00    -0.014 A 
ATOM     59  C   UNL A   1      44.837  33.338  29.108  1.00  0.00     0.009 A 
ATOM     60  C   UNL A   1      44.815  32.679  31.436  1.00  0.00     0.009 A 
ATOM     61  C   UNL A   1      45.148  34.646  29.488  1.00  0.00     0.001 A 
ATOM     62  C   UNL A   1      45.101  33.992  31.813  1.00  0.00     0.001 A 
ATOM     63  C   UNL A   1      45.275  34.973  30.839  1.00  0.00     0.000 A 
ENDBRANCH  44  58
BRANCH  45  64
ATOM     64  C   UNL A   1      41.904  23.143  27.474  1.00  0.00    -0.014 A 
ATOM     65  C   UNL A   1      41.889  22.768  26.121  1.00  0.00     0.009 A 
ATOM     66  C   UNL A   1      41.525  22.201  28.444  1.00  0.00     0.009 A 
ATOM     67  C   UNL A   1      41.488  21.484  25.748  1.00  0.00     0.001 A 
ATOM     68  C   UNL A   1      41.153  20.909  28.069  1.00  0.00     0.001 A 
ATOM     69  C   UNL A   1      41.126  20.554  26.722  1.00  0.00     0.000 A 
ENDBRANCH  45  64
BRANCH  57  70
ATOM     70  C   UNL A   1      48.069  26.170  28.517  1.00  0.00    -0.014 A 
ATOM     71  C   UNL A   1      48.731  25.695  29.659  1.00  0.00     0.009 A 
ATOM     72  C   UNL A   1      48.729  26.136  27.280  1.00  0.00     0.009 A 
ATOM     73  C   UNL A   1      50.042  25.226  29.568  1.00  0.00     0.001 A 
ATOM     74  C   UNL A   1      50.032  25.645  27.188  1.00  0.00     0.001 A 
ATOM     75  C   UNL A   1      50.690  25.199  28.334  1.00  0.00     0.000 A 
ENDBRANCH  57  70
ENDBRANCH  31  32
ENDBRANCH  24  26
ENDBRANCH  23  24
ENDBRANCH   1  23
TORSDOF 14
ENDMDL
MODEL 2
REMARK VINA RESULT:     -10.2      5.133     10.920
REMARK SMILES COc1c(N)cc(-c2ccccc2)cc1C(=O)OCCOC(=O)c1ccc(-c2c3nc(c(-c4ccccc4)c4ccc([nH]4)c(-c4ccccc4)c4nc(c(-c5ccccc5)c5ccc2[nH]5)C=C4)C=C3)cc1
REMARK SMILES IDX 20 1 19 2 18 3 16 4 17 5 15 6 3 7 4 8 6 9 14 10 7 11 2 12
REMARK SMILES IDX 1 13 5 14 8 17 9 18 13 19 10 20 12 21 11 22 21 23 22 24
REMARK SMILES IDX 23 25 24 26 25 27 71 28 26 29 70 30 27 31 28 32 29 33 64 34
REMARK SMILES IDX 30 35 69 36 63 37 65 38 31 39 68 40 62 41 61 42 32 44 54 45
REMARK SMILES IDX 39 46 53 47 40 48 43 49 52 50 66 51 41 52 42 53 51 55 67 56
REMARK SMILES IDX 44 57 33 58 34 59 38 60 35 61 37 62 36 63 55 64 56 65 60 66
REMARK SMILES IDX 57 67 59 68 58 69 45 70 46 71 50 72 47 73 49 74 48 75
REMARK H PARENT 5 15 5 16 65 43 43 54
REMARK Flexibility Score: inf
ROOT
ATOM      1  C   UNL A   1      45.035  22.866  24.668  1.00  0.00     0.275 C 
ENDROOT
BRANCH   1   2
ATOM      2  C   UNL A   1      45.773  22.647  25.986  1.00  0.00     0.275 C 
BRANCH   2   3
ATOM      3  O   UNL A   1      45.652  23.806  26.835  1.00  0.00    -0.458 OA
BRANCH   3   4
ATOM      4  C   UNL A   1      46.763  24.579  26.950  1.00  0.00     0.342 C 
ATOM      5  O   UNL A   1      47.887  24.198  27.219  1.00  0.00    -0.246 OA
BRANCH   4   6
ATOM      6  C   UNL A   1      46.476  25.974  26.546  1.00  0.00     0.104 A 
ATOM      7  C   UNL A   1      46.650  26.450  25.245  1.00  0.00     0.156 A 
ATOM      8  C   UNL A   1      46.260  27.765  24.921  1.00  0.00     0.076 A 
ATOM      9  C   UNL A   1      45.851  28.630  25.947  1.00  0.00     0.038 A 
ATOM     10  C   UNL A   1      45.959  26.829  27.530  1.00  0.00     0.028 A 
ATOM     11  C   UNL A   1      45.686  28.175  27.262  1.00  0.00    -0.015 A 
BRANCH   7  12
ATOM     12  O   UNL A   1      47.070  25.598  24.251  1.00  0.00    -0.494 OA
ATOM     13  C   UNL A   1      48.471  25.754  24.010  1.00  0.00     0.278 C 
ENDBRANCH   7  12
BRANCH   8  14
ATOM     14  N   UNL A   1      46.385  28.257  23.620  1.00  0.00    -0.396 N 
ATOM     15  H   UNL A   1      46.820  29.125  23.462  1.00  0.00     0.156 HD
ATOM     16  H   UNL A   1      46.036  27.735  22.862  1.00  0.00     0.156 HD
ENDBRANCH   8  14
BRANCH  11  17
ATOM     17  C   UNL A   1      45.217  29.058  28.338  1.00  0.00    -0.018 A 
ATOM     18  C   UNL A   1      44.048  29.818  28.186  1.00  0.00     0.009 A 
ATOM     19  C   UNL A   1      45.906  29.133  29.561  1.00  0.00     0.009 A 
ATOM     20  C   UNL A   1      43.579  30.625  29.227  1.00  0.00     0.001 A 
ATOM     21  C   UNL A   1      45.437  29.940  30.602  1.00  0.00     0.001 A 
ATOM     22  C   UNL A   1      44.273  30.686  30.433  1.00  0.00     0.000 A 
ENDBRANCH  11  17
ENDBRANCH   4   6
ENDBRANCH   3   4
ENDBRANCH   2   3
ENDBRANCH   1   2
BRANCH   1  23
ATOM     23  O   UNL A   1      44.032  23.881  24.845  1.00  0.00    -0.458 OA
BRANCH  23  24
ATOM     24  C   UNL A   1      42.850  23.463  25.343  1.00  0.00     0.338 C 
ATOM     25  O   UNL A   1      42.286  22.396  25.143  1.00  0.00    -0.246 OA
BRANCH  24  26
ATOM     26  C   UNL A   1      42.296  24.496  26.231  1.00  0.00     0.060 A 
ATOM     27  C   UNL A   1      42.672  25.824  26.046  1.00  0.00     0.016 A 
ATOM     28  C   UNL A   1      41.520  24.137  27.330  1.00  0.00     0.016 A 
ATOM     29  C   UNL A   1      42.376  26.779  27.017  1.00  0.00     0.010 A 
ATOM     30  C   UNL A   1      41.127  25.119  28.246  1.00  0.00     0.010 A 
ATOM     31  C   UNL A   1      41.593  26.443  28.132  1.00  0.00    -0.014 A 
BRANCH  31  32
ATOM     32  C   UNL A   1      41.307  27.447  29.200  1.00  0.00     0.031 A 
ATOM     33  C   UNL A   1      42.164  27.496  30.442  1.00  0.00     0.074 A 
ATOM     34  C   UNL A   1      40.290  28.324  29.076  1.00  0.00     0.049 A 
ATOM     35  N   UNL A   1      41.973  28.160  31.556  1.00  0.00    -0.248 NA
ATOM     36  C   UNL A   1      43.389  26.679  30.439  1.00  0.00     0.031 C 
ATOM     37  C   UNL A   1      39.399  28.441  27.920  1.00  0.00     0.029 A 
ATOM     38  N   UNL A   1      39.841  29.297  29.935  1.00  0.00    -0.354 N 
ATOM     39  C   UNL A   1      43.003  27.778  32.409  1.00  0.00     0.074 A 
ATOM     40  C   UNL A   1      43.825  26.836  31.681  1.00  0.00     0.031 C 
ATOM     41  C   UNL A   1      38.550  29.460  28.118  1.00  0.00     0.029 A 
ATOM     42  C   UNL A   1      38.772  30.011  29.450  1.00  0.00     0.049 A 
ATOM     43  H   UNL A   1      40.247  29.468  30.816  1.00  0.00     0.167 HD
ATOM     44  C   UNL A   1      43.241  28.170  33.684  1.00  0.00     0.031 A 
ATOM     45  C   UNL A   1      38.025  30.977  30.019  1.00  0.00     0.031 A 
ATOM     46  C   UNL A   1      42.471  29.160  34.391  1.00  0.00     0.049 A 
ATOM     47  C   UNL A   1      38.307  31.394  31.434  1.00  0.00     0.074 A 
ATOM     48  C   UNL A   1      42.657  29.640  35.676  1.00  0.00     0.029 A 
ATOM     49  N   UNL A   1      41.383  29.837  33.865  1.00  0.00    -0.354 N 
ATOM     50  N   UNL A   1      39.250  30.981  32.244  1.00  0.00    -0.248 NA
ATOM     51  C   UNL A   1      37.407  32.400  32.016  1.00  0.00     0.031 C 
ATOM     52  C   UNL A   1      41.663  30.589  35.939  1.00  0.00     0.029 A 
ATOM     53  C   UNL A   1      40.884  30.727  34.802  1.00  0.00     0.049 A 
ATOM     54  H   UNL A   1      41.019  29.705  32.960  1.00  0.00     0.167 HD
ATOM     55  C   UNL A   1      39.064  31.685  33.427  1.00  0.00     0.074 A 
ATOM     56  C   UNL A   1      37.935  32.566  33.222  1.00  0.00     0.031 C 
ATOM     57  C   UNL A   1      39.766  31.602  34.583  1.00  0.00     0.031 A 
BRANCH  44  58
ATOM     58  C   UNL A   1      44.362  27.496  34.423  1.00  0.00    -0.014 A 
ATOM     59  C   UNL A   1      45.660  28.027  34.442  1.00  0.00     0.009 A 
ATOM     60  C   UNL A   1      44.094  26.328  35.157  1.00  0.00     0.009 A 
ATOM     61  C   UNL A   1      46.674  27.385  35.159  1.00  0.00     0.001 A 
ATOM     62  C   UNL A   1      45.102  25.703  35.893  1.00  0.00     0.001 A 
ATOM     63  C   UNL A   1      46.393  26.229  35.887  1.00  0.00     0.000 A 
ENDBRANCH  44  58
BRANCH  45  64
ATOM     64  C   UNL A   1      36.904  31.594  29.264  1.00  0.00    -0.014 A 
ATOM     65  C   UNL A   1      37.011  32.905  28.776  1.00  0.00     0.009 A 
ATOM     66  C   UNL A   1      35.717  30.880  29.036  1.00  0.00     0.009 A 
ATOM     67  C   UNL A   1      35.947  33.494  28.089  1.00  0.00     0.001 A 
ATOM     68  C   UNL A   1      34.666  31.461  28.323  1.00  0.00     0.001 A 
ATOM     69  C   UNL A   1      34.779  32.770  27.859  1.00  0.00     0.000 A 
ENDBRANCH  45  64
BRANCH  57  70
ATOM     70  C   UNL A   1      39.355  32.521  35.697  1.00  0.00    -0.014 A 
ATOM     71  C   UNL A   1      39.900  33.808  35.816  1.00  0.00     0.009 A 
ATOM     72  C   UNL A   1      38.392  32.097  36.626  1.00  0.00     0.009 A 
ATOM     73  C   UNL A   1      39.512  34.641  36.867  1.00  0.00     0.001 A 
ATOM     74  C   UNL A   1      37.990  32.941  37.662  1.00  0.00     0.001 A 
ATOM     75  C   UNL A   1      38.557  34.209  37.786  1.00  0.00     0.000 A 
ENDBRANCH  57  70
ENDBRANCH  31  32
ENDBRANCH  24  26
ENDBRANCH  23  24
ENDBRANCH   1  23
TORSDOF 14
ENDMDL
MODEL 3
REMARK VINA RESULT:     -10.1      3.686      6.874
REMARK SMILES COc1c(N)cc(-c2ccccc2)cc1C(=O)OCCOC(=O)c1ccc(-c2c3nc(c(-c4ccccc4)c4ccc([nH]4)c(-c4ccccc4)c4nc(c(-c5ccccc5)c5ccc2[nH]5)C=C4)C=C3)cc1
REMARK SMILES IDX 20 1 19 2 18 3 16 4 17 5 15 6 3 7 4 8 6 9 14 10 7 11 2 12
REMARK SMILES IDX 1 13 5 14 8 17 9 18 13 19 10 20 12 21 11 22 21 23 22 24
REMARK SMILES IDX 23 25 24 26 25 27 71 28 26 29 70 30 27 31 28 32 29 33 64 34
REMARK SMILES IDX 30 35 69 36 63 37 65 38 31 39 68 40 62 41 61 42 32 44 54 45
REMARK SMILES IDX 39 46 53 47 40 48 43 49 52 50 66 51 41 52 42 53 51 55 67 56
REMARK SMILES IDX 44 57 33 58 34 59 38 60 35 61 37 62 36 63 55 64 56 65 60 66
REMARK SMILES IDX 57 67 59 68 58 69 45 70 46 71 50 72 47 73 49 74 48 75
REMARK H PARENT 5 15 5 16 65 43 43 54
REMARK Flexibility Score: inf
ROOT
ATOM      1  C   UNL A   1      31.667  29.699  25.184  1.00  0.00     0.275 C 
ENDROOT
BRANCH   1   2
ATOM      2  C   UNL A   1      31.453  28.222  24.860  1.00  0.00     0.275 C 
BRANCH   2   3
ATOM      3  O   UNL A   1      32.695  27.495  24.955  1.00  0.00    -0.458 OA
BRANCH   3   4
ATOM      4  C   UNL A   1      32.629  26.280  25.557  1.00  0.00     0.342 C 
ATOM      5  O   UNL A   1      31.999  26.001  26.560  1.00  0.00    -0.246 OA
BRANCH   4   6
ATOM      6  C   UNL A   1      33.314  25.252  24.742  1.00  0.00     0.104 A 
ATOM      7  C   UNL A   1      32.799  24.749  23.545  1.00  0.00     0.156 A 
ATOM      8  C   UNL A   1      33.560  23.843  22.779  1.00  0.00     0.076 A 
ATOM      9  C   UNL A   1      34.756  23.337  23.308  1.00  0.00     0.038 A 
ATOM     10  C   UNL A   1      34.566  24.811  25.193  1.00  0.00     0.028 A 
ATOM     11  C   UNL A   1      35.281  23.817  24.515  1.00  0.00    -0.015 A 
BRANCH   7  12
ATOM     12  O   UNL A   1      31.615  25.238  23.046  1.00  0.00    -0.494 OA
ATOM     13  C   UNL A   1      30.511  24.448  23.494  1.00  0.00     0.278 C 
ENDBRANCH   7  12
BRANCH   8  14
ATOM     14  N   UNL A   1      33.089  23.353  21.560  1.00  0.00    -0.396 N 
ATOM     15  H   UNL A   1      32.428  23.869  21.045  1.00  0.00     0.156 HD
ATOM     16  H   UNL A   1      33.418  22.491  21.216  1.00  0.00     0.156 HD
ENDBRANCH   8  14
BRANCH  11  17
ATOM     17  C   UNL A   1      36.555  23.327  25.059  1.00  0.00    -0.018 A 
ATOM     18  C   UNL A   1      37.331  24.130  25.907  1.00  0.00     0.009 A 
ATOM     19  C   UNL A   1      37.007  22.027  24.775  1.00  0.00     0.009 A 
ATOM     20  C   UNL A   1      38.521  23.647  26.459  1.00  0.00     0.001 A 
ATOM     21  C   UNL A   1      38.198  21.543  25.326  1.00  0.00     0.001 A 
ATOM     22  C   UNL A   1      38.953  22.355  26.168  1.00  0.00     0.000 A 
ENDBRANCH  11  17
ENDBRANCH   4   6
ENDBRANCH   3   4
ENDBRANCH   2   3
ENDBRANCH   1   2
BRANCH   1  23
ATOM     23  O   UNL A   1      32.033  29.836  26.568  1.00  0.00    -0.458 OA
BRANCH  23  24
ATOM     24  C   UNL A   1      32.546  31.030  26.929  1.00  0.00     0.338 C 
ATOM     25  O   UNL A   1      32.002  32.124  26.885  1.00  0.00    -0.246 OA
BRANCH  24  26
ATOM     26  C   UNL A   1      33.913  30.845  27.438  1.00  0.00     0.060 A 
ATOM     27  C   UNL A   1      34.446  29.561  27.504  1.00  0.00     0.016 A 
ATOM     28  C   UNL A   1      34.612  31.919  27.981  1.00  0.00     0.016 A 
ATOM     29  C   UNL A   1      35.622  29.324  28.214  1.00  0.00     0.010 A 
ATOM     30  C   UNL A   1      35.850  31.696  28.595  1.00  0.00     0.010 A 
ATOM     31  C   UNL A   1      36.347  30.389  28.767  1.00  0.00    -0.014 A 
BRANCH  31  32
ATOM     32  C   UNL A   1      37.584  30.144  29.567  1.00  0.00     0.031 A 
ATOM     33  C   UNL A   1      38.747  29.401  28.956  1.00  0.00     0.074 A 
ATOM     34  C   UNL A   1      37.687  30.582  30.839  1.00  0.00     0.049 A 
ATOM     35  N   UNL A   1      39.826  28.929  29.532  1.00  0.00    -0.248 NA
ATOM     36  C   UNL A   1      38.683  29.138  27.508  1.00  0.00     0.031 C 
ATOM     37  C   UNL A   1      36.677  31.357  31.561  1.00  0.00     0.029 A 
ATOM     38  N   UNL A   1      38.708  30.445  31.749  1.00  0.00    -0.354 N 
ATOM     39  C   UNL A   1      40.522  28.248  28.539  1.00  0.00     0.074 A 
ATOM     40  C   UNL A   1      39.752  28.378  27.320  1.00  0.00     0.031 C 
ATOM     41  C   UNL A   1      37.147  31.671  32.778  1.00  0.00     0.029 A 
ATOM     42  C   UNL A   1      38.452  31.046  32.959  1.00  0.00     0.049 A 
ATOM     43  H   UNL A   1      39.544  29.962  31.554  1.00  0.00     0.167 HD
ATOM     44  C   UNL A   1      41.691  27.570  28.632  1.00  0.00     0.031 A 
ATOM     45  C   UNL A   1      39.165  31.066  34.102  1.00  0.00     0.031 A 
ATOM     46  C   UNL A   1      42.499  27.496  29.822  1.00  0.00     0.049 A 
ATOM     47  C   UNL A   1      40.457  30.306  34.181  1.00  0.00     0.074 A 
ATOM     48  C   UNL A   1      43.713  26.855  30.000  1.00  0.00     0.029 A 
ATOM     49  N   UNL A   1      42.185  28.101  31.027  1.00  0.00    -0.354 N 
ATOM     50  N   UNL A   1      41.071  29.620  33.249  1.00  0.00    -0.248 NA
ATOM     51  C   UNL A   1      41.145  30.310  35.481  1.00  0.00     0.031 C 
ATOM     52  C   UNL A   1      44.121  27.048  31.324  1.00  0.00     0.029 A 
ATOM     53  C   UNL A   1      43.180  27.843  31.956  1.00  0.00     0.049 A 
ATOM     54  H   UNL A   1      41.375  28.634  31.199  1.00  0.00     0.167 HD
ATOM     55  C   UNL A   1      42.223  29.122  33.846  1.00  0.00     0.074 A 
ATOM     56  C   UNL A   1      42.233  29.602  35.210  1.00  0.00     0.031 C 
ATOM     57  C   UNL A   1      43.183  28.331  33.308  1.00  0.00     0.031 A 
BRANCH  44  58
ATOM     58  C   UNL A   1      42.156  26.812  27.421  1.00  0.00    -0.014 A 
ATOM     59  C   UNL A   1      41.752  25.492  27.176  1.00  0.00     0.009 A 
ATOM     60  C   UNL A   1      42.976  27.459  26.480  1.00  0.00     0.009 A 
ATOM     61  C   UNL A   1      42.185  24.825  26.026  1.00  0.00     0.001 A 
ATOM     62  C   UNL A   1      43.385  26.799  25.321  1.00  0.00     0.001 A 
ATOM     63  C   UNL A   1      42.995  25.480  25.099  1.00  0.00     0.000 A 
ENDBRANCH  44  58
BRANCH  45  64
ATOM     64  C   UNL A   1      38.651  31.801  35.286  1.00  0.00    -0.014 A 
ATOM     65  C   UNL A   1      38.114  31.103  36.379  1.00  0.00     0.009 A 
ATOM     66  C   UNL A   1      38.685  33.204  35.327  1.00  0.00     0.009 A 
ATOM     67  C   UNL A   1      37.606  31.795  37.480  1.00  0.00     0.001 A 
ATOM     68  C   UNL A   1      38.204  33.892  36.443  1.00  0.00     0.001 A 
ATOM     69  C   UNL A   1      37.657  33.187  37.514  1.00  0.00     0.000 A 
ENDBRANCH  45  64
BRANCH  57  70
ATOM     70  C   UNL A   1      44.344  27.974  34.189  1.00  0.00    -0.014 A 
ATOM     71  C   UNL A   1      45.429  28.849  34.351  1.00  0.00     0.009 A 
ATOM     72  C   UNL A   1      44.339  26.755  34.883  1.00  0.00     0.009 A 
ATOM     73  C   UNL A   1      46.505  28.492  35.166  1.00  0.00     0.001 A 
ATOM     74  C   UNL A   1      45.405  26.411  35.716  1.00  0.00     0.001 A 
ATOM     75  C   UNL A   1      46.490  27.276  35.849  1.00  0.00     0.000 A 
ENDBRANCH  57  70
ENDBRANCH  31  32
ENDBRANCH  24  26
ENDBRANCH  23  24
ENDBRANCH   1  23
TORSDOF 14
ENDMDL
