MODEL 1
REMARK VINA RESULT:     -11.3      0.000      0.000
REMARK SMILES O=C(OCCOC(=O)[C@H]1CCCC[C@H]1C(=O)N1CCN(S(=O)(=O)c2ccc(F)cc2)CC1)c1ccc(-c2c3nc(c(-c4ccccc4)c4ccc([nH]4)c(-c4ccccc4)c4nc(c(-c5ccccc5)c5ccc2[nH]5)C=C4)C=C3)cc1
REMARK SMILES IDX 5 1 4 2 3 3 2 4 1 5 33 6 34 7 80 8 35 9 79 10 36 11 37 12
REMARK SMILES IDX 38 13 73 14 39 15 78 16 72 17 74 18 40 19 77 20 71 21 70 22
REMARK SMILES IDX 41 24 63 25 48 26 62 27 49 28 52 29 61 30 75 31 50 32 51 33
REMARK SMILES IDX 60 35 76 36 53 37 42 38 43 39 47 40 44 41 46 42 45 43 64 44
REMARK SMILES IDX 65 45 69 46 66 47 68 48 67 49 54 50 55 51 59 52 56 53 58 54
REMARK SMILES IDX 57 55 6 56 7 57 8 58 9 59 10 60 14 61 11 62 13 63 12 64
REMARK SMILES IDX 15 65 16 66 17 67 18 68 32 69 19 70 31 71 20 72 21 73 22 74
REMARK SMILES IDX 23 75 24 76 25 77 30 78 26 79 29 80 27 81 28 82
REMARK H PARENT 74 23 52 34
REMARK Flexibility Score: inf
ROOT
ATOM      1  C   UNL A   1      34.394  35.033  31.947  1.00  0.00     0.274 C 
ENDROOT
BRANCH   1   2
ATOM      2  C   UNL A   1      34.876  35.320  33.389  1.00  0.00     0.275 C 
BRANCH   2   3
ATOM      3  O   UNL A   1      36.177  34.774  33.660  1.00  0.00    -0.458 OA
BRANCH   3   4
ATOM      4  C   UNL A   1      36.326  33.760  34.531  1.00  0.00     0.338 C 
ATOM      5  O   UNL A   1      35.883  33.744  35.665  1.00  0.00    -0.246 OA
BRANCH   4   6
ATOM      6  C   UNL A   1      37.432  32.872  34.107  1.00  0.00     0.060 A 
ATOM      7  C   UNL A   1      39.185  33.284  34.330  1.00  0.00     0.016 A 
ATOM      8  C   UNL A   1      37.046  31.377  33.173  1.00  0.00     0.016 A 
ATOM      9  C   UNL A   1      40.482  32.154  33.799  1.00  0.00     0.010 A 
ATOM     10  C   UNL A   1      38.368  30.222  32.712  1.00  0.00     0.010 A 
ATOM     11  C   UNL A   1      40.107  30.597  32.996  1.00  0.00    -0.014 A 
BRANCH  11  12
ATOM     12  C   UNL A   1      41.266  29.945  32.240  1.00  0.00     0.031 A 
ATOM     13  C   UNL A   1      41.984  30.647  31.080  1.00  0.00     0.074 A 
ATOM     14  C   UNL A   1      41.861  28.844  32.758  1.00  0.00     0.049 A 
ATOM     15  N   UNL A   1      43.149  30.361  30.528  1.00  0.00    -0.248 NA
ATOM     16  C   UNL A   1      41.355  31.828  30.479  1.00  0.00     0.031 C 
ATOM     17  C   UNL A   1      41.379  28.080  33.909  1.00  0.00     0.029 A 
ATOM     18  N   UNL A   1      43.042  28.209  32.426  1.00  0.00    -0.354 N 
ATOM     19  C   UNL A   1      43.387  31.357  29.578  1.00  0.00     0.074 A 
ATOM     20  C   UNL A   1      42.255  32.244  29.609  1.00  0.00     0.031 C 
ATOM     21  C   UNL A   1      42.296  27.161  34.251  1.00  0.00     0.029 A 
ATOM     22  C   UNL A   1      43.391  27.187  33.285  1.00  0.00     0.049 A 
ATOM     23  H   UNL A   1      43.588  28.462  31.646  1.00  0.00     0.167 HD
ATOM     24  C   UNL A   1      44.426  31.541  28.727  1.00  0.00     0.031 A 
ATOM     25  C   UNL A   1      44.446  26.345  33.295  1.00  0.00     0.031 A 
ATOM     26  C   UNL A   1      45.524  30.632  28.572  1.00  0.00     0.049 A 
ATOM     27  C   UNL A   1      45.487  26.442  32.211  1.00  0.00     0.074 A 
ATOM     28  C   UNL A   1      46.544  30.662  27.637  1.00  0.00     0.029 A 
ATOM     29  N   UNL A   1      45.722  29.510  29.353  1.00  0.00    -0.354 N 
ATOM     30  N   UNL A   1      45.643  27.365  31.295  1.00  0.00    -0.248 NA
ATOM     31  C   UNL A   1      46.481  25.358  32.145  1.00  0.00     0.031 C 
ATOM     32  C   UNL A   1      47.319  29.509  27.807  1.00  0.00     0.029 A 
ATOM     33  C   UNL A   1      46.823  28.809  28.894  1.00  0.00     0.049 A 
ATOM     34  H   UNL A   1      45.164  29.248  30.121  1.00  0.00     0.167 HD
ATOM     35  C   UNL A   1      46.754  26.979  30.551  1.00  0.00     0.074 A 
ATOM     36  C   UNL A   1      47.248  25.752  31.139  1.00  0.00     0.031 C 
ATOM     37  C   UNL A   1      47.307  27.586  29.475  1.00  0.00     0.031 A 
BRANCH  24  38
ATOM     38  C   UNL A   1      44.343  32.728  27.802  1.00  0.00    -0.014 A 
ATOM     39  C   UNL A   1      43.983  32.590  26.451  1.00  0.00     0.009 A 
ATOM     40  C   UNL A   1      44.676  34.002  28.289  1.00  0.00     0.009 A 
ATOM     41  C   UNL A   1      43.999  33.698  25.599  1.00  0.00     0.001 A 
ATOM     42  C   UNL A   1      44.671  35.111  27.440  1.00  0.00     0.001 A 
ATOM     43  C   UNL A   1      44.344  34.956  26.094  1.00  0.00     0.000 A 
ENDBRANCH  24  38
BRANCH  25  44
ATOM     44  C   UNL A   1      44.543  25.264  34.323  1.00  0.00    -0.014 A 
ATOM     45  C   UNL A   1      43.899  24.028  34.151  1.00  0.00     0.009 A 
ATOM     46  C   UNL A   1      45.258  25.485  35.513  1.00  0.00     0.009 A 
ATOM     47  C   UNL A   1      43.966  23.046  35.147  1.00  0.00     0.001 A 
ATOM     48  C   UNL A   1      45.355  24.490  36.489  1.00  0.00     0.001 A 
ATOM     49  C   UNL A   1      44.702  23.274  36.308  1.00  0.00     0.000 A 
ENDBRANCH  25  44
BRANCH  37  50
ATOM     50  C   UNL A   1      48.529  26.956  28.869  1.00  0.00    -0.014 A 
ATOM     51  C   UNL A   1      48.428  26.014  27.834  1.00  0.00     0.009 A 
ATOM     52  C   UNL A   1      49.801  27.350  29.309  1.00  0.00     0.009 A 
ATOM     53  C   UNL A   1      49.579  25.454  27.277  1.00  0.00     0.001 A 
ATOM     54  C   UNL A   1      50.951  26.810  28.731  1.00  0.00     0.001 A 
ATOM     55  C   UNL A   1      50.839  25.855  27.723  1.00  0.00     0.000 A 
ENDBRANCH  37  50
ENDBRANCH  11  12
ENDBRANCH   4   6
ENDBRANCH   3   4
ENDBRANCH   2   3
ENDBRANCH   1   2
BRANCH   1  56
ATOM     56  O   UNL A   1      35.352  34.376  31.095  1.00  0.00    -0.462 OA
BRANCH  56  57
ATOM     57  C   UNL A   1      34.979  33.189  30.533  1.00  0.00     0.309 C 
ATOM     58  O   UNL A   1      34.378  32.335  31.169  1.00  0.00    -0.252 OA
BRANCH  57  59
ATOM     59  C   UNL A   1      35.468  33.071  29.042  1.00  0.00     0.111 C 
ATOM     60  C   UNL A   1      36.998  33.335  29.147  1.00  0.00     0.016 C 
ATOM     61  C   UNL A   1      35.008  31.660  27.912  1.00  0.00     0.093 C 
ATOM     62  C   UNL A   1      37.793  32.169  29.700  1.00  0.00     0.001 C 
ATOM     63  C   UNL A   1      36.313  30.555  28.525  1.00  0.00     0.014 C 
ATOM     64  C   UNL A   1      37.735  31.064  28.695  1.00  0.00     0.001 C 
BRANCH  61  65
ATOM     65  C   UNL A   1      33.048  31.063  27.092  1.00  0.00     0.226 C 
ATOM     66  O   UNL A   1      31.914  31.631  27.040  1.00  0.00    -0.275 OA
ATOM     67  N   UNL A   1      32.603  29.790  26.439  1.00  0.00    -0.340 N 
ATOM     68  C   UNL A   1      32.224  29.673  25.014  1.00  0.00     0.136 C 
ATOM     69  C   UNL A   1      31.712  28.928  27.210  1.00  0.00     0.136 C 
ATOM     70  C   UNL A   1      32.304  28.195  24.514  1.00  0.00     0.124 C 
ATOM     71  C   UNL A   1      32.265  27.552  26.961  1.00  0.00     0.124 C 
ATOM     72  N   UNL A   1      32.066  27.120  25.564  1.00  0.00    -0.194 NA
BRANCH  72  73
ATOM     73  S   UNL A   1      30.816  26.005  25.321  1.00  0.00     0.243 S 
ATOM     74  O   UNL A   1      30.210  25.749  26.609  1.00  0.00    -0.207 OA
ATOM     75  O   UNL A   1      30.040  26.430  24.178  1.00  0.00    -0.207 OA
BRANCH  73  76
ATOM     76  C   UNL A   1      31.734  24.532  24.848  1.00  0.00     0.082 A 
ATOM     77  C   UNL A   1      31.430  23.867  23.648  1.00  0.00     0.025 A 
ATOM     78  C   UNL A   1      32.714  24.017  25.702  1.00  0.00     0.025 A 
ATOM     79  C   UNL A   1      31.971  22.609  23.390  1.00  0.00     0.040 A 
ATOM     80  C   UNL A   1      33.316  22.793  25.393  1.00  0.00     0.040 A 
ATOM     81  C   UNL A   1      32.911  22.083  24.266  1.00  0.00     0.123 A 
ATOM     82  F   UNL A   1      33.435  20.877  24.018  1.00  0.00    -0.207 F 
ENDBRANCH  73  76
ENDBRANCH  72  73
ENDBRANCH  61  65
ENDBRANCH  57  59
ENDBRANCH  56  57
ENDBRANCH   1  56
TORSDOF 14
ENDMDL
MODEL 2
REMARK VINA RESULT:     -11.2      9.329     14.177
REMARK SMILES O=C(OCCOC(=O)[C@H]1CCCC[C@H]1C(=O)N1CCN(S(=O)(=O)c2ccc(F)cc2)CC1)c1ccc(-c2c3nc(c(-c4ccccc4)c4ccc([nH]4)c(-c4ccccc4)c4nc(c(-c5ccccc5)c5ccc2[nH]5)C=C4)C=C3)cc1
REMARK SMILES IDX 5 1 4 2 3 3 2 4 1 5 33 6 34 7 80 8 35 9 79 10 36 11 37 12
REMARK SMILES IDX 38 13 73 14 39 15 78 16 72 17 74 18 40 19 77 20 71 21 70 22
REMARK SMILES IDX 41 24 63 25 48 26 62 27 49 28 52 29 61 30 75 31 50 32 51 33
REMARK SMILES IDX 60 35 76 36 53 37 42 38 43 39 47 40 44 41 46 42 45 43 64 44
REMARK SMILES IDX 65 45 69 46 66 47 68 48 67 49 54 50 55 51 59 52 56 53 58 54
REMARK SMILES IDX 57 55 6 56 7 57 8 58 9 59 10 60 14 61 11 62 13 63 12 64
REMARK SMILES IDX 15 65 16 66 17 67 18 68 32 69 19 70 31 71 20 72 21 73 22 74
REMARK SMILES IDX 23 75 24 76 25 77 30 78 26 79 29 80 27 81 28 82
REMARK H PARENT 74 23 52 34
REMARK Flexibility Score: inf
ROOT
ATOM      1  C   UNL A   1      42.922  40.622  27.054  1.00  0.00     0.274 C 
ENDROOT
BRANCH   1   2
ATOM      2  C   UNL A   1      42.869  39.086  26.884  1.00  0.00     0.275 C 
BRANCH   2   3
ATOM      3  O   UNL A   1      42.985  38.382  28.130  1.00  0.00    -0.458 OA
BRANCH   3   4
ATOM      4  C   UNL A   1      44.189  37.991  28.586  1.00  0.00     0.338 C 
ATOM      5  O   UNL A   1      45.165  38.713  28.685  1.00  0.00    -0.246 OA
BRANCH   4   6
ATOM      6  C   UNL A   1      44.305  36.516  28.544  1.00  0.00     0.060 A 
ATOM      7  C   UNL A   1      44.017  35.533  27.046  1.00  0.00     0.016 A 
ATOM      8  C   UNL A   1      44.584  35.616  30.084  1.00  0.00     0.016 A 
ATOM      9  C   UNL A   1      44.183  33.740  27.063  1.00  0.00     0.010 A 
ATOM     10  C   UNL A   1      44.816  33.816  30.059  1.00  0.00     0.010 A 
ATOM     11  C   UNL A   1      44.599  32.845  28.557  1.00  0.00    -0.014 A 
BRANCH  11  12
ATOM     12  C   UNL A   1      44.305  31.343  28.534  1.00  0.00     0.031 A 
ATOM     13  C   UNL A   1      42.936  30.772  28.923  1.00  0.00     0.074 A 
ATOM     14  C   UNL A   1      45.167  30.507  27.906  1.00  0.00     0.049 A 
ATOM     15  N   UNL A   1      42.439  29.571  28.690  1.00  0.00    -0.248 NA
ATOM     16  C   UNL A   1      41.988  31.644  29.627  1.00  0.00     0.031 C 
ATOM     17  C   UNL A   1      46.484  30.877  27.389  1.00  0.00     0.029 A 
ATOM     18  N   UNL A   1      45.038  29.183  27.535  1.00  0.00    -0.354 N 
ATOM     19  C   UNL A   1      41.126  29.592  29.167  1.00  0.00     0.074 A 
ATOM     20  C   UNL A   1      40.900  30.902  29.714  1.00  0.00     0.031 C 
ATOM     21  C   UNL A   1      46.991  29.854  26.683  1.00  0.00     0.029 A 
ATOM     22  C   UNL A   1      46.090  28.708  26.778  1.00  0.00     0.049 A 
ATOM     23  H   UNL A   1      44.266  28.627  27.786  1.00  0.00     0.167 HD
ATOM     24  C   UNL A   1      40.174  28.627  29.186  1.00  0.00     0.031 A 
ATOM     25  C   UNL A   1      46.330  27.493  26.240  1.00  0.00     0.031 A 
ATOM     26  C   UNL A   1      40.376  27.273  28.760  1.00  0.00     0.049 A 
ATOM     27  C   UNL A   1      45.342  26.376  26.451  1.00  0.00     0.074 A 
ATOM     28  C   UNL A   1      39.516  26.195  28.874  1.00  0.00     0.029 A 
ATOM     29  N   UNL A   1      41.534  26.808  28.167  1.00  0.00    -0.354 N 
ATOM     30  N   UNL A   1      44.137  26.424  26.960  1.00  0.00    -0.248 NA
ATOM     31  C   UNL A   1      45.767  25.027  26.040  1.00  0.00     0.031 C 
ATOM     32  C   UNL A   1      40.190  25.056  28.419  1.00  0.00     0.029 A 
ATOM     33  C   UNL A   1      41.435  25.446  27.953  1.00  0.00     0.049 A 
ATOM     34  H   UNL A   1      42.314  27.363  27.934  1.00  0.00     0.167 HD
ATOM     35  C   UNL A   1      43.657  25.118  26.923  1.00  0.00     0.074 A 
ATOM     36  C   UNL A   1      44.690  24.306  26.318  1.00  0.00     0.031 C 
ATOM     37  C   UNL A   1      42.467  24.640  27.358  1.00  0.00     0.031 A 
BRANCH  24  38
ATOM     38  C   UNL A   1      38.852  28.991  29.813  1.00  0.00    -0.014 A 
ATOM     39  C   UNL A   1      37.787  29.499  29.051  1.00  0.00     0.009 A 
ATOM     40  C   UNL A   1      38.692  28.861  31.202  1.00  0.00     0.009 A 
ATOM     41  C   UNL A   1      36.605  29.907  29.676  1.00  0.00     0.001 A 
ATOM     42  C   UNL A   1      37.503  29.249  31.820  1.00  0.00     0.001 A 
ATOM     43  C   UNL A   1      36.464  29.783  31.058  1.00  0.00     0.000 A 
ENDBRANCH  24  38
BRANCH  25  44
ATOM     44  C   UNL A   1      47.608  27.227  25.509  1.00  0.00    -0.014 A 
ATOM     45  C   UNL A   1      48.768  26.820  26.186  1.00  0.00     0.009 A 
ATOM     46  C   UNL A   1      47.678  27.421  24.119  1.00  0.00     0.009 A 
ATOM     47  C   UNL A   1      49.965  26.620  25.489  1.00  0.00     0.001 A 
ATOM     48  C   UNL A   1      48.863  27.184  23.420  1.00  0.00     0.001 A 
ATOM     49  C   UNL A   1      50.009  26.792  24.106  1.00  0.00     0.000 A 
ENDBRANCH  25  44
BRANCH  37  50
ATOM     50  C   UNL A   1      42.196  23.173  27.177  1.00  0.00    -0.014 A 
ATOM     51  C   UNL A   1      42.455  22.250  28.201  1.00  0.00     0.009 A 
ATOM     52  C   UNL A   1      41.626  22.718  25.979  1.00  0.00     0.009 A 
ATOM     53  C   UNL A   1      42.181  20.894  28.013  1.00  0.00     0.001 A 
ATOM     54  C   UNL A   1      41.326  21.366  25.804  1.00  0.00     0.001 A 
ATOM     55  C   UNL A   1      41.613  20.454  26.818  1.00  0.00     0.000 A 
ENDBRANCH  37  50
ENDBRANCH  11  12
ENDBRANCH   4   6
ENDBRANCH   3   4
ENDBRANCH   2   3
ENDBRANCH   1   2
BRANCH   1  56
ATOM     56  O   UNL A   1      43.784  41.316  26.132  1.00  0.00    -0.462 OA
BRANCH  56  57
ATOM     57  C   UNL A   1      44.719  42.158  26.662  1.00  0.00     0.309 C 
ATOM     58  O   UNL A   1      45.317  41.890  27.694  1.00  0.00    -0.252 OA
BRANCH  57  59
ATOM     59  C   UNL A   1      44.855  43.481  25.821  1.00  0.00     0.111 C 
ATOM     60  C   UNL A   1      45.380  44.512  26.861  1.00  0.00     0.016 C 
ATOM     61  C   UNL A   1      45.699  43.568  24.159  1.00  0.00     0.093 C 
ATOM     62  C   UNL A   1      46.847  44.354  27.204  1.00  0.00     0.001 C 
ATOM     63  C   UNL A   1      47.368  43.730  24.856  1.00  0.00     0.014 C 
ATOM     64  C   UNL A   1      47.639  44.709  25.986  1.00  0.00     0.001 C 
BRANCH  61  65
ATOM     65  C   UNL A   1      45.156  42.649  22.227  1.00  0.00     0.226 C 
ATOM     66  O   UNL A   1      45.522  41.589  21.631  1.00  0.00    -0.275 OA
ATOM     67  N   UNL A   1      44.242  43.119  21.138  1.00  0.00    -0.340 N 
ATOM     68  C   UNL A   1      42.963  42.465  20.783  1.00  0.00     0.136 C 
ATOM     69  C   UNL A   1      44.867  43.578  19.902  1.00  0.00     0.136 C 
ATOM     70  C   UNL A   1      42.017  43.431  20.002  1.00  0.00     0.124 C 
ATOM     71  C   UNL A   1      44.087  44.818  19.562  1.00  0.00     0.124 C 
ATOM     72  N   UNL A   1      42.698  44.508  19.171  1.00  0.00    -0.194 NA
BRANCH  72  73
ATOM     73  S   UNL A   1      42.379  44.580  17.509  1.00  0.00     0.243 S 
ATOM     74  O   UNL A   1      43.327  43.709  16.850  1.00  0.00    -0.207 OA
ATOM     75  O   UNL A   1      40.953  44.454  17.312  1.00  0.00    -0.207 OA
BRANCH  73  76
ATOM     76  C   UNL A   1      42.840  46.277  17.128  1.00  0.00     0.082 A 
ATOM     77  C   UNL A   1      44.157  46.580  16.744  1.00  0.00     0.025 A 
ATOM     78  C   UNL A   1      41.900  47.302  17.267  1.00  0.00     0.025 A 
ATOM     79  C   UNL A   1      44.576  47.908  16.672  1.00  0.00     0.040 A 
ATOM     80  C   UNL A   1      42.308  48.631  17.110  1.00  0.00     0.040 A 
ATOM     81  C   UNL A   1      43.646  48.922  16.856  1.00  0.00     0.123 A 
ATOM     82  F   UNL A   1      44.045  50.198  16.785  1.00  0.00    -0.207 F 
ENDBRANCH  73  76
ENDBRANCH  72  73
ENDBRANCH  61  65
ENDBRANCH  57  59
ENDBRANCH  56  57
ENDBRANCH   1  56
TORSDOF 14
ENDMDL
MODEL 3
REMARK VINA RESULT:     -10.9     10.879     16.571
REMARK SMILES O=C(OCCOC(=O)[C@H]1CCCC[C@H]1C(=O)N1CCN(S(=O)(=O)c2ccc(F)cc2)CC1)c1ccc(-c2c3nc(c(-c4ccccc4)c4ccc([nH]4)c(-c4ccccc4)c4nc(c(-c5ccccc5)c5ccc2[nH]5)C=C4)C=C3)cc1
REMARK SMILES IDX 5 1 4 2 3 3 2 4 1 5 33 6 34 7 80 8 35 9 79 10 36 11 37 12
REMARK SMILES IDX 38 13 73 14 39 15 78 16 72 17 74 18 40 19 77 20 71 21 70 22
REMARK SMILES IDX 41 24 63 25 48 26 62 27 49 28 52 29 61 30 75 31 50 32 51 33
REMARK SMILES IDX 60 35 76 36 53 37 42 38 43 39 47 40 44 41 46 42 45 43 64 44
REMARK SMILES IDX 65 45 69 46 66 47 68 48 67 49 54 50 55 51 59 52 56 53 58 54
REMARK SMILES IDX 57 55 6 56 7 57 8 58 9 59 10 60 14 61 11 62 13 63 12 64
REMARK SMILES IDX 15 65 16 66 17 67 18 68 32 69 19 70 31 71 20 72 21 73 22 74
REMARK SMILES IDX 23 75 24 76 25 77 30 78 26 79 29 80 27 81 28 82
REMARK H PARENT 74 23 52 34
REMARK Flexibility Score: inf
ROOT
ATOM      1  C   UNL A   1      41.798  43.225  19.760  1.00  0.00     0.274 C 
ENDROOT
BRANCH   1   2
ATOM      2  C   UNL A   1      42.753  42.546  20.770  1.00  0.00     0.275 C 
BRANCH   2   3
ATOM      3  O   UNL A   1      42.074  42.057  21.938  1.00  0.00    -0.458 OA
BRANCH   3   4
ATOM      4  C   UNL A   1      42.054  42.781  23.072  1.00  0.00     0.338 C 
ATOM      5  O   UNL A   1      42.084  43.997  23.123  1.00  0.00    -0.246 OA
BRANCH   4   6
ATOM      6  C   UNL A   1      42.420  41.937  24.231  1.00  0.00     0.060 A 
ATOM      7  C   UNL A   1      41.200  41.197  25.354  1.00  0.00     0.016 A 
ATOM      8  C   UNL A   1      44.162  41.755  24.666  1.00  0.00     0.016 A 
ATOM      9  C   UNL A   1      41.714  40.172  26.742  1.00  0.00     0.010 A 
ATOM     10  C   UNL A   1      44.653  40.659  26.028  1.00  0.00     0.010 A 
ATOM     11  C   UNL A   1      43.442  39.867  27.101  1.00  0.00    -0.014 A 
BRANCH  11  12
ATOM     12  C   UNL A   1      43.745  39.345  28.508  1.00  0.00     0.031 A 
ATOM     13  C   UNL A   1      43.926  40.284  29.707  1.00  0.00     0.074 A 
ATOM     14  C   UNL A   1      43.589  38.027  28.774  1.00  0.00     0.049 A 
ATOM     15  N   UNL A   1      43.903  40.000  30.996  1.00  0.00    -0.248 NA
ATOM     16  C   UNL A   1      44.123  41.716  29.452  1.00  0.00     0.031 C 
ATOM     17  C   UNL A   1      43.329  36.984  27.781  1.00  0.00     0.029 A 
ATOM     18  N   UNL A   1      43.560  37.340  29.973  1.00  0.00    -0.354 N 
ATOM     19  C   UNL A   1      44.024  41.220  31.667  1.00  0.00     0.074 A 
ATOM     20  C   UNL A   1      44.135  42.242  30.662  1.00  0.00     0.031 C 
ATOM     21  C   UNL A   1      43.062  35.827  28.408  1.00  0.00     0.029 A 
ATOM     22  C   UNL A   1      43.234  36.005  29.847  1.00  0.00     0.049 A 
ATOM     23  H   UNL A   1      43.753  37.764  30.840  1.00  0.00     0.167 HD
ATOM     24  C   UNL A   1      44.065  41.502  32.992  1.00  0.00     0.031 A 
ATOM     25  C   UNL A   1      43.110  35.022  30.764  1.00  0.00     0.031 A 
ATOM     26  C   UNL A   1      44.073  40.519  34.036  1.00  0.00     0.049 A 
ATOM     27  C   UNL A   1      43.361  35.324  32.219  1.00  0.00     0.074 A 
ATOM     28  C   UNL A   1      44.255  40.705  35.396  1.00  0.00     0.029 A 
ATOM     29  N   UNL A   1      43.924  39.162  33.828  1.00  0.00    -0.354 N 
ATOM     30  N   UNL A   1      43.531  36.483  32.805  1.00  0.00    -0.248 NA
ATOM     31  C   UNL A   1      43.436  34.173  33.133  1.00  0.00     0.031 C 
ATOM     32  C   UNL A   1      44.294  39.445  36.001  1.00  0.00     0.029 A 
ATOM     33  C   UNL A   1      44.058  38.488  35.029  1.00  0.00     0.049 A 
ATOM     34  H   UNL A   1      43.749  38.737  32.957  1.00  0.00     0.167 HD
ATOM     35  C   UNL A   1      43.723  36.202  34.154  1.00  0.00     0.074 A 
ATOM     36  C   UNL A   1      43.623  34.766  34.303  1.00  0.00     0.031 C 
ATOM     37  C   UNL A   1      43.967  37.060  35.173  1.00  0.00     0.031 A 
BRANCH  24  38
ATOM     38  C   UNL A   1      44.233  42.951  33.372  1.00  0.00    -0.014 A 
ATOM     39  C   UNL A   1      43.146  43.839  33.402  1.00  0.00     0.009 A 
ATOM     40  C   UNL A   1      45.517  43.440  33.661  1.00  0.00     0.009 A 
ATOM     41  C   UNL A   1      43.349  45.195  33.674  1.00  0.00     0.001 A 
ATOM     42  C   UNL A   1      45.714  44.791  33.954  1.00  0.00     0.001 A 
ATOM     43  C   UNL A   1      44.632  45.670  33.948  1.00  0.00     0.000 A 
ENDBRANCH  24  38
BRANCH  25  44
ATOM     44  C   UNL A   1      42.808  33.621  30.338  1.00  0.00    -0.014 A 
ATOM     45  C   UNL A   1      41.518  33.080  30.458  1.00  0.00     0.009 A 
ATOM     46  C   UNL A   1      43.833  32.800  29.839  1.00  0.00     0.009 A 
ATOM     47  C   UNL A   1      41.267  31.751  30.095  1.00  0.00     0.001 A 
ATOM     48  C   UNL A   1      43.573  31.487  29.441  1.00  0.00     0.001 A 
ATOM     49  C   UNL A   1      42.291  30.960  29.577  1.00  0.00     0.000 A 
ENDBRANCH  25  44
BRANCH  37  50
ATOM     50  C   UNL A   1      44.118  36.481  36.551  1.00  0.00    -0.014 A 
ATOM     51  C   UNL A   1      45.372  36.099  37.049  1.00  0.00     0.009 A 
ATOM     52  C   UNL A   1      42.992  36.366  37.380  1.00  0.00     0.009 A 
ATOM     53  C   UNL A   1      45.489  35.578  38.340  1.00  0.00     0.001 A 
ATOM     54  C   UNL A   1      43.115  35.872  38.679  1.00  0.00     0.001 A 
ATOM     55  C   UNL A   1      44.362  35.469  39.154  1.00  0.00     0.000 A 
ENDBRANCH  37  50
ENDBRANCH  11  12
ENDBRANCH   4   6
ENDBRANCH   3   4
ENDBRANCH   2   3
ENDBRANCH   1   2
BRANCH   1  56
ATOM     56  O   UNL A   1      42.427  43.766  18.584  1.00  0.00    -0.462 OA
BRANCH  56  57
ATOM     57  C   UNL A   1      41.883  44.898  18.049  1.00  0.00     0.309 C 
ATOM     58  O   UNL A   1      40.804  45.335  18.423  1.00  0.00    -0.252 OA
BRANCH  57  59
ATOM     59  C   UNL A   1      42.780  45.488  16.897  1.00  0.00     0.111 C 
ATOM     60  C   UNL A   1      41.757  46.240  15.999  1.00  0.00     0.016 C 
ATOM     61  C   UNL A   1      44.369  46.418  17.197  1.00  0.00     0.093 C 
ATOM     62  C   UNL A   1      41.286  47.563  16.568  1.00  0.00     0.001 C 
ATOM     63  C   UNL A   1      43.547  48.010  17.497  1.00  0.00     0.014 C 
ATOM     64  C   UNL A   1      42.453  48.499  16.564  1.00  0.00     0.001 C 
BRANCH  61  65
ATOM     65  C   UNL A   1      46.287  45.738  18.052  1.00  0.00     0.226 C 
ATOM     66  O   UNL A   1      47.406  45.423  17.542  1.00  0.00    -0.275 OA
ATOM     67  N   UNL A   1      46.683  45.444  19.466  1.00  0.00    -0.340 N 
ATOM     68  C   UNL A   1      47.653  46.245  20.243  1.00  0.00     0.136 C 
ATOM     69  C   UNL A   1      46.877  44.042  19.820  1.00  0.00     0.136 C 
ATOM     70  C   UNL A   1      47.483  46.027  21.781  1.00  0.00     0.124 C 
ATOM     71  C   UNL A   1      46.209  43.930  21.162  1.00  0.00     0.124 C 
ATOM     72  N   UNL A   1      46.941  44.671  22.208  1.00  0.00    -0.194 NA
BRANCH  72  73
ATOM     73  S   UNL A   1      47.864  43.718  23.261  1.00  0.00     0.243 S 
ATOM     74  O   UNL A   1      47.575  42.335  22.955  1.00  0.00    -0.207 OA
ATOM     75  O   UNL A   1      49.213  44.235  23.280  1.00  0.00    -0.207 OA
BRANCH  73  76
ATOM     76  C   UNL A   1      47.105  44.097  24.848  1.00  0.00     0.082 A 
ATOM     77  C   UNL A   1      47.524  43.424  26.008  1.00  0.00     0.025 A 
ATOM     78  C   UNL A   1      46.060  45.023  24.917  1.00  0.00     0.025 A 
ATOM     79  C   UNL A   1      46.791  43.543  27.187  1.00  0.00     0.040 A 
ATOM     80  C   UNL A   1      45.381  45.200  26.127  1.00  0.00     0.040 A 
ATOM     81  C   UNL A   1      45.725  44.431  27.236  1.00  0.00     0.123 A 
ATOM     82  F   UNL A   1      45.023  44.549  28.369  1.00  0.00    -0.207 F 
ENDBRANCH  73  76
ENDBRANCH  72  73
ENDBRANCH  61  65
ENDBRANCH  57  59
ENDBRANCH  56  57
ENDBRANCH   1  56
TORSDOF 14
ENDMDL
