MODEL 1
REMARK VINA RESULT:     -11.3      0.000      0.000
REMARK SMILES O=C(COc1nc(-c2cccnc2)nc2c1CCCC2)OCCOC(=O)c1ccc(-c2c3nc(c(-c4ccccc4)c4ccc([nH]4)c(-c4ccccc4)c4nc(c(-c5ccccc5)c5ccc2[nH]5)C=C4)C=C3)cc1
REMARK SMILES IDX 22 1 21 2 2 3 1 4 3 5 4 6 5 7 6 8 16 9 7 10 15 11 17 12
REMARK SMILES IDX 14 13 20 14 18 15 19 16 8 17 9 18 13 19 10 20 12 21 11 22
REMARK SMILES IDX 23 23 24 24 25 25 26 26 27 27 28 28 74 29 29 30 73 31 30 32
REMARK SMILES IDX 31 33 32 34 67 35 33 36 72 37 66 38 68 39 34 40 71 41 65 42
REMARK SMILES IDX 64 43 35 45 57 46 42 47 56 48 43 49 46 50 55 51 69 52 44 53
REMARK SMILES IDX 45 54 54 56 70 57 47 58 36 59 37 60 41 61 38 62 40 63 39 64
REMARK SMILES IDX 58 65 59 66 63 67 60 68 62 69 61 70 48 71 49 72 53 73 50 74
REMARK SMILES IDX 52 75 51 76
REMARK H PARENT 68 44 46 55
REMARK Flexibility Score: inf
ROOT
ATOM      1  C   UNL A   1      38.803  20.217  25.206  1.00  0.00     0.274 C 
ENDROOT
BRANCH   1   2
ATOM      2  O   UNL A   1      38.645  21.544  25.749  1.00  0.00    -0.460 OA
BRANCH   2   3
ATOM      3  C   UNL A   1      37.653  22.395  25.389  1.00  0.00     0.344 C 
ATOM      4  O   UNL A   1      37.649  23.554  25.800  1.00  0.00    -0.248 OA
BRANCH   3   5
ATOM      5  C   UNL A   1      36.520  21.864  24.511  1.00  0.00     0.353 C 
BRANCH   5   6
ATOM      6  O   UNL A   1      35.391  22.696  24.296  1.00  0.00    -0.465 OA
BRANCH   6   7
ATOM      7  C   UNL A   1      34.276  22.018  24.722  1.00  0.00     0.221 A 
ATOM      8  N   UNL A   1      34.379  20.686  24.735  1.00  0.00    -0.193 NA
ATOM      9  C   UNL A   1      33.153  22.730  25.074  1.00  0.00     0.036 A 
ATOM     10  C   UNL A   1      33.265  20.016  25.053  1.00  0.00     0.164 A 
ATOM     11  C   UNL A   1      32.083  21.950  25.474  1.00  0.00     0.051 A 
ATOM     12  C   UNL A   1      33.117  24.228  25.035  1.00  0.00     0.043 C 
ATOM     13  N   UNL A   1      32.108  20.597  25.427  1.00  0.00    -0.232 NA
ATOM     14  C   UNL A   1      30.794  22.589  25.931  1.00  0.00     0.057 C 
ATOM     15  C   UNL A   1      31.714  24.805  25.219  1.00  0.00     0.005 C 
ATOM     16  C   UNL A   1      30.972  24.057  26.321  1.00  0.00     0.007 C 
BRANCH  10  17
ATOM     17  C   UNL A   1      33.320  18.563  24.896  1.00  0.00     0.038 A 
ATOM     18  C   UNL A   1      34.072  17.954  23.878  1.00  0.00     0.015 A 
ATOM     19  C   UNL A   1      32.572  17.707  25.699  1.00  0.00     0.123 A 
ATOM     20  C   UNL A   1      34.042  16.573  23.702  1.00  0.00     0.021 A 
ATOM     21  N   UNL A   1      32.518  16.355  25.554  1.00  0.00    -0.264 NA
ATOM     22  C   UNL A   1      33.250  15.825  24.552  1.00  0.00     0.111 A 
ENDBRANCH  10  17
ENDBRANCH   6   7
ENDBRANCH   5   6
ENDBRANCH   3   5
ENDBRANCH   2   3
ENDBRANCH   1   2
BRANCH   1  23
ATOM     23  C   UNL A   1      39.696  19.361  26.111  1.00  0.00     0.275 C 
BRANCH  23  24
ATOM     24  O   UNL A   1      40.855  18.917  25.377  1.00  0.00    -0.458 OA
BRANCH  24  25
ATOM     25  C   UNL A   1      42.042  18.968  26.034  1.00  0.00     0.338 C 
ATOM     26  O   UNL A   1      42.866  18.079  26.131  1.00  0.00    -0.246 OA
BRANCH  25  27
ATOM     27  C   UNL A   1      42.282  20.373  26.442  1.00  0.00     0.060 A 
ATOM     28  C   UNL A   1      42.523  21.322  25.440  1.00  0.00     0.016 A 
ATOM     29  C   UNL A   1      42.204  20.769  27.781  1.00  0.00     0.016 A 
ATOM     30  C   UNL A   1      42.700  22.666  25.778  1.00  0.00     0.010 A 
ATOM     31  C   UNL A   1      42.389  22.114  28.118  1.00  0.00     0.010 A 
ATOM     32  C   UNL A   1      42.656  23.065  27.121  1.00  0.00    -0.014 A 
BRANCH  32  33
ATOM     33  C   UNL A   1      43.011  24.455  27.491  1.00  0.00     0.031 A 
ATOM     34  C   UNL A   1      44.449  24.883  27.420  1.00  0.00     0.074 A 
ATOM     35  C   UNL A   1      42.073  25.336  27.884  1.00  0.00     0.049 A 
ATOM     36  N   UNL A   1      44.969  26.069  27.612  1.00  0.00    -0.248 NA
ATOM     37  C   UNL A   1      45.429  23.837  27.089  1.00  0.00     0.031 C 
ATOM     38  C   UNL A   1      40.643  25.056  28.000  1.00  0.00     0.029 A 
ATOM     39  N   UNL A   1      42.192  26.653  28.254  1.00  0.00    -0.354 N 
ATOM     40  C   UNL A   1      46.333  25.916  27.404  1.00  0.00     0.074 A 
ATOM     41  C   UNL A   1      46.566  24.516  27.121  1.00  0.00     0.031 C 
ATOM     42  C   UNL A   1      40.015  26.172  28.411  1.00  0.00     0.029 A 
ATOM     43  C   UNL A   1      40.999  27.240  28.591  1.00  0.00     0.049 A 
ATOM     44  H   UNL A   1      43.053  27.130  28.276  1.00  0.00     0.167 HD
ATOM     45  C   UNL A   1      47.304  26.858  27.426  1.00  0.00     0.031 A 
ATOM     46  C   UNL A   1      40.726  28.498  28.992  1.00  0.00     0.031 A 
ATOM     47  C   UNL A   1      47.087  28.244  27.733  1.00  0.00     0.049 A 
ATOM     48  C   UNL A   1      41.831  29.514  29.088  1.00  0.00     0.074 A 
ATOM     49  C   UNL A   1      48.005  29.279  27.728  1.00  0.00     0.029 A 
ATOM     50  N   UNL A   1      45.872  28.784  28.119  1.00  0.00    -0.354 N 
ATOM     51  N   UNL A   1      43.102  29.378  28.800  1.00  0.00    -0.248 NA
ATOM     52  C   UNL A   1      41.463  30.862  29.553  1.00  0.00     0.031 C 
ATOM     53  C   UNL A   1      47.357  30.437  28.171  1.00  0.00     0.029 A 
ATOM     54  C   UNL A   1      46.025  30.131  28.400  1.00  0.00     0.049 A 
ATOM     55  H   UNL A   1      45.026  28.285  28.185  1.00  0.00     0.167 HD
ATOM     56  C   UNL A   1      43.680  30.624  29.021  1.00  0.00     0.074 A 
ATOM     57  C   UNL A   1      42.622  31.503  29.471  1.00  0.00     0.031 C 
ATOM     58  C   UNL A   1      44.971  31.000  28.854  1.00  0.00     0.031 A 
BRANCH  45  59
ATOM     59  C   UNL A   1      48.702  26.406  27.120  1.00  0.00    -0.014 A 
ATOM     60  C   UNL A   1      49.559  25.972  28.143  1.00  0.00     0.009 A 
ATOM     61  C   UNL A   1      49.157  26.389  25.793  1.00  0.00     0.009 A 
ATOM     62  C   UNL A   1      50.859  25.560  27.846  1.00  0.00     0.001 A 
ATOM     63  C   UNL A   1      50.449  25.955  25.497  1.00  0.00     0.001 A 
ATOM     64  C   UNL A   1      51.302  25.549  26.523  1.00  0.00     0.000 A 
ENDBRANCH  45  59
BRANCH  46  65
ATOM     65  C   UNL A   1      39.324  28.871  29.308  1.00  0.00    -0.014 A 
ATOM     66  C   UNL A   1      38.488  29.392  28.311  1.00  0.00     0.009 A 
ATOM     67  C   UNL A   1      38.807  28.675  30.598  1.00  0.00     0.009 A 
ATOM     68  C   UNL A   1      37.160  29.715  28.601  1.00  0.00     0.001 A 
ATOM     69  C   UNL A   1      37.475  28.982  30.880  1.00  0.00     0.001 A 
ATOM     70  C   UNL A   1      36.653  29.504  29.883  1.00  0.00     0.000 A 
ENDBRANCH  46  65
BRANCH  58  71
ATOM     71  C   UNL A   1      45.337  32.427  29.145  1.00  0.00    -0.014 A 
ATOM     72  C   UNL A   1      45.885  32.793  30.384  1.00  0.00     0.009 A 
ATOM     73  C   UNL A   1      45.247  33.390  28.127  1.00  0.00     0.009 A 
ATOM     74  C   UNL A   1      46.335  34.099  30.596  1.00  0.00     0.001 A 
ATOM     75  C   UNL A   1      45.716  34.689  28.336  1.00  0.00     0.001 A 
ATOM     76  C   UNL A   1      46.259  35.042  29.571  1.00  0.00     0.000 A 
ENDBRANCH  58  71
ENDBRANCH  32  33
ENDBRANCH  25  27
ENDBRANCH  24  25
ENDBRANCH  23  24
ENDBRANCH   1  23
TORSDOF 14
ENDMDL
MODEL 2
REMARK VINA RESULT:     -11.1      0.853      2.830
REMARK SMILES O=C(COc1nc(-c2cccnc2)nc2c1CCCC2)OCCOC(=O)c1ccc(-c2c3nc(c(-c4ccccc4)c4ccc([nH]4)c(-c4ccccc4)c4nc(c(-c5ccccc5)c5ccc2[nH]5)C=C4)C=C3)cc1
REMARK SMILES IDX 22 1 21 2 2 3 1 4 3 5 4 6 5 7 6 8 16 9 7 10 15 11 17 12
REMARK SMILES IDX 14 13 20 14 18 15 19 16 8 17 9 18 13 19 10 20 12 21 11 22
REMARK SMILES IDX 23 23 24 24 25 25 26 26 27 27 28 28 74 29 29 30 73 31 30 32
REMARK SMILES IDX 31 33 32 34 67 35 33 36 72 37 66 38 68 39 34 40 71 41 65 42
REMARK SMILES IDX 64 43 35 45 57 46 42 47 56 48 43 49 46 50 55 51 69 52 44 53
REMARK SMILES IDX 45 54 54 56 70 57 47 58 36 59 37 60 41 61 38 62 40 63 39 64
REMARK SMILES IDX 58 65 59 66 63 67 60 68 62 69 61 70 48 71 49 72 53 73 50 74
REMARK SMILES IDX 52 75 51 76
REMARK H PARENT 68 44 46 55
REMARK Flexibility Score: inf
ROOT
ATOM      1  C   UNL A   1      39.173  20.468  25.365  1.00  0.00     0.274 C 
ENDROOT
BRANCH   1   2
ATOM      2  O   UNL A   1      38.733  21.582  26.168  1.00  0.00    -0.460 OA
BRANCH   2   3
ATOM      3  C   UNL A   1      37.803  22.483  25.767  1.00  0.00     0.344 C 
ATOM      4  O   UNL A   1      38.107  23.665  25.619  1.00  0.00    -0.248 OA
BRANCH   3   5
ATOM      5  C   UNL A   1      36.367  22.004  25.557  1.00  0.00     0.353 C 
BRANCH   5   6
ATOM      6  O   UNL A   1      36.164  20.723  24.982  1.00  0.00    -0.465 OA
BRANCH   6   7
ATOM      7  C   UNL A   1      34.811  20.504  24.896  1.00  0.00     0.221 A 
ATOM      8  N   UNL A   1      34.040  21.585  25.048  1.00  0.00    -0.193 NA
ATOM      9  C   UNL A   1      34.351  19.224  24.691  1.00  0.00     0.036 A 
ATOM     10  C   UNL A   1      32.720  21.364  25.066  1.00  0.00     0.164 A 
ATOM     11  C   UNL A   1      32.974  19.113  24.634  1.00  0.00     0.051 A 
ATOM     12  C   UNL A   1      35.283  18.062  24.527  1.00  0.00     0.043 C 
ATOM     13  N   UNL A   1      32.147  20.162  24.863  1.00  0.00    -0.232 NA
ATOM     14  C   UNL A   1      32.320  17.779  24.372  1.00  0.00     0.057 C 
ATOM     15  C   UNL A   1      34.574  16.708  24.561  1.00  0.00     0.005 C 
ATOM     16  C   UNL A   1      33.283  16.764  23.753  1.00  0.00     0.007 C 
BRANCH  10  17
ATOM     17  C   UNL A   1      31.880  22.510  25.409  1.00  0.00     0.038 A 
ATOM     18  C   UNL A   1      31.371  23.377  24.428  1.00  0.00     0.015 A 
ATOM     19  C   UNL A   1      31.599  22.849  26.729  1.00  0.00     0.123 A 
ATOM     20  C   UNL A   1      30.641  24.507  24.789  1.00  0.00     0.021 A 
ATOM     21  N   UNL A   1      30.892  23.944  27.117  1.00  0.00    -0.264 NA
ATOM     22  C   UNL A   1      30.437  24.750  26.134  1.00  0.00     0.111 A 
ENDBRANCH  10  17
ENDBRANCH   6   7
ENDBRANCH   5   6
ENDBRANCH   3   5
ENDBRANCH   2   3
ENDBRANCH   1   2
BRANCH   1  23
ATOM     23  C   UNL A   1      39.902  19.430  26.224  1.00  0.00     0.275 C 
BRANCH  23  24
ATOM     24  O   UNL A   1      41.020  18.887  25.493  1.00  0.00    -0.458 OA
BRANCH  24  25
ATOM     25  C   UNL A   1      42.235  18.979  26.091  1.00  0.00     0.338 C 
ATOM     26  O   UNL A   1      43.106  18.129  26.119  1.00  0.00    -0.246 OA
BRANCH  25  27
ATOM     27  C   UNL A   1      42.427  20.381  26.531  1.00  0.00     0.060 A 
ATOM     28  C   UNL A   1      42.792  21.332  25.570  1.00  0.00     0.016 A 
ATOM     29  C   UNL A   1      42.185  20.773  27.852  1.00  0.00     0.016 A 
ATOM     30  C   UNL A   1      42.930  22.674  25.933  1.00  0.00     0.010 A 
ATOM     31  C   UNL A   1      42.330  22.116  28.215  1.00  0.00     0.010 A 
ATOM     32  C   UNL A   1      42.721  23.070  27.262  1.00  0.00    -0.014 A 
BRANCH  32  33
ATOM     33  C   UNL A   1      43.032  24.457  27.678  1.00  0.00     0.031 A 
ATOM     34  C   UNL A   1      44.467  24.896  27.738  1.00  0.00     0.074 A 
ATOM     35  C   UNL A   1      42.055  25.326  27.998  1.00  0.00     0.049 A 
ATOM     36  N   UNL A   1      44.959  26.082  27.989  1.00  0.00    -0.248 NA
ATOM     37  C   UNL A   1      45.480  23.860  27.481  1.00  0.00     0.031 C 
ATOM     38  C   UNL A   1      40.623  25.035  27.985  1.00  0.00     0.029 A 
ATOM     39  N   UNL A   1      42.132  26.639  28.393  1.00  0.00    -0.354 N 
ATOM     40  C   UNL A   1      46.337  25.942  27.899  1.00  0.00     0.074 A 
ATOM     41  C   UNL A   1      46.605  24.547  27.621  1.00  0.00     0.031 C 
ATOM     42  C   UNL A   1      39.953  26.141  28.353  1.00  0.00     0.029 A 
ATOM     43  C   UNL A   1      40.909  27.214  28.632  1.00  0.00     0.049 A 
ATOM     44  H   UNL A   1      42.983  27.122  28.495  1.00  0.00     0.167 HD
ATOM     45  C   UNL A   1      47.294  26.890  28.018  1.00  0.00     0.031 A 
ATOM     46  C   UNL A   1      40.593  28.465  29.022  1.00  0.00     0.031 A 
ATOM     47  C   UNL A   1      47.041  28.270  28.320  1.00  0.00     0.049 A 
ATOM     48  C   UNL A   1      41.677  29.488  29.227  1.00  0.00     0.074 A 
ATOM     49  C   UNL A   1      47.947  29.312  28.409  1.00  0.00     0.029 A 
ATOM     50  N   UNL A   1      45.792  28.798  28.606  1.00  0.00    -0.354 N 
ATOM     51  N   UNL A   1      42.969  29.364  29.049  1.00  0.00    -0.248 NA
ATOM     52  C   UNL A   1      41.259  30.826  29.674  1.00  0.00     0.031 C 
ATOM     53  C   UNL A   1      47.254  30.459  28.807  1.00  0.00     0.029 A 
ATOM     54  C   UNL A   1      45.909  30.141  28.915  1.00  0.00     0.049 A 
ATOM     55  H   UNL A   1      44.948  28.291  28.592  1.00  0.00     0.167 HD
ATOM     56  C   UNL A   1      43.515  30.610  29.335  1.00  0.00     0.074 A 
ATOM     57  C   UNL A   1      42.415  31.477  29.701  1.00  0.00     0.031 C 
ATOM     58  C   UNL A   1      44.813  30.997  29.286  1.00  0.00     0.031 A 
BRANCH  45  59
ATOM     59  C   UNL A   1      48.717  26.452  27.830  1.00  0.00    -0.014 A 
ATOM     60  C   UNL A   1      49.493  26.034  28.922  1.00  0.00     0.009 A 
ATOM     61  C   UNL A   1      49.279  26.429  26.544  1.00  0.00     0.009 A 
ATOM     62  C   UNL A   1      50.818  25.635  28.734  1.00  0.00     0.001 A 
ATOM     63  C   UNL A   1      50.595  26.008  26.357  1.00  0.00     0.001 A 
ATOM     64  C   UNL A   1      51.366  25.620  27.452  1.00  0.00     0.000 A 
ENDBRANCH  45  59
BRANCH  46  65
ATOM     65  C   UNL A   1      39.165  28.824  29.219  1.00  0.00    -0.014 A 
ATOM     66  C   UNL A   1      38.559  28.660  30.472  1.00  0.00     0.009 A 
ATOM     67  C   UNL A   1      38.414  29.365  28.163  1.00  0.00     0.009 A 
ATOM     68  C   UNL A   1      37.225  29.027  30.664  1.00  0.00     0.001 A 
ATOM     69  C   UNL A   1      37.087  29.746  28.363  1.00  0.00     0.001 A 
ATOM     70  C   UNL A   1      36.492  29.575  29.612  1.00  0.00     0.000 A 
ENDBRANCH  46  65
BRANCH  58  71
ATOM     71  C   UNL A   1      45.141  32.423  29.625  1.00  0.00    -0.014 A 
ATOM     72  C   UNL A   1      45.524  32.786  30.925  1.00  0.00     0.009 A 
ATOM     73  C   UNL A   1      45.186  33.388  28.605  1.00  0.00     0.009 A 
ATOM     74  C   UNL A   1      45.944  34.090  31.197  1.00  0.00     0.001 A 
ATOM     75  C   UNL A   1      45.627  34.685  28.877  1.00  0.00     0.001 A 
ATOM     76  C   UNL A   1      46.005  35.035  30.172  1.00  0.00     0.000 A 
ENDBRANCH  58  71
ENDBRANCH  32  33
ENDBRANCH  25  27
ENDBRANCH  24  25
ENDBRANCH  23  24
ENDBRANCH   1  23
TORSDOF 14
ENDMDL
MODEL 3
REMARK VINA RESULT:     -11.0      5.507     10.405
REMARK SMILES O=C(COc1nc(-c2cccnc2)nc2c1CCCC2)OCCOC(=O)c1ccc(-c2c3nc(c(-c4ccccc4)c4ccc([nH]4)c(-c4ccccc4)c4nc(c(-c5ccccc5)c5ccc2[nH]5)C=C4)C=C3)cc1
REMARK SMILES IDX 22 1 21 2 2 3 1 4 3 5 4 6 5 7 6 8 16 9 7 10 15 11 17 12
REMARK SMILES IDX 14 13 20 14 18 15 19 16 8 17 9 18 13 19 10 20 12 21 11 22
REMARK SMILES IDX 23 23 24 24 25 25 26 26 27 27 28 28 74 29 29 30 73 31 30 32
REMARK SMILES IDX 31 33 32 34 67 35 33 36 72 37 66 38 68 39 34 40 71 41 65 42
REMARK SMILES IDX 64 43 35 45 57 46 42 47 56 48 43 49 46 50 55 51 69 52 44 53
REMARK SMILES IDX 45 54 54 56 70 57 47 58 36 59 37 60 41 61 38 62 40 63 39 64
REMARK SMILES IDX 58 65 59 66 63 67 60 68 62 69 61 70 48 71 49 72 53 73 50 74
REMARK SMILES IDX 52 75 51 76
REMARK H PARENT 68 44 46 55
REMARK Flexibility Score: inf
ROOT
ATOM      1  C   UNL A   1      31.981  31.354  26.677  1.00  0.00     0.274 C 
ENDROOT
BRANCH   1   2
ATOM      2  O   UNL A   1      32.911  30.648  27.524  1.00  0.00    -0.460 OA
BRANCH   2   3
ATOM      3  C   UNL A   1      34.077  30.112  27.086  1.00  0.00     0.344 C 
ATOM      4  O   UNL A   1      35.151  30.521  27.523  1.00  0.00    -0.248 OA
BRANCH   3   5
ATOM      5  C   UNL A   1      34.023  29.034  26.005  1.00  0.00     0.353 C 
BRANCH   5   6
ATOM      6  O   UNL A   1      33.313  27.837  26.285  1.00  0.00    -0.465 OA
BRANCH   6   7
ATOM      7  C   UNL A   1      32.765  27.383  25.111  1.00  0.00     0.221 A 
ATOM      8  N   UNL A   1      31.851  28.180  24.552  1.00  0.00    -0.193 NA
ATOM      9  C   UNL A   1      33.163  26.163  24.615  1.00  0.00     0.036 A 
ATOM     10  C   UNL A   1      31.241  27.698  23.463  1.00  0.00     0.164 A 
ATOM     11  C   UNL A   1      32.540  25.793  23.437  1.00  0.00     0.051 A 
ATOM     12  C   UNL A   1      34.199  25.325  25.302  1.00  0.00     0.043 C 
ATOM     13  N   UNL A   1      31.550  26.526  22.874  1.00  0.00    -0.232 NA
ATOM     14  C   UNL A   1      32.902  24.501  22.748  1.00  0.00     0.057 C 
ATOM     15  C   UNL A   1      34.311  23.912  24.731  1.00  0.00     0.005 C 
ATOM     16  C   UNL A   1      34.252  23.947  23.208  1.00  0.00     0.007 C 
BRANCH  10  17
ATOM     17  C   UNL A   1      30.120  28.484  22.952  1.00  0.00     0.038 A 
ATOM     18  C   UNL A   1      28.791  28.201  23.309  1.00  0.00     0.015 A 
ATOM     19  C   UNL A   1      30.298  29.508  22.025  1.00  0.00     0.123 A 
ATOM     20  C   UNL A   1      27.736  28.915  22.744  1.00  0.00     0.021 A 
ATOM     21  N   UNL A   1      29.293  30.223  21.453  1.00  0.00    -0.264 NA
ATOM     22  C   UNL A   1      28.036  29.901  21.823  1.00  0.00     0.111 A 
ENDBRANCH  10  17
ENDBRANCH   6   7
ENDBRANCH   5   6
ENDBRANCH   3   5
ENDBRANCH   2   3
ENDBRANCH   1   2
BRANCH   1  23
ATOM     23  C   UNL A   1      31.748  32.778  27.191  1.00  0.00     0.275 C 
BRANCH  23  24
ATOM     24  O   UNL A   1      32.995  33.501  27.213  1.00  0.00    -0.458 OA
BRANCH  24  25
ATOM     25  C   UNL A   1      33.284  34.174  28.356  1.00  0.00     0.338 C 
ATOM     26  O   UNL A   1      32.611  35.035  28.891  1.00  0.00    -0.246 OA
BRANCH  25  27
ATOM     27  C   UNL A   1      34.466  33.535  28.981  1.00  0.00     0.060 A 
ATOM     28  C   UNL A   1      35.736  33.879  28.502  1.00  0.00     0.016 A 
ATOM     29  C   UNL A   1      34.337  32.663  30.067  1.00  0.00     0.016 A 
ATOM     30  C   UNL A   1      36.878  33.340  29.099  1.00  0.00     0.010 A 
ATOM     31  C   UNL A   1      35.481  32.119  30.660  1.00  0.00     0.010 A 
ATOM     32  C   UNL A   1      36.756  32.440  30.167  1.00  0.00    -0.014 A 
BRANCH  32  33
ATOM     33  C   UNL A   1      37.955  31.741  30.686  1.00  0.00     0.031 A 
ATOM     34  C   UNL A   1      38.479  32.104  32.045  1.00  0.00     0.074 A 
ATOM     35  C   UNL A   1      38.575  30.789  29.965  1.00  0.00     0.049 A 
ATOM     36  N   UNL A   1      39.455  31.561  32.727  1.00  0.00    -0.248 NA
ATOM     37  C   UNL A   1      37.815  33.228  32.725  1.00  0.00     0.031 C 
ATOM     38  C   UNL A   1      38.177  30.339  28.633  1.00  0.00     0.029 A 
ATOM     39  N   UNL A   1      39.678  30.028  30.265  1.00  0.00    -0.354 N 
ATOM     40  C   UNL A   1      39.509  32.262  33.925  1.00  0.00     0.074 A 
ATOM     41  C   UNL A   1      38.503  33.300  33.856  1.00  0.00     0.031 C 
ATOM     42  C   UNL A   1      39.022  29.374  28.231  1.00  0.00     0.029 A 
ATOM     43  C   UNL A   1      40.023  29.143  29.274  1.00  0.00     0.049 A 
ATOM     44  H   UNL A   1      40.173  30.108  31.112  1.00  0.00     0.167 HD
ATOM     45  C   UNL A   1      40.309  32.050  34.994  1.00  0.00     0.031 A 
ATOM     46  C   UNL A   1      41.025  28.244  29.215  1.00  0.00     0.031 A 
ATOM     47  C   UNL A   1      41.329  31.041  35.063  1.00  0.00     0.049 A 
ATOM     48  C   UNL A   1      41.957  28.076  30.384  1.00  0.00     0.074 A 
ATOM     49  C   UNL A   1      42.153  30.722  36.127  1.00  0.00     0.029 A 
ATOM     50  N   UNL A   1      41.678  30.203  34.017  1.00  0.00    -0.354 N 
ATOM     51  N   UNL A   1      41.938  28.682  31.545  1.00  0.00    -0.248 NA
ATOM     52  C   UNL A   1      43.040  27.090  30.240  1.00  0.00     0.031 C 
ATOM     53  C   UNL A   1      43.043  29.729  35.705  1.00  0.00     0.029 A 
ATOM     54  C   UNL A   1      42.737  29.397  34.395  1.00  0.00     0.049 A 
ATOM     55  H   UNL A   1      41.239  30.186  33.135  1.00  0.00     0.167 HD
ATOM     56  C   UNL A   1      42.986  28.136  32.279  1.00  0.00     0.074 A 
ATOM     57  C   UNL A   1      43.622  27.151  31.431  1.00  0.00     0.031 C 
ATOM     58  C   UNL A   1      43.372  28.423  33.545  1.00  0.00     0.031 A 
BRANCH  45  59
ATOM     59  C   UNL A   1      40.115  32.948  36.181  1.00  0.00    -0.014 A 
ATOM     60  C   UNL A   1      39.184  32.629  37.182  1.00  0.00     0.009 A 
ATOM     61  C   UNL A   1      40.892  34.109  36.315  1.00  0.00     0.009 A 
ATOM     62  C   UNL A   1      39.009  33.476  38.277  1.00  0.00     0.001 A 
ATOM     63  C   UNL A   1      40.732  34.941  37.423  1.00  0.00     0.001 A 
ATOM     64  C   UNL A   1      39.785  34.629  38.398  1.00  0.00     0.000 A 
ENDBRANCH  45  59
BRANCH  46  65
ATOM     65  C   UNL A   1      41.178  27.407  27.998  1.00  0.00    -0.014 A 
ATOM     66  C   UNL A   1      40.543  26.160  27.911  1.00  0.00     0.009 A 
ATOM     67  C   UNL A   1      41.930  27.868  26.905  1.00  0.00     0.009 A 
ATOM     68  C   UNL A   1      40.663  25.387  26.754  1.00  0.00     0.001 A 
ATOM     69  C   UNL A   1      42.033  27.100  25.745  1.00  0.00     0.001 A 
ATOM     70  C   UNL A   1      41.402  25.859  25.669  1.00  0.00     0.000 A 
ENDBRANCH  46  65
BRANCH  58  71
ATOM     71  C   UNL A   1      44.535  27.666  34.121  1.00  0.00    -0.014 A 
ATOM     72  C   UNL A   1      44.349  26.425  34.747  1.00  0.00     0.009 A 
ATOM     73  C   UNL A   1      45.841  28.144  33.925  1.00  0.00     0.009 A 
ATOM     74  C   UNL A   1      45.451  25.676  35.167  1.00  0.00     0.001 A 
ATOM     75  C   UNL A   1      46.941  27.383  34.328  1.00  0.00     0.001 A 
ATOM     76  C   UNL A   1      46.744  26.150  34.949  1.00  0.00     0.000 A 
ENDBRANCH  58  71
ENDBRANCH  32  33
ENDBRANCH  25  27
ENDBRANCH  24  25
ENDBRANCH  23  24
ENDBRANCH   1  23
TORSDOF 14
ENDMDL
