MODEL 1
REMARK VINA RESULT:     -11.9      0.000      0.000
REMARK SMILES Nc1c(N2CCC(C(=O)OCCOC(=O)c3ccc(-c4c5nc(c(-c6ccccc6)c6ccc([nH]6)c(-c6ccccc6)c6nc(c(-c7ccccc7)c7ccc4[nH]7)C=C6)C=C5)cc3)CC2)ncnc1N1CCN(c2ccccc2)CC1
REMARK SMILES IDX 11 1 10 2 8 3 9 4 7 5 4 6 5 7 65 8 6 9 64 10 3 11 2 12 69 13
REMARK SMILES IDX 66 14 68 15 67 16 1 17 70 20 71 21 81 22 72 23 80 24 73 25
REMARK SMILES IDX 74 26 75 27 79 28 76 29 78 30 77 31 12 32 13 33 14 34 15 35
REMARK SMILES IDX 16 36 17 37 63 38 18 39 62 40 19 41 20 42 21 43 56 44 22 45
REMARK SMILES IDX 61 46 55 47 57 48 23 49 60 50 54 51 53 52 24 54 46 55 31 56
REMARK SMILES IDX 45 57 32 58 35 59 44 60 58 61 33 62 34 63 43 65 59 66 36 67
REMARK SMILES IDX 25 68 26 69 30 70 27 71 29 72 28 73 47 74 48 75 52 76 49 77
REMARK SMILES IDX 51 78 50 79 37 80 38 81 42 82 39 83 41 84 40 85
REMARK H PARENT 1 18 1 19 57 53 35 64
REMARK Flexibility Score: inf
ROOT
ATOM      1  C   UNL A   1      34.345  34.025  30.257  1.00  0.00     0.274 C 
ENDROOT
BRANCH   1   2
ATOM      2  O   UNL A   1      33.783  32.901  29.558  1.00  0.00    -0.462 OA
BRANCH   2   3
ATOM      3  C   UNL A   1      34.419  32.531  28.422  1.00  0.00     0.309 C 
ATOM      4  O   UNL A   1      35.294  33.182  27.859  1.00  0.00    -0.252 OA
BRANCH   3   5
ATOM      5  C   UNL A   1      33.956  31.197  27.891  1.00  0.00     0.103 C 
ATOM      6  N   UNL A   1      33.387  29.002  26.234  1.00  0.00    -0.355 N 
ATOM      7  C   UNL A   1      32.264  29.803  26.684  1.00  0.00     0.119 C 
ATOM      8  C   UNL A   1      34.679  29.044  26.905  1.00  0.00     0.119 C 
ATOM      9  C   UNL A   1      32.709  31.224  27.007  1.00  0.00     0.037 C 
ATOM     10  C   UNL A   1      35.092  30.486  27.164  1.00  0.00     0.037 C 
BRANCH   6  11
ATOM     11  C   UNL A   1      33.311  28.360  25.008  1.00  0.00     0.157 A 
ATOM     12  C   UNL A   1      33.323  26.963  24.967  1.00  0.00     0.118 A 
ATOM     13  C   UNL A   1      33.399  26.378  23.697  1.00  0.00     0.157 A 
ATOM     14  N   UNL A   1      33.328  29.109  23.894  1.00  0.00    -0.217 NA
ATOM     15  N   UNL A   1      33.497  27.107  22.576  1.00  0.00    -0.217 NA
ATOM     16  C   UNL A   1      33.428  28.438  22.737  1.00  0.00     0.226 A 
BRANCH  12  17
ATOM     17  N   UNL A   1      33.194  26.182  26.132  1.00  0.00    -0.393 N 
ATOM     18  H   UNL A   1      33.287  26.601  27.018  1.00  0.00     0.156 HD
ATOM     19  H   UNL A   1      33.012  25.218  26.059  1.00  0.00     0.156 HD
ENDBRANCH  12  17
BRANCH  13  20
ATOM     20  N   UNL A   1      33.437  25.002  23.616  1.00  0.00    -0.351 N 
ATOM     21  C   UNL A   1      34.711  24.296  23.581  1.00  0.00     0.139 C 
ATOM     22  C   UNL A   1      32.282  24.280  23.079  1.00  0.00     0.139 C 
ATOM     23  C   UNL A   1      34.558  22.986  24.395  1.00  0.00     0.138 C 
ATOM     24  C   UNL A   1      32.112  22.949  23.842  1.00  0.00     0.138 C 
ATOM     25  N   UNL A   1      33.394  22.219  23.914  1.00  0.00    -0.368 N 
BRANCH  25  26
ATOM     26  C   UNL A   1      33.362  20.841  23.994  1.00  0.00     0.037 A 
ATOM     27  C   UNL A   1      32.341  20.073  23.424  1.00  0.00     0.026 A 
ATOM     28  C   UNL A   1      34.370  20.170  24.699  1.00  0.00     0.026 A 
ATOM     29  C   UNL A   1      32.326  18.681  23.561  1.00  0.00     0.002 A 
ATOM     30  C   UNL A   1      34.354  18.784  24.852  1.00  0.00     0.002 A 
ATOM     31  C   UNL A   1      33.329  18.038  24.282  1.00  0.00     0.000 A 
ENDBRANCH  25  26
ENDBRANCH  13  20
ENDBRANCH   6  11
ENDBRANCH   3   5
ENDBRANCH   2   3
ENDBRANCH   1   2
BRANCH   1  32
ATOM     32  C   UNL A   1      34.478  33.732  31.753  1.00  0.00     0.275 C 
BRANCH  32  33
ATOM     33  O   UNL A   1      34.804  32.350  32.003  1.00  0.00    -0.458 OA
BRANCH  33  34
ATOM     34  C   UNL A   1      35.888  32.148  32.788  1.00  0.00     0.338 C 
ATOM     35  O   UNL A   1      36.004  32.398  33.975  1.00  0.00    -0.246 OA
BRANCH  34  36
ATOM     36  C   UNL A   1      36.941  31.463  32.025  1.00  0.00     0.060 A 
ATOM     37  C   UNL A   1      37.982  30.860  32.735  1.00  0.00     0.016 A 
ATOM     38  C   UNL A   1      36.973  31.520  30.632  1.00  0.00     0.016 A 
ATOM     39  C   UNL A   1      39.069  30.316  32.060  1.00  0.00     0.010 A 
ATOM     40  C   UNL A   1      38.066  30.974  29.952  1.00  0.00     0.010 A 
ATOM     41  C   UNL A   1      39.126  30.384  30.664  1.00  0.00    -0.014 A 
BRANCH  41  42
ATOM     42  C   UNL A   1      40.329  29.896  29.952  1.00  0.00     0.031 A 
ATOM     43  C   UNL A   1      41.502  30.812  29.761  1.00  0.00     0.074 A 
ATOM     44  C   UNL A   1      40.381  28.629  29.507  1.00  0.00     0.049 A 
ATOM     45  N   UNL A   1      42.597  30.618  29.072  1.00  0.00    -0.248 NA
ATOM     46  C   UNL A   1      41.438  32.115  30.442  1.00  0.00     0.031 C 
ATOM     47  C   UNL A   1      39.343  27.618  29.705  1.00  0.00     0.029 A 
ATOM     48  N   UNL A   1      41.354  27.978  28.794  1.00  0.00    -0.354 N 
ATOM     49  C   UNL A   1      43.344  31.779  29.219  1.00  0.00     0.074 A 
ATOM     50  C   UNL A   1      42.576  32.676  30.058  1.00  0.00     0.031 C 
ATOM     51  C   UNL A   1      39.737  26.471  29.130  1.00  0.00     0.029 A 
ATOM     52  C   UNL A   1      41.027  26.683  28.478  1.00  0.00     0.049 A 
ATOM     53  H   UNL A   1      42.207  28.397  28.534  1.00  0.00     0.167 HD
ATOM     54  C   UNL A   1      44.559  32.072  28.698  1.00  0.00     0.031 A 
ATOM     55  C   UNL A   1      41.676  25.781  27.720  1.00  0.00     0.031 A 
ATOM     56  C   UNL A   1      45.316  31.184  27.857  1.00  0.00     0.049 A 
ATOM     57  C   UNL A   1      42.975  26.164  27.069  1.00  0.00     0.074 A 
ATOM     58  C   UNL A   1      46.542  31.402  27.254  1.00  0.00     0.029 A 
ATOM     59  N   UNL A   1      44.916  29.905  27.503  1.00  0.00    -0.354 N 
ATOM     60  N   UNL A   1      43.644  27.286  27.163  1.00  0.00    -0.248 NA
ATOM     61  C   UNL A   1      43.600  25.158  26.197  1.00  0.00     0.031 C 
ATOM     62  C   UNL A   1      46.867  30.266  26.503  1.00  0.00     0.029 A 
ATOM     63  C   UNL A   1      45.865  29.326  26.677  1.00  0.00     0.049 A 
ATOM     64  H   UNL A   1      44.082  29.472  27.796  1.00  0.00     0.167 HD
ATOM     65  C   UNL A   1      44.774  27.121  26.372  1.00  0.00     0.074 A 
ATOM     66  C   UNL A   1      44.707  25.784  25.819  1.00  0.00     0.031 C 
ATOM     67  C   UNL A   1      45.775  27.999  26.126  1.00  0.00     0.031 A 
BRANCH  54  68
ATOM     68  C   UNL A   1      45.124  33.431  28.990  1.00  0.00    -0.014 A 
ATOM     69  C   UNL A   1      44.928  34.505  28.110  1.00  0.00     0.009 A 
ATOM     70  C   UNL A   1      45.837  33.646  30.180  1.00  0.00     0.009 A 
ATOM     71  C   UNL A   1      45.456  35.764  28.405  1.00  0.00     0.001 A 
ATOM     72  C   UNL A   1      46.346  34.909  30.481  1.00  0.00     0.001 A 
ATOM     73  C   UNL A   1      46.161  35.966  29.591  1.00  0.00     0.000 A 
ENDBRANCH  54  68
BRANCH  55  74
ATOM     74  C   UNL A   1      41.082  24.438  27.505  1.00  0.00    -0.014 A 
ATOM     75  C   UNL A   1      39.993  24.272  26.638  1.00  0.00     0.009 A 
ATOM     76  C   UNL A   1      41.615  23.312  28.152  1.00  0.00     0.009 A 
ATOM     77  C   UNL A   1      39.445  23.005  26.428  1.00  0.00     0.001 A 
ATOM     78  C   UNL A   1      41.080  22.044  27.923  1.00  0.00     0.001 A 
ATOM     79  C   UNL A   1      39.993  21.891  27.064  1.00  0.00     0.000 A 
ENDBRANCH  55  74
BRANCH  67  80
ATOM     80  C   UNL A   1      46.889  27.536  25.234  1.00  0.00    -0.014 A 
ATOM     81  C   UNL A   1      46.918  27.882  23.875  1.00  0.00     0.009 A 
ATOM     82  C   UNL A   1      47.945  26.782  25.770  1.00  0.00     0.009 A 
ATOM     83  C   UNL A   1      47.974  27.461  23.064  1.00  0.00     0.001 A 
ATOM     84  C   UNL A   1      49.009  26.381  24.963  1.00  0.00     0.001 A 
ATOM     85  C   UNL A   1      49.020  26.715  23.609  1.00  0.00     0.000 A 
ENDBRANCH  67  80
ENDBRANCH  41  42
ENDBRANCH  34  36
ENDBRANCH  33  34
ENDBRANCH  32  33
ENDBRANCH   1  32
TORSDOF 15
ENDMDL
MODEL 2
REMARK VINA RESULT:     -11.8      4.791     10.124
REMARK SMILES Nc1c(N2CCC(C(=O)OCCOC(=O)c3ccc(-c4c5nc(c(-c6ccccc6)c6ccc([nH]6)c(-c6ccccc6)c6nc(c(-c7ccccc7)c7ccc4[nH]7)C=C6)C=C5)cc3)CC2)ncnc1N1CCN(c2ccccc2)CC1
REMARK SMILES IDX 11 1 10 2 8 3 9 4 7 5 4 6 5 7 65 8 6 9 64 10 3 11 2 12 69 13
REMARK SMILES IDX 66 14 68 15 67 16 1 17 70 20 71 21 81 22 72 23 80 24 73 25
REMARK SMILES IDX 74 26 75 27 79 28 76 29 78 30 77 31 12 32 13 33 14 34 15 35
REMARK SMILES IDX 16 36 17 37 63 38 18 39 62 40 19 41 20 42 21 43 56 44 22 45
REMARK SMILES IDX 61 46 55 47 57 48 23 49 60 50 54 51 53 52 24 54 46 55 31 56
REMARK SMILES IDX 45 57 32 58 35 59 44 60 58 61 33 62 34 63 43 65 59 66 36 67
REMARK SMILES IDX 25 68 26 69 30 70 27 71 29 72 28 73 47 74 48 75 52 76 49 77
REMARK SMILES IDX 51 78 50 79 37 80 38 81 42 82 39 83 41 84 40 85
REMARK H PARENT 1 18 1 19 57 53 35 64
REMARK Flexibility Score: inf
ROOT
ATOM      1  C   UNL A   1      40.303  21.559  26.231  1.00  0.00     0.274 C 
ENDROOT
BRANCH   1   2
ATOM      2  O   UNL A   1      38.939  22.013  26.240  1.00  0.00    -0.462 OA
BRANCH   2   3
ATOM      3  C   UNL A   1      38.104  21.398  25.369  1.00  0.00     0.309 C 
ATOM      4  O   UNL A   1      38.230  20.246  24.966  1.00  0.00    -0.252 OA
BRANCH   3   5
ATOM      5  C   UNL A   1      36.956  22.272  24.929  1.00  0.00     0.103 C 
ATOM      6  N   UNL A   1      34.542  23.700  24.814  1.00  0.00    -0.355 N 
ATOM      7  C   UNL A   1      34.660  22.529  23.967  1.00  0.00     0.119 C 
ATOM      8  C   UNL A   1      35.709  24.362  25.378  1.00  0.00     0.119 C 
ATOM      9  C   UNL A   1      35.668  21.542  24.546  1.00  0.00     0.037 C 
ATOM     10  C   UNL A   1      36.659  23.336  25.979  1.00  0.00     0.037 C 
BRANCH   6  11
ATOM     11  C   UNL A   1      33.293  24.065  25.291  1.00  0.00     0.157 A 
ATOM     12  C   UNL A   1      32.678  25.215  24.786  1.00  0.00     0.118 A 
ATOM     13  C   UNL A   1      31.493  25.615  25.416  1.00  0.00     0.157 A 
ATOM     14  N   UNL A   1      32.760  23.351  26.296  1.00  0.00    -0.217 NA
ATOM     15  N   UNL A   1      30.985  24.962  26.472  1.00  0.00    -0.217 NA
ATOM     16  C   UNL A   1      31.636  23.846  26.836  1.00  0.00     0.226 A 
BRANCH  12  17
ATOM     17  N   UNL A   1      33.182  25.897  23.663  1.00  0.00    -0.393 N 
ATOM     18  H   UNL A   1      33.392  25.400  22.839  1.00  0.00     0.156 HD
ATOM     19  H   UNL A   1      33.324  26.870  23.701  1.00  0.00     0.156 HD
ENDBRANCH  12  17
BRANCH  13  20
ATOM     20  N   UNL A   1      30.869  26.758  24.963  1.00  0.00    -0.351 N 
ATOM     21  C   UNL A   1      31.157  28.050  25.570  1.00  0.00     0.139 C 
ATOM     22  C   UNL A   1      29.596  26.648  24.247  1.00  0.00     0.139 C 
ATOM     23  C   UNL A   1      31.159  29.120  24.448  1.00  0.00     0.138 C 
ATOM     24  C   UNL A   1      29.541  27.721  23.137  1.00  0.00     0.138 C 
ATOM     25  N   UNL A   1      29.905  29.048  23.674  1.00  0.00    -0.368 N 
BRANCH  25  26
ATOM     26  C   UNL A   1      29.371  30.169  23.071  1.00  0.00     0.037 A 
ATOM     27  C   UNL A   1      29.111  31.353  23.770  1.00  0.00     0.026 A 
ATOM     28  C   UNL A   1      29.041  30.127  21.710  1.00  0.00     0.026 A 
ATOM     29  C   UNL A   1      28.533  32.455  23.129  1.00  0.00     0.002 A 
ATOM     30  C   UNL A   1      28.451  31.216  21.068  1.00  0.00     0.002 A 
ATOM     31  C   UNL A   1      28.197  32.382  21.780  1.00  0.00     0.000 A 
ENDBRANCH  25  26
ENDBRANCH  13  20
ENDBRANCH   6  11
ENDBRANCH   3   5
ENDBRANCH   2   3
ENDBRANCH   1   2
BRANCH   1  32
ATOM     32  C   UNL A   1      41.276  22.740  26.274  1.00  0.00     0.275 C 
BRANCH  32  33
ATOM     33  O   UNL A   1      40.584  24.003  26.341  1.00  0.00    -0.458 OA
BRANCH  33  34
ATOM     34  C   UNL A   1      41.374  25.097  26.238  1.00  0.00     0.338 C 
ATOM     35  O   UNL A   1      42.225  25.324  25.397  1.00  0.00    -0.246 OA
BRANCH  34  36
ATOM     36  C   UNL A   1      41.000  26.085  27.260  1.00  0.00     0.060 A 
ATOM     37  C   UNL A   1      41.791  27.229  27.390  1.00  0.00     0.016 A 
ATOM     38  C   UNL A   1      39.967  25.832  28.161  1.00  0.00     0.016 A 
ATOM     39  C   UNL A   1      41.561  28.127  28.427  1.00  0.00     0.010 A 
ATOM     40  C   UNL A   1      39.735  26.734  29.205  1.00  0.00     0.010 A 
ATOM     41  C   UNL A   1      40.541  27.877  29.351  1.00  0.00    -0.014 A 
BRANCH  41  42
ATOM     42  C   UNL A   1      40.363  28.779  30.511  1.00  0.00     0.031 A 
ATOM     43  C   UNL A   1      39.325  29.861  30.459  1.00  0.00     0.074 A 
ATOM     44  C   UNL A   1      41.106  28.608  31.618  1.00  0.00     0.049 A 
ATOM     45  N   UNL A   1      39.089  30.820  31.316  1.00  0.00    -0.248 NA
ATOM     46  C   UNL A   1      38.429  29.858  29.291  1.00  0.00     0.031 C 
ATOM     47  C   UNL A   1      42.086  27.542  31.824  1.00  0.00     0.029 A 
ATOM     48  N   UNL A   1      41.148  29.335  32.780  1.00  0.00    -0.354 N 
ATOM     49  C   UNL A   1      38.032  31.548  30.784  1.00  0.00     0.074 A 
ATOM     50  C   UNL A   1      37.676  30.923  29.527  1.00  0.00     0.031 C 
ATOM     51  C   UNL A   1      42.631  27.682  33.043  1.00  0.00     0.029 A 
ATOM     52  C   UNL A   1      42.079  28.876  33.679  1.00  0.00     0.049 A 
ATOM     53  H   UNL A   1      40.567  30.111  32.954  1.00  0.00     0.167 HD
ATOM     54  C   UNL A   1      37.418  32.640  31.296  1.00  0.00     0.031 A 
ATOM     55  C   UNL A   1      42.469  29.381  34.863  1.00  0.00     0.031 A 
ATOM     56  C   UNL A   1      37.780  33.265  32.540  1.00  0.00     0.049 A 
ATOM     57  C   UNL A   1      41.842  30.652  35.364  1.00  0.00     0.074 A 
ATOM     58  C   UNL A   1      37.239  34.395  33.128  1.00  0.00     0.029 A 
ATOM     59  N   UNL A   1      38.777  32.809  33.388  1.00  0.00    -0.354 N 
ATOM     60  N   UNL A   1      40.886  31.368  34.824  1.00  0.00    -0.248 NA
ATOM     61  C   UNL A   1      42.359  31.190  36.631  1.00  0.00     0.031 C 
ATOM     62  C   UNL A   1      37.935  34.645  34.316  1.00  0.00     0.029 A 
ATOM     63  C   UNL A   1      38.877  33.644  34.489  1.00  0.00     0.049 A 
ATOM     64  H   UNL A   1      39.331  32.011  33.232  1.00  0.00     0.167 HD
ATOM     65  C   UNL A   1      40.679  32.435  35.688  1.00  0.00     0.074 A 
ATOM     66  C   UNL A   1      41.597  32.264  36.795  1.00  0.00     0.031 C 
ATOM     67  C   UNL A   1      39.806  33.464  35.574  1.00  0.00     0.031 A 
BRANCH  54  68
ATOM     68  C   UNL A   1      36.316  33.254  30.484  1.00  0.00    -0.014 A 
ATOM     69  C   UNL A   1      34.983  33.214  30.919  1.00  0.00     0.009 A 
ATOM     70  C   UNL A   1      36.622  33.909  29.281  1.00  0.00     0.009 A 
ATOM     71  C   UNL A   1      33.973  33.799  30.151  1.00  0.00     0.001 A 
ATOM     72  C   UNL A   1      35.613  34.509  28.526  1.00  0.00     0.001 A 
ATOM     73  C   UNL A   1      34.290  34.449  28.958  1.00  0.00     0.000 A 
ENDBRANCH  54  68
BRANCH  55  74
ATOM     74  C   UNL A   1      43.536  28.700  35.637  1.00  0.00    -0.014 A 
ATOM     75  C   UNL A   1      44.882  29.040  35.444  1.00  0.00     0.009 A 
ATOM     76  C   UNL A   1      43.210  27.721  36.588  1.00  0.00     0.009 A 
ATOM     77  C   UNL A   1      45.883  28.406  36.184  1.00  0.00     0.001 A 
ATOM     78  C   UNL A   1      44.210  27.106  37.343  1.00  0.00     0.001 A 
ATOM     79  C   UNL A   1      45.546  27.446  37.137  1.00  0.00     0.000 A 
ENDBRANCH  55  74
BRANCH  67  80
ATOM     80  C   UNL A   1      39.791  34.476  36.682  1.00  0.00    -0.014 A 
ATOM     81  C   UNL A   1      40.517  35.671  36.580  1.00  0.00     0.009 A 
ATOM     82  C   UNL A   1      39.002  34.250  37.821  1.00  0.00     0.009 A 
ATOM     83  C   UNL A   1      40.472  36.612  37.611  1.00  0.00     0.001 A 
ATOM     84  C   UNL A   1      38.944  35.200  38.840  1.00  0.00     0.001 A 
ATOM     85  C   UNL A   1      39.683  36.377  38.738  1.00  0.00     0.000 A 
ENDBRANCH  67  80
ENDBRANCH  41  42
ENDBRANCH  34  36
ENDBRANCH  33  34
ENDBRANCH  32  33
ENDBRANCH   1  32
TORSDOF 15
ENDMDL
MODEL 3
REMARK VINA RESULT:     -11.7      4.420      8.780
REMARK SMILES Nc1c(N2CCC(C(=O)OCCOC(=O)c3ccc(-c4c5nc(c(-c6ccccc6)c6ccc([nH]6)c(-c6ccccc6)c6nc(c(-c7ccccc7)c7ccc4[nH]7)C=C6)C=C5)cc3)CC2)ncnc1N1CCN(c2ccccc2)CC1
REMARK SMILES IDX 11 1 10 2 8 3 9 4 7 5 4 6 5 7 65 8 6 9 64 10 3 11 2 12 69 13
REMARK SMILES IDX 66 14 68 15 67 16 1 17 70 20 71 21 81 22 72 23 80 24 73 25
REMARK SMILES IDX 74 26 75 27 79 28 76 29 78 30 77 31 12 32 13 33 14 34 15 35
REMARK SMILES IDX 16 36 17 37 63 38 18 39 62 40 19 41 20 42 21 43 56 44 22 45
REMARK SMILES IDX 61 46 55 47 57 48 23 49 60 50 54 51 53 52 24 54 46 55 31 56
REMARK SMILES IDX 45 57 32 58 35 59 44 60 58 61 33 62 34 63 43 65 59 66 36 67
REMARK SMILES IDX 25 68 26 69 30 70 27 71 29 72 28 73 47 74 48 75 52 76 49 77
REMARK SMILES IDX 51 78 50 79 37 80 38 81 42 82 39 83 41 84 40 85
REMARK H PARENT 1 18 1 19 57 53 35 64
REMARK Flexibility Score: inf
ROOT
ATOM      1  C   UNL A   1      40.104  21.298  26.493  1.00  0.00     0.274 C 
ENDROOT
BRANCH   1   2
ATOM      2  O   UNL A   1      38.886  21.988  26.164  1.00  0.00    -0.462 OA
BRANCH   2   3
ATOM      3  C   UNL A   1      38.044  21.339  25.326  1.00  0.00     0.309 C 
ATOM      4  O   UNL A   1      38.176  20.177  24.955  1.00  0.00    -0.252 OA
BRANCH   3   5
ATOM      5  C   UNL A   1      36.879  22.187  24.880  1.00  0.00     0.103 C 
ATOM      6  N   UNL A   1      34.459  23.606  24.772  1.00  0.00    -0.355 N 
ATOM      7  C   UNL A   1      34.549  22.389  23.989  1.00  0.00     0.119 C 
ATOM      8  C   UNL A   1      35.645  24.299  25.256  1.00  0.00     0.119 C 
ATOM      9  C   UNL A   1      35.580  21.437  24.585  1.00  0.00     0.037 C 
ATOM     10  C   UNL A   1      36.618  23.308  25.879  1.00  0.00     0.037 C 
BRANCH   6  11
ATOM     11  C   UNL A   1      33.228  23.998  25.274  1.00  0.00     0.157 A 
ATOM     12  C   UNL A   1      32.622  25.153  24.771  1.00  0.00     0.118 A 
ATOM     13  C   UNL A   1      31.458  25.580  25.423  1.00  0.00     0.157 A 
ATOM     14  N   UNL A   1      32.704  23.302  26.296  1.00  0.00    -0.217 NA
ATOM     15  N   UNL A   1      30.963  24.945  26.496  1.00  0.00    -0.217 NA
ATOM     16  C   UNL A   1      31.602  23.822  26.856  1.00  0.00     0.226 A 
BRANCH  12  17
ATOM     17  N   UNL A   1      33.113  25.817  23.630  1.00  0.00    -0.393 N 
ATOM     18  H   UNL A   1      32.513  25.997  22.870  1.00  0.00     0.156 HD
ATOM     19  H   UNL A   1      34.054  26.099  23.593  1.00  0.00     0.156 HD
ENDBRANCH  12  17
BRANCH  13  20
ATOM     20  N   UNL A   1      30.844  26.729  24.973  1.00  0.00    -0.351 N 
ATOM     21  C   UNL A   1      31.159  28.020  25.570  1.00  0.00     0.139 C 
ATOM     22  C   UNL A   1      29.561  26.635  24.274  1.00  0.00     0.139 C 
ATOM     23  C   UNL A   1      31.160  29.085  24.443  1.00  0.00     0.138 C 
ATOM     24  C   UNL A   1      29.506  27.703  23.160  1.00  0.00     0.138 C 
ATOM     25  N   UNL A   1      29.896  29.027  23.686  1.00  0.00    -0.368 N 
BRANCH  25  26
ATOM     26  C   UNL A   1      29.370  30.153  23.085  1.00  0.00     0.037 A 
ATOM     27  C   UNL A   1      29.131  31.343  23.782  1.00  0.00     0.026 A 
ATOM     28  C   UNL A   1      29.025  30.110  21.727  1.00  0.00     0.026 A 
ATOM     29  C   UNL A   1      28.561  32.449  23.144  1.00  0.00     0.002 A 
ATOM     30  C   UNL A   1      28.442  31.204  21.088  1.00  0.00     0.002 A 
ATOM     31  C   UNL A   1      28.210  32.376  21.799  1.00  0.00     0.000 A 
ENDBRANCH  25  26
ENDBRANCH  13  20
ENDBRANCH   6  11
ENDBRANCH   3   5
ENDBRANCH   2   3
ENDBRANCH   1   2
BRANCH   1  32
ATOM     32  C   UNL A   1      41.326  22.076  26.001  1.00  0.00     0.275 C 
BRANCH  32  33
ATOM     33  O   UNL A   1      41.747  23.074  26.954  1.00  0.00    -0.458 OA
BRANCH  33  34
ATOM     34  C   UNL A   1      41.409  24.346  26.642  1.00  0.00     0.338 C 
ATOM     35  O   UNL A   1      40.289  24.805  26.501  1.00  0.00    -0.246 OA
BRANCH  34  36
ATOM     36  C   UNL A   1      42.613  25.186  26.582  1.00  0.00     0.060 A 
ATOM     37  C   UNL A   1      43.222  25.551  27.785  1.00  0.00     0.016 A 
ATOM     38  C   UNL A   1      43.064  25.712  25.372  1.00  0.00     0.016 A 
ATOM     39  C   UNL A   1      44.281  26.452  27.791  1.00  0.00     0.010 A 
ATOM     40  C   UNL A   1      44.129  26.619  25.377  1.00  0.00     0.010 A 
ATOM     41  C   UNL A   1      44.731  27.005  26.587  1.00  0.00    -0.014 A 
BRANCH  41  42
ATOM     42  C   UNL A   1      45.791  28.039  26.603  1.00  0.00     0.031 A 
ATOM     43  C   UNL A   1      45.413  29.488  26.703  1.00  0.00     0.074 A 
ATOM     44  C   UNL A   1      47.085  27.678  26.561  1.00  0.00     0.049 A 
ATOM     45  N   UNL A   1      46.177  30.547  26.618  1.00  0.00    -0.248 NA
ATOM     46  C   UNL A   1      43.991  29.783  26.936  1.00  0.00     0.031 C 
ATOM     47  C   UNL A   1      47.581  26.302  26.550  1.00  0.00     0.029 A 
ATOM     48  N   UNL A   1      48.219  28.447  26.520  1.00  0.00    -0.354 N 
ATOM     49  C   UNL A   1      45.327  31.635  26.767  1.00  0.00     0.074 A 
ATOM     50  C   UNL A   1      43.990  31.109  26.943  1.00  0.00     0.031 C 
ATOM     51  C   UNL A   1      48.923  26.324  26.509  1.00  0.00     0.029 A 
ATOM     52  C   UNL A   1      49.375  27.711  26.436  1.00  0.00     0.049 A 
ATOM     53  H   UNL A   1      48.208  29.431  26.549  1.00  0.00     0.167 HD
ATOM     54  C   UNL A   1      45.635  32.953  26.756  1.00  0.00     0.031 A 
ATOM     55  C   UNL A   1      50.651  28.109  26.281  1.00  0.00     0.031 A 
ATOM     56  C   UNL A   1      46.963  33.474  26.572  1.00  0.00     0.049 A 
ATOM     57  C   UNL A   1      50.957  29.576  26.170  1.00  0.00     0.074 A 
ATOM     58  C   UNL A   1      47.373  34.795  26.513  1.00  0.00     0.029 A 
ATOM     59  N   UNL A   1      48.100  32.694  26.420  1.00  0.00    -0.354 N 
ATOM     60  N   UNL A   1      50.139  30.597  26.250  1.00  0.00    -0.248 NA
ATOM     61  C   UNL A   1      52.361  29.943  25.933  1.00  0.00     0.031 C 
ATOM     62  C   UNL A   1      48.754  34.814  26.287  1.00  0.00     0.029 A 
ATOM     63  C   UNL A   1      49.209  33.506  26.252  1.00  0.00     0.049 A 
ATOM     64  H   UNL A   1      48.115  31.710  26.430  1.00  0.00     0.167 HD
ATOM     65  C   UNL A   1      50.928  31.727  26.084  1.00  0.00     0.074 A 
ATOM     66  C   UNL A   1      52.291  31.267  25.915  1.00  0.00     0.031 C 
ATOM     67  C   UNL A   1      50.556  33.030  26.072  1.00  0.00     0.031 A 
BRANCH  54  68
ATOM     68  C   UNL A   1      44.503  33.926  26.904  1.00  0.00    -0.014 A 
ATOM     69  C   UNL A   1      43.826  34.430  25.784  1.00  0.00     0.009 A 
ATOM     70  C   UNL A   1      44.088  34.320  28.186  1.00  0.00     0.009 A 
ATOM     71  C   UNL A   1      42.769  35.329  25.944  1.00  0.00     0.001 A 
ATOM     72  C   UNL A   1      43.020  35.203  28.344  1.00  0.00     0.001 A 
ATOM     73  C   UNL A   1      42.365  35.711  27.224  1.00  0.00     0.000 A 
ENDBRANCH  54  68
BRANCH  55  74
ATOM     74  C   UNL A   1      51.730  27.095  26.184  1.00  0.00    -0.014 A 
ATOM     75  C   UNL A   1      52.500  26.765  27.309  1.00  0.00     0.009 A 
ATOM     76  C   UNL A   1      51.983  26.439  24.969  1.00  0.00     0.009 A 
ATOM     77  C   UNL A   1      53.506  25.801  27.216  1.00  0.00     0.001 A 
ATOM     78  C   UNL A   1      52.973  25.459  24.886  1.00  0.00     0.001 A 
ATOM     79  C   UNL A   1      53.737  25.143  26.008  1.00  0.00     0.000 A 
ENDBRANCH  55  74
BRANCH  67  80
ATOM     80  C   UNL A   1      51.639  34.051  25.887  1.00  0.00    -0.014 A 
ATOM     81  C   UNL A   1      51.968  34.532  24.612  1.00  0.00     0.009 A 
ATOM     82  C   UNL A   1      52.307  34.569  27.008  1.00  0.00     0.009 A 
ATOM     83  C   UNL A   1      52.964  35.500  24.460  1.00  0.00     0.001 A 
ATOM     84  C   UNL A   1      53.286  35.551  26.855  1.00  0.00     0.001 A 
ATOM     85  C   UNL A   1      53.619  36.011  25.582  1.00  0.00     0.000 A 
ENDBRANCH  67  80
ENDBRANCH  41  42
ENDBRANCH  34  36
ENDBRANCH  33  34
ENDBRANCH  32  33
ENDBRANCH   1  32
TORSDOF 15
ENDMDL
