MODEL 1
REMARK VINA RESULT:     -12.1      0.000      0.000
REMARK SMILES O=C(OCCOC(=O)[C@H]1CC[C@@H]2CCCC[C@H]2N1C(=O)N1CCSCC1)c1ccc(-c2c3nc(c(-c4ccccc4)c4ccc([nH]4)c(-c4ccccc4)c4nc(c(-c5ccccc5)c5ccc2[nH]5)C=C4)C=C3)cc1
REMARK SMILES IDX 4 1 3 2 2 3 1 4 27 5 28 6 74 7 29 8 73 9 30 10 31 11 32 12
REMARK SMILES IDX 67 13 33 14 72 15 66 16 68 17 34 18 71 19 65 20 64 21 35 23
REMARK SMILES IDX 57 24 42 25 56 26 43 27 46 28 55 29 69 30 44 31 45 32 54 34
REMARK SMILES IDX 70 35 47 36 36 37 37 38 41 39 38 40 40 41 39 42 58 43 59 44
REMARK SMILES IDX 63 45 60 46 62 47 61 48 48 49 49 50 53 51 50 52 52 53 51 54
REMARK SMILES IDX 5 55 6 56 7 57 8 58 9 59 10 60 18 61 11 62 17 63 12 64 16 65
REMARK SMILES IDX 13 66 15 67 14 68 19 69 20 70 21 71 22 72 26 73 23 74 25 75
REMARK SMILES IDX 24 76
REMARK H PARENT 68 22 46 33
REMARK Flexibility Score: inf
ROOT
ATOM      1  C   UNL A   1      32.780  36.509  31.610  1.00  0.00     0.275 C 
ENDROOT
BRANCH   1   2
ATOM      2  O   UNL A   1      32.199  35.824  30.485  1.00  0.00    -0.458 OA
BRANCH   2   3
ATOM      3  C   UNL A   1      32.906  35.905  29.331  1.00  0.00     0.338 C 
ATOM      4  O   UNL A   1      33.075  36.912  28.671  1.00  0.00    -0.246 OA
BRANCH   3   5
ATOM      5  C   UNL A   1      33.343  34.557  28.939  1.00  0.00     0.060 A 
ATOM      6  C   UNL A   1      34.731  33.801  29.825  1.00  0.00     0.016 A 
ATOM      7  C   UNL A   1      32.524  33.625  27.613  1.00  0.00     0.016 A 
ATOM      8  C   UNL A   1      35.301  32.098  29.430  1.00  0.00     0.010 A 
ATOM      9  C   UNL A   1      33.119  31.902  27.220  1.00  0.00     0.010 A 
ATOM     10  C   UNL A   1      34.527  31.162  28.103  1.00  0.00    -0.014 A 
BRANCH  10  11
ATOM     11  C   UNL A   1      35.229  29.853  27.739  1.00  0.00     0.031 A 
ATOM     12  C   UNL A   1      34.497  28.671  27.130  1.00  0.00     0.074 A 
ATOM     13  C   UNL A   1      36.579  29.708  27.843  1.00  0.00     0.049 A 
ATOM     14  N   UNL A   1      34.991  27.534  26.689  1.00  0.00    -0.248 NA
ATOM     15  C   UNL A   1      33.058  28.796  26.902  1.00  0.00     0.031 C 
ATOM     16  C   UNL A   1      37.544  30.720  28.282  1.00  0.00     0.029 A 
ATOM     17  N   UNL A   1      37.378  28.590  27.673  1.00  0.00    -0.354 N 
ATOM     18  C   UNL A   1      33.952  26.884  26.033  1.00  0.00     0.074 A 
ATOM     19  C   UNL A   1      32.779  27.710  26.195  1.00  0.00     0.031 C 
ATOM     20  C   UNL A   1      38.741  30.161  28.488  1.00  0.00     0.029 A 
ATOM     21  C   UNL A   1      38.652  28.749  28.172  1.00  0.00     0.049 A 
ATOM     22  H   UNL A   1      37.066  27.764  27.240  1.00  0.00     0.167 HD
ATOM     23  C   UNL A   1      33.957  25.721  25.339  1.00  0.00     0.031 A 
ATOM     24  C   UNL A   1      39.646  27.874  28.419  1.00  0.00     0.031 A 
ATOM     25  C   UNL A   1      35.057  24.800  25.262  1.00  0.00     0.049 A 
ATOM     26  C   UNL A   1      39.516  26.451  27.997  1.00  0.00     0.074 A 
ATOM     27  C   UNL A   1      35.137  23.599  24.575  1.00  0.00     0.029 A 
ATOM     28  N   UNL A   1      36.245  24.942  25.952  1.00  0.00    -0.354 N 
ATOM     29  N   UNL A   1      38.546  25.891  27.325  1.00  0.00    -0.248 NA
ATOM     30  C   UNL A   1      40.624  25.546  28.339  1.00  0.00     0.031 C 
ATOM     31  C   UNL A   1      36.349  22.981  24.909  1.00  0.00     0.029 A 
ATOM     32  C   UNL A   1      37.032  23.817  25.775  1.00  0.00     0.049 A 
ATOM     33  H   UNL A   1      36.494  25.727  26.491  1.00  0.00     0.167 HD
ATOM     34  C   UNL A   1      38.943  24.579  27.121  1.00  0.00     0.074 A 
ATOM     35  C   UNL A   1      40.230  24.417  27.763  1.00  0.00     0.031 C 
ATOM     36  C   UNL A   1      38.294  23.614  26.430  1.00  0.00     0.031 A 
BRANCH  23  37
ATOM     37  C   UNL A   1      32.704  25.370  24.594  1.00  0.00    -0.014 A 
ATOM     38  C   UNL A   1      32.502  25.856  23.292  1.00  0.00     0.009 A 
ATOM     39  C   UNL A   1      31.744  24.526  25.169  1.00  0.00     0.009 A 
ATOM     40  C   UNL A   1      31.352  25.511  22.582  1.00  0.00     0.001 A 
ATOM     41  C   UNL A   1      30.596  24.181  24.454  1.00  0.00     0.001 A 
ATOM     42  C   UNL A   1      30.400  24.675  23.163  1.00  0.00     0.000 A 
ENDBRANCH  23  37
BRANCH  24  43
ATOM     43  C   UNL A   1      40.832  28.328  29.189  1.00  0.00    -0.014 A 
ATOM     44  C   UNL A   1      40.951  28.079  30.561  1.00  0.00     0.009 A 
ATOM     45  C   UNL A   1      41.871  28.999  28.520  1.00  0.00     0.009 A 
ATOM     46  C   UNL A   1      42.089  28.501  31.253  1.00  0.00     0.001 A 
ATOM     47  C   UNL A   1      43.012  29.406  29.212  1.00  0.00     0.001 A 
ATOM     48  C   UNL A   1      43.118  29.160  30.578  1.00  0.00     0.000 A 
ENDBRANCH  24  43
BRANCH  36  49
ATOM     49  C   UNL A   1      38.971  22.286  26.316  1.00  0.00    -0.014 A 
ATOM     50  C   UNL A   1      40.135  22.008  27.048  1.00  0.00     0.009 A 
ATOM     51  C   UNL A   1      38.442  21.301  25.469  1.00  0.00     0.009 A 
ATOM     52  C   UNL A   1      40.769  20.772  26.917  1.00  0.00     0.001 A 
ATOM     53  C   UNL A   1      39.069  20.061  25.351  1.00  0.00     0.001 A 
ATOM     54  C   UNL A   1      40.235  19.800  26.071  1.00  0.00     0.000 A 
ENDBRANCH  36  49
ENDBRANCH  10  11
ENDBRANCH   3   5
ENDBRANCH   2   3
ENDBRANCH   1   2
BRANCH   1  55
ATOM     55  C   UNL A   1      32.770  35.561  32.820  1.00  0.00     0.274 C 
BRANCH  55  56
ATOM     56  O   UNL A   1      34.135  35.226  33.155  1.00  0.00    -0.461 OA
BRANCH  56  57
ATOM     57  C   UNL A   1      34.381  33.917  33.333  1.00  0.00     0.329 C 
ATOM     58  O   UNL A   1      33.473  33.089  33.232  1.00  0.00    -0.250 OA
BRANCH  57  59
ATOM     59  C   UNL A   1      35.883  33.471  33.561  1.00  0.00     0.197 C 
ATOM     60  C   UNL A   1      36.667  34.607  32.849  1.00  0.00     0.038 C 
ATOM     61  N   UNL A   1      36.861  32.790  34.591  1.00  0.00    -0.308 N 
ATOM     62  C   UNL A   1      37.614  33.975  31.856  1.00  0.00     0.008 C 
ATOM     63  C   UNL A   1      38.021  32.173  33.706  1.00  0.00     0.091 C 
ATOM     64  C   UNL A   1      38.628  33.129  32.604  1.00  0.00     0.012 C 
ATOM     65  C   UNL A   1      39.289  31.578  34.384  1.00  0.00     0.025 C 
ATOM     66  C   UNL A   1      39.467  32.333  31.582  1.00  0.00     0.006 C 
ATOM     67  C   UNL A   1      40.130  30.748  33.411  1.00  0.00     0.002 C 
ATOM     68  C   UNL A   1      40.619  31.593  32.247  1.00  0.00     0.000 C 
BRANCH  61  69
ATOM     69  C   UNL A   1      37.449  33.512  35.879  1.00  0.00     0.321 C 
ATOM     70  O   UNL A   1      36.645  33.054  36.767  1.00  0.00    -0.248 OA
ATOM     71  N   UNL A   1      39.015  34.734  35.989  1.00  0.00    -0.323 N 
ATOM     72  C   UNL A   1      39.683  35.635  37.336  1.00  0.00     0.132 C 
ATOM     73  C   UNL A   1      40.228  35.357  34.883  1.00  0.00     0.132 C 
ATOM     74  C   UNL A   1      41.057  35.154  37.833  1.00  0.00     0.091 C 
ATOM     75  C   UNL A   1      41.677  34.932  35.211  1.00  0.00     0.091 C 
ATOM     76  S   UNL A   1      42.371  35.655  36.706  1.00  0.00    -0.158 SA
ENDBRANCH  61  69
ENDBRANCH  57  59
ENDBRANCH  56  57
ENDBRANCH  55  56
ENDBRANCH   1  55
TORSDOF 12
ENDMDL
MODEL 2
REMARK VINA RESULT:     -12.0      9.836     15.115
REMARK SMILES O=C(OCCOC(=O)[C@H]1CC[C@@H]2CCCC[C@H]2N1C(=O)N1CCSCC1)c1ccc(-c2c3nc(c(-c4ccccc4)c4ccc([nH]4)c(-c4ccccc4)c4nc(c(-c5ccccc5)c5ccc2[nH]5)C=C4)C=C3)cc1
REMARK SMILES IDX 4 1 3 2 2 3 1 4 27 5 28 6 74 7 29 8 73 9 30 10 31 11 32 12
REMARK SMILES IDX 67 13 33 14 72 15 66 16 68 17 34 18 71 19 65 20 64 21 35 23
REMARK SMILES IDX 57 24 42 25 56 26 43 27 46 28 55 29 69 30 44 31 45 32 54 34
REMARK SMILES IDX 70 35 47 36 36 37 37 38 41 39 38 40 40 41 39 42 58 43 59 44
REMARK SMILES IDX 63 45 60 46 62 47 61 48 48 49 49 50 53 51 50 52 52 53 51 54
REMARK SMILES IDX 5 55 6 56 7 57 8 58 9 59 10 60 18 61 11 62 17 63 12 64 16 65
REMARK SMILES IDX 13 66 15 67 14 68 19 69 20 70 21 71 22 72 26 73 23 74 25 75
REMARK SMILES IDX 24 76
REMARK H PARENT 68 22 46 33
REMARK Flexibility Score: inf
ROOT
ATOM      1  C   UNL A   1      45.771  23.136  38.933  1.00  0.00     0.275 C 
ENDROOT
BRANCH   1   2
ATOM      2  O   UNL A   1      46.217  24.105  37.966  1.00  0.00    -0.458 OA
BRANCH   2   3
ATOM      3  C   UNL A   1      46.013  23.763  36.670  1.00  0.00     0.338 C 
ATOM      4  O   UNL A   1      46.502  22.804  36.104  1.00  0.00    -0.246 OA
BRANCH   3   5
ATOM      5  C   UNL A   1      45.199  24.800  36.020  1.00  0.00     0.060 A 
ATOM      6  C   UNL A   1      43.414  24.530  35.859  1.00  0.00     0.016 A 
ATOM      7  C   UNL A   1      45.922  26.345  35.396  1.00  0.00     0.016 A 
ATOM      8  C   UNL A   1      42.321  25.803  35.107  1.00  0.00     0.010 A 
ATOM      9  C   UNL A   1      44.801  27.622  34.630  1.00  0.00     0.010 A 
ATOM     10  C   UNL A   1      43.013  27.330  34.455  1.00  0.00    -0.014 A 
BRANCH  10  11
ATOM     11  C   UNL A   1      42.032  28.203  33.671  1.00  0.00     0.031 A 
ATOM     12  C   UNL A   1      41.120  29.214  34.340  1.00  0.00     0.074 A 
ATOM     13  C   UNL A   1      41.995  28.199  32.311  1.00  0.00     0.049 A 
ATOM     14  N   UNL A   1      40.304  30.085  33.782  1.00  0.00    -0.248 NA
ATOM     15  C   UNL A   1      41.178  29.338  35.796  1.00  0.00     0.031 C 
ATOM     16  C   UNL A   1      42.843  27.417  31.407  1.00  0.00     0.029 A 
ATOM     17  N   UNL A   1      41.122  28.820  31.434  1.00  0.00    -0.354 N 
ATOM     18  C   UNL A   1      39.864  30.919  34.803  1.00  0.00     0.074 A 
ATOM     19  C   UNL A   1      40.437  30.412  36.028  1.00  0.00     0.031 C 
ATOM     20  C   UNL A   1      42.373  27.480  30.157  1.00  0.00     0.029 A 
ATOM     21  C   UNL A   1      41.198  28.331  30.148  1.00  0.00     0.049 A 
ATOM     22  H   UNL A   1      40.506  29.539  31.703  1.00  0.00     0.167 HD
ATOM     23  C   UNL A   1      39.077  32.020  34.746  1.00  0.00     0.031 A 
ATOM     24  C   UNL A   1      40.402  28.478  29.072  1.00  0.00     0.031 A 
ATOM     25  C   UNL A   1      38.377  32.484  33.580  1.00  0.00     0.049 A 
ATOM     26  C   UNL A   1      39.255  29.429  29.110  1.00  0.00     0.074 A 
ATOM     27  C   UNL A   1      37.559  33.594  33.445  1.00  0.00     0.029 A 
ATOM     28  N   UNL A   1      38.355  31.824  32.368  1.00  0.00    -0.354 N 
ATOM     29  N   UNL A   1      38.911  30.244  30.071  1.00  0.00    -0.248 NA
ATOM     30  C   UNL A   1      38.406  29.503  27.912  1.00  0.00     0.031 C 
ATOM     31  C   UNL A   1      36.985  33.565  32.167  1.00  0.00     0.029 A 
ATOM     32  C   UNL A   1      37.476  32.455  31.502  1.00  0.00     0.049 A 
ATOM     33  H   UNL A   1      38.884  31.024  32.150  1.00  0.00     0.167 HD
ATOM     34  C   UNL A   1      37.833  30.964  29.580  1.00  0.00     0.074 A 
ATOM     35  C   UNL A   1      37.562  30.472  28.246  1.00  0.00     0.031 C 
ATOM     36  C   UNL A   1      37.160  31.966  30.189  1.00  0.00     0.031 A 
BRANCH  23  37
ATOM     37  C   UNL A   1      38.924  32.811  36.009  1.00  0.00    -0.014 A 
ATOM     38  C   UNL A   1      39.800  33.874  36.283  1.00  0.00     0.009 A 
ATOM     39  C   UNL A   1      37.887  32.528  36.909  1.00  0.00     0.009 A 
ATOM     40  C   UNL A   1      39.647  34.632  37.443  1.00  0.00     0.001 A 
ATOM     41  C   UNL A   1      37.736  33.292  38.067  1.00  0.00     0.001 A 
ATOM     42  C   UNL A   1      38.616  34.341  38.334  1.00  0.00     0.000 A 
ENDBRANCH  23  37
BRANCH  24  43
ATOM     43  C   UNL A   1      40.633  27.620  27.882  1.00  0.00    -0.014 A 
ATOM     44  C   UNL A   1      41.444  28.043  26.823  1.00  0.00     0.009 A 
ATOM     45  C   UNL A   1      40.044  26.344  27.829  1.00  0.00     0.009 A 
ATOM     46  C   UNL A   1      41.658  27.204  25.726  1.00  0.00     0.001 A 
ATOM     47  C   UNL A   1      40.271  25.505  26.738  1.00  0.00     0.001 A 
ATOM     48  C   UNL A   1      41.075  25.937  25.687  1.00  0.00     0.000 A 
ENDBRANCH  24  43
BRANCH  36  49
ATOM     49  C   UNL A   1      36.060  32.617  29.414  1.00  0.00    -0.014 A 
ATOM     50  C   UNL A   1      34.925  31.888  29.029  1.00  0.00     0.009 A 
ATOM     51  C   UNL A   1      36.157  33.972  29.063  1.00  0.00     0.009 A 
ATOM     52  C   UNL A   1      33.914  32.501  28.286  1.00  0.00     0.001 A 
ATOM     53  C   UNL A   1      35.138  34.586  28.335  1.00  0.00     0.001 A 
ATOM     54  C   UNL A   1      34.021  33.848  27.942  1.00  0.00     0.000 A 
ENDBRANCH  36  49
ENDBRANCH  10  11
ENDBRANCH   3   5
ENDBRANCH   2   3
ENDBRANCH   1   2
BRANCH   1  55
ATOM     55  C   UNL A   1      46.991  22.349  39.439  1.00  0.00     0.274 C 
BRANCH  55  56
ATOM     56  O   UNL A   1      46.540  21.359  40.389  1.00  0.00    -0.461 OA
BRANCH  56  57
ATOM     57  C   UNL A   1      46.269  20.148  39.874  1.00  0.00     0.329 C 
ATOM     58  O   UNL A   1      46.259  19.972  38.654  1.00  0.00    -0.250 OA
BRANCH  57  59
ATOM     59  C   UNL A   1      46.079  18.941  40.882  1.00  0.00     0.197 C 
ATOM     60  C   UNL A   1      44.955  19.473  41.813  1.00  0.00     0.038 C 
ATOM     61  N   UNL A   1      46.086  17.370  40.994  1.00  0.00    -0.308 N 
ATOM     62  C   UNL A   1      45.436  19.365  43.241  1.00  0.00     0.008 C 
ATOM     63  C   UNL A   1      46.451  17.070  42.507  1.00  0.00     0.091 C 
ATOM     64  C   UNL A   1      45.649  17.903  43.585  1.00  0.00     0.012 C 
ATOM     65  C   UNL A   1      46.365  15.618  43.058  1.00  0.00     0.025 C 
ATOM     66  C   UNL A   1      46.323  17.807  44.970  1.00  0.00     0.006 C 
ATOM     67  C   UNL A   1      47.057  15.472  44.416  1.00  0.00     0.002 C 
ATOM     68  C   UNL A   1      46.413  16.369  45.460  1.00  0.00     0.000 C 
BRANCH  61  69
ATOM     69  C   UNL A   1      44.905  16.431  40.496  1.00  0.00     0.321 C 
ATOM     70  O   UNL A   1      45.292  16.221  39.291  1.00  0.00    -0.248 OA
ATOM     71  N   UNL A   1      43.333  15.787  41.531  1.00  0.00    -0.323 N 
ATOM     72  C   UNL A   1      41.949  14.827  41.049  1.00  0.00     0.132 C 
ATOM     73  C   UNL A   1      42.747  15.928  43.181  1.00  0.00     0.132 C 
ATOM     74  C   UNL A   1      41.892  13.409  41.645  1.00  0.00     0.091 C 
ATOM     75  C   UNL A   1      42.665  14.591  43.950  1.00  0.00     0.091 C 
ATOM     76  S   UNL A   1      41.397  13.449  43.377  1.00  0.00    -0.158 SA
ENDBRANCH  61  69
ENDBRANCH  57  59
ENDBRANCH  56  57
ENDBRANCH  55  56
ENDBRANCH   1  55
TORSDOF 12
ENDMDL
MODEL 3
REMARK VINA RESULT:     -12.0      5.660     12.229
REMARK SMILES O=C(OCCOC(=O)[C@H]1CC[C@@H]2CCCC[C@H]2N1C(=O)N1CCSCC1)c1ccc(-c2c3nc(c(-c4ccccc4)c4ccc([nH]4)c(-c4ccccc4)c4nc(c(-c5ccccc5)c5ccc2[nH]5)C=C4)C=C3)cc1
REMARK SMILES IDX 4 1 3 2 2 3 1 4 27 5 28 6 74 7 29 8 73 9 30 10 31 11 32 12
REMARK SMILES IDX 67 13 33 14 72 15 66 16 68 17 34 18 71 19 65 20 64 21 35 23
REMARK SMILES IDX 57 24 42 25 56 26 43 27 46 28 55 29 69 30 44 31 45 32 54 34
REMARK SMILES IDX 70 35 47 36 36 37 37 38 41 39 38 40 40 41 39 42 58 43 59 44
REMARK SMILES IDX 63 45 60 46 62 47 61 48 48 49 49 50 53 51 50 52 52 53 51 54
REMARK SMILES IDX 5 55 6 56 7 57 8 58 9 59 10 60 18 61 11 62 17 63 12 64 16 65
REMARK SMILES IDX 13 66 15 67 14 68 19 69 20 70 21 71 22 72 26 73 23 74 25 75
REMARK SMILES IDX 24 76
REMARK H PARENT 68 22 46 33
REMARK Flexibility Score: inf
ROOT
ATOM      1  C   UNL A   1      35.188  20.331  25.001  1.00  0.00     0.275 C 
ENDROOT
BRANCH   1   2
ATOM      2  O   UNL A   1      36.176  21.070  25.743  1.00  0.00    -0.458 OA
BRANCH   2   3
ATOM      3  C   UNL A   1      37.455  20.905  25.326  1.00  0.00     0.338 C 
ATOM      4  O   UNL A   1      37.879  19.956  24.694  1.00  0.00    -0.246 OA
BRANCH   3   5
ATOM      5  C   UNL A   1      38.280  22.000  25.856  1.00  0.00     0.060 A 
ATOM      6  C   UNL A   1      37.647  23.695  25.751  1.00  0.00     0.016 A 
ATOM      7  C   UNL A   1      39.897  21.704  26.628  1.00  0.00     0.016 A 
ATOM      8  C   UNL A   1      38.595  25.111  26.440  1.00  0.00     0.010 A 
ATOM      9  C   UNL A   1      40.849  23.152  27.316  1.00  0.00     0.010 A 
ATOM     10  C   UNL A   1      40.211  24.852  27.185  1.00  0.00    -0.014 A 
BRANCH  10  11
ATOM     11  C   UNL A   1      40.981  26.129  27.524  1.00  0.00     0.031 A 
ATOM     12  C   UNL A   1      40.341  27.309  28.232  1.00  0.00     0.074 A 
ATOM     13  C   UNL A   1      42.319  26.242  27.304  1.00  0.00     0.049 A 
ATOM     14  N   UNL A   1      40.906  28.418  28.662  1.00  0.00    -0.248 NA
ATOM     15  C   UNL A   1      38.925  27.215  28.585  1.00  0.00     0.031 C 
ATOM     16  C   UNL A   1      43.211  25.220  26.749  1.00  0.00     0.029 A 
ATOM     17  N   UNL A   1      43.163  27.332  27.434  1.00  0.00    -0.354 N 
ATOM     18  C   UNL A   1      39.948  29.073  29.428  1.00  0.00     0.074 A 
ATOM     19  C   UNL A   1      38.742  28.283  29.347  1.00  0.00     0.031 C 
ATOM     20  C   UNL A   1      44.401  25.753  26.453  1.00  0.00     0.029 A 
ATOM     21  C   UNL A   1      44.383  27.156  26.819  1.00  0.00     0.049 A 
ATOM     22  H   UNL A   1      42.915  28.151  27.919  1.00  0.00     0.167 HD
ATOM     23  C   UNL A   1      40.049  30.212  30.154  1.00  0.00     0.031 A 
ATOM     24  C   UNL A   1      45.376  28.012  26.510  1.00  0.00     0.031 A 
ATOM     25  C   UNL A   1      41.178  31.100  30.159  1.00  0.00     0.049 A 
ATOM     26  C   UNL A   1      45.326  29.424  26.985  1.00  0.00     0.074 A 
ATOM     27  C   UNL A   1      41.354  32.275  30.873  1.00  0.00     0.029 A 
ATOM     28  N   UNL A   1      42.295  30.950  29.362  1.00  0.00    -0.354 N 
ATOM     29  N   UNL A   1      44.436  29.987  27.759  1.00  0.00    -0.248 NA
ATOM     30  C   UNL A   1      46.424  30.309  26.573  1.00  0.00     0.031 C 
ATOM     31  C   UNL A   1      42.549  32.872  30.450  1.00  0.00     0.029 A 
ATOM     32  C   UNL A   1      43.128  32.047  29.501  1.00  0.00     0.049 A 
ATOM     33  H   UNL A   1      42.473  30.177  28.779  1.00  0.00     0.167 HD
ATOM     34  C   UNL A   1      44.888  31.280  27.966  1.00  0.00     0.074 A 
ATOM     35  C   UNL A   1      46.117  31.429  27.216  1.00  0.00     0.031 C 
ATOM     36  C   UNL A   1      44.332  32.238  28.742  1.00  0.00     0.031 A 
BRANCH  23  37
ATOM     37  C   UNL A   1      38.879  30.571  31.019  1.00  0.00    -0.014 A 
ATOM     38  C   UNL A   1      37.851  31.381  30.509  1.00  0.00     0.009 A 
ATOM     39  C   UNL A   1      38.776  30.073  32.325  1.00  0.00     0.009 A 
ATOM     40  C   UNL A   1      36.745  31.695  31.298  1.00  0.00     0.001 A 
ATOM     41  C   UNL A   1      37.666  30.388  33.110  1.00  0.00     0.001 A 
ATOM     42  C   UNL A   1      36.653  31.200  32.598  1.00  0.00     0.000 A 
ENDBRANCH  23  37
BRANCH  24  43
ATOM     43  C   UNL A   1      46.474  27.553  25.623  1.00  0.00    -0.014 A 
ATOM     44  C   UNL A   1      46.469  27.829  24.251  1.00  0.00     0.009 A 
ATOM     45  C   UNL A   1      47.558  26.848  26.178  1.00  0.00     0.009 A 
ATOM     46  C   UNL A   1      47.529  27.401  23.447  1.00  0.00     0.001 A 
ATOM     47  C   UNL A   1      48.619  26.434  25.373  1.00  0.00     0.001 A 
ATOM     48  C   UNL A   1      48.602  26.709  24.009  1.00  0.00     0.000 A 
ENDBRANCH  24  43
BRANCH  36  49
ATOM     49  C   UNL A   1      45.054  33.544  28.835  1.00  0.00    -0.014 A 
ATOM     50  C   UNL A   1      44.749  34.596  27.959  1.00  0.00     0.009 A 
ATOM     51  C   UNL A   1      46.049  33.726  29.807  1.00  0.00     0.009 A 
ATOM     52  C   UNL A   1      45.446  35.803  28.041  1.00  0.00     0.001 A 
ATOM     53  C   UNL A   1      46.733  34.939  29.897  1.00  0.00     0.001 A 
ATOM     54  C   UNL A   1      46.434  35.973  29.011  1.00  0.00     0.000 A 
ENDBRANCH  36  49
ENDBRANCH  10  11
ENDBRANCH   3   5
ENDBRANCH   2   3
ENDBRANCH   1   2
BRANCH   1  55
ATOM     55  C   UNL A   1      33.802  20.623  25.601  1.00  0.00     0.274 C 
BRANCH  55  56
ATOM     56  O   UNL A   1      33.677  22.048  25.800  1.00  0.00    -0.461 OA
BRANCH  56  57
ATOM     57  C   UNL A   1      32.428  22.535  25.714  1.00  0.00     0.329 C 
ATOM     58  O   UNL A   1      31.460  21.774  25.660  1.00  0.00    -0.250 OA
BRANCH  57  59
ATOM     59  C   UNL A   1      32.238  24.105  25.801  1.00  0.00     0.197 C 
ATOM     60  C   UNL A   1      32.657  24.559  24.376  1.00  0.00     0.038 C 
ATOM     61  N   UNL A   1      31.337  25.241  26.417  1.00  0.00    -0.308 N 
ATOM     62  C   UNL A   1      33.721  25.621  24.514  1.00  0.00     0.008 C 
ATOM     63  C   UNL A   1      32.284  26.508  26.511  1.00  0.00     0.091 C 
ATOM     64  C   UNL A   1      33.130  26.831  25.215  1.00  0.00     0.012 C 
ATOM     65  C   UNL A   1      31.696  27.896  26.895  1.00  0.00     0.025 C 
ATOM     66  C   UNL A   1      34.261  27.831  25.530  1.00  0.00     0.006 C 
ATOM     67  C   UNL A   1      32.788  28.908  27.251  1.00  0.00     0.002 C 
ATOM     68  C   UNL A   1      33.722  29.145  26.078  1.00  0.00     0.000 C 
BRANCH  61  69
ATOM     69  C   UNL A   1      29.901  25.642  25.867  1.00  0.00     0.321 C 
ATOM     70  O   UNL A   1      29.168  25.129  26.787  1.00  0.00    -0.248 OA
ATOM     71  N   UNL A   1      29.464  26.678  24.227  1.00  0.00    -0.323 N 
ATOM     72  C   UNL A   1      27.925  27.096  23.501  1.00  0.00     0.132 C 
ATOM     73  C   UNL A   1      30.361  27.496  22.957  1.00  0.00     0.132 C 
ATOM     74  C   UNL A   1      27.553  28.588  23.556  1.00  0.00     0.091 C 
ATOM     75  C   UNL A   1      30.138  29.023  22.894  1.00  0.00     0.091 C 
ATOM     76  S   UNL A   1      28.500  29.541  22.354  1.00  0.00    -0.158 SA
ENDBRANCH  61  69
ENDBRANCH  57  59
ENDBRANCH  56  57
ENDBRANCH  55  56
ENDBRANCH   1  55
TORSDOF 12
ENDMDL
