MODEL 1
REMARK VINA RESULT:     -11.8      0.000      0.000
REMARK SMILES Cc1cc2c(c(C)c1Cl)C=C(C(=O)OCCOC(=O)c1ccc(-c3c4nc(c(-c5ccccc5)c5ccc([nH]5)c(-c5ccccc5)c5nc(c(-c6ccccc6)c6ccc3[nH]6)C=C5)C=C4)cc1)[C@H](C(F)(F)F)O2
REMARK SMILES IDX 16 1 15 2 14 3 12 4 13 5 11 6 1 7 2 8 3 9 8 10 4 11 6 12
REMARK SMILES IDX 9 13 5 14 73 15 7 16 10 17 68 18 69 19 70 20 71 21 72 22
REMARK SMILES IDX 17 23 18 24 19 25 20 26 21 27 67 28 22 29 66 30 23 31 24 32
REMARK SMILES IDX 25 33 60 34 26 35 65 36 59 37 61 38 27 39 64 40 58 41 57 42
REMARK SMILES IDX 28 44 50 45 35 46 49 47 36 48 39 49 48 50 62 51 37 52 38 53
REMARK SMILES IDX 47 55 63 56 40 57 29 58 30 59 34 60 31 61 33 62 32 63 51 64
REMARK SMILES IDX 52 65 56 66 53 67 55 68 54 69 41 70 42 71 46 72 43 73 45 74
REMARK SMILES IDX 44 75
REMARK H PARENT 61 43 39 54
REMARK Flexibility Score: inf
ROOT
ATOM      1  C   UNL A   1      35.687  20.734  25.111  1.00  0.00     0.275 C 
ENDROOT
BRANCH   1   2
ATOM      2  C   UNL A   1      34.982  21.408  26.288  1.00  0.00     0.275 C 
BRANCH   2   3
ATOM      3  O   UNL A   1      34.539  22.729  25.913  1.00  0.00    -0.459 OA
BRANCH   3   4
ATOM      4  C   UNL A   1      33.299  23.079  26.329  1.00  0.00     0.338 C 
ATOM      5  O   UNL A   1      32.680  22.585  27.251  1.00  0.00    -0.246 OA
BRANCH   4   6
ATOM      6  C   UNL A   1      32.799  24.221  25.533  1.00  0.00     0.087 C 
ATOM      7  C   UNL A   1      29.995  29.688  23.449  1.00  0.00     0.046 C 
ATOM      8  C   UNL A   1      30.855  28.649  24.116  1.00  0.00    -0.028 A 
ATOM      9  C   UNL A   1      30.797  27.334  23.635  1.00  0.00     0.052 A 
ATOM     10  C   UNL A   1      31.650  28.929  25.245  1.00  0.00     0.047 A 
ATOM     11  C   UNL A   1      31.497  26.309  24.268  1.00  0.00     0.128 A 
ATOM     12  C   UNL A   1      32.388  27.906  25.884  1.00  0.00    -0.021 A 
ATOM     13  Cl  UNL A   1      31.673  30.550  25.872  1.00  0.00    -0.084 Cl
ATOM     14  C   UNL A   1      32.264  26.576  25.405  1.00  0.00     0.022 A 
ATOM     15  O   UNL A   1      31.317  25.060  23.738  1.00  0.00    -0.475 OA
ATOM     16  C   UNL A   1      33.286  28.199  27.063  1.00  0.00     0.047 C 
ATOM     17  C   UNL A   1      32.829  25.428  26.112  1.00  0.00     0.027 C 
ATOM     18  C   UNL A   1      32.191  23.986  24.180  1.00  0.00     0.316 C 
BRANCH  18  19
ATOM     19  C   UNL A   1      33.208  23.628  23.078  1.00  0.00     0.430 C 
ATOM     20  F   UNL A   1      32.771  23.994  21.849  1.00  0.00    -0.167 F 
ATOM     21  F   UNL A   1      34.410  24.218  23.265  1.00  0.00    -0.167 F 
ATOM     22  F   UNL A   1      33.413  22.288  23.024  1.00  0.00    -0.167 F 
ENDBRANCH  18  19
ENDBRANCH   4   6
ENDBRANCH   3   4
ENDBRANCH   2   3
ENDBRANCH   1   2
BRANCH   1  23
ATOM     23  O   UNL A   1      36.854  21.501  24.763  1.00  0.00    -0.458 OA
BRANCH  23  24
ATOM     24  C   UNL A   1      38.023  21.092  25.308  1.00  0.00     0.338 C 
ATOM     25  O   UNL A   1      38.484  19.961  25.309  1.00  0.00    -0.246 OA
BRANCH  24  26
ATOM     26  C   UNL A   1      38.716  22.241  25.926  1.00  0.00     0.060 A 
ATOM     27  C   UNL A   1      38.123  23.501  25.933  1.00  0.00     0.016 A 
ATOM     28  C   UNL A   1      40.016  22.087  26.408  1.00  0.00     0.016 A 
ATOM     29  C   UNL A   1      38.863  24.619  26.315  1.00  0.00     0.010 A 
ATOM     30  C   UNL A   1      40.717  23.199  26.892  1.00  0.00     0.010 A 
ATOM     31  C   UNL A   1      40.171  24.491  26.806  1.00  0.00    -0.014 A 
BRANCH  31  32
ATOM     32  C   UNL A   1      40.972  25.699  27.174  1.00  0.00     0.031 A 
ATOM     33  C   UNL A   1      40.471  26.659  28.230  1.00  0.00     0.074 A 
ATOM     34  C   UNL A   1      42.173  25.936  26.606  1.00  0.00     0.049 A 
ATOM     35  N   UNL A   1      40.935  27.839  28.562  1.00  0.00    -0.248 NA
ATOM     36  C   UNL A   1      39.291  26.245  29.006  1.00  0.00     0.031 C 
ATOM     37  C   UNL A   1      42.831  25.081  25.616  1.00  0.00     0.029 A 
ATOM     38  N   UNL A   1      43.073  26.957  26.804  1.00  0.00    -0.354 N 
ATOM     39  C   UNL A   1      40.066  28.334  29.528  1.00  0.00     0.074 A 
ATOM     40  C   UNL A   1      39.048  27.327  29.735  1.00  0.00     0.031 C 
ATOM     41  C   UNL A   1      44.058  25.561  25.363  1.00  0.00     0.029 A 
ATOM     42  C   UNL A   1      44.233  26.820  26.080  1.00  0.00     0.049 A 
ATOM     43  H   UNL A   1      42.903  27.715  27.410  1.00  0.00     0.167 HD
ATOM     44  C   UNL A   1      40.109  29.518  30.185  1.00  0.00     0.031 A 
ATOM     45  C   UNL A   1      45.306  27.627  25.963  1.00  0.00     0.031 A 
ATOM     46  C   UNL A   1      41.151  30.499  30.034  1.00  0.00     0.049 A 
ATOM     47  C   UNL A   1      45.315  28.950  26.668  1.00  0.00     0.074 A 
ATOM     48  C   UNL A   1      41.271  31.731  30.654  1.00  0.00     0.029 A 
ATOM     49  N   UNL A   1      42.268  30.345  29.229  1.00  0.00    -0.354 N 
ATOM     50  N   UNL A   1      44.430  29.449  27.495  1.00  0.00    -0.248 NA
ATOM     51  C   UNL A   1      46.454  29.839  26.395  1.00  0.00     0.031 C 
ATOM     52  C   UNL A   1      42.445  32.339  30.198  1.00  0.00     0.029 A 
ATOM     53  C   UNL A   1      43.077  31.464  29.331  1.00  0.00     0.049 A 
ATOM     54  H   UNL A   1      42.458  29.558  28.669  1.00  0.00     0.167 HD
ATOM     55  C   UNL A   1      44.901  30.709  27.837  1.00  0.00     0.074 A 
ATOM     56  C   UNL A   1      46.163  30.889  27.152  1.00  0.00     0.031 C 
ATOM     57  C   UNL A   1      44.327  31.637  28.639  1.00  0.00     0.031 A 
BRANCH  44  58
ATOM     58  C   UNL A   1      38.972  29.848  31.113  1.00  0.00    -0.014 A 
ATOM     59  C   UNL A   1      39.047  29.585  32.489  1.00  0.00     0.009 A 
ATOM     60  C   UNL A   1      37.834  30.496  30.605  1.00  0.00     0.009 A 
ATOM     61  C   UNL A   1      37.994  29.946  33.333  1.00  0.00     0.001 A 
ATOM     62  C   UNL A   1      36.796  30.878  31.456  1.00  0.00     0.001 A 
ATOM     63  C   UNL A   1      36.874  30.598  32.818  1.00  0.00     0.000 A 
ENDBRANCH  44  58
BRANCH  45  64
ATOM     64  C   UNL A   1      46.445  27.218  25.100  1.00  0.00    -0.014 A 
ATOM     65  C   UNL A   1      46.720  27.911  23.912  1.00  0.00     0.009 A 
ATOM     66  C   UNL A   1      47.282  26.153  25.474  1.00  0.00     0.009 A 
ATOM     67  C   UNL A   1      47.810  27.546  23.117  1.00  0.00     0.001 A 
ATOM     68  C   UNL A   1      48.387  25.811  24.693  1.00  0.00     0.001 A 
ATOM     69  C   UNL A   1      48.647  26.505  23.513  1.00  0.00     0.000 A 
ENDBRANCH  45  64
BRANCH  57  70
ATOM     70  C   UNL A   1      45.061  32.931  28.833  1.00  0.00    -0.014 A 
ATOM     71  C   UNL A   1      44.795  34.038  28.012  1.00  0.00     0.009 A 
ATOM     72  C   UNL A   1      45.981  33.064  29.884  1.00  0.00     0.009 A 
ATOM     73  C   UNL A   1      45.452  35.250  28.231  1.00  0.00     0.001 A 
ATOM     74  C   UNL A   1      46.620  34.283  30.112  1.00  0.00     0.001 A 
ATOM     75  C   UNL A   1      46.359  35.373  29.284  1.00  0.00     0.000 A 
ENDBRANCH  57  70
ENDBRANCH  31  32
ENDBRANCH  24  26
ENDBRANCH  23  24
ENDBRANCH   1  23
TORSDOF 12
ENDMDL
MODEL 2
REMARK VINA RESULT:     -11.6      5.308     10.297
REMARK SMILES Cc1cc2c(c(C)c1Cl)C=C(C(=O)OCCOC(=O)c1ccc(-c3c4nc(c(-c5ccccc5)c5ccc([nH]5)c(-c5ccccc5)c5nc(c(-c6ccccc6)c6ccc3[nH]6)C=C5)C=C4)cc1)[C@H](C(F)(F)F)O2
REMARK SMILES IDX 16 1 15 2 14 3 12 4 13 5 11 6 1 7 2 8 3 9 8 10 4 11 6 12
REMARK SMILES IDX 9 13 5 14 73 15 7 16 10 17 68 18 69 19 70 20 71 21 72 22
REMARK SMILES IDX 17 23 18 24 19 25 20 26 21 27 67 28 22 29 66 30 23 31 24 32
REMARK SMILES IDX 25 33 60 34 26 35 65 36 59 37 61 38 27 39 64 40 58 41 57 42
REMARK SMILES IDX 28 44 50 45 35 46 49 47 36 48 39 49 48 50 62 51 37 52 38 53
REMARK SMILES IDX 47 55 63 56 40 57 29 58 30 59 34 60 31 61 33 62 32 63 51 64
REMARK SMILES IDX 52 65 56 66 53 67 55 68 54 69 41 70 42 71 46 72 43 73 45 74
REMARK SMILES IDX 44 75
REMARK H PARENT 61 43 39 54
REMARK Flexibility Score: inf
ROOT
ATOM      1  C   UNL A   1      45.707  23.198  24.420  1.00  0.00     0.275 C 
ENDROOT
BRANCH   1   2
ATOM      2  C   UNL A   1      46.711  24.332  24.627  1.00  0.00     0.275 C 
BRANCH   2   3
ATOM      3  O   UNL A   1      46.016  25.581  24.831  1.00  0.00    -0.459 OA
BRANCH   3   4
ATOM      4  C   UNL A   1      46.793  26.652  25.116  1.00  0.00     0.338 C 
ATOM      5  O   UNL A   1      47.619  27.161  24.384  1.00  0.00    -0.246 OA
BRANCH   4   6
ATOM      6  C   UNL A   1      46.455  27.185  26.454  1.00  0.00     0.087 C 
ATOM      7  C   UNL A   1      44.819  30.896  31.518  1.00  0.00     0.046 C 
ATOM      8  C   UNL A   1      44.861  30.107  30.237  1.00  0.00    -0.028 A 
ATOM      9  C   UNL A   1      45.920  29.209  30.047  1.00  0.00     0.052 A 
ATOM     10  C   UNL A   1      43.929  30.292  29.197  1.00  0.00     0.047 A 
ATOM     11  C   UNL A   1      46.067  28.519  28.846  1.00  0.00     0.128 A 
ATOM     12  C   UNL A   1      44.047  29.581  27.981  1.00  0.00    -0.021 A 
ATOM     13  Cl  UNL A   1      42.651  31.450  29.416  1.00  0.00    -0.084 Cl
ATOM     14  C   UNL A   1      45.161  28.720  27.801  1.00  0.00     0.022 A 
ATOM     15  O   UNL A   1      47.170  27.713  28.763  1.00  0.00    -0.475 OA
ATOM     16  C   UNL A   1      43.026  29.728  26.878  1.00  0.00     0.047 C 
ATOM     17  C   UNL A   1      45.474  28.095  26.519  1.00  0.00     0.027 C 
ATOM     18  C   UNL A   1      47.266  26.781  27.651  1.00  0.00     0.316 C 
BRANCH  18  19
ATOM     19  C   UNL A   1      47.018  25.338  28.132  1.00  0.00     0.430 C 
ATOM     20  F   UNL A   1      45.775  24.904  27.811  1.00  0.00    -0.167 F 
ATOM     21  F   UNL A   1      47.896  24.453  27.609  1.00  0.00    -0.167 F 
ATOM     22  F   UNL A   1      47.109  25.255  29.484  1.00  0.00    -0.167 F 
ENDBRANCH  18  19
ENDBRANCH   4   6
ENDBRANCH   3   4
ENDBRANCH   2   3
ENDBRANCH   1   2
BRANCH   1  23
ATOM     23  O   UNL A   1      44.384  23.756  24.319  1.00  0.00    -0.458 OA
BRANCH  23  24
ATOM     24  C   UNL A   1      43.417  23.136  25.033  1.00  0.00     0.338 C 
ATOM     25  O   UNL A   1      43.066  21.969  24.945  1.00  0.00    -0.246 OA
BRANCH  24  26
ATOM     26  C   UNL A   1      42.813  24.086  25.988  1.00  0.00     0.060 A 
ATOM     27  C   UNL A   1      42.848  25.455  25.738  1.00  0.00     0.016 A 
ATOM     28  C   UNL A   1      42.302  23.619  27.199  1.00  0.00     0.016 A 
ATOM     29  C   UNL A   1      42.478  26.358  26.734  1.00  0.00     0.010 A 
ATOM     30  C   UNL A   1      41.829  24.527  28.155  1.00  0.00     0.010 A 
ATOM     31  C   UNL A   1      41.957  25.913  27.959  1.00  0.00    -0.014 A 
BRANCH  31  32
ATOM     32  C   UNL A   1      41.602  26.887  29.037  1.00  0.00     0.031 A 
ATOM     33  C   UNL A   1      42.479  27.029  30.261  1.00  0.00     0.074 A 
ATOM     34  C   UNL A   1      40.522  27.688  28.922  1.00  0.00     0.049 A 
ATOM     35  N   UNL A   1      42.249  27.688  31.371  1.00  0.00    -0.248 NA
ATOM     36  C   UNL A   1      43.774  26.331  30.243  1.00  0.00     0.031 C 
ATOM     37  C   UNL A   1      39.605  27.724  27.780  1.00  0.00     0.029 A 
ATOM     38  N   UNL A   1      40.028  28.654  29.767  1.00  0.00    -0.354 N 
ATOM     39  C   UNL A   1      43.333  27.428  32.202  1.00  0.00     0.074 A 
ATOM     40  C   UNL A   1      44.224  26.553  31.471  1.00  0.00     0.031 C 
ATOM     41  C   UNL A   1      38.721  28.717  27.955  1.00  0.00     0.029 A 
ATOM     42  C   UNL A   1      38.929  29.313  29.270  1.00  0.00     0.049 A 
ATOM     43  H   UNL A   1      40.424  28.854  30.646  1.00  0.00     0.167 HD
ATOM     44  C   UNL A   1      43.568  27.874  33.460  1.00  0.00     0.031 A 
ATOM     45  C   UNL A   1      38.144  30.263  29.815  1.00  0.00     0.031 A 
ATOM     46  C   UNL A   1      42.720  28.794  34.171  1.00  0.00     0.049 A 
ATOM     47  C   UNL A   1      38.398  30.713  31.223  1.00  0.00     0.074 A 
ATOM     48  C   UNL A   1      42.877  29.295  35.453  1.00  0.00     0.029 A 
ATOM     49  N   UNL A   1      41.577  29.377  33.651  1.00  0.00    -0.354 N 
ATOM     50  N   UNL A   1      39.368  30.372  32.034  1.00  0.00    -0.248 NA
ATOM     51  C   UNL A   1      37.428  31.653  31.804  1.00  0.00     0.031 C 
ATOM     52  C   UNL A   1      41.808  30.155  35.721  1.00  0.00     0.029 A 
ATOM     53  C   UNL A   1      41.013  30.225  34.590  1.00  0.00     0.049 A 
ATOM     54  H   UNL A   1      41.218  29.214  32.749  1.00  0.00     0.167 HD
ATOM     55  C   UNL A   1      39.124  31.050  33.220  1.00  0.00     0.074 A 
ATOM     56  C   UNL A   1      37.931  31.844  33.016  1.00  0.00     0.031 C 
ATOM     57  C   UNL A   1      39.822  31.004  34.380  1.00  0.00     0.031 A 
BRANCH  44  58
ATOM     58  C   UNL A   1      44.779  27.346  34.177  1.00  0.00    -0.014 A 
ATOM     59  C   UNL A   1      46.009  28.021  34.135  1.00  0.00     0.009 A 
ATOM     60  C   UNL A   1      44.665  26.189  34.965  1.00  0.00     0.009 A 
ATOM     61  C   UNL A   1      47.105  27.532  34.850  1.00  0.00     0.001 A 
ATOM     62  C   UNL A   1      45.755  25.718  35.698  1.00  0.00     0.001 A 
ATOM     63  C   UNL A   1      46.976  26.386  35.636  1.00  0.00     0.000 A 
ENDBRANCH  44  58
BRANCH  45  64
ATOM     64  C   UNL A   1      37.006  30.817  29.034  1.00  0.00    -0.014 A 
ATOM     65  C   UNL A   1      35.908  30.008  28.708  1.00  0.00     0.009 A 
ATOM     66  C   UNL A   1      36.999  32.165  28.637  1.00  0.00     0.009 A 
ATOM     67  C   UNL A   1      34.826  30.538  28.001  1.00  0.00     0.001 A 
ATOM     68  C   UNL A   1      35.903  32.698  27.957  1.00  0.00     0.001 A 
ATOM     69  C   UNL A   1      34.820  31.883  27.635  1.00  0.00     0.000 A 
ENDBRANCH  45  64
BRANCH  57  70
ATOM     70  C   UNL A   1      39.325  31.844  35.519  1.00  0.00    -0.014 A 
ATOM     71  C   UNL A   1      39.813  33.144  35.721  1.00  0.00     0.009 A 
ATOM     72  C   UNL A   1      38.315  31.355  36.361  1.00  0.00     0.009 A 
ATOM     73  C   UNL A   1      39.310  33.932  36.757  1.00  0.00     0.001 A 
ATOM     74  C   UNL A   1      37.799  32.153  37.383  1.00  0.00     0.001 A 
ATOM     75  C   UNL A   1      38.300  33.438  37.583  1.00  0.00     0.000 A 
ENDBRANCH  57  70
ENDBRANCH  31  32
ENDBRANCH  24  26
ENDBRANCH  23  24
ENDBRANCH   1  23
TORSDOF 12
ENDMDL
MODEL 3
REMARK VINA RESULT:     -11.6      3.933      8.699
REMARK SMILES Cc1cc2c(c(C)c1Cl)C=C(C(=O)OCCOC(=O)c1ccc(-c3c4nc(c(-c5ccccc5)c5ccc([nH]5)c(-c5ccccc5)c5nc(c(-c6ccccc6)c6ccc3[nH]6)C=C5)C=C4)cc1)[C@H](C(F)(F)F)O2
REMARK SMILES IDX 16 1 15 2 14 3 12 4 13 5 11 6 1 7 2 8 3 9 8 10 4 11 6 12
REMARK SMILES IDX 9 13 5 14 73 15 7 16 10 17 68 18 69 19 70 20 71 21 72 22
REMARK SMILES IDX 17 23 18 24 19 25 20 26 21 27 67 28 22 29 66 30 23 31 24 32
REMARK SMILES IDX 25 33 60 34 26 35 65 36 59 37 61 38 27 39 64 40 58 41 57 42
REMARK SMILES IDX 28 44 50 45 35 46 49 47 36 48 39 49 48 50 62 51 37 52 38 53
REMARK SMILES IDX 47 55 63 56 40 57 29 58 30 59 34 60 31 61 33 62 32 63 51 64
REMARK SMILES IDX 52 65 56 66 53 67 55 68 54 69 41 70 42 71 46 72 43 73 45 74
REMARK SMILES IDX 44 75
REMARK H PARENT 61 43 39 54
REMARK Flexibility Score: inf
ROOT
ATOM      1  C   UNL A   1      31.735  29.963  25.254  1.00  0.00     0.275 C 
ENDROOT
BRANCH   1   2
ATOM      2  C   UNL A   1      32.876  29.331  24.458  1.00  0.00     0.275 C 
BRANCH   2   3
ATOM      3  O   UNL A   1      32.383  28.816  23.203  1.00  0.00    -0.459 OA
BRANCH   3   4
ATOM      4  C   UNL A   1      33.186  27.930  22.569  1.00  0.00     0.338 C 
ATOM      5  O   UNL A   1      34.126  28.195  21.846  1.00  0.00    -0.246 OA
BRANCH   4   6
ATOM      6  C   UNL A   1      32.803  26.547  22.930  1.00  0.00     0.087 C 
ATOM      7  C   UNL A   1      32.568  20.138  23.914  1.00  0.00     0.046 C 
ATOM      8  C   UNL A   1      32.885  21.610  23.934  1.00  0.00    -0.028 A 
ATOM      9  C   UNL A   1      31.981  22.489  23.322  1.00  0.00     0.052 A 
ATOM     10  C   UNL A   1      34.082  22.125  24.469  1.00  0.00     0.047 A 
ATOM     11  C   UNL A   1      32.261  23.850  23.225  1.00  0.00     0.128 A 
ATOM     12  C   UNL A   1      34.371  23.507  24.403  1.00  0.00    -0.021 A 
ATOM     13  Cl  UNL A   1      35.225  21.022  25.175  1.00  0.00    -0.084 Cl
ATOM     14  C   UNL A   1      33.460  24.362  23.729  1.00  0.00     0.022 A 
ATOM     15  O   UNL A   1      31.327  24.596  22.559  1.00  0.00    -0.475 OA
ATOM     16  C   UNL A   1      35.624  24.082  25.019  1.00  0.00     0.047 C 
ATOM     17  C   UNL A   1      33.760  25.762  23.440  1.00  0.00     0.027 C 
ATOM     18  C   UNL A   1      31.421  26.046  22.624  1.00  0.00     0.316 C 
BRANCH  18  19
ATOM     19  C   UNL A   1      30.319  26.618  23.537  1.00  0.00     0.430 C 
ATOM     20  F   UNL A   1      30.762  26.817  24.802  1.00  0.00    -0.167 F 
ATOM     21  F   UNL A   1      29.835  27.801  23.094  1.00  0.00    -0.167 F 
ATOM     22  F   UNL A   1      29.274  25.758  23.633  1.00  0.00    -0.167 F 
ENDBRANCH  18  19
ENDBRANCH   4   6
ENDBRANCH   3   4
ENDBRANCH   2   3
ENDBRANCH   1   2
BRANCH   1  23
ATOM     23  O   UNL A   1      32.122  30.055  26.637  1.00  0.00    -0.458 OA
BRANCH  23  24
ATOM     24  C   UNL A   1      32.702  31.215  27.019  1.00  0.00     0.338 C 
ATOM     25  O   UNL A   1      32.226  32.339  26.951  1.00  0.00    -0.246 OA
BRANCH  24  26
ATOM     26  C   UNL A   1      34.047  30.946  27.567  1.00  0.00     0.060 A 
ATOM     27  C   UNL A   1      34.518  29.640  27.668  1.00  0.00     0.016 A 
ATOM     28  C   UNL A   1      34.805  31.996  28.087  1.00  0.00     0.016 A 
ATOM     29  C   UNL A   1      35.686  29.371  28.381  1.00  0.00     0.010 A 
ATOM     30  C   UNL A   1      36.033  31.730  28.708  1.00  0.00     0.010 A 
ATOM     31  C   UNL A   1      36.468  30.409  28.910  1.00  0.00    -0.014 A 
BRANCH  31  32
ATOM     32  C   UNL A   1      37.696  30.109  29.710  1.00  0.00     0.031 A 
ATOM     33  C   UNL A   1      38.862  29.380  29.080  1.00  0.00     0.074 A 
ATOM     34  C   UNL A   1      37.809  30.519  30.991  1.00  0.00     0.049 A 
ATOM     35  N   UNL A   1      39.933  28.884  29.651  1.00  0.00    -0.248 NA
ATOM     36  C   UNL A   1      38.815  29.171  27.624  1.00  0.00     0.031 C 
ATOM     37  C   UNL A   1      36.805  31.286  31.732  1.00  0.00     0.029 A 
ATOM     38  N   UNL A   1      38.837  30.374  31.892  1.00  0.00    -0.354 N 
ATOM     39  C   UNL A   1      40.645  28.248  28.641  1.00  0.00     0.074 A 
ATOM     40  C   UNL A   1      39.889  28.421  27.419  1.00  0.00     0.031 C 
ATOM     41  C   UNL A   1      37.300  31.617  32.933  1.00  0.00     0.029 A 
ATOM     42  C   UNL A   1      38.607  30.991  33.098  1.00  0.00     0.049 A 
ATOM     43  H   UNL A   1      39.662  29.874  31.692  1.00  0.00     0.167 HD
ATOM     44  C   UNL A   1      41.820  27.578  28.719  1.00  0.00     0.031 A 
ATOM     45  C   UNL A   1      39.336  31.024  34.231  1.00  0.00     0.031 A 
ATOM     46  C   UNL A   1      42.611  27.454  29.916  1.00  0.00     0.049 A 
ATOM     47  C   UNL A   1      40.615  30.244  34.309  1.00  0.00     0.074 A 
ATOM     48  C   UNL A   1      43.812  26.787  30.090  1.00  0.00     0.029 A 
ATOM     49  N   UNL A   1      42.297  28.036  31.133  1.00  0.00    -0.354 N 
ATOM     50  N   UNL A   1      41.218  29.556  33.371  1.00  0.00    -0.248 NA
ATOM     51  C   UNL A   1      41.295  30.214  35.612  1.00  0.00     0.031 C 
ATOM     52  C   UNL A   1      44.208  26.936  31.422  1.00  0.00     0.029 A 
ATOM     53  C   UNL A   1      43.277  27.735  32.064  1.00  0.00     0.049 A 
ATOM     54  H   UNL A   1      41.497  28.582  31.310  1.00  0.00     0.167 HD
ATOM     55  C   UNL A   1      42.344  29.008  33.970  1.00  0.00     0.074 A 
ATOM     56  C   UNL A   1      42.357  29.465  35.344  1.00  0.00     0.031 C 
ATOM     57  C   UNL A   1      43.276  28.187  33.429  1.00  0.00     0.031 A 
BRANCH  44  58
ATOM     58  C   UNL A   1      42.319  26.888  27.481  1.00  0.00    -0.014 A 
ATOM     59  C   UNL A   1      41.808  25.645  27.075  1.00  0.00     0.009 A 
ATOM     60  C   UNL A   1      43.271  27.529  26.670  1.00  0.00     0.009 A 
ATOM     61  C   UNL A   1      42.258  25.050  25.894  1.00  0.00     0.001 A 
ATOM     62  C   UNL A   1      43.698  26.943  25.478  1.00  0.00     0.001 A 
ATOM     63  C   UNL A   1      43.196  25.702  25.094  1.00  0.00     0.000 A 
ENDBRANCH  44  58
BRANCH  45  64
ATOM     64  C   UNL A   1      38.843  31.792  35.404  1.00  0.00    -0.014 A 
ATOM     65  C   UNL A   1      39.024  33.181  35.471  1.00  0.00     0.009 A 
ATOM     66  C   UNL A   1      38.161  31.144  36.449  1.00  0.00     0.009 A 
ATOM     67  C   UNL A   1      38.533  33.906  36.560  1.00  0.00     0.001 A 
ATOM     68  C   UNL A   1      37.645  31.876  37.519  1.00  0.00     0.001 A 
ATOM     69  C   UNL A   1      37.836  33.255  37.576  1.00  0.00     0.000 A 
ENDBRANCH  45  64
BRANCH  57  70
ATOM     70  C   UNL A   1      44.398  27.736  34.317  1.00  0.00    -0.014 A 
ATOM     71  C   UNL A   1      45.562  28.508  34.453  1.00  0.00     0.009 A 
ATOM     72  C   UNL A   1      44.264  26.561  35.072  1.00  0.00     0.009 A 
ATOM     73  C   UNL A   1      46.579  28.100  35.317  1.00  0.00     0.001 A 
ATOM     74  C   UNL A   1      45.275  26.167  35.951  1.00  0.00     0.001 A 
ATOM     75  C   UNL A   1      46.432  26.935  36.069  1.00  0.00     0.000 A 
ENDBRANCH  57  70
ENDBRANCH  31  32
ENDBRANCH  24  26
ENDBRANCH  23  24
ENDBRANCH   1  23
TORSDOF 12
ENDMDL
