MODEL 1
REMARK VINA RESULT:     -10.5      0.000      0.000
REMARK SMILES Cc1cc(=O)cc(C)n1C[C@H]1CCCC[C@@H]1C(=O)OCCOC(=O)c1ccc(-c2c3nc(c(-c4ccccc4)c4ccc([nH]4)c(-c4ccccc4)c4nc(c(-c5ccccc5)c5ccc2[nH]5)C=C4)C=C3)cc1
REMARK SMILES IDX 20 1 19 2 17 3 18 4 16 5 11 6 12 7 13 8 15 9 14 10 10 11
REMARK SMILES IDX 9 12 1 13 2 14 3 15 4 16 7 17 5 18 6 19 8 20 21 21 22 22
REMARK SMILES IDX 23 23 24 24 25 25 26 26 72 27 27 28 71 29 28 30 29 31 30 32
REMARK SMILES IDX 65 33 31 34 70 35 64 36 66 37 32 38 69 39 63 40 62 41 33 43
REMARK SMILES IDX 55 44 40 45 54 46 41 47 44 48 53 49 67 50 42 51 43 52 52 54
REMARK SMILES IDX 68 55 45 56 34 57 35 58 39 59 36 60 38 61 37 62 56 63 57 64
REMARK SMILES IDX 61 65 58 66 60 67 59 68 46 69 47 70 51 71 48 72 50 73 49 74
REMARK H PARENT 66 42 44 53
REMARK Flexibility Score: inf
ROOT
ATOM      1  C   UNL A   1      38.701  21.706  25.863  1.00  0.00     0.274 C 
ENDROOT
BRANCH   1   2
ATOM      2  O   UNL A   1      37.596  22.133  25.040  1.00  0.00    -0.462 OA
BRANCH   2   3
ATOM      3  C   UNL A   1      36.890  23.190  25.521  1.00  0.00     0.309 C 
ATOM      4  O   UNL A   1      37.342  23.996  26.327  1.00  0.00    -0.252 OA
BRANCH   3   5
ATOM      5  C   UNL A   1      35.477  23.311  24.918  1.00  0.00     0.104 C 
ATOM      6  C   UNL A   1      34.525  23.923  26.003  1.00  0.00     0.023 C 
ATOM      7  C   UNL A   1      34.410  22.868  27.120  1.00  0.00     0.006 C 
ATOM      8  C   UNL A   1      33.874  21.524  26.621  1.00  0.00     0.000 C 
ATOM      9  C   UNL A   1      34.938  21.984  24.372  1.00  0.00     0.016 C 
ATOM     10  C   UNL A   1      34.702  20.956  25.473  1.00  0.00     0.001 C 
BRANCH   6  11
ATOM     11  C   UNL A   1      33.160  24.401  25.412  1.00  0.00     0.126 C 
BRANCH  11  12
ATOM     12  N   UNL A   1      33.272  25.492  24.379  1.00  0.00    -0.349 N 
ATOM     13  C   UNL A   1      32.450  23.916  22.539  1.00  0.00     0.064 C 
ATOM     14  C   UNL A   1      33.057  25.223  22.993  1.00  0.00     0.018 A 
ATOM     15  C   UNL A   1      33.294  26.132  22.027  1.00  0.00     0.073 A 
ATOM     16  C   UNL A   1      33.767  27.476  22.384  1.00  0.00     0.182 A 
ATOM     17  C   UNL A   1      33.539  26.847  24.730  1.00  0.00     0.018 A 
ATOM     18  O   UNL A   1      34.035  28.316  21.533  1.00  0.00    -0.290 OA
ATOM     19  C   UNL A   1      33.815  27.796  23.815  1.00  0.00     0.073 A 
ATOM     20  C   UNL A   1      33.410  27.355  26.144  1.00  0.00     0.064 C 
ENDBRANCH  11  12
ENDBRANCH   6  11
ENDBRANCH   3   5
ENDBRANCH   2   3
ENDBRANCH   1   2
BRANCH   1  21
ATOM     21  C   UNL A   1      39.255  20.339  25.440  1.00  0.00     0.275 C 
BRANCH  21  22
ATOM     22  O   UNL A   1      40.101  19.751  26.447  1.00  0.00    -0.458 OA
BRANCH  22  23
ATOM     23  C   UNL A   1      41.426  19.775  26.173  1.00  0.00     0.338 C 
ATOM     24  O   UNL A   1      42.066  18.941  25.545  1.00  0.00    -0.246 OA
BRANCH  23  25
ATOM     25  C   UNL A   1      41.997  21.074  26.569  1.00  0.00     0.060 A 
ATOM     26  C   UNL A   1      41.955  21.410  27.925  1.00  0.00     0.016 A 
ATOM     27  C   UNL A   1      42.522  21.972  25.641  1.00  0.00     0.016 A 
ATOM     28  C   UNL A   1      42.452  22.622  28.371  1.00  0.00     0.010 A 
ATOM     29  C   UNL A   1      42.992  23.213  26.085  1.00  0.00     0.010 A 
ATOM     30  C   UNL A   1      42.951  23.542  27.451  1.00  0.00    -0.014 A 
BRANCH  30  31
ATOM     31  C   UNL A   1      43.309  24.887  27.943  1.00  0.00     0.031 A 
ATOM     32  C   UNL A   1      42.217  25.882  28.193  1.00  0.00     0.074 A 
ATOM     33  C   UNL A   1      44.583  25.171  28.266  1.00  0.00     0.049 A 
ATOM     34  N   UNL A   1      42.307  27.122  28.598  1.00  0.00    -0.248 NA
ATOM     35  C   UNL A   1      40.838  25.414  27.979  1.00  0.00     0.031 C 
ATOM     36  C   UNL A   1      45.705  24.236  28.189  1.00  0.00     0.029 A 
ATOM     37  N   UNL A   1      45.142  26.329  28.742  1.00  0.00    -0.354 N 
ATOM     38  C   UNL A   1      41.001  27.586  28.673  1.00  0.00     0.074 A 
ATOM     39  C   UNL A   1      40.136  26.503  28.257  1.00  0.00     0.031 C 
ATOM     40  C   UNL A   1      46.821  24.859  28.602  1.00  0.00     0.029 A 
ATOM     41  C   UNL A   1      46.500  26.247  28.924  1.00  0.00     0.049 A 
ATOM     42  H   UNL A   1      44.619  27.142  28.935  1.00  0.00     0.167 HD
ATOM     43  C   UNL A   1      40.565  28.806  29.057  1.00  0.00     0.031 A 
ATOM     44  C   UNL A   1      47.387  27.197  29.280  1.00  0.00     0.031 A 
ATOM     45  C   UNL A   1      41.433  29.879  29.457  1.00  0.00     0.049 A 
ATOM     46  C   UNL A   1      46.889  28.588  29.564  1.00  0.00     0.074 A 
ATOM     47  C   UNL A   1      41.093  31.165  29.836  1.00  0.00     0.029 A 
ATOM     48  N   UNL A   1      42.816  29.792  29.526  1.00  0.00    -0.354 N 
ATOM     49  N   UNL A   1      45.655  29.034  29.596  1.00  0.00    -0.248 NA
ATOM     50  C   UNL A   1      47.904  29.611  29.858  1.00  0.00     0.031 C 
ATOM     51  C   UNL A   1      42.274  31.874  30.075  1.00  0.00     0.029 A 
ATOM     52  C   UNL A   1      43.346  31.011  29.912  1.00  0.00     0.049 A 
ATOM     53  H   UNL A   1      43.343  28.983  29.331  1.00  0.00     0.167 HD
ATOM     54  C   UNL A   1      45.745  30.378  29.933  1.00  0.00     0.074 A 
ATOM     55  C   UNL A   1      47.151  30.672  30.111  1.00  0.00     0.031 C 
ATOM     56  C   UNL A   1      44.749  31.287  30.082  1.00  0.00     0.031 A 
BRANCH  43  57
ATOM     57  C   UNL A   1      39.085  29.061  29.023  1.00  0.00    -0.014 A 
ATOM     58  C   UNL A   1      38.288  28.891  30.165  1.00  0.00     0.009 A 
ATOM     59  C   UNL A   1      38.491  29.532  27.841  1.00  0.00     0.009 A 
ATOM     60  C   UNL A   1      36.920  29.167  30.117  1.00  0.00     0.001 A 
ATOM     61  C   UNL A   1      37.130  29.833  27.805  1.00  0.00     0.001 A 
ATOM     62  C   UNL A   1      36.344  29.646  28.940  1.00  0.00     0.000 A 
ENDBRANCH  43  57
BRANCH  44  63
ATOM     63  C   UNL A   1      48.835  26.872  29.354  1.00  0.00    -0.014 A 
ATOM     64  C   UNL A   1      49.652  26.982  28.219  1.00  0.00     0.009 A 
ATOM     65  C   UNL A   1      49.411  26.448  30.563  1.00  0.00     0.009 A 
ATOM     66  C   UNL A   1      51.011  26.662  28.291  1.00  0.00     0.001 A 
ATOM     67  C   UNL A   1      50.775  26.158  30.639  1.00  0.00     0.001 A 
ATOM     68  C   UNL A   1      51.572  26.257  29.501  1.00  0.00     0.000 A 
ENDBRANCH  44  63
BRANCH  56  69
ATOM     69  C   UNL A   1      45.132  32.685  30.476  1.00  0.00    -0.014 A 
ATOM     70  C   UNL A   1      45.293  33.040  31.824  1.00  0.00     0.009 A 
ATOM     71  C   UNL A   1      45.431  33.631  29.482  1.00  0.00     0.009 A 
ATOM     72  C   UNL A   1      45.732  34.321  32.167  1.00  0.00     0.001 A 
ATOM     73  C   UNL A   1      45.899  34.899  29.827  1.00  0.00     0.001 A 
ATOM     74  C   UNL A   1      46.044  35.244  31.170  1.00  0.00     0.000 A 
ENDBRANCH  56  69
ENDBRANCH  30  31
ENDBRANCH  23  25
ENDBRANCH  22  23
ENDBRANCH  21  22
ENDBRANCH   1  21
TORSDOF 13
ENDMDL
MODEL 2
REMARK VINA RESULT:     -10.4      4.814      8.579
REMARK SMILES Cc1cc(=O)cc(C)n1C[C@H]1CCCC[C@@H]1C(=O)OCCOC(=O)c1ccc(-c2c3nc(c(-c4ccccc4)c4ccc([nH]4)c(-c4ccccc4)c4nc(c(-c5ccccc5)c5ccc2[nH]5)C=C4)C=C3)cc1
REMARK SMILES IDX 20 1 19 2 17 3 18 4 16 5 11 6 12 7 13 8 15 9 14 10 10 11
REMARK SMILES IDX 9 12 1 13 2 14 3 15 4 16 7 17 5 18 6 19 8 20 21 21 22 22
REMARK SMILES IDX 23 23 24 24 25 25 26 26 72 27 27 28 71 29 28 30 29 31 30 32
REMARK SMILES IDX 65 33 31 34 70 35 64 36 66 37 32 38 69 39 63 40 62 41 33 43
REMARK SMILES IDX 55 44 40 45 54 46 41 47 44 48 53 49 67 50 42 51 43 52 52 54
REMARK SMILES IDX 68 55 45 56 34 57 35 58 39 59 36 60 38 61 37 62 56 63 57 64
REMARK SMILES IDX 61 65 58 66 60 67 59 68 46 69 47 70 51 71 48 72 50 73 49 74
REMARK H PARENT 66 42 44 53
REMARK Flexibility Score: inf
ROOT
ATOM      1  C   UNL A   1      31.762  31.046  26.535  1.00  0.00     0.274 C 
ENDROOT
BRANCH   1   2
ATOM      2  O   UNL A   1      32.264  30.039  27.437  1.00  0.00    -0.462 OA
BRANCH   2   3
ATOM      3  C   UNL A   1      31.796  28.781  27.220  1.00  0.00     0.309 C 
ATOM      4  O   UNL A   1      31.316  28.076  28.101  1.00  0.00    -0.252 OA
BRANCH   3   5
ATOM      5  C   UNL A   1      31.881  28.340  25.746  1.00  0.00     0.104 C 
ATOM      6  C   UNL A   1      30.928  27.112  25.540  1.00  0.00     0.023 C 
ATOM      7  C   UNL A   1      31.534  25.954  26.355  1.00  0.00     0.006 C 
ATOM      8  C   UNL A   1      32.964  25.610  25.932  1.00  0.00     0.000 C 
ATOM      9  C   UNL A   1      33.311  28.032  25.288  1.00  0.00     0.016 C 
ATOM     10  C   UNL A   1      33.897  26.814  25.995  1.00  0.00     0.001 C 
BRANCH   6  11
ATOM     11  C   UNL A   1      30.672  26.789  24.033  1.00  0.00     0.126 C 
BRANCH  11  12
ATOM     12  N   UNL A   1      29.865  27.826  23.297  1.00  0.00    -0.349 N 
ATOM     13  C   UNL A   1      31.950  28.669  22.078  1.00  0.00     0.064 C 
ATOM     14  C   UNL A   1      30.497  28.801  22.466  1.00  0.00     0.018 A 
ATOM     15  C   UNL A   1      29.828  29.833  21.914  1.00  0.00     0.073 A 
ATOM     16  C   UNL A   1      28.382  29.972  22.133  1.00  0.00     0.182 A 
ATOM     17  C   UNL A   1      28.442  27.855  23.344  1.00  0.00     0.018 A 
ATOM     18  O   UNL A   1      27.748  30.919  21.684  1.00  0.00    -0.290 OA
ATOM     19  C   UNL A   1      27.716  28.871  22.839  1.00  0.00     0.073 A 
ATOM     20  C   UNL A   1      27.626  26.690  23.847  1.00  0.00     0.064 C 
ENDBRANCH  11  12
ENDBRANCH   6  11
ENDBRANCH   3   5
ENDBRANCH   2   3
ENDBRANCH   1   2
BRANCH   1  21
ATOM     21  C   UNL A   1      31.599  32.413  27.212  1.00  0.00     0.275 C 
BRANCH  21  22
ATOM     22  O   UNL A   1      32.712  33.292  26.958  1.00  0.00    -0.458 OA
BRANCH  22  23
ATOM     23  C   UNL A   1      33.186  33.949  28.042  1.00  0.00     0.338 C 
ATOM     24  O   UNL A   1      32.621  34.829  28.678  1.00  0.00    -0.246 OA
BRANCH  23  25
ATOM     25  C   UNL A   1      34.435  33.319  28.503  1.00  0.00     0.060 A 
ATOM     26  C   UNL A   1      34.382  31.968  28.857  1.00  0.00     0.016 A 
ATOM     27  C   UNL A   1      35.626  34.031  28.636  1.00  0.00     0.016 A 
ATOM     28  C   UNL A   1      35.509  31.311  29.320  1.00  0.00     0.010 A 
ATOM     29  C   UNL A   1      36.758  33.378  29.138  1.00  0.00     0.010 A 
ATOM     30  C   UNL A   1      36.698  32.018  29.487  1.00  0.00    -0.014 A 
BRANCH  30  31
ATOM     31  C   UNL A   1      37.826  31.329  30.144  1.00  0.00     0.031 A 
ATOM     32  C   UNL A   1      38.078  31.578  31.601  1.00  0.00     0.074 A 
ATOM     33  C   UNL A   1      38.541  30.410  29.472  1.00  0.00     0.049 A 
ATOM     34  N   UNL A   1      39.024  31.103  32.367  1.00  0.00    -0.248 NA
ATOM     35  C   UNL A   1      37.128  32.466  32.291  1.00  0.00     0.031 C 
ATOM     36  C   UNL A   1      38.297  29.992  28.091  1.00  0.00     0.029 A 
ATOM     37  N   UNL A   1      39.610  29.649  29.871  1.00  0.00    -0.354 N 
ATOM     38  C   UNL A   1      38.792  31.642  33.625  1.00  0.00     0.074 A 
ATOM     39  C   UNL A   1      37.627  32.495  33.518  1.00  0.00     0.031 C 
ATOM     40  C   UNL A   1      39.194  29.049  27.758  1.00  0.00     0.029 A 
ATOM     41  C   UNL A   1      40.103  28.836  28.881  1.00  0.00     0.049 A 
ATOM     42  H   UNL A   1      39.987  29.683  30.780  1.00  0.00     0.167 HD
ATOM     43  C   UNL A   1      39.488  31.440  34.766  1.00  0.00     0.031 A 
ATOM     44  C   UNL A   1      41.184  28.033  28.876  1.00  0.00     0.031 A 
ATOM     45  C   UNL A   1      40.651  30.601  34.859  1.00  0.00     0.049 A 
ATOM     46  C   UNL A   1      42.027  27.938  30.119  1.00  0.00     0.074 A 
ATOM     47  C   UNL A   1      41.447  30.354  35.962  1.00  0.00     0.029 A 
ATOM     48  N   UNL A   1      41.186  29.875  33.806  1.00  0.00    -0.354 N 
ATOM     49  N   UNL A   1      41.826  28.482  31.297  1.00  0.00    -0.248 NA
ATOM     50  C   UNL A   1      43.248  27.124  30.035  1.00  0.00     0.031 C 
ATOM     51  C   UNL A   1      42.500  29.526  35.561  1.00  0.00     0.029 A 
ATOM     52  C   UNL A   1      42.321  29.203  34.225  1.00  0.00     0.049 A 
ATOM     53  H   UNL A   1      40.814  29.840  32.894  1.00  0.00     0.167 HD
ATOM     54  C   UNL A   1      42.880  28.059  32.096  1.00  0.00     0.074 A 
ATOM     55  C   UNL A   1      43.709  27.201  31.276  1.00  0.00     0.031 C 
ATOM     56  C   UNL A   1      43.136  28.355  33.395  1.00  0.00     0.031 A 
BRANCH  43  57
ATOM     57  C   UNL A   1      39.038  32.174  35.997  1.00  0.00    -0.014 A 
ATOM     58  C   UNL A   1      38.122  31.602  36.893  1.00  0.00     0.009 A 
ATOM     59  C   UNL A   1      39.581  33.434  36.289  1.00  0.00     0.009 A 
ATOM     60  C   UNL A   1      37.744  32.289  38.048  1.00  0.00     0.001 A 
ATOM     61  C   UNL A   1      39.223  34.106  37.459  1.00  0.00     0.001 A 
ATOM     62  C   UNL A   1      38.301  33.535  38.335  1.00  0.00     0.000 A 
ENDBRANCH  43  57
BRANCH  44  63
ATOM     63  C   UNL A   1      41.550  27.286  27.644  1.00  0.00    -0.014 A 
ATOM     64  C   UNL A   1      41.097  25.975  27.442  1.00  0.00     0.009 A 
ATOM     65  C   UNL A   1      42.358  27.882  26.661  1.00  0.00     0.009 A 
ATOM     66  C   UNL A   1      41.455  25.272  26.288  1.00  0.00     0.001 A 
ATOM     67  C   UNL A   1      42.689  27.189  25.496  1.00  0.00     0.001 A 
ATOM     68  C   UNL A   1      42.245  25.881  25.314  1.00  0.00     0.000 A 
ENDBRANCH  44  63
BRANCH  56  69
ATOM     69  C   UNL A   1      44.351  27.735  34.026  1.00  0.00    -0.014 A 
ATOM     70  C   UNL A   1      45.537  28.468  34.186  1.00  0.00     0.009 A 
ATOM     71  C   UNL A   1      44.276  26.436  34.553  1.00  0.00     0.009 A 
ATOM     72  C   UNL A   1      46.628  27.905  34.851  1.00  0.00     0.001 A 
ATOM     73  C   UNL A   1      45.357  25.888  35.243  1.00  0.00     0.001 A 
ATOM     74  C   UNL A   1      46.534  26.621  35.387  1.00  0.00     0.000 A 
ENDBRANCH  56  69
ENDBRANCH  30  31
ENDBRANCH  23  25
ENDBRANCH  22  23
ENDBRANCH  21  22
ENDBRANCH   1  21
TORSDOF 13
ENDMDL
MODEL 3
REMARK VINA RESULT:     -10.4      4.974      9.299
REMARK SMILES Cc1cc(=O)cc(C)n1C[C@H]1CCCC[C@@H]1C(=O)OCCOC(=O)c1ccc(-c2c3nc(c(-c4ccccc4)c4ccc([nH]4)c(-c4ccccc4)c4nc(c(-c5ccccc5)c5ccc2[nH]5)C=C4)C=C3)cc1
REMARK SMILES IDX 20 1 19 2 17 3 18 4 16 5 11 6 12 7 13 8 15 9 14 10 10 11
REMARK SMILES IDX 9 12 1 13 2 14 3 15 4 16 7 17 5 18 6 19 8 20 21 21 22 22
REMARK SMILES IDX 23 23 24 24 25 25 26 26 72 27 27 28 71 29 28 30 29 31 30 32
REMARK SMILES IDX 65 33 31 34 70 35 64 36 66 37 32 38 69 39 63 40 62 41 33 43
REMARK SMILES IDX 55 44 40 45 54 46 41 47 44 48 53 49 67 50 42 51 43 52 52 54
REMARK SMILES IDX 68 55 45 56 34 57 35 58 39 59 36 60 38 61 37 62 56 63 57 64
REMARK SMILES IDX 61 65 58 66 60 67 59 68 46 69 47 70 51 71 48 72 50 73 49 74
REMARK H PARENT 66 42 44 53
REMARK Flexibility Score: inf
ROOT
ATOM      1  C   UNL A   1      31.832  31.164  26.469  1.00  0.00     0.274 C 
ENDROOT
BRANCH   1   2
ATOM      2  O   UNL A   1      32.364  30.150  27.345  1.00  0.00    -0.462 OA
BRANCH   2   3
ATOM      3  C   UNL A   1      31.877  28.897  27.146  1.00  0.00     0.309 C 
ATOM      4  O   UNL A   1      31.397  28.207  28.039  1.00  0.00    -0.252 OA
BRANCH   3   5
ATOM      5  C   UNL A   1      31.938  28.441  25.675  1.00  0.00     0.104 C 
ATOM      6  C   UNL A   1      30.980  27.213  25.496  1.00  0.00     0.023 C 
ATOM      7  C   UNL A   1      31.596  26.062  26.313  1.00  0.00     0.006 C 
ATOM      8  C   UNL A   1      33.020  25.710  25.873  1.00  0.00     0.000 C 
ATOM      9  C   UNL A   1      33.361  28.125  25.199  1.00  0.00     0.016 C 
ATOM     10  C   UNL A   1      33.955  26.914  25.910  1.00  0.00     0.001 C 
BRANCH   6  11
ATOM     11  C   UNL A   1      30.701  26.875  23.996  1.00  0.00     0.126 C 
BRANCH  11  12
ATOM     12  N   UNL A   1      29.855  27.888  23.272  1.00  0.00    -0.349 N 
ATOM     13  C   UNL A   1      31.895  28.771  22.004  1.00  0.00     0.064 C 
ATOM     14  C   UNL A   1      30.447  28.873  22.422  1.00  0.00     0.018 A 
ATOM     15  C   UNL A   1      29.743  29.885  21.878  1.00  0.00     0.073 A 
ATOM     16  C   UNL A   1      28.299  29.993  22.127  1.00  0.00     0.182 A 
ATOM     17  C   UNL A   1      28.433  27.885  23.348  1.00  0.00     0.018 A 
ATOM     18  O   UNL A   1      27.634  30.922  21.686  1.00  0.00    -0.290 OA
ATOM     19  C   UNL A   1      27.674  28.882  22.853  1.00  0.00     0.073 A 
ATOM     20  C   UNL A   1      27.655  26.705  23.875  1.00  0.00     0.064 C 
ENDBRANCH  11  12
ENDBRANCH   6  11
ENDBRANCH   3   5
ENDBRANCH   2   3
ENDBRANCH   1   2
BRANCH   1  21
ATOM     21  C   UNL A   1      31.614  32.504  27.183  1.00  0.00     0.275 C 
BRANCH  21  22
ATOM     22  O   UNL A   1      32.696  33.430  26.963  1.00  0.00    -0.458 OA
BRANCH  22  23
ATOM     23  C   UNL A   1      33.121  34.091  28.065  1.00  0.00     0.338 C 
ATOM     24  O   UNL A   1      32.528  34.975  28.670  1.00  0.00    -0.246 OA
BRANCH  23  25
ATOM     25  C   UNL A   1      34.345  33.461  28.588  1.00  0.00     0.060 A 
ATOM     26  C   UNL A   1      34.196  32.308  29.363  1.00  0.00     0.016 A 
ATOM     27  C   UNL A   1      35.612  33.999  28.371  1.00  0.00     0.016 A 
ATOM     28  C   UNL A   1      35.297  31.670  29.906  1.00  0.00     0.010 A 
ATOM     29  C   UNL A   1      36.725  33.378  28.949  1.00  0.00     0.010 A 
ATOM     30  C   UNL A   1      36.567  32.215  29.724  1.00  0.00    -0.014 A 
BRANCH  30  31
ATOM     31  C   UNL A   1      37.693  31.608  30.461  1.00  0.00     0.031 A 
ATOM     32  C   UNL A   1      38.532  30.571  29.778  1.00  0.00     0.074 A 
ATOM     33  C   UNL A   1      38.024  32.062  31.683  1.00  0.00     0.049 A 
ATOM     34  N   UNL A   1      39.547  29.892  30.245  1.00  0.00    -0.248 NA
ATOM     35  C   UNL A   1      38.197  30.272  28.376  1.00  0.00     0.031 C 
ATOM     36  C   UNL A   1      37.359  33.159  32.387  1.00  0.00     0.029 A 
ATOM     37  N   UNL A   1      39.018  31.665  32.539  1.00  0.00    -0.354 N 
ATOM     38  C   UNL A   1      39.963  29.077  29.201  1.00  0.00     0.074 A 
ATOM     39  C   UNL A   1      39.082  29.331  28.081  1.00  0.00     0.031 C 
ATOM     40  C   UNL A   1      37.964  33.345  33.572  1.00  0.00     0.029 A 
ATOM     41  C   UNL A   1      39.023  32.351  33.728  1.00  0.00     0.049 A 
ATOM     42  H   UNL A   1      39.666  30.955  32.323  1.00  0.00     0.167 HD
ATOM     43  C   UNL A   1      40.989  28.197  29.181  1.00  0.00     0.031 A 
ATOM     44  C   UNL A   1      39.778  32.173  34.829  1.00  0.00     0.031 A 
ATOM     45  C   UNL A   1      41.850  27.943  30.304  1.00  0.00     0.049 A 
ATOM     46  C   UNL A   1      40.820  31.088  34.831  1.00  0.00     0.074 A 
ATOM     47  C   UNL A   1      42.901  27.049  30.396  1.00  0.00     0.029 A 
ATOM     48  N   UNL A   1      41.757  28.583  31.531  1.00  0.00    -0.354 N 
ATOM     49  N   UNL A   1      41.184  30.291  33.853  1.00  0.00    -0.248 NA
ATOM     50  C   UNL A   1      41.554  30.872  36.086  1.00  0.00     0.031 C 
ATOM     51  C   UNL A   1      43.404  27.103  31.699  1.00  0.00     0.029 A 
ATOM     52  C   UNL A   1      42.711  28.080  32.398  1.00  0.00     0.049 A 
ATOM     53  H   UNL A   1      41.108  29.290  31.753  1.00  0.00     0.167 HD
ATOM     54  C   UNL A   1      42.201  29.498  34.368  1.00  0.00     0.074 A 
ATOM     55  C   UNL A   1      42.407  29.918  35.739  1.00  0.00     0.031 C 
ATOM     56  C   UNL A   1      42.901  28.509  33.759  1.00  0.00     0.031 A 
BRANCH  43  57
ATOM     57  C   UNL A   1      41.212  27.413  27.920  1.00  0.00    -0.014 A 
ATOM     58  C   UNL A   1      40.555  26.194  27.693  1.00  0.00     0.009 A 
ATOM     59  C   UNL A   1      42.051  27.932  26.921  1.00  0.00     0.009 A 
ATOM     60  C   UNL A   1      40.752  25.499  26.498  1.00  0.00     0.001 A 
ATOM     61  C   UNL A   1      42.223  27.249  25.716  1.00  0.00     0.001 A 
ATOM     62  C   UNL A   1      41.578  26.031  25.507  1.00  0.00     0.000 A 
ENDBRANCH  43  57
BRANCH  44  63
ATOM     63  C   UNL A   1      39.551  33.019  36.031  1.00  0.00    -0.014 A 
ATOM     64  C   UNL A   1      40.240  34.229  36.194  1.00  0.00     0.009 A 
ATOM     65  C   UNL A   1      38.642  32.619  37.024  1.00  0.00     0.009 A 
ATOM     66  C   UNL A   1      40.034  35.014  37.332  1.00  0.00     0.001 A 
ATOM     67  C   UNL A   1      38.415  33.419  38.145  1.00  0.00     0.001 A 
ATOM     68  C   UNL A   1      39.117  34.612  38.302  1.00  0.00     0.000 A 
ENDBRANCH  44  63
BRANCH  56  69
ATOM     69  C   UNL A   1      43.973  27.819  34.555  1.00  0.00    -0.014 A 
ATOM     70  C   UNL A   1      43.724  26.598  35.199  1.00  0.00     0.009 A 
ATOM     71  C   UNL A   1      45.273  28.349  34.578  1.00  0.00     0.009 A 
ATOM     72  C   UNL A   1      44.754  25.929  35.863  1.00  0.00     0.001 A 
ATOM     73  C   UNL A   1      46.307  27.663  35.215  1.00  0.00     0.001 A 
ATOM     74  C   UNL A   1      46.045  26.456  35.862  1.00  0.00     0.000 A 
ENDBRANCH  56  69
ENDBRANCH  30  31
ENDBRANCH  23  25
ENDBRANCH  22  23
ENDBRANCH  21  22
ENDBRANCH   1  21
TORSDOF 13
ENDMDL
