MODEL 1
REMARK VINA RESULT:      -9.9      0.000      0.000
REMARK SMILES COc1cc(C(C)C)cc([C@H]([NH3+])C(=O)OCCOC(=O)c2ccc(-c3c4nc(c(-c5ccccc5)c5ccc([nH]5)c(-c5ccccc5)c5nc(c(-c6ccccc6)c6ccc3[nH]6)C=C5)C=C4)cc2)c1O
REMARK SMILES IDX 16 1 15 2 13 3 14 4 11 5 10 6 3 7 4 8 69 9 5 10 9 11 2 12
REMARK SMILES IDX 1 13 70 14 6 16 7 17 8 18 12 19 17 23 18 24 19 25 20 26
REMARK SMILES IDX 21 27 22 28 68 29 23 30 67 31 24 32 25 33 26 34 61 35 27 36
REMARK SMILES IDX 66 37 60 38 62 39 28 40 65 41 59 42 58 43 29 45 51 46 36 47
REMARK SMILES IDX 50 48 37 49 40 50 49 51 63 52 38 53 39 54 48 56 64 57 41 58
REMARK SMILES IDX 30 59 31 60 35 61 32 62 34 63 33 64 52 65 53 66 57 67 54 68
REMARK SMILES IDX 56 69 55 70 42 71 43 72 47 73 44 74 46 75 45 76
REMARK H PARENT 70 15 12 20 12 21 12 22 62 44 40 55
REMARK Flexibility Score: inf
ROOT
ATOM      1  C   UNL A   1      44.935  20.774  25.060  1.00  0.00     0.274 C 
ENDROOT
BRANCH   1   2
ATOM      2  O   UNL A   1      43.624  21.104  25.553  1.00  0.00    -0.457 OA
BRANCH   2   3
ATOM      3  C   UNL A   1      42.772  20.049  25.739  1.00  0.00     0.370 C 
ATOM      4  O   UNL A   1      42.743  19.052  25.024  1.00  0.00    -0.245 OA
BRANCH   3   5
ATOM      5  C   UNL A   1      41.833  20.278  26.943  1.00  0.00     0.327 C 
BRANCH   5   6
ATOM      6  C   UNL A   1      40.577  21.016  26.532  1.00  0.00     0.067 A 
ATOM      7  C   UNL A   1      38.372  21.001  25.479  1.00  0.00     0.161 A 
ATOM      8  C   UNL A   1      38.246  22.364  25.777  1.00  0.00     0.054 A 
ATOM      9  C   UNL A   1      39.529  20.333  25.888  1.00  0.00     0.167 A 
ATOM     10  C   UNL A   1      39.260  23.068  26.447  1.00  0.00    -0.041 A 
ATOM     11  C   UNL A   1      40.433  22.388  26.791  1.00  0.00     0.018 A 
BRANCH   7  12
ATOM     12  O   UNL A   1      37.277  20.464  24.859  1.00  0.00    -0.493 OA
ATOM     13  C   UNL A   1      35.995  20.999  25.166  1.00  0.00     0.278 C 
ENDBRANCH   7  12
BRANCH   9  14
ATOM     14  O   UNL A   1      39.664  18.978  25.750  1.00  0.00    -0.504 OA
ATOM     15  H   UNL A   1      40.057  18.474  26.434  1.00  0.00     0.293 HD
ENDBRANCH   9  14
BRANCH  10  16
ATOM     16  C   UNL A   1      39.111  24.528  26.829  1.00  0.00     0.013 C 
ATOM     17  C   UNL A   1      39.154  24.721  28.343  1.00  0.00     0.012 C 
ATOM     18  C   UNL A   1      40.156  25.398  26.125  1.00  0.00     0.012 C 
ENDBRANCH  10  16
ENDBRANCH   5   6
BRANCH   5  19
ATOM     19  N   UNL A   1      42.538  20.894  28.093  1.00  0.00    -0.342 N 
ATOM     20  H   UNL A   1      42.036  21.731  28.391  1.00  0.00     0.345 HD
ATOM     21  H   UNL A   1      43.486  21.147  27.815  1.00  0.00     0.345 HD
ATOM     22  H   UNL A   1      42.577  20.228  28.865  1.00  0.00     0.345 HD
ENDBRANCH   5  19
ENDBRANCH   3   5
ENDBRANCH   2   3
ENDBRANCH   1   2
BRANCH   1  23
ATOM     23  C   UNL A   1      45.880  21.975  25.133  1.00  0.00     0.275 C 
BRANCH  23  24
ATOM     24  O   UNL A   1      45.430  22.936  26.106  1.00  0.00    -0.458 OA
BRANCH  24  25
ATOM     25  C   UNL A   1      45.267  24.195  25.634  1.00  0.00     0.338 C 
ATOM     26  O   UNL A   1      45.705  24.663  24.599  1.00  0.00    -0.246 OA
BRANCH  25  27
ATOM     27  C   UNL A   1      44.367  24.944  26.524  1.00  0.00     0.060 A 
ATOM     28  C   UNL A   1      44.476  26.334  26.546  1.00  0.00     0.016 A 
ATOM     29  C   UNL A   1      43.527  24.290  27.425  1.00  0.00     0.016 A 
ATOM     30  C   UNL A   1      43.764  27.085  27.472  1.00  0.00     0.010 A 
ATOM     31  C   UNL A   1      42.809  25.044  28.362  1.00  0.00     0.010 A 
ATOM     32  C   UNL A   1      42.944  26.444  28.408  1.00  0.00    -0.014 A 
BRANCH  32  33
ATOM     33  C   UNL A   1      42.335  27.246  29.495  1.00  0.00     0.031 A 
ATOM     34  C   UNL A   1      43.025  27.328  30.830  1.00  0.00     0.074 A 
ATOM     35  C   UNL A   1      41.216  27.959  29.272  1.00  0.00     0.049 A 
ATOM     36  N   UNL A   1      42.650  27.950  31.919  1.00  0.00    -0.248 NA
ATOM     37  C   UNL A   1      44.307  26.614  30.956  1.00  0.00     0.031 C 
ATOM     38  C   UNL A   1      40.487  28.021  28.005  1.00  0.00     0.029 A 
ATOM     39  N   UNL A   1      40.505  28.784  30.109  1.00  0.00    -0.354 N 
ATOM     40  C   UNL A   1      43.629  27.675  32.866  1.00  0.00     0.074 A 
ATOM     41  C   UNL A   1      44.612  26.826  32.228  1.00  0.00     0.031 C 
ATOM     42  C   UNL A   1      39.441  28.853  28.143  1.00  0.00     0.029 A 
ATOM     43  C   UNL A   1      39.403  29.348  29.516  1.00  0.00     0.049 A 
ATOM     44  H   UNL A   1      40.761  28.954  31.044  1.00  0.00     0.167 HD
ATOM     45  C   UNL A   1      43.702  28.091  34.152  1.00  0.00     0.031 A 
ATOM     46  C   UNL A   1      38.459  30.159  30.028  1.00  0.00     0.031 A 
ATOM     47  C   UNL A   1      42.746  28.960  34.783  1.00  0.00     0.049 A 
ATOM     48  C   UNL A   1      38.543  30.571  31.472  1.00  0.00     0.074 A 
ATOM     49  C   UNL A   1      42.750  29.452  36.077  1.00  0.00     0.029 A 
ATOM     50  N   UNL A   1      41.620  29.472  34.160  1.00  0.00    -0.354 N 
ATOM     51  N   UNL A   1      39.469  30.295  32.358  1.00  0.00    -0.248 NA
ATOM     52  C   UNL A   1      37.446  31.403  31.987  1.00  0.00     0.031 C 
ATOM     53  C   UNL A   1      41.601  30.233  36.250  1.00  0.00     0.029 A 
ATOM     54  C   UNL A   1      40.908  30.259  35.051  1.00  0.00     0.049 A 
ATOM     55  H   UNL A   1      41.363  29.302  33.226  1.00  0.00     0.167 HD
ATOM     56  C   UNL A   1      39.075  30.933  33.527  1.00  0.00     0.074 A 
ATOM     57  C   UNL A   1      37.838  31.626  33.233  1.00  0.00     0.031 C 
ATOM     58  C   UNL A   1      39.681  30.942  34.739  1.00  0.00     0.031 A 
BRANCH  45  59
ATOM     59  C   UNL A   1      44.842  27.572  34.981  1.00  0.00    -0.014 A 
ATOM     60  C   UNL A   1      44.706  26.432  35.785  1.00  0.00     0.009 A 
ATOM     61  C   UNL A   1      46.085  28.223  34.922  1.00  0.00     0.009 A 
ATOM     62  C   UNL A   1      45.787  25.967  36.536  1.00  0.00     0.001 A 
ATOM     63  C   UNL A   1      47.170  27.743  35.658  1.00  0.00     0.001 A 
ATOM     64  C   UNL A   1      47.019  26.620  36.469  1.00  0.00     0.000 A 
ENDBRANCH  45  59
BRANCH  46  65
ATOM     65  C   UNL A   1      37.324  30.617  29.184  1.00  0.00    -0.014 A 
ATOM     66  C   UNL A   1      37.254  31.947  28.742  1.00  0.00     0.009 A 
ATOM     67  C   UNL A   1      36.289  29.733  28.848  1.00  0.00     0.009 A 
ATOM     68  C   UNL A   1      36.155  32.387  28.001  1.00  0.00     0.001 A 
ATOM     69  C   UNL A   1      35.204  30.170  28.085  1.00  0.00     0.001 A 
ATOM     70  C   UNL A   1      35.133  31.499  27.672  1.00  0.00     0.000 A 
ENDBRANCH  46  65
BRANCH  58  71
ATOM     71  C   UNL A   1      39.026  31.747  35.822  1.00  0.00    -0.014 A 
ATOM     72  C   UNL A   1      39.273  33.122  35.952  1.00  0.00     0.009 A 
ATOM     73  C   UNL A   1      38.133  31.127  36.708  1.00  0.00     0.009 A 
ATOM     74  C   UNL A   1      38.663  33.854  36.972  1.00  0.00     0.001 A 
ATOM     75  C   UNL A   1      37.506  31.865  37.712  1.00  0.00     0.001 A 
ATOM     76  C   UNL A   1      37.778  33.226  37.849  1.00  0.00     0.000 A 
ENDBRANCH  58  71
ENDBRANCH  32  33
ENDBRANCH  25  27
ENDBRANCH  24  25
ENDBRANCH  23  24
ENDBRANCH   1  23
TORSDOF 16
ENDMDL
MODEL 2
REMARK VINA RESULT:      -9.7      0.550      6.121
REMARK SMILES COc1cc(C(C)C)cc([C@H]([NH3+])C(=O)OCCOC(=O)c2ccc(-c3c4nc(c(-c5ccccc5)c5ccc([nH]5)c(-c5ccccc5)c5nc(c(-c6ccccc6)c6ccc3[nH]6)C=C5)C=C4)cc2)c1O
REMARK SMILES IDX 16 1 15 2 13 3 14 4 11 5 10 6 3 7 4 8 69 9 5 10 9 11 2 12
REMARK SMILES IDX 1 13 70 14 6 16 7 17 8 18 12 19 17 23 18 24 19 25 20 26
REMARK SMILES IDX 21 27 22 28 68 29 23 30 67 31 24 32 25 33 26 34 61 35 27 36
REMARK SMILES IDX 66 37 60 38 62 39 28 40 65 41 59 42 58 43 29 45 51 46 36 47
REMARK SMILES IDX 50 48 37 49 40 50 49 51 63 52 38 53 39 54 48 56 64 57 41 58
REMARK SMILES IDX 30 59 31 60 35 61 32 62 34 63 33 64 52 65 53 66 57 67 54 68
REMARK SMILES IDX 56 69 55 70 42 71 43 72 47 73 44 74 46 75 45 76
REMARK H PARENT 70 15 12 20 12 21 12 22 62 44 40 55
REMARK Flexibility Score: inf
ROOT
ATOM      1  C   UNL A   1      44.729  21.314  25.143  1.00  0.00     0.274 C 
ENDROOT
BRANCH   1   2
ATOM      2  O   UNL A   1      43.300  21.170  25.242  1.00  0.00    -0.457 OA
BRANCH   2   3
ATOM      3  C   UNL A   1      42.856  20.043  25.880  1.00  0.00     0.370 C 
ATOM      4  O   UNL A   1      43.133  18.899  25.533  1.00  0.00    -0.245 OA
BRANCH   3   5
ATOM      5  C   UNL A   1      41.940  20.386  27.076  1.00  0.00     0.327 C 
BRANCH   5   6
ATOM      6  C   UNL A   1      40.669  21.069  26.621  1.00  0.00     0.067 A 
ATOM      7  C   UNL A   1      38.503  20.957  25.494  1.00  0.00     0.161 A 
ATOM      8  C   UNL A   1      38.309  22.313  25.783  1.00  0.00     0.054 A 
ATOM      9  C   UNL A   1      39.673  20.340  25.944  1.00  0.00     0.167 A 
ATOM     10  C   UNL A   1      39.268  23.062  26.484  1.00  0.00    -0.041 A 
ATOM     11  C   UNL A   1      40.458  22.434  26.869  1.00  0.00     0.018 A 
BRANCH   7  12
ATOM     12  O   UNL A   1      37.454  20.371  24.840  1.00  0.00    -0.493 OA
ATOM     13  C   UNL A   1      36.142  20.868  25.084  1.00  0.00     0.278 C 
ENDBRANCH   7  12
BRANCH   9  14
ATOM     14  O   UNL A   1      39.870  18.992  25.815  1.00  0.00    -0.504 OA
ATOM     15  H   UNL A   1      40.606  18.670  25.333  1.00  0.00     0.293 HD
ENDBRANCH   9  14
BRANCH  10  16
ATOM     16  C   UNL A   1      39.044  24.515  26.854  1.00  0.00     0.013 C 
ATOM     17  C   UNL A   1      39.135  24.731  28.364  1.00  0.00     0.012 C 
ATOM     18  C   UNL A   1      40.005  25.438  26.100  1.00  0.00     0.012 C 
ENDBRANCH  10  16
ENDBRANCH   5   6
BRANCH   5  19
ATOM     19  N   UNL A   1      42.665  21.122  28.141  1.00  0.00    -0.342 N 
ATOM     20  H   UNL A   1      42.032  21.788  28.584  1.00  0.00     0.345 HD
ATOM     21  H   UNL A   1      43.454  21.622  27.733  1.00  0.00     0.345 HD
ATOM     22  H   UNL A   1      43.005  20.461  28.840  1.00  0.00     0.345 HD
ENDBRANCH   5  19
ENDBRANCH   3   5
ENDBRANCH   2   3
ENDBRANCH   1   2
BRANCH   1  23
ATOM     23  C   UNL A   1      45.115  22.659  24.525  1.00  0.00     0.275 C 
BRANCH  23  24
ATOM     24  O   UNL A   1      44.177  23.690  24.889  1.00  0.00    -0.458 OA
BRANCH  24  25
ATOM     25  C   UNL A   1      44.734  24.873  25.238  1.00  0.00     0.338 C 
ATOM     26  O   UNL A   1      45.723  25.399  24.761  1.00  0.00    -0.246 OA
BRANCH  25  27
ATOM     27  C   UNL A   1      43.901  25.530  26.257  1.00  0.00     0.060 A 
ATOM     28  C   UNL A   1      43.837  26.923  26.252  1.00  0.00     0.016 A 
ATOM     29  C   UNL A   1      43.302  24.802  27.285  1.00  0.00     0.016 A 
ATOM     30  C   UNL A   1      43.193  27.605  27.277  1.00  0.00     0.010 A 
ATOM     31  C   UNL A   1      42.654  25.487  28.321  1.00  0.00     0.010 A 
ATOM     32  C   UNL A   1      42.618  26.893  28.336  1.00  0.00    -0.014 A 
BRANCH  32  33
ATOM     33  C   UNL A   1      42.095  27.643  29.502  1.00  0.00     0.031 A 
ATOM     34  C   UNL A   1      40.767  28.343  29.398  1.00  0.00     0.074 A 
ATOM     35  C   UNL A   1      42.762  27.638  30.671  1.00  0.00     0.049 A 
ATOM     36  N   UNL A   1      40.144  29.073  30.288  1.00  0.00    -0.248 NA
ATOM     37  C   UNL A   1      40.045  28.202  28.122  1.00  0.00     0.031 C 
ATOM     38  C   UNL A   1      44.025  26.943  30.925  1.00  0.00     0.029 A 
ATOM     39  N   UNL A   1      42.457  28.228  31.873  1.00  0.00    -0.354 N 
ATOM     40  C   UNL A   1      38.977  29.506  29.670  1.00  0.00     0.074 A 
ATOM     41  C   UNL A   1      38.980  28.962  28.329  1.00  0.00     0.031 C 
ATOM     42  C   UNL A   1      44.378  27.133  32.208  1.00  0.00     0.029 A 
ATOM     43  C   UNL A   1      43.391  27.994  32.852  1.00  0.00     0.049 A 
ATOM     44  H   UNL A   1      41.645  28.766  32.019  1.00  0.00     0.167 HD
ATOM     45  C   UNL A   1      37.993  30.286  30.174  1.00  0.00     0.031 A 
ATOM     46  C   UNL A   1      43.451  28.440  34.121  1.00  0.00     0.031 A 
ATOM     47  C   UNL A   1      37.968  30.803  31.515  1.00  0.00     0.049 A 
ATOM     48  C   UNL A   1      42.364  29.340  34.640  1.00  0.00     0.074 A 
ATOM     49  C   UNL A   1      37.001  31.586  32.121  1.00  0.00     0.029 A 
ATOM     50  N   UNL A   1      38.957  30.581  32.460  1.00  0.00    -0.354 N 
ATOM     51  N   UNL A   1      41.271  29.748  34.041  1.00  0.00    -0.248 NA
ATOM     52  C   UNL A   1      42.524  29.844  36.012  1.00  0.00     0.031 C 
ATOM     53  C   UNL A   1      37.423  31.870  33.425  1.00  0.00     0.029 A 
ATOM     54  C   UNL A   1      38.632  31.229  33.640  1.00  0.00     0.049 A 
ATOM     55  H   UNL A   1      39.767  30.043  32.315  1.00  0.00     0.167 HD
ATOM     56  C   UNL A   1      40.607  30.542  34.967  1.00  0.00     0.074 A 
ATOM     57  C   UNL A   1      41.408  30.541  36.174  1.00  0.00     0.031 C 
ATOM     58  C   UNL A   1      39.440  31.215  34.830  1.00  0.00     0.031 A 
BRANCH  45  59
ATOM     59  C   UNL A   1      36.873  30.666  29.249  1.00  0.00    -0.014 A 
ATOM     60  C   UNL A   1      36.754  31.964  28.734  1.00  0.00     0.009 A 
ATOM     61  C   UNL A   1      35.942  29.689  28.860  1.00  0.00     0.009 A 
ATOM     62  C   UNL A   1      35.707  32.285  27.867  1.00  0.00     0.001 A 
ATOM     63  C   UNL A   1      34.909  30.007  27.977  1.00  0.00     0.001 A 
ATOM     64  C   UNL A   1      34.789  31.306  27.486  1.00  0.00     0.000 A 
ENDBRANCH  45  59
BRANCH  46  65
ATOM     65  C   UNL A   1      44.598  28.073  34.991  1.00  0.00    -0.014 A 
ATOM     66  C   UNL A   1      45.767  28.848  34.997  1.00  0.00     0.009 A 
ATOM     67  C   UNL A   1      44.541  26.923  35.792  1.00  0.00     0.009 A 
ATOM     68  C   UNL A   1      46.866  28.464  35.769  1.00  0.00     0.001 A 
ATOM     69  C   UNL A   1      45.632  26.556  36.584  1.00  0.00     0.001 A 
ATOM     70  C   UNL A   1      46.796  27.320  36.563  1.00  0.00     0.000 A 
ENDBRANCH  46  65
BRANCH  58  71
ATOM     71  C   UNL A   1      38.952  31.981  36.024  1.00  0.00    -0.014 A 
ATOM     72  C   UNL A   1      39.377  33.296  36.263  1.00  0.00     0.009 A 
ATOM     73  C   UNL A   1      38.037  31.387  36.907  1.00  0.00     0.009 A 
ATOM     74  C   UNL A   1      38.920  33.991  37.385  1.00  0.00     0.001 A 
ATOM     75  C   UNL A   1      37.564  32.092  38.014  1.00  0.00     0.001 A 
ATOM     76  C   UNL A   1      38.012  33.390  38.257  1.00  0.00     0.000 A 
ENDBRANCH  58  71
ENDBRANCH  32  33
ENDBRANCH  25  27
ENDBRANCH  24  25
ENDBRANCH  23  24
ENDBRANCH   1  23
TORSDOF 16
ENDMDL
MODEL 3
REMARK VINA RESULT:      -9.5      6.348      9.564
REMARK SMILES COc1cc(C(C)C)cc([C@H]([NH3+])C(=O)OCCOC(=O)c2ccc(-c3c4nc(c(-c5ccccc5)c5ccc([nH]5)c(-c5ccccc5)c5nc(c(-c6ccccc6)c6ccc3[nH]6)C=C5)C=C4)cc2)c1O
REMARK SMILES IDX 16 1 15 2 13 3 14 4 11 5 10 6 3 7 4 8 69 9 5 10 9 11 2 12
REMARK SMILES IDX 1 13 70 14 6 16 7 17 8 18 12 19 17 23 18 24 19 25 20 26
REMARK SMILES IDX 21 27 22 28 68 29 23 30 67 31 24 32 25 33 26 34 61 35 27 36
REMARK SMILES IDX 66 37 60 38 62 39 28 40 65 41 59 42 58 43 29 45 51 46 36 47
REMARK SMILES IDX 50 48 37 49 40 50 49 51 63 52 38 53 39 54 48 56 64 57 41 58
REMARK SMILES IDX 30 59 31 60 35 61 32 62 34 63 33 64 52 65 53 66 57 67 54 68
REMARK SMILES IDX 56 69 55 70 42 71 43 72 47 73 44 74 46 75 45 76
REMARK H PARENT 70 15 12 20 12 21 12 22 62 44 40 55
REMARK Flexibility Score: inf
ROOT
ATOM      1  C   UNL A   1      39.576  22.018  26.107  1.00  0.00     0.274 C 
ENDROOT
BRANCH   1   2
ATOM      2  O   UNL A   1      39.935  20.983  27.038  1.00  0.00    -0.457 OA
BRANCH   2   3
ATOM      3  C   UNL A   1      40.740  19.990  26.548  1.00  0.00     0.370 C 
ATOM      4  O   UNL A   1      40.416  19.221  25.648  1.00  0.00    -0.245 OA
BRANCH   3   5
ATOM      5  C   UNL A   1      42.097  19.939  27.283  1.00  0.00     0.327 C 
BRANCH   5   6
ATOM      6  C   UNL A   1      43.249  20.200  26.336  1.00  0.00     0.067 A 
ATOM      7  C   UNL A   1      44.776  19.402  24.603  1.00  0.00     0.161 A 
ATOM      8  C   UNL A   1      45.367  20.672  24.572  1.00  0.00     0.054 A 
ATOM      9  C   UNL A   1      43.699  19.189  25.467  1.00  0.00     0.167 A 
ATOM     10  C   UNL A   1      44.921  21.712  25.403  1.00  0.00    -0.041 A 
ATOM     11  C   UNL A   1      43.881  21.453  26.302  1.00  0.00     0.018 A 
BRANCH   7  12
ATOM     12  O   UNL A   1      45.307  18.520  23.702  1.00  0.00    -0.493 OA
ATOM     13  C   UNL A   1      44.991  18.686  22.324  1.00  0.00     0.278 C 
ENDBRANCH   7  12
BRANCH   9  14
ATOM     14  O   UNL A   1      42.990  18.019  25.456  1.00  0.00    -0.504 OA
ATOM     15  H   UNL A   1      43.041  17.447  24.715  1.00  0.00     0.293 HD
ENDBRANCH   9  14
BRANCH  10  16
ATOM     16  C   UNL A   1      45.513  23.107  25.337  1.00  0.00     0.013 C 
ATOM     17  C   UNL A   1      46.241  23.470  26.630  1.00  0.00     0.012 C 
ATOM     18  C   UNL A   1      46.425  23.269  24.118  1.00  0.00     0.012 C 
ENDBRANCH  10  16
ENDBRANCH   5   6
BRANCH   5  19
ATOM     19  N   UNL A   1      42.253  18.700  28.083  1.00  0.00    -0.342 N 
ATOM     20  H   UNL A   1      43.209  18.641  28.435  1.00  0.00     0.345 HD
ATOM     21  H   UNL A   1      42.056  17.889  27.498  1.00  0.00     0.345 HD
ATOM     22  H   UNL A   1      41.603  18.718  28.869  1.00  0.00     0.345 HD
ENDBRANCH   5  19
ENDBRANCH   3   5
ENDBRANCH   2   3
ENDBRANCH   1   2
BRANCH   1  23
ATOM     23  C   UNL A   1      39.776  23.410  26.711  1.00  0.00     0.275 C 
BRANCH  23  24
ATOM     24  O   UNL A   1      41.120  23.882  26.503  1.00  0.00    -0.458 OA
BRANCH  24  25
ATOM     25  C   UNL A   1      41.826  24.117  27.634  1.00  0.00     0.338 C 
ATOM     26  O   UNL A   1      41.646  23.631  28.736  1.00  0.00    -0.246 OA
BRANCH  25  27
ATOM     27  C   UNL A   1      42.958  25.006  27.335  1.00  0.00     0.060 A 
ATOM     28  C   UNL A   1      43.760  25.425  28.397  1.00  0.00     0.016 A 
ATOM     29  C   UNL A   1      43.150  25.533  26.058  1.00  0.00     0.016 A 
ATOM     30  C   UNL A   1      44.747  26.382  28.202  1.00  0.00     0.010 A 
ATOM     31  C   UNL A   1      44.144  26.500  25.859  1.00  0.00     0.010 A 
ATOM     32  C   UNL A   1      44.931  26.949  26.935  1.00  0.00    -0.014 A 
BRANCH  32  33
ATOM     33  C   UNL A   1      45.864  28.091  26.790  1.00  0.00     0.031 A 
ATOM     34  C   UNL A   1      47.321  27.826  26.519  1.00  0.00     0.074 A 
ATOM     35  C   UNL A   1      45.405  29.355  26.824  1.00  0.00     0.049 A 
ATOM     36  N   UNL A   1      48.306  28.678  26.385  1.00  0.00    -0.248 NA
ATOM     37  C   UNL A   1      47.721  26.416  26.379  1.00  0.00     0.031 C 
ATOM     38  C   UNL A   1      44.008  29.746  27.012  1.00  0.00     0.029 A 
ATOM     39  N   UNL A   1      46.072  30.548  26.684  1.00  0.00    -0.354 N 
ATOM     40  C   UNL A   1      49.444  27.908  26.182  1.00  0.00     0.074 A 
ATOM     41  C   UNL A   1      49.032  26.522  26.213  1.00  0.00     0.031 C 
ATOM     42  C   UNL A   1      43.918  31.086  26.958  1.00  0.00     0.029 A 
ATOM     43  C   UNL A   1      45.254  31.647  26.775  1.00  0.00     0.049 A 
ATOM     44  H   UNL A   1      47.043  30.609  26.532  1.00  0.00     0.167 HD
ATOM     45  C   UNL A   1      50.719  28.319  25.986  1.00  0.00     0.031 A 
ATOM     46  C   UNL A   1      45.552  32.959  26.733  1.00  0.00     0.031 A 
ATOM     47  C   UNL A   1      51.131  29.695  25.921  1.00  0.00     0.049 A 
ATOM     48  C   UNL A   1      46.983  33.385  26.557  1.00  0.00     0.074 A 
ATOM     49  C   UNL A   1      52.398  30.207  25.706  1.00  0.00     0.029 A 
ATOM     50  N   UNL A   1      50.278  30.777  26.065  1.00  0.00    -0.354 N 
ATOM     51  N   UNL A   1      48.051  32.647  26.375  1.00  0.00    -0.248 NA
ATOM     52  C   UNL A   1      47.250  34.831  26.586  1.00  0.00     0.031 C 
ATOM     53  C   UNL A   1      52.320  31.604  25.756  1.00  0.00     0.029 A 
ATOM     54  C   UNL A   1      50.996  31.957  25.963  1.00  0.00     0.049 A 
ATOM     55  H   UNL A   1      49.308  30.717  26.216  1.00  0.00     0.167 HD
ATOM     56  C   UNL A   1      49.110  33.536  26.251  1.00  0.00     0.074 A 
ATOM     57  C   UNL A   1      48.555  34.869  26.358  1.00  0.00     0.031 C 
ATOM     58  C   UNL A   1      50.426  33.274  26.069  1.00  0.00     0.031 A 
BRANCH  45  59
ATOM     59  C   UNL A   1      51.775  27.258  25.869  1.00  0.00    -0.014 A 
ATOM     60  C   UNL A   1      52.146  26.726  24.627  1.00  0.00     0.009 A 
ATOM     61  C   UNL A   1      52.433  26.813  27.027  1.00  0.00     0.009 A 
ATOM     62  C   UNL A   1      53.139  25.747  24.548  1.00  0.00     0.001 A 
ATOM     63  C   UNL A   1      53.440  25.850  26.943  1.00  0.00     0.001 A 
ATOM     64  C   UNL A   1      53.788  25.313  25.705  1.00  0.00     0.000 A 
ENDBRANCH  45  59
BRANCH  46  65
ATOM     65  C   UNL A   1      44.482  33.977  26.893  1.00  0.00    -0.014 A 
ATOM     66  C   UNL A   1      43.761  34.437  25.781  1.00  0.00     0.009 A 
ATOM     67  C   UNL A   1      44.201  34.519  28.156  1.00  0.00     0.009 A 
ATOM     68  C   UNL A   1      42.799  35.439  25.928  1.00  0.00     0.001 A 
ATOM     69  C   UNL A   1      43.220  35.501  28.304  1.00  0.00     0.001 A 
ATOM     70  C   UNL A   1      42.528  35.968  27.189  1.00  0.00     0.000 A 
ENDBRANCH  46  65
BRANCH  58  71
ATOM     71  C   UNL A   1      51.345  34.453  25.948  1.00  0.00    -0.014 A 
ATOM     72  C   UNL A   1      51.570  35.071  24.709  1.00  0.00     0.009 A 
ATOM     73  C   UNL A   1      51.976  34.966  27.092  1.00  0.00     0.009 A 
ATOM     74  C   UNL A   1      52.436  36.162  24.612  1.00  0.00     0.001 A 
ATOM     75  C   UNL A   1      52.823  36.071  26.996  1.00  0.00     0.001 A 
ATOM     76  C   UNL A   1      53.059  36.662  25.756  1.00  0.00     0.000 A 
ENDBRANCH  58  71
ENDBRANCH  32  33
ENDBRANCH  25  27
ENDBRANCH  24  25
ENDBRANCH  23  24
ENDBRANCH   1  23
TORSDOF 16
ENDMDL
