MODEL 1
REMARK VINA RESULT:      -9.4      0.000      0.000
REMARK SMILES Cc1c(Br)cc(C(=O)OCCOC(=O)c2ccc(-c3c4nc(c(-c5ccccc5)c5ccc([nH]5)c(-c5ccccc5)c5nc(c(-c6ccccc6)c6ccc3[nH]6)C=C5)C=C4)cc2)c(C)c1C
REMARK SMILES IDX 11 1 10 2 9 3 7 4 8 5 6 6 1 7 2 8 3 9 65 10 4 11 5 12 63 13
REMARK SMILES IDX 66 14 64 15 12 16 13 17 14 18 15 19 16 20 62 21 17 22 61 23
REMARK SMILES IDX 18 24 19 25 20 26 55 27 21 28 60 29 54 30 56 31 22 32 59 33
REMARK SMILES IDX 53 34 52 35 23 37 45 38 30 39 44 40 31 41 34 42 43 43 57 44
REMARK SMILES IDX 32 45 33 46 42 48 58 49 35 50 24 51 25 52 29 53 26 54 28 55
REMARK SMILES IDX 27 56 46 57 47 58 51 59 48 60 50 61 49 62 36 63 37 64 41 65
REMARK SMILES IDX 38 66 40 67 39 68
REMARK H PARENT 56 36 34 47
REMARK Flexibility Score: inf
ROOT
ATOM      1  C   UNL A   1      33.484  33.959  28.312  1.00  0.00     0.275 C 
ENDROOT
BRANCH   1   2
ATOM      2  C   UNL A   1      33.707  34.549  29.702  1.00  0.00     0.275 C 
BRANCH   2   3
ATOM      3  O   UNL A   1      34.433  33.620  30.531  1.00  0.00    -0.458 OA
BRANCH   3   4
ATOM      4  C   UNL A   1      34.554  33.956  31.839  1.00  0.00     0.338 C 
ATOM      5  O   UNL A   1      33.651  34.015  32.657  1.00  0.00    -0.246 OA
BRANCH   4   6
ATOM      6  C   UNL A   1      35.979  34.150  32.216  1.00  0.00     0.064 A 
ATOM      7  C   UNL A   1      40.242  34.579  32.923  1.00  0.00     0.046 C 
ATOM      8  C   UNL A   1      38.760  34.443  32.670  1.00  0.00    -0.034 A 
ATOM      9  C   UNL A   1      38.246  34.371  31.365  1.00  0.00     0.022 A 
ATOM     10  C   UNL A   1      37.854  34.346  33.769  1.00  0.00    -0.043 A 
ATOM     11  Br  UNL A   1      39.321  34.486  29.797  1.00  0.00    -0.051 Br
ATOM     12  C   UNL A   1      36.881  34.204  31.149  1.00  0.00     0.032 A 
ATOM     13  C   UNL A   1      36.451  34.207  33.543  1.00  0.00    -0.033 A 
ATOM     14  C   UNL A   1      38.368  34.358  35.194  1.00  0.00     0.045 C 
ATOM     15  C   UNL A   1      35.473  34.133  34.691  1.00  0.00     0.045 C 
ENDBRANCH   4   6
ENDBRANCH   3   4
ENDBRANCH   2   3
ENDBRANCH   1   2
BRANCH   1  16
ATOM     16  O   UNL A   1      34.622  33.161  27.946  1.00  0.00    -0.458 OA
BRANCH  16  17
ATOM     17  C   UNL A   1      34.408  31.829  27.889  1.00  0.00     0.338 C 
ATOM     18  O   UNL A   1      33.368  31.248  27.622  1.00  0.00    -0.246 OA
BRANCH  17  19
ATOM     19  C   UNL A   1      35.654  31.117  28.213  1.00  0.00     0.060 A 
ATOM     20  C   UNL A   1      35.620  29.761  28.532  1.00  0.00     0.016 A 
ATOM     21  C   UNL A   1      36.843  31.836  28.318  1.00  0.00     0.016 A 
ATOM     22  C   UNL A   1      36.754  29.143  29.060  1.00  0.00     0.010 A 
ATOM     23  C   UNL A   1      38.003  31.190  28.753  1.00  0.00     0.010 A 
ATOM     24  C   UNL A   1      37.961  29.848  29.171  1.00  0.00    -0.014 A 
BRANCH  24  25
ATOM     25  C   UNL A   1      39.172  29.209  29.757  1.00  0.00     0.031 A 
ATOM     26  C   UNL A   1      39.742  29.715  31.058  1.00  0.00     0.074 A 
ATOM     27  C   UNL A   1      39.766  28.169  29.137  1.00  0.00     0.049 A 
ATOM     28  N   UNL A   1      40.875  29.407  31.637  1.00  0.00    -0.248 NA
ATOM     29  C   UNL A   1      38.940  30.702  31.799  1.00  0.00     0.031 C 
ATOM     30  C   UNL A   1      39.299  27.537  27.903  1.00  0.00     0.029 A 
ATOM     31  N   UNL A   1      40.888  27.454  29.473  1.00  0.00    -0.354 N 
ATOM     32  C   UNL A   1      40.944  30.195  32.780  1.00  0.00     0.074 A 
ATOM     33  C   UNL A   1      39.741  30.999  32.813  1.00  0.00     0.031 C 
ATOM     34  C   UNL A   1      40.096  26.497  27.614  1.00  0.00     0.029 A 
ATOM     35  C   UNL A   1      41.177  26.440  28.593  1.00  0.00     0.049 A 
ATOM     36  H   UNL A   1      41.435  27.650  30.268  1.00  0.00     0.167 HD
ATOM     37  C   UNL A   1      41.919  30.243  33.716  1.00  0.00     0.031 A 
ATOM     38  C   UNL A   1      42.209  25.576  28.553  1.00  0.00     0.031 A 
ATOM     39  C   UNL A   1      43.091  29.411  33.716  1.00  0.00     0.049 A 
ATOM     40  C   UNL A   1      43.301  25.676  29.576  1.00  0.00     0.074 A 
ATOM     41  C   UNL A   1      44.131  29.390  34.632  1.00  0.00     0.029 A 
ATOM     42  N   UNL A   1      43.367  28.438  32.771  1.00  0.00    -0.354 N 
ATOM     43  N   UNL A   1      43.392  26.485  30.603  1.00  0.00    -0.248 NA
ATOM     44  C   UNL A   1      44.446  24.766  29.421  1.00  0.00     0.031 C 
ATOM     45  C   UNL A   1      45.051  28.422  34.223  1.00  0.00     0.029 A 
ATOM     46  C   UNL A   1      44.566  27.816  33.076  1.00  0.00     0.049 A 
ATOM     47  H   UNL A   1      42.796  28.220  31.999  1.00  0.00     0.167 HD
ATOM     48  C   UNL A   1      44.599  26.180  31.217  1.00  0.00     0.074 A 
ATOM     49  C   UNL A   1      45.201  25.105  30.458  1.00  0.00     0.031 C 
ATOM     50  C   UNL A   1      45.156  26.750  32.311  1.00  0.00     0.031 A 
BRANCH  37  51
ATOM     51  C   UNL A   1      41.780  31.246  34.825  1.00  0.00    -0.014 A 
ATOM     52  C   UNL A   1      42.467  32.468  34.789  1.00  0.00     0.009 A 
ATOM     53  C   UNL A   1      40.881  30.997  35.875  1.00  0.00     0.009 A 
ATOM     54  C   UNL A   1      42.263  33.418  35.792  1.00  0.00     0.001 A 
ATOM     55  C   UNL A   1      40.666  31.956  36.865  1.00  0.00     0.001 A 
ATOM     56  C   UNL A   1      41.360  33.165  36.824  1.00  0.00     0.000 A 
ENDBRANCH  37  51
BRANCH  38  57
ATOM     57  C   UNL A   1      42.261  24.555  27.477  1.00  0.00    -0.014 A 
ATOM     58  C   UNL A   1      42.930  24.828  26.276  1.00  0.00     0.009 A 
ATOM     59  C   UNL A   1      41.693  23.285  27.671  1.00  0.00     0.009 A 
ATOM     60  C   UNL A   1      43.034  23.845  25.289  1.00  0.00     0.001 A 
ATOM     61  C   UNL A   1      41.818  22.298  26.690  1.00  0.00     0.001 A 
ATOM     62  C   UNL A   1      42.486  22.580  25.499  1.00  0.00     0.000 A 
ENDBRANCH  38  57
BRANCH  50  63
ATOM     63  C   UNL A   1      46.482  26.226  32.773  1.00  0.00    -0.014 A 
ATOM     64  C   UNL A   1      46.552  25.145  33.664  1.00  0.00     0.009 A 
ATOM     65  C   UNL A   1      47.666  26.748  32.233  1.00  0.00     0.009 A 
ATOM     66  C   UNL A   1      47.790  24.601  34.012  1.00  0.00     0.001 A 
ATOM     67  C   UNL A   1      48.900  26.192  32.569  1.00  0.00     0.001 A 
ATOM     68  C   UNL A   1      48.961  25.120  33.459  1.00  0.00     0.000 A 
ENDBRANCH  50  63
ENDBRANCH  24  25
ENDBRANCH  17  19
ENDBRANCH  16  17
ENDBRANCH   1  16
TORSDOF 11
ENDMDL
MODEL 2
REMARK VINA RESULT:      -9.4      5.318      8.719
REMARK SMILES Cc1c(Br)cc(C(=O)OCCOC(=O)c2ccc(-c3c4nc(c(-c5ccccc5)c5ccc([nH]5)c(-c5ccccc5)c5nc(c(-c6ccccc6)c6ccc3[nH]6)C=C5)C=C4)cc2)c(C)c1C
REMARK SMILES IDX 11 1 10 2 9 3 7 4 8 5 6 6 1 7 2 8 3 9 65 10 4 11 5 12 63 13
REMARK SMILES IDX 66 14 64 15 12 16 13 17 14 18 15 19 16 20 62 21 17 22 61 23
REMARK SMILES IDX 18 24 19 25 20 26 55 27 21 28 60 29 54 30 56 31 22 32 59 33
REMARK SMILES IDX 53 34 52 35 23 37 45 38 30 39 44 40 31 41 34 42 43 43 57 44
REMARK SMILES IDX 32 45 33 46 42 48 58 49 35 50 24 51 25 52 29 53 26 54 28 55
REMARK SMILES IDX 27 56 46 57 47 58 51 59 48 60 50 61 49 62 36 63 37 64 41 65
REMARK SMILES IDX 38 66 40 67 39 68
REMARK H PARENT 56 36 34 47
REMARK Flexibility Score: inf
ROOT
ATOM      1  C   UNL A   1      36.016  20.635  25.003  1.00  0.00     0.275 C 
ENDROOT
BRANCH   1   2
ATOM      2  C   UNL A   1      34.817  21.211  25.749  1.00  0.00     0.275 C 
BRANCH   2   3
ATOM      3  O   UNL A   1      34.886  22.651  25.777  1.00  0.00    -0.458 OA
BRANCH   3   4
ATOM      4  C   UNL A   1      33.706  23.302  25.923  1.00  0.00     0.338 C 
ATOM      5  O   UNL A   1      32.787  22.978  26.656  1.00  0.00    -0.246 OA
BRANCH   4   6
ATOM      6  C   UNL A   1      33.689  24.568  25.142  1.00  0.00     0.064 A 
ATOM      7  C   UNL A   1      33.556  28.465  23.232  1.00  0.00     0.046 C 
ATOM      8  C   UNL A   1      33.615  27.112  23.901  1.00  0.00    -0.034 A 
ATOM      9  C   UNL A   1      33.809  26.991  25.287  1.00  0.00     0.022 A 
ATOM     10  C   UNL A   1      33.437  25.926  23.128  1.00  0.00    -0.043 A 
ATOM     11  Br  UNL A   1      34.064  28.475  26.453  1.00  0.00    -0.051 Br
ATOM     12  C   UNL A   1      33.821  25.739  25.894  1.00  0.00     0.032 A 
ATOM     13  C   UNL A   1      33.481  24.641  23.750  1.00  0.00    -0.033 A 
ATOM     14  C   UNL A   1      33.165  26.009  21.640  1.00  0.00     0.045 C 
ATOM     15  C   UNL A   1      33.324  23.373  22.946  1.00  0.00     0.045 C 
ENDBRANCH   4   6
ENDBRANCH   3   4
ENDBRANCH   2   3
ENDBRANCH   1   2
BRANCH   1  16
ATOM     16  O   UNL A   1      37.071  21.612  24.973  1.00  0.00    -0.458 OA
BRANCH  16  17
ATOM     17  C   UNL A   1      38.242  21.225  25.526  1.00  0.00     0.338 C 
ATOM     18  O   UNL A   1      38.724  20.104  25.549  1.00  0.00    -0.246 OA
BRANCH  17  19
ATOM     19  C   UNL A   1      38.903  22.387  26.139  1.00  0.00     0.060 A 
ATOM     20  C   UNL A   1      38.293  23.640  26.097  1.00  0.00     0.016 A 
ATOM     21  C   UNL A   1      40.192  22.248  26.649  1.00  0.00     0.016 A 
ATOM     22  C   UNL A   1      39.013  24.776  26.467  1.00  0.00     0.010 A 
ATOM     23  C   UNL A   1      40.875  23.375  27.113  1.00  0.00     0.010 A 
ATOM     24  C   UNL A   1      40.311  24.657  26.985  1.00  0.00    -0.014 A 
BRANCH  24  25
ATOM     25  C   UNL A   1      41.100  25.863  27.360  1.00  0.00     0.031 A 
ATOM     26  C   UNL A   1      40.547  26.853  28.354  1.00  0.00     0.074 A 
ATOM     27  C   UNL A   1      42.317  26.079  26.822  1.00  0.00     0.049 A 
ATOM     28  N   UNL A   1      41.000  28.038  28.677  1.00  0.00    -0.248 NA
ATOM     29  C   UNL A   1      39.320  26.466  29.069  1.00  0.00     0.031 C 
ATOM     30  C   UNL A   1      43.005  25.185  25.890  1.00  0.00     0.029 A 
ATOM     31  N   UNL A   1      43.197  27.118  26.995  1.00  0.00    -0.354 N 
ATOM     32  C   UNL A   1      40.091  28.555  29.593  1.00  0.00     0.074 A 
ATOM     33  C   UNL A   1      39.058  27.559  29.772  1.00  0.00     0.031 C 
ATOM     34  C   UNL A   1      44.220  25.687  25.615  1.00  0.00     0.029 A 
ATOM     35  C   UNL A   1      44.363  26.977  26.283  1.00  0.00     0.049 A 
ATOM     36  H   UNL A   1      43.010  27.892  27.575  1.00  0.00     0.167 HD
ATOM     37  C   UNL A   1      40.118  29.750  30.227  1.00  0.00     0.031 A 
ATOM     38  C   UNL A   1      45.421  27.800  26.151  1.00  0.00     0.031 A 
ATOM     39  C   UNL A   1      41.168  30.721  30.092  1.00  0.00     0.049 A 
ATOM     40  C   UNL A   1      45.408  29.138  26.828  1.00  0.00     0.074 A 
ATOM     41  C   UNL A   1      41.277  31.960  30.703  1.00  0.00     0.029 A 
ATOM     42  N   UNL A   1      42.301  30.556  29.313  1.00  0.00    -0.354 N 
ATOM     43  N   UNL A   1      44.500  29.647  27.625  1.00  0.00    -0.248 NA
ATOM     44  C   UNL A   1      46.550  30.027  26.568  1.00  0.00     0.031 C 
ATOM     45  C   UNL A   1      42.464  32.556  30.270  1.00  0.00     0.029 A 
ATOM     46  C   UNL A   1      43.110  31.674  29.420  1.00  0.00     0.049 A 
ATOM     47  H   UNL A   1      42.500  29.762  28.765  1.00  0.00     0.167 HD
ATOM     48  C   UNL A   1      44.961  30.912  27.962  1.00  0.00     0.074 A 
ATOM     49  C   UNL A   1      46.234  31.090  27.297  1.00  0.00     0.031 C 
ATOM     50  C   UNL A   1      44.372  31.841  28.750  1.00  0.00     0.031 A 
BRANCH  37  51
ATOM     51  C   UNL A   1      38.963  30.096  31.121  1.00  0.00    -0.014 A 
ATOM     52  C   UNL A   1      38.998  29.813  32.495  1.00  0.00     0.009 A 
ATOM     53  C   UNL A   1      37.864  30.792  30.594  1.00  0.00     0.009 A 
ATOM     54  C   UNL A   1      37.946  30.213  33.321  1.00  0.00     0.001 A 
ATOM     55  C   UNL A   1      36.823  31.207  31.427  1.00  0.00     0.001 A 
ATOM     56  C   UNL A   1      36.864  30.914  32.789  1.00  0.00     0.000 A 
ENDBRANCH  37  51
BRANCH  38  57
ATOM     57  C   UNL A   1      46.570  27.377  25.314  1.00  0.00    -0.014 A 
ATOM     58  C   UNL A   1      46.718  27.878  24.013  1.00  0.00     0.009 A 
ATOM     59  C   UNL A   1      47.554  26.520  25.833  1.00  0.00     0.009 A 
ATOM     60  C   UNL A   1      47.834  27.531  23.248  1.00  0.00     0.001 A 
ATOM     61  C   UNL A   1      48.679  26.192  25.072  1.00  0.00     0.001 A 
ATOM     62  C   UNL A   1      48.817  26.696  23.780  1.00  0.00     0.000 A 
ENDBRANCH  38  57
BRANCH  50  63
ATOM     63  C   UNL A   1      45.092  33.140  28.956  1.00  0.00    -0.014 A 
ATOM     64  C   UNL A   1      46.055  33.271  29.967  1.00  0.00     0.009 A 
ATOM     65  C   UNL A   1      44.880  34.204  28.068  1.00  0.00     0.009 A 
ATOM     66  C   UNL A   1      46.790  34.452  30.088  1.00  0.00     0.001 A 
ATOM     67  C   UNL A   1      45.627  35.376  28.181  1.00  0.00     0.001 A 
ATOM     68  C   UNL A   1      46.580  35.500  29.191  1.00  0.00     0.000 A 
ENDBRANCH  50  63
ENDBRANCH  24  25
ENDBRANCH  17  19
ENDBRANCH  16  17
ENDBRANCH   1  16
TORSDOF 11
ENDMDL
MODEL 3
REMARK VINA RESULT:      -9.3      4.330     10.221
REMARK SMILES Cc1c(Br)cc(C(=O)OCCOC(=O)c2ccc(-c3c4nc(c(-c5ccccc5)c5ccc([nH]5)c(-c5ccccc5)c5nc(c(-c6ccccc6)c6ccc3[nH]6)C=C5)C=C4)cc2)c(C)c1C
REMARK SMILES IDX 11 1 10 2 9 3 7 4 8 5 6 6 1 7 2 8 3 9 65 10 4 11 5 12 63 13
REMARK SMILES IDX 66 14 64 15 12 16 13 17 14 18 15 19 16 20 62 21 17 22 61 23
REMARK SMILES IDX 18 24 19 25 20 26 55 27 21 28 60 29 54 30 56 31 22 32 59 33
REMARK SMILES IDX 53 34 52 35 23 37 45 38 30 39 44 40 31 41 34 42 43 43 57 44
REMARK SMILES IDX 32 45 33 46 42 48 58 49 35 50 24 51 25 52 29 53 26 54 28 55
REMARK SMILES IDX 27 56 46 57 47 58 51 59 48 60 50 61 49 62 36 63 37 64 41 65
REMARK SMILES IDX 38 66 40 67 39 68
REMARK H PARENT 56 36 34 47
REMARK Flexibility Score: inf
ROOT
ATOM      1  C   UNL A   1      44.173  21.594  25.298  1.00  0.00     0.275 C 
ENDROOT
BRANCH   1   2
ATOM      2  C   UNL A   1      43.112  20.621  25.802  1.00  0.00     0.275 C 
BRANCH   2   3
ATOM      3  O   UNL A   1      41.792  21.129  25.524  1.00  0.00    -0.458 OA
BRANCH   3   4
ATOM      4  C   UNL A   1      40.796  20.673  26.322  1.00  0.00     0.338 C 
ATOM      5  O   UNL A   1      40.892  19.801  27.171  1.00  0.00    -0.246 OA
BRANCH   4   6
ATOM      6  C   UNL A   1      39.545  21.451  26.123  1.00  0.00     0.064 A 
ATOM      7  C   UNL A   1      36.034  23.991  25.849  1.00  0.00     0.046 C 
ATOM      8  C   UNL A   1      37.263  23.117  25.936  1.00  0.00    -0.034 A 
ATOM      9  C   UNL A   1      38.450  23.585  26.523  1.00  0.00     0.022 A 
ATOM     10  C   UNL A   1      37.220  21.776  25.450  1.00  0.00    -0.043 A 
ATOM     11  Br  UNL A   1      38.666  25.345  27.215  1.00  0.00    -0.051 Br
ATOM     12  C   UNL A   1      39.561  22.754  26.633  1.00  0.00     0.032 A 
ATOM     13  C   UNL A   1      38.372  20.937  25.536  1.00  0.00    -0.033 A 
ATOM     14  C   UNL A   1      35.944  21.209  24.864  1.00  0.00     0.045 C 
ATOM     15  C   UNL A   1      38.358  19.525  25.001  1.00  0.00     0.045 C 
ENDBRANCH   4   6
ENDBRANCH   3   4
ENDBRANCH   2   3
ENDBRANCH   1   2
BRANCH   1  16
ATOM     16  O   UNL A   1      43.531  22.764  24.762  1.00  0.00    -0.458 OA
BRANCH  16  17
ATOM     17  C   UNL A   1      44.234  23.913  24.858  1.00  0.00     0.338 C 
ATOM     18  O   UNL A   1      45.261  24.213  24.270  1.00  0.00    -0.246 OA
BRANCH  17  19
ATOM     19  C   UNL A   1      43.576  24.812  25.818  1.00  0.00     0.060 A 
ATOM     20  C   UNL A   1      43.873  26.174  25.815  1.00  0.00     0.016 A 
ATOM     21  C   UNL A   1      42.753  24.273  26.806  1.00  0.00     0.016 A 
ATOM     22  C   UNL A   1      43.433  26.983  26.863  1.00  0.00     0.010 A 
ATOM     23  C   UNL A   1      42.231  25.105  27.798  1.00  0.00     0.010 A 
ATOM     24  C   UNL A   1      42.602  26.461  27.864  1.00  0.00    -0.014 A 
BRANCH  24  25
ATOM     25  C   UNL A   1      42.146  27.307  29.001  1.00  0.00     0.031 A 
ATOM     26  C   UNL A   1      42.904  27.297  30.305  1.00  0.00     0.074 A 
ATOM     27  C   UNL A   1      41.059  28.094  28.877  1.00  0.00     0.049 A 
ATOM     28  N   UNL A   1      42.573  27.826  31.456  1.00  0.00    -0.248 NA
ATOM     29  C   UNL A   1      44.196  26.592  30.320  1.00  0.00     0.031 C 
ATOM     30  C   UNL A   1      40.257  28.250  27.663  1.00  0.00     0.029 A 
ATOM     31  N   UNL A   1      40.449  28.923  29.786  1.00  0.00    -0.354 N 
ATOM     32  C   UNL A   1      43.587  27.478  32.339  1.00  0.00     0.074 A 
ATOM     33  C   UNL A   1      44.545  26.689  31.596  1.00  0.00     0.031 C 
ATOM     34  C   UNL A   1      39.295  29.159  27.886  1.00  0.00     0.029 A 
ATOM     35  C   UNL A   1      39.359  29.587  29.281  1.00  0.00     0.049 A 
ATOM     36  H   UNL A   1      40.764  29.031  30.713  1.00  0.00     0.167 HD
ATOM     37  C   UNL A   1      43.710  27.789  33.650  1.00  0.00     0.031 A 
ATOM     38  C   UNL A   1      38.485  30.424  29.871  1.00  0.00     0.031 A 
ATOM     39  C   UNL A   1      42.789  28.615  34.381  1.00  0.00     0.049 A 
ATOM     40  C   UNL A   1      38.614  30.720  31.335  1.00  0.00     0.074 A 
ATOM     41  C   UNL A   1      42.840  28.986  35.716  1.00  0.00     0.029 A 
ATOM     42  N   UNL A   1      41.667  29.218  33.839  1.00  0.00    -0.354 N 
ATOM     43  N   UNL A   1      39.534  30.314  32.177  1.00  0.00    -0.248 NA
ATOM     44  C   UNL A   1      37.574  31.565  31.939  1.00  0.00     0.031 C 
ATOM     45  C   UNL A   1      41.730  29.791  35.986  1.00  0.00     0.029 A 
ATOM     46  C   UNL A   1      41.012  29.951  34.813  1.00  0.00     0.049 A 
ATOM     47  H   UNL A   1      41.379  29.137  32.900  1.00  0.00     0.167 HD
ATOM     48  C   UNL A   1      39.184  30.855  33.406  1.00  0.00     0.074 A 
ATOM     49  C   UNL A   1      37.979  31.629  33.201  1.00  0.00     0.031 C 
ATOM     50  C   UNL A   1      39.811  30.713  34.598  1.00  0.00     0.031 A 
BRANCH  37  51
ATOM     51  C   UNL A   1      44.879  27.220  34.401  1.00  0.00    -0.014 A 
ATOM     52  C   UNL A   1      44.807  25.958  35.009  1.00  0.00     0.009 A 
ATOM     53  C   UNL A   1      46.095  27.922  34.424  1.00  0.00     0.009 A 
ATOM     54  C   UNL A   1      45.930  25.415  35.635  1.00  0.00     0.001 A 
ATOM     55  C   UNL A   1      47.220  27.368  35.035  1.00  0.00     0.001 A 
ATOM     56  C   UNL A   1      47.136  26.116  35.643  1.00  0.00     0.000 A 
ENDBRANCH  37  51
BRANCH  38  57
ATOM     57  C   UNL A   1      37.390  31.018  29.065  1.00  0.00    -0.014 A 
ATOM     58  C   UNL A   1      36.298  30.233  28.669  1.00  0.00     0.009 A 
ATOM     59  C   UNL A   1      37.403  32.384  28.740  1.00  0.00     0.009 A 
ATOM     60  C   UNL A   1      35.236  30.806  27.966  1.00  0.00     0.001 A 
ATOM     61  C   UNL A   1      36.329  32.958  28.055  1.00  0.00     0.001 A 
ATOM     62  C   UNL A   1      35.248  32.168  27.667  1.00  0.00     0.000 A 
ENDBRANCH  38  57
BRANCH  50  63
ATOM     63  C   UNL A   1      39.220  31.414  35.784  1.00  0.00    -0.014 A 
ATOM     64  C   UNL A   1      39.649  32.701  36.141  1.00  0.00     0.009 A 
ATOM     65  C   UNL A   1      38.157  30.825  36.485  1.00  0.00     0.009 A 
ATOM     66  C   UNL A   1      39.025  33.384  37.187  1.00  0.00     0.001 A 
ATOM     67  C   UNL A   1      37.524  31.516  37.518  1.00  0.00     0.001 A 
ATOM     68  C   UNL A   1      37.960  32.794  37.869  1.00  0.00     0.000 A 
ENDBRANCH  50  63
ENDBRANCH  24  25
ENDBRANCH  17  19
ENDBRANCH  16  17
ENDBRANCH   1  16
TORSDOF 11
ENDMDL
