MODEL 1
REMARK VINA RESULT:     -10.2      0.000      0.000
REMARK SMILES CN(CCOCC1CC1)C(=O)N1CC[C@](C)(C(=O)OCCOC(=O)c2ccc(-c3c4nc(c(-c5ccccc5)c5ccc([nH]5)c(-c5ccccc5)c5nc(c(-c6ccccc6)c6ccc3[nH]6)C=C5)C=C4)cc2)C1
REMARK SMILES IDX 17 1 18 2 15 3 12 4 13 5 73 6 14 7 16 8 10 9 11 10 2 11 1 12
REMARK SMILES IDX 3 13 4 14 5 15 6 16 7 17 8 18 9 19 19 20 20 21 21 22 22 23
REMARK SMILES IDX 23 24 24 25 25 26 26 27 72 28 27 29 71 30 28 31 29 32 30 33
REMARK SMILES IDX 65 34 31 35 70 36 64 37 66 38 32 39 69 40 63 41 62 42 33 44
REMARK SMILES IDX 55 45 40 46 54 47 41 48 44 49 53 50 67 51 42 52 43 53 52 55
REMARK SMILES IDX 68 56 45 57 34 58 35 59 39 60 36 61 38 62 37 63 56 64 57 65
REMARK SMILES IDX 61 66 58 67 60 68 59 69 46 70 47 71 51 72 48 73 50 74 49 75
REMARK H PARENT 66 43 44 54
REMARK Flexibility Score: inf
ROOT
ATOM      1  C   UNL A   1      33.366  21.972  25.065  1.00  0.00     0.313 C 
ATOM      2  O   UNL A   1      32.339  21.399  24.713  1.00  0.00    -0.252 OA
ENDROOT
BRANCH   1   3
ATOM      3  C   UNL A   1      33.330  23.245  25.897  1.00  0.00     0.084 C 
ATOM      4  N   UNL A   1      32.133  25.344  25.973  1.00  0.00    -0.323 N 
ATOM      5  C   UNL A   1      33.545  25.629  25.755  1.00  0.00     0.122 C 
ATOM      6  C   UNL A   1      31.943  23.889  26.096  1.00  0.00     0.139 C 
ATOM      7  C   UNL A   1      34.090  24.353  25.160  1.00  0.00     0.042 C 
ATOM      8  C   UNL A   1      33.996  22.914  27.239  1.00  0.00     0.026 C 
BRANCH   4   9
ATOM      9  C   UNL A   1      31.263  26.403  25.899  1.00  0.00     0.319 C 
ATOM     10  O   UNL A   1      30.947  26.974  26.953  1.00  0.00    -0.248 OA
BRANCH   9  11
ATOM     11  N   UNL A   1      30.745  26.864  24.707  1.00  0.00    -0.325 N 
ATOM     12  C   UNL A   1      29.407  26.385  24.348  1.00  0.00     0.148 C 
BRANCH  11  13
ATOM     13  C   UNL A   1      31.395  27.653  23.656  1.00  0.00     0.149 C 
BRANCH  13  14
ATOM     14  C   UNL A   1      30.693  28.976  23.299  1.00  0.00     0.181 C 
BRANCH  14  15
ATOM     15  O   UNL A   1      29.966  28.907  22.076  1.00  0.00    -0.379 OA
BRANCH  15  16
ATOM     16  C   UNL A   1      28.835  29.778  22.020  1.00  0.00     0.163 C 
BRANCH  16  17
ATOM     17  C   UNL A   1      28.815  30.644  23.240  1.00  0.00     0.015 C 
ATOM     18  C   UNL A   1      28.606  32.137  23.139  1.00  0.00     0.006 C 
ATOM     19  C   UNL A   1      27.506  31.265  23.665  1.00  0.00     0.006 C 
ENDBRANCH  16  17
ENDBRANCH  15  16
ENDBRANCH  14  15
ENDBRANCH  13  14
ENDBRANCH  11  13
ENDBRANCH   9  11
ENDBRANCH   4   9
ENDBRANCH   1   3
BRANCH   1  20
ATOM     20  O   UNL A   1      34.616  21.593  24.698  1.00  0.00    -0.462 OA
BRANCH  20  21
ATOM     21  C   UNL A   1      34.957  20.218  24.981  1.00  0.00     0.274 C 
BRANCH  21  22
ATOM     22  C   UNL A   1      36.462  19.976  24.891  1.00  0.00     0.275 C 
BRANCH  22  23
ATOM     23  O   UNL A   1      37.177  21.147  25.323  1.00  0.00    -0.458 OA
BRANCH  23  24
ATOM     24  C   UNL A   1      38.466  20.943  25.662  1.00  0.00     0.338 C 
ATOM     25  O   UNL A   1      39.096  19.898  25.536  1.00  0.00    -0.246 OA
BRANCH  24  26
ATOM     26  C   UNL A   1      39.084  22.160  26.221  1.00  0.00     0.060 A 
ATOM     27  C   UNL A   1      38.479  23.406  26.084  1.00  0.00     0.016 A 
ATOM     28  C   UNL A   1      40.361  22.070  26.779  1.00  0.00     0.016 A 
ATOM     29  C   UNL A   1      39.196  24.565  26.383  1.00  0.00     0.010 A 
ATOM     30  C   UNL A   1      41.030  23.226  27.192  1.00  0.00     0.010 A 
ATOM     31  C   UNL A   1      40.473  24.494  26.964  1.00  0.00    -0.014 A 
BRANCH  31  32
ATOM     32  C   UNL A   1      41.213  25.734  27.334  1.00  0.00     0.031 A 
ATOM     33  C   UNL A   1      40.643  26.712  28.332  1.00  0.00     0.074 A 
ATOM     34  C   UNL A   1      42.412  25.994  26.776  1.00  0.00     0.049 A 
ATOM     35  N   UNL A   1      41.063  27.915  28.641  1.00  0.00    -0.248 NA
ATOM     36  C   UNL A   1      39.437  26.296  29.066  1.00  0.00     0.031 C 
ATOM     37  C   UNL A   1      43.106  25.135  25.813  1.00  0.00     0.029 A 
ATOM     38  N   UNL A   1      43.273  27.049  26.952  1.00  0.00    -0.354 N 
ATOM     39  C   UNL A   1      40.144  28.419  29.553  1.00  0.00     0.074 A 
ATOM     40  C   UNL A   1      39.147  27.390  29.759  1.00  0.00     0.031 C 
ATOM     41  C   UNL A   1      44.309  25.657  25.542  1.00  0.00     0.029 A 
ATOM     42  C   UNL A   1      44.435  26.936  26.229  1.00  0.00     0.049 A 
ATOM     43  H   UNL A   1      43.076  27.813  27.542  1.00  0.00     0.167 HD
ATOM     44  C   UNL A   1      40.127  29.633  30.156  1.00  0.00     0.031 A 
ATOM     45  C   UNL A   1      45.475  27.779  26.096  1.00  0.00     0.031 A 
ATOM     46  C   UNL A   1      41.144  30.639  29.999  1.00  0.00     0.049 A 
ATOM     47  C   UNL A   1      45.437  29.111  26.778  1.00  0.00     0.074 A 
ATOM     48  C   UNL A   1      41.208  31.899  30.570  1.00  0.00     0.029 A 
ATOM     49  N   UNL A   1      42.289  30.489  29.234  1.00  0.00    -0.354 N 
ATOM     50  N   UNL A   1      44.515  29.605  27.566  1.00  0.00    -0.248 NA
ATOM     51  C   UNL A   1      46.569  30.014  26.526  1.00  0.00     0.031 C 
ATOM     52  C   UNL A   1      42.383  32.521  30.131  1.00  0.00     0.029 A 
ATOM     53  C   UNL A   1      43.063  31.635  29.314  1.00  0.00     0.049 A 
ATOM     54  H   UNL A   1      42.518  29.688  28.710  1.00  0.00     0.167 HD
ATOM     55  C   UNL A   1      44.947  30.880  27.896  1.00  0.00     0.074 A 
ATOM     56  C   UNL A   1      46.229  31.073  27.248  1.00  0.00     0.031 C 
ATOM     57  C   UNL A   1      44.328  31.815  28.654  1.00  0.00     0.031 A 
BRANCH  44  58
ATOM     58  C   UNL A   1      38.944  29.964  31.020  1.00  0.00    -0.014 A 
ATOM     59  C   UNL A   1      38.956  29.731  32.403  1.00  0.00     0.009 A 
ATOM     60  C   UNL A   1      37.821  30.580  30.444  1.00  0.00     0.009 A 
ATOM     61  C   UNL A   1      37.857  30.090  33.189  1.00  0.00     0.001 A 
ATOM     62  C   UNL A   1      36.733  30.955  31.234  1.00  0.00     0.001 A 
ATOM     63  C   UNL A   1      36.750  30.705  32.605  1.00  0.00     0.000 A 
ENDBRANCH  44  58
BRANCH  45  64
ATOM     64  C   UNL A   1      46.619  27.397  25.229  1.00  0.00    -0.014 A 
ATOM     65  C   UNL A   1      47.535  26.423  25.649  1.00  0.00     0.009 A 
ATOM     66  C   UNL A   1      46.774  27.980  23.961  1.00  0.00     0.009 A 
ATOM     67  C   UNL A   1      48.589  26.042  24.816  1.00  0.00     0.001 A 
ATOM     68  C   UNL A   1      47.812  27.577  23.121  1.00  0.00     0.001 A 
ATOM     69  C   UNL A   1      48.722  26.613  23.550  1.00  0.00     0.000 A 
ENDBRANCH  45  64
BRANCH  57  70
ATOM     70  C   UNL A   1      45.037  33.124  28.820  1.00  0.00    -0.014 A 
ATOM     71  C   UNL A   1      44.811  34.180  27.924  1.00  0.00     0.009 A 
ATOM     72  C   UNL A   1      45.931  33.307  29.885  1.00  0.00     0.009 A 
ATOM     73  C   UNL A   1      45.492  35.388  28.075  1.00  0.00     0.001 A 
ATOM     74  C   UNL A   1      46.599  34.522  30.042  1.00  0.00     0.001 A 
ATOM     75  C   UNL A   1      46.385  35.558  29.133  1.00  0.00     0.000 A 
ENDBRANCH  57  70
ENDBRANCH  31  32
ENDBRANCH  24  26
ENDBRANCH  23  24
ENDBRANCH  22  23
ENDBRANCH  21  22
ENDBRANCH  20  21
ENDBRANCH   1  20
TORSDOF 18
ENDMDL
MODEL 2
REMARK VINA RESULT:      -9.9      1.069      6.151
REMARK SMILES CN(CCOCC1CC1)C(=O)N1CC[C@](C)(C(=O)OCCOC(=O)c2ccc(-c3c4nc(c(-c5ccccc5)c5ccc([nH]5)c(-c5ccccc5)c5nc(c(-c6ccccc6)c6ccc3[nH]6)C=C5)C=C4)cc2)C1
REMARK SMILES IDX 17 1 18 2 15 3 12 4 13 5 73 6 14 7 16 8 10 9 11 10 2 11 1 12
REMARK SMILES IDX 3 13 4 14 5 15 6 16 7 17 8 18 9 19 19 20 20 21 21 22 22 23
REMARK SMILES IDX 23 24 24 25 25 26 26 27 72 28 27 29 71 30 28 31 29 32 30 33
REMARK SMILES IDX 65 34 31 35 70 36 64 37 66 38 32 39 69 40 63 41 62 42 33 44
REMARK SMILES IDX 55 45 40 46 54 47 41 48 44 49 53 50 67 51 42 52 43 53 52 55
REMARK SMILES IDX 68 56 45 57 34 58 35 59 39 60 36 61 38 62 37 63 56 64 57 65
REMARK SMILES IDX 61 66 58 67 60 68 59 69 46 70 47 71 51 72 48 73 50 74 49 75
REMARK H PARENT 66 43 44 54
REMARK Flexibility Score: inf
ROOT
ATOM      1  C   UNL A   1      33.364  21.853  25.196  1.00  0.00     0.313 C 
ATOM      2  O   UNL A   1      32.522  21.108  25.688  1.00  0.00    -0.252 OA
ENDROOT
BRANCH   1   3
ATOM      3  C   UNL A   1      33.200  23.365  25.204  1.00  0.00     0.084 C 
ATOM      4  N   UNL A   1      33.324  25.225  23.665  1.00  0.00    -0.323 N 
ATOM      5  C   UNL A   1      34.336  25.415  24.695  1.00  0.00     0.122 C 
ATOM      6  C   UNL A   1      32.573  23.990  23.942  1.00  0.00     0.139 C 
ATOM      7  C   UNL A   1      34.583  24.024  25.228  1.00  0.00     0.042 C 
ATOM      8  C   UNL A   1      32.398  23.715  26.465  1.00  0.00     0.026 C 
BRANCH   4   9
ATOM      9  C   UNL A   1      33.333  26.103  22.610  1.00  0.00     0.319 C 
ATOM     10  O   UNL A   1      33.687  25.680  21.500  1.00  0.00    -0.248 OA
BRANCH   9  11
ATOM     11  N   UNL A   1      32.950  27.422  22.731  1.00  0.00    -0.325 N 
ATOM     12  C   UNL A   1      33.964  28.429  22.402  1.00  0.00     0.148 C 
BRANCH  11  13
ATOM     13  C   UNL A   1      31.716  27.983  23.289  1.00  0.00     0.149 C 
BRANCH  13  14
ATOM     14  C   UNL A   1      30.417  27.520  22.606  1.00  0.00     0.181 C 
BRANCH  14  15
ATOM     15  O   UNL A   1      29.514  28.591  22.343  1.00  0.00    -0.379 OA
BRANCH  15  16
ATOM     16  C   UNL A   1      29.799  29.785  23.074  1.00  0.00     0.163 C 
BRANCH  16  17
ATOM     17  C   UNL A   1      28.851  30.864  22.651  1.00  0.00     0.015 C 
ATOM     18  C   UNL A   1      27.597  31.159  23.440  1.00  0.00     0.006 C 
ATOM     19  C   UNL A   1      28.753  32.112  23.494  1.00  0.00     0.006 C 
ENDBRANCH  16  17
ENDBRANCH  15  16
ENDBRANCH  14  15
ENDBRANCH  13  14
ENDBRANCH  11  13
ENDBRANCH   9  11
ENDBRANCH   4   9
ENDBRANCH   1   3
BRANCH   1  20
ATOM     20  O   UNL A   1      34.469  21.425  24.535  1.00  0.00    -0.462 OA
BRANCH  20  21
ATOM     21  C   UNL A   1      35.023  20.173  24.996  1.00  0.00     0.274 C 
BRANCH  21  22
ATOM     22  C   UNL A   1      36.544  20.142  24.864  1.00  0.00     0.275 C 
BRANCH  22  23
ATOM     23  O   UNL A   1      37.133  21.149  25.705  1.00  0.00    -0.458 OA
BRANCH  23  24
ATOM     24  C   UNL A   1      38.475  21.092  25.820  1.00  0.00     0.338 C 
ATOM     25  O   UNL A   1      39.190  20.135  25.539  1.00  0.00    -0.246 OA
BRANCH  24  26
ATOM     26  C   UNL A   1      39.035  22.355  26.334  1.00  0.00     0.060 A 
ATOM     27  C   UNL A   1      38.427  23.578  26.065  1.00  0.00     0.016 A 
ATOM     28  C   UNL A   1      40.269  22.328  26.988  1.00  0.00     0.016 A 
ATOM     29  C   UNL A   1      39.105  24.767  26.331  1.00  0.00     0.010 A 
ATOM     30  C   UNL A   1      40.891  23.521  27.366  1.00  0.00     0.010 A 
ATOM     31  C   UNL A   1      40.337  24.760  27.007  1.00  0.00    -0.014 A 
BRANCH  31  32
ATOM     32  C   UNL A   1      41.032  26.036  27.340  1.00  0.00     0.031 A 
ATOM     33  C   UNL A   1      42.361  26.385  26.716  1.00  0.00     0.074 A 
ATOM     34  C   UNL A   1      40.470  26.901  28.208  1.00  0.00     0.049 A 
ATOM     35  N   UNL A   1      43.182  27.361  27.017  1.00  0.00    -0.248 NA
ATOM     36  C   UNL A   1      42.838  25.518  25.626  1.00  0.00     0.031 C 
ATOM     37  C   UNL A   1      39.179  26.718  28.876  1.00  0.00     0.029 A 
ATOM     38  N   UNL A   1      40.906  28.120  28.666  1.00  0.00    -0.354 N 
ATOM     39  C   UNL A   1      44.295  27.190  26.201  1.00  0.00     0.074 A 
ATOM     40  C   UNL A   1      44.042  26.022  25.383  1.00  0.00     0.031 C 
ATOM     41  C   UNL A   1      38.895  27.812  29.596  1.00  0.00     0.029 A 
ATOM     42  C   UNL A   1      40.024  28.731  29.524  1.00  0.00     0.049 A 
ATOM     43  H   UNL A   1      41.767  28.519  28.404  1.00  0.00     0.167 HD
ATOM     44  C   UNL A   1      45.428  27.931  26.147  1.00  0.00     0.031 A 
ATOM     45  C   UNL A   1      40.119  29.883  30.213  1.00  0.00     0.031 A 
ATOM     46  C   UNL A   1      45.663  29.124  26.917  1.00  0.00     0.049 A 
ATOM     47  C   UNL A   1      41.378  30.689  30.131  1.00  0.00     0.074 A 
ATOM     48  C   UNL A   1      46.783  29.939  26.927  1.00  0.00     0.029 A 
ATOM     49  N   UNL A   1      44.751  29.688  27.794  1.00  0.00    -0.354 N 
ATOM     50  N   UNL A   1      42.455  30.462  29.421  1.00  0.00    -0.248 NA
ATOM     51  C   UNL A   1      41.446  31.894  30.969  1.00  0.00     0.031 C 
ATOM     52  C   UNL A   1      46.556  30.986  27.829  1.00  0.00     0.029 A 
ATOM     53  C   UNL A   1      45.284  30.837  28.354  1.00  0.00     0.049 A 
ATOM     54  H   UNL A   1      43.857  29.326  27.990  1.00  0.00     0.167 HD
ATOM     55  C   UNL A   1      43.334  31.486  29.735  1.00  0.00     0.074 A 
ATOM     56  C   UNL A   1      42.654  32.355  30.675  1.00  0.00     0.031 C 
ATOM     57  C   UNL A   1      44.600  31.681  29.296  1.00  0.00     0.031 A 
BRANCH  44  58
ATOM     58  C   UNL A   1      46.531  27.453  25.246  1.00  0.00    -0.014 A 
ATOM     59  C   UNL A   1      46.733  28.008  23.974  1.00  0.00     0.009 A 
ATOM     60  C   UNL A   1      47.421  26.470  25.709  1.00  0.00     0.009 A 
ATOM     61  C   UNL A   1      47.795  27.572  23.175  1.00  0.00     0.001 A 
ATOM     62  C   UNL A   1      48.491  26.051  24.917  1.00  0.00     0.001 A 
ATOM     63  C   UNL A   1      48.674  26.599  23.649  1.00  0.00     0.000 A 
ENDBRANCH  44  58
BRANCH  45  64
ATOM     64  C   UNL A   1      38.996  30.306  31.087  1.00  0.00    -0.014 A 
ATOM     65  C   UNL A   1      38.910  29.842  32.407  1.00  0.00     0.009 A 
ATOM     66  C   UNL A   1      38.029  31.208  30.615  1.00  0.00     0.009 A 
ATOM     67  C   UNL A   1      37.871  30.270  33.237  1.00  0.00     0.001 A 
ATOM     68  C   UNL A   1      37.009  31.654  31.455  1.00  0.00     0.001 A 
ATOM     69  C   UNL A   1      36.927  31.182  32.764  1.00  0.00     0.000 A 
ENDBRANCH  45  64
BRANCH  57  70
ATOM     70  C   UNL A   1      45.320  32.881  29.831  1.00  0.00    -0.014 A 
ATOM     71  C   UNL A   1      46.099  32.789  30.994  1.00  0.00     0.009 A 
ATOM     72  C   UNL A   1      45.227  34.111  29.162  1.00  0.00     0.009 A 
ATOM     73  C   UNL A   1      46.749  33.917  31.496  1.00  0.00     0.001 A 
ATOM     74  C   UNL A   1      45.891  35.233  29.658  1.00  0.00     0.001 A 
ATOM     75  C   UNL A   1      46.645  35.137  30.828  1.00  0.00     0.000 A 
ENDBRANCH  57  70
ENDBRANCH  31  32
ENDBRANCH  24  26
ENDBRANCH  23  24
ENDBRANCH  22  23
ENDBRANCH  21  22
ENDBRANCH  20  21
ENDBRANCH   1  20
TORSDOF 18
ENDMDL
MODEL 3
REMARK VINA RESULT:      -9.8      2.924      7.276
REMARK SMILES CN(CCOCC1CC1)C(=O)N1CC[C@](C)(C(=O)OCCOC(=O)c2ccc(-c3c4nc(c(-c5ccccc5)c5ccc([nH]5)c(-c5ccccc5)c5nc(c(-c6ccccc6)c6ccc3[nH]6)C=C5)C=C4)cc2)C1
REMARK SMILES IDX 17 1 18 2 15 3 12 4 13 5 73 6 14 7 16 8 10 9 11 10 2 11 1 12
REMARK SMILES IDX 3 13 4 14 5 15 6 16 7 17 8 18 9 19 19 20 20 21 21 22 22 23
REMARK SMILES IDX 23 24 24 25 25 26 26 27 72 28 27 29 71 30 28 31 29 32 30 33
REMARK SMILES IDX 65 34 31 35 70 36 64 37 66 38 32 39 69 40 63 41 62 42 33 44
REMARK SMILES IDX 55 45 40 46 54 47 41 48 44 49 53 50 67 51 42 52 43 53 52 55
REMARK SMILES IDX 68 56 45 57 34 58 35 59 39 60 36 61 38 62 37 63 56 64 57 65
REMARK SMILES IDX 61 66 58 67 60 68 59 69 46 70 47 71 51 72 48 73 50 74 49 75
REMARK H PARENT 66 43 44 54
REMARK Flexibility Score: inf
ROOT
ATOM      1  C   UNL A   1      31.073  28.379  24.117  1.00  0.00     0.313 C 
ATOM      2  O   UNL A   1      30.561  29.205  23.366  1.00  0.00    -0.252 OA
ENDROOT
BRANCH   1   3
ATOM      3  C   UNL A   1      30.494  26.983  24.288  1.00  0.00     0.084 C 
ATOM      4  N   UNL A   1      30.988  24.932  25.468  1.00  0.00    -0.323 N 
ATOM      5  C   UNL A   1      31.011  24.655  24.038  1.00  0.00     0.122 C 
ATOM      6  C   UNL A   1      30.647  26.348  25.684  1.00  0.00     0.139 C 
ATOM      7  C   UNL A   1      31.274  26.001  23.407  1.00  0.00     0.042 C 
ATOM      8  C   UNL A   1      29.022  27.061  23.862  1.00  0.00     0.026 C 
BRANCH   4   9
ATOM      9  C   UNL A   1      31.391  23.924  26.307  1.00  0.00     0.319 C 
ATOM     10  O   UNL A   1      30.608  23.554  27.194  1.00  0.00    -0.248 OA
BRANCH   9  11
ATOM     11  N   UNL A   1      32.615  23.298  26.192  1.00  0.00    -0.325 N 
ATOM     12  C   UNL A   1      32.588  21.857  25.922  1.00  0.00     0.148 C 
BRANCH  11  13
ATOM     13  C   UNL A   1      33.957  23.828  26.451  1.00  0.00     0.149 C 
BRANCH  13  14
ATOM     14  C   UNL A   1      34.522  24.746  25.352  1.00  0.00     0.181 C 
BRANCH  14  15
ATOM     15  O   UNL A   1      35.515  24.109  24.552  1.00  0.00    -0.379 OA
BRANCH  15  16
ATOM     16  C   UNL A   1      36.355  23.208  25.274  1.00  0.00     0.163 C 
BRANCH  16  17
ATOM     17  C   UNL A   1      36.540  21.955  24.476  1.00  0.00     0.015 C 
ATOM     18  C   UNL A   1      37.588  20.934  24.852  1.00  0.00     0.006 C 
ATOM     19  C   UNL A   1      36.139  20.637  25.094  1.00  0.00     0.006 C 
ENDBRANCH  16  17
ENDBRANCH  15  16
ENDBRANCH  14  15
ENDBRANCH  13  14
ENDBRANCH  11  13
ENDBRANCH   9  11
ENDBRANCH   4   9
ENDBRANCH   1   3
BRANCH   1  20
ATOM     20  O   UNL A   1      32.138  28.633  24.919  1.00  0.00    -0.462 OA
BRANCH  20  21
ATOM     21  C   UNL A   1      31.995  29.771  25.798  1.00  0.00     0.274 C 
BRANCH  21  22
ATOM     22  C   UNL A   1      32.900  29.659  27.023  1.00  0.00     0.275 C 
BRANCH  22  23
ATOM     23  O   UNL A   1      34.049  30.511  26.867  1.00  0.00    -0.458 OA
BRANCH  23  24
ATOM     24  C   UNL A   1      34.617  30.930  28.016  1.00  0.00     0.338 C 
ATOM     25  O   UNL A   1      34.171  31.779  28.782  1.00  0.00    -0.246 OA
BRANCH  24  26
ATOM     26  C   UNL A   1      35.887  30.231  28.286  1.00  0.00     0.060 A 
ATOM     27  C   UNL A   1      36.150  29.665  29.530  1.00  0.00     0.016 A 
ATOM     28  C   UNL A   1      36.889  30.258  27.313  1.00  0.00     0.016 A 
ATOM     29  C   UNL A   1      37.443  29.246  29.845  1.00  0.00     0.010 A 
ATOM     30  C   UNL A   1      38.151  29.724  27.590  1.00  0.00     0.010 A 
ATOM     31  C   UNL A   1      38.459  29.246  28.874  1.00  0.00    -0.014 A 
BRANCH  31  32
ATOM     32  C   UNL A   1      39.824  28.745  29.199  1.00  0.00     0.031 A 
ATOM     33  C   UNL A   1      40.786  29.577  30.010  1.00  0.00     0.074 A 
ATOM     34  C   UNL A   1      40.214  27.529  28.768  1.00  0.00     0.049 A 
ATOM     35  N   UNL A   1      42.061  29.375  30.240  1.00  0.00    -0.248 NA
ATOM     36  C   UNL A   1      40.256  30.802  30.631  1.00  0.00     0.031 C 
ATOM     37  C   UNL A   1      39.391  26.595  27.994  1.00  0.00     0.029 A 
ATOM     38  N   UNL A   1      41.400  26.856  28.937  1.00  0.00    -0.354 N 
ATOM     39  C   UNL A   1      42.497  30.472  30.974  1.00  0.00     0.074 A 
ATOM     40  C   UNL A   1      41.350  31.334  31.163  1.00  0.00     0.031 C 
ATOM     41  C   UNL A   1      40.065  25.452  27.819  1.00  0.00     0.029 A 
ATOM     42  C   UNL A   1      41.403  25.601  28.378  1.00  0.00     0.049 A 
ATOM     43  H   UNL A   1      42.173  27.237  29.413  1.00  0.00     0.167 HD
ATOM     44  C   UNL A   1      43.741  30.741  31.438  1.00  0.00     0.031 A 
ATOM     45  C   UNL A   1      42.380  24.681  28.285  1.00  0.00     0.031 A 
ATOM     46  C   UNL A   1      44.873  29.863  31.301  1.00  0.00     0.049 A 
ATOM     47  C   UNL A   1      43.744  24.998  28.812  1.00  0.00     0.074 A 
ATOM     48  C   UNL A   1      46.173  30.054  31.740  1.00  0.00     0.029 A 
ATOM     49  N   UNL A   1      44.834  28.614  30.703  1.00  0.00    -0.354 N 
ATOM     50  N   UNL A   1      44.158  26.079  29.425  1.00  0.00    -0.248 NA
ATOM     51  C   UNL A   1      44.784  23.980  28.607  1.00  0.00     0.031 C 
ATOM     52  C   UNL A   1      46.927  28.929  31.386  1.00  0.00     0.029 A 
ATOM     53  C   UNL A   1      46.087  28.026  30.756  1.00  0.00     0.049 A 
ATOM     54  H   UNL A   1      44.035  28.206  30.299  1.00  0.00     0.167 HD
ATOM     55  C   UNL A   1      45.508  25.879  29.668  1.00  0.00     0.074 A 
ATOM     56  C   UNL A   1      45.837  24.560  29.166  1.00  0.00     0.031 C 
ATOM     57  C   UNL A   1      46.400  26.721  30.242  1.00  0.00     0.031 A 
BRANCH  44  58
ATOM     58  C   UNL A   1      43.962  32.066  32.111  1.00  0.00    -0.014 A 
ATOM     59  C   UNL A   1      44.292  33.216  31.378  1.00  0.00     0.009 A 
ATOM     60  C   UNL A   1      43.774  32.174  33.499  1.00  0.00     0.009 A 
ATOM     61  C   UNL A   1      44.449  34.444  32.027  1.00  0.00     0.001 A 
ATOM     62  C   UNL A   1      43.912  33.405  34.141  1.00  0.00     0.001 A 
ATOM     63  C   UNL A   1      44.255  34.538  33.405  1.00  0.00     0.000 A 
ENDBRANCH  44  58
BRANCH  45  64
ATOM     64  C   UNL A   1      42.103  23.387  27.610  1.00  0.00    -0.014 A 
ATOM     65  C   UNL A   1      42.463  23.194  26.269  1.00  0.00     0.009 A 
ATOM     66  C   UNL A   1      41.512  22.329  28.318  1.00  0.00     0.009 A 
ATOM     67  C   UNL A   1      42.233  21.965  25.648  1.00  0.00     0.001 A 
ATOM     68  C   UNL A   1      41.308  21.094  27.702  1.00  0.00     0.001 A 
ATOM     69  C   UNL A   1      41.664  20.913  26.367  1.00  0.00     0.000 A 
ENDBRANCH  45  64
BRANCH  57  70
ATOM     70  C   UNL A   1      47.811  26.231  30.354  1.00  0.00    -0.014 A 
ATOM     71  C   UNL A   1      48.294  25.708  31.563  1.00  0.00     0.009 A 
ATOM     72  C   UNL A   1      48.662  26.283  29.239  1.00  0.00     0.009 A 
ATOM     73  C   UNL A   1      49.617  25.274  31.662  1.00  0.00     0.001 A 
ATOM     74  C   UNL A   1      49.979  25.833  29.338  1.00  0.00     0.001 A 
ATOM     75  C   UNL A   1      50.457  25.336  30.550  1.00  0.00     0.000 A 
ENDBRANCH  57  70
ENDBRANCH  31  32
ENDBRANCH  24  26
ENDBRANCH  23  24
ENDBRANCH  22  23
ENDBRANCH  21  22
ENDBRANCH  20  21
ENDBRANCH   1  20
TORSDOF 18
ENDMDL
