MODEL 1
REMARK VINA RESULT:     -11.4      0.000      0.000
REMARK SMILES Cc1c(Cl)cc2c(c1C)O[C@H](C(F)(F)F)C(C(=O)OCCOC(=O)c1ccc(-c3c4nc(c(-c5ccccc5)c5ccc([nH]5)c(-c5ccccc5)c5nc(c(-c6ccccc6)c6ccc3[nH]6)C=C5)C=C4)cc1)=C2
REMARK SMILES IDX 21 1 20 2 19 3 17 4 18 5 16 6 1 7 2 8 3 9 8 10 4 11 5 12
REMARK SMILES IDX 7 13 9 14 6 15 10 16 73 17 11 18 12 19 13 20 14 21 15 22
REMARK SMILES IDX 22 23 23 24 24 25 25 26 26 27 72 28 27 29 71 30 28 31 29 32
REMARK SMILES IDX 30 33 65 34 31 35 70 36 64 37 66 38 32 39 69 40 63 41 62 42
REMARK SMILES IDX 33 44 55 45 40 46 54 47 41 48 44 49 53 50 67 51 42 52 43 53
REMARK SMILES IDX 52 55 68 56 45 57 34 58 35 59 39 60 36 61 38 62 37 63 56 64
REMARK SMILES IDX 57 65 61 66 58 67 60 68 59 69 46 70 47 71 51 72 48 73 50 74
REMARK SMILES IDX 49 75
REMARK H PARENT 66 43 44 54
REMARK Flexibility Score: inf
ROOT
ATOM      1  C   UNL A   1      36.624  20.241  24.966  1.00  0.00     0.275 C 
ENDROOT
BRANCH   1   2
ATOM      2  C   UNL A   1      35.226  20.844  25.109  1.00  0.00     0.275 C 
BRANCH   2   3
ATOM      3  O   UNL A   1      35.253  22.281  24.965  1.00  0.00    -0.459 OA
BRANCH   3   4
ATOM      4  C   UNL A   1      34.677  22.974  25.974  1.00  0.00     0.338 C 
ATOM      5  O   UNL A   1      34.752  22.722  27.167  1.00  0.00    -0.246 OA
BRANCH   4   6
ATOM      6  C   UNL A   1      33.942  24.141  25.453  1.00  0.00     0.087 C 
ATOM      7  C   UNL A   1      30.949  29.892  24.746  1.00  0.00     0.046 C 
ATOM      8  C   UNL A   1      31.857  28.717  25.008  1.00  0.00    -0.026 A 
ATOM      9  C   UNL A   1      32.994  28.843  25.828  1.00  0.00     0.045 A 
ATOM     10  C   UNL A   1      31.563  27.447  24.437  1.00  0.00    -0.004 A 
ATOM     11  Cl  UNL A   1      33.458  30.337  26.569  1.00  0.00    -0.084 Cl
ATOM     12  C   UNL A   1      33.805  27.742  26.095  1.00  0.00     0.032 A 
ATOM     13  C   UNL A   1      32.394  26.341  24.721  1.00  0.00     0.131 A 
ATOM     14  C   UNL A   1      30.373  27.223  23.538  1.00  0.00     0.049 C 
ATOM     15  C   UNL A   1      33.496  26.493  25.556  1.00  0.00     0.019 A 
ATOM     16  O   UNL A   1      32.077  25.142  24.136  1.00  0.00    -0.475 OA
ATOM     17  C   UNL A   1      34.303  25.345  25.906  1.00  0.00     0.027 C 
ATOM     18  C   UNL A   1      32.741  23.925  24.583  1.00  0.00     0.316 C 
BRANCH  18  19
ATOM     19  C   UNL A   1      31.709  23.018  25.272  1.00  0.00     0.430 C 
ATOM     20  F   UNL A   1      30.458  23.256  24.812  1.00  0.00    -0.167 F 
ATOM     21  F   UNL A   1      31.964  21.708  25.036  1.00  0.00    -0.167 F 
ATOM     22  F   UNL A   1      31.690  23.193  26.612  1.00  0.00    -0.167 F 
ENDBRANCH  18  19
ENDBRANCH   4   6
ENDBRANCH   3   4
ENDBRANCH   2   3
ENDBRANCH   1   2
BRANCH   1  23
ATOM     23  O   UNL A   1      37.626  21.275  24.996  1.00  0.00    -0.458 OA
BRANCH  23  24
ATOM     24  C   UNL A   1      38.742  20.970  25.694  1.00  0.00     0.338 C 
ATOM     25  O   UNL A   1      39.336  19.904  25.719  1.00  0.00    -0.246 OA
BRANCH  24  26
ATOM     26  C   UNL A   1      39.248  22.157  26.400  1.00  0.00     0.060 A 
ATOM     27  C   UNL A   1      38.676  23.388  26.111  1.00  0.00     0.016 A 
ATOM     28  C   UNL A   1      40.418  22.093  27.152  1.00  0.00     0.016 A 
ATOM     29  C   UNL A   1      39.365  24.560  26.404  1.00  0.00     0.010 A 
ATOM     30  C   UNL A   1      41.018  23.279  27.594  1.00  0.00     0.010 A 
ATOM     31  C   UNL A   1      40.536  24.532  27.175  1.00  0.00    -0.014 A 
BRANCH  31  32
ATOM     32  C   UNL A   1      41.251  25.800  27.513  1.00  0.00     0.031 A 
ATOM     33  C   UNL A   1      40.638  26.797  28.468  1.00  0.00     0.074 A 
ATOM     34  C   UNL A   1      42.470  26.058  26.991  1.00  0.00     0.049 A 
ATOM     35  N   UNL A   1      41.014  28.024  28.736  1.00  0.00    -0.248 NA
ATOM     36  C   UNL A   1      39.440  26.369  29.212  1.00  0.00     0.031 C 
ATOM     37  C   UNL A   1      43.225  25.167  26.104  1.00  0.00     0.029 A 
ATOM     38  N   UNL A   1      43.304  27.140  27.145  1.00  0.00    -0.354 N 
ATOM     39  C   UNL A   1      40.071  28.528  29.625  1.00  0.00     0.074 A 
ATOM     40  C   UNL A   1      39.099  27.481  29.849  1.00  0.00     0.031 C 
ATOM     41  C   UNL A   1      44.428  25.702  25.855  1.00  0.00     0.029 A 
ATOM     42  C   UNL A   1      44.486  27.028  26.453  1.00  0.00     0.049 A 
ATOM     43  H   UNL A   1      43.075  27.922  27.699  1.00  0.00     0.167 HD
ATOM     44  C   UNL A   1      40.022  29.751  30.205  1.00  0.00     0.031 A 
ATOM     45  C   UNL A   1      45.491  27.906  26.266  1.00  0.00     0.031 A 
ATOM     46  C   UNL A   1      41.018  30.775  30.024  1.00  0.00     0.049 A 
ATOM     47  C   UNL A   1      45.376  29.278  26.859  1.00  0.00     0.074 A 
ATOM     48  C   UNL A   1      41.053  32.048  30.568  1.00  0.00     0.029 A 
ATOM     49  N   UNL A   1      42.164  30.635  29.258  1.00  0.00    -0.354 N 
ATOM     50  N   UNL A   1      44.438  29.766  27.634  1.00  0.00    -0.248 NA
ATOM     51  C   UNL A   1      46.446  30.232  26.532  1.00  0.00     0.031 C 
ATOM     52  C   UNL A   1      42.197  32.695  30.093  1.00  0.00     0.029 A 
ATOM     53  C   UNL A   1      42.903  31.804  29.301  1.00  0.00     0.049 A 
ATOM     54  H   UNL A   1      42.415  29.824  28.758  1.00  0.00     0.167 HD
ATOM     55  C   UNL A   1      44.810  31.076  27.896  1.00  0.00     0.074 A 
ATOM     56  C   UNL A   1      46.070  31.301  27.219  1.00  0.00     0.031 C 
ATOM     57  C   UNL A   1      44.158  32.012  28.626  1.00  0.00     0.031 A 
BRANCH  44  58
ATOM     58  C   UNL A   1      38.839  30.078  31.079  1.00  0.00    -0.014 A 
ATOM     59  C   UNL A   1      38.888  29.913  32.471  1.00  0.00     0.009 A 
ATOM     60  C   UNL A   1      37.690  30.645  30.503  1.00  0.00     0.009 A 
ATOM     61  C   UNL A   1      37.802  30.294  33.265  1.00  0.00     0.001 A 
ATOM     62  C   UNL A   1      36.619  31.050  31.301  1.00  0.00     0.001 A 
ATOM     63  C   UNL A   1      36.674  30.869  32.681  1.00  0.00     0.000 A 
ENDBRANCH  44  58
BRANCH  45  64
ATOM     64  C   UNL A   1      46.662  27.530  25.429  1.00  0.00    -0.014 A 
ATOM     65  C   UNL A   1      46.729  27.913  24.082  1.00  0.00     0.009 A 
ATOM     66  C   UNL A   1      47.729  26.797  25.977  1.00  0.00     0.009 A 
ATOM     67  C   UNL A   1      47.832  27.561  23.299  1.00  0.00     0.001 A 
ATOM     68  C   UNL A   1      48.846  26.478  25.202  1.00  0.00     0.001 A 
ATOM     69  C   UNL A   1      48.893  26.853  23.862  1.00  0.00     0.000 A 
ENDBRANCH  45  64
BRANCH  57  70
ATOM     70  C   UNL A   1      44.806  33.360  28.757  1.00  0.00    -0.014 A 
ATOM     71  C   UNL A   1      45.781  33.603  29.736  1.00  0.00     0.009 A 
ATOM     72  C   UNL A   1      44.482  34.378  27.847  1.00  0.00     0.009 A 
ATOM     73  C   UNL A   1      46.404  34.850  29.815  1.00  0.00     0.001 A 
ATOM     74  C   UNL A   1      45.127  35.614  27.910  1.00  0.00     0.001 A 
ATOM     75  C   UNL A   1      46.082  35.851  28.897  1.00  0.00     0.000 A 
ENDBRANCH  57  70
ENDBRANCH  31  32
ENDBRANCH  24  26
ENDBRANCH  23  24
ENDBRANCH   1  23
TORSDOF 12
ENDMDL
MODEL 2
REMARK VINA RESULT:     -11.3      2.973      6.506
REMARK SMILES Cc1c(Cl)cc2c(c1C)O[C@H](C(F)(F)F)C(C(=O)OCCOC(=O)c1ccc(-c3c4nc(c(-c5ccccc5)c5ccc([nH]5)c(-c5ccccc5)c5nc(c(-c6ccccc6)c6ccc3[nH]6)C=C5)C=C4)cc1)=C2
REMARK SMILES IDX 21 1 20 2 19 3 17 4 18 5 16 6 1 7 2 8 3 9 8 10 4 11 5 12
REMARK SMILES IDX 7 13 9 14 6 15 10 16 73 17 11 18 12 19 13 20 14 21 15 22
REMARK SMILES IDX 22 23 23 24 24 25 25 26 26 27 72 28 27 29 71 30 28 31 29 32
REMARK SMILES IDX 30 33 65 34 31 35 70 36 64 37 66 38 32 39 69 40 63 41 62 42
REMARK SMILES IDX 33 44 55 45 40 46 54 47 41 48 44 49 53 50 67 51 42 52 43 53
REMARK SMILES IDX 52 55 68 56 45 57 34 58 35 59 39 60 36 61 38 62 37 63 56 64
REMARK SMILES IDX 57 65 61 66 58 67 60 68 59 69 46 70 47 71 51 72 48 73 50 74
REMARK SMILES IDX 49 75
REMARK H PARENT 66 43 44 54
REMARK Flexibility Score: inf
ROOT
ATOM      1  C   UNL A   1      36.371  23.627  26.008  1.00  0.00     0.275 C 
ENDROOT
BRANCH   1   2
ATOM      2  C   UNL A   1      35.428  22.773  25.160  1.00  0.00     0.275 C 
BRANCH   2   3
ATOM      3  O   UNL A   1      34.169  23.445  24.930  1.00  0.00    -0.459 OA
BRANCH   3   4
ATOM      4  C   UNL A   1      34.048  24.050  23.726  1.00  0.00     0.338 C 
ATOM      5  O   UNL A   1      34.332  23.572  22.638  1.00  0.00    -0.246 OA
BRANCH   4   6
ATOM      6  C   UNL A   1      33.478  25.401  23.875  1.00  0.00     0.087 C 
ATOM      7  C   UNL A   1      31.473  31.171  26.161  1.00  0.00     0.046 C 
ATOM      8  C   UNL A   1      32.185  29.906  25.750  1.00  0.00    -0.026 A 
ATOM      9  C   UNL A   1      33.402  29.529  26.347  1.00  0.00     0.045 A 
ATOM     10  C   UNL A   1      31.620  29.061  24.753  1.00  0.00    -0.004 A 
ATOM     11  Cl  UNL A   1      34.189  30.478  27.561  1.00  0.00    -0.084 Cl
ATOM     12  C   UNL A   1      34.032  28.338  25.988  1.00  0.00     0.032 A 
ATOM     13  C   UNL A   1      32.270  27.858  24.404  1.00  0.00     0.131 A 
ATOM     14  C   UNL A   1      30.326  29.393  24.053  1.00  0.00     0.049 C 
ATOM     15  C   UNL A   1      33.459  27.500  25.031  1.00  0.00     0.019 A 
ATOM     16  O   UNL A   1      31.694  27.084  23.429  1.00  0.00    -0.475 OA
ATOM     17  C   UNL A   1      34.085  26.233  24.727  1.00  0.00     0.027 C 
ATOM     18  C   UNL A   1      32.178  25.729  23.206  1.00  0.00     0.316 C 
BRANCH  18  19
ATOM     19  C   UNL A   1      31.077  24.734  23.608  1.00  0.00     0.430 C 
ATOM     20  F   UNL A   1      29.844  25.262  23.424  1.00  0.00    -0.167 F 
ATOM     21  F   UNL A   1      31.130  23.606  22.858  1.00  0.00    -0.167 F 
ATOM     22  F   UNL A   1      31.174  24.364  24.904  1.00  0.00    -0.167 F 
ENDBRANCH  18  19
ENDBRANCH   4   6
ENDBRANCH   3   4
ENDBRANCH   2   3
ENDBRANCH   1   2
BRANCH   1  23
ATOM     23  O   UNL A   1      37.679  23.682  25.409  1.00  0.00    -0.458 OA
BRANCH  23  24
ATOM     24  C   UNL A   1      38.679  23.187  26.171  1.00  0.00     0.338 C 
ATOM     25  O   UNL A   1      39.028  22.023  26.274  1.00  0.00    -0.246 OA
BRANCH  24  26
ATOM     26  C   UNL A   1      39.403  24.277  26.843  1.00  0.00     0.060 A 
ATOM     27  C   UNL A   1      39.216  24.450  28.207  1.00  0.00     0.016 A 
ATOM     28  C   UNL A   1      40.066  25.252  26.103  1.00  0.00     0.016 A 
ATOM     29  C   UNL A   1      39.515  25.672  28.800  1.00  0.00     0.010 A 
ATOM     30  C   UNL A   1      40.520  26.412  26.743  1.00  0.00     0.010 A 
ATOM     31  C   UNL A   1      40.197  26.668  28.089  1.00  0.00    -0.014 A 
BRANCH  31  32
ATOM     32  C   UNL A   1      40.543  27.965  28.745  1.00  0.00     0.031 A 
ATOM     33  C   UNL A   1      41.939  28.214  29.268  1.00  0.00     0.074 A 
ATOM     34  C   UNL A   1      39.620  28.946  28.852  1.00  0.00     0.049 A 
ATOM     35  N   UNL A   1      42.376  29.189  30.026  1.00  0.00    -0.248 NA
ATOM     36  C   UNL A   1      42.978  27.234  28.905  1.00  0.00     0.031 C 
ATOM     37  C   UNL A   1      38.247  28.885  28.341  1.00  0.00     0.029 A 
ATOM     38  N   UNL A   1      39.700  30.198  29.413  1.00  0.00    -0.354 N 
ATOM     39  C   UNL A   1      43.715  28.910  30.277  1.00  0.00     0.074 A 
ATOM     40  C   UNL A   1      44.021  27.669  29.599  1.00  0.00     0.031 C 
ATOM     41  C   UNL A   1      37.644  30.065  28.544  1.00  0.00     0.029 A 
ATOM     42  C   UNL A   1      38.535  30.922  29.314  1.00  0.00     0.049 A 
ATOM     43  H   UNL A   1      40.514  30.544  29.845  1.00  0.00     0.167 HD
ATOM     44  C   UNL A   1      44.608  29.623  31.003  1.00  0.00     0.031 A 
ATOM     45  C   UNL A   1      38.188  32.118  29.825  1.00  0.00     0.031 A 
ATOM     46  C   UNL A   1      44.317  30.884  31.634  1.00  0.00     0.049 A 
ATOM     47  C   UNL A   1      39.172  32.853  30.687  1.00  0.00     0.074 A 
ATOM     48  C   UNL A   1      45.157  31.680  32.394  1.00  0.00     0.029 A 
ATOM     49  N   UNL A   1      43.101  31.543  31.559  1.00  0.00    -0.354 N 
ATOM     50  N   UNL A   1      40.409  32.536  30.979  1.00  0.00    -0.248 NA
ATOM     51  C   UNL A   1      38.704  34.099  31.311  1.00  0.00     0.031 C 
ATOM     52  C   UNL A   1      44.434  32.799  32.819  1.00  0.00     0.029 A 
ATOM     53  C   UNL A   1      43.162  32.726  32.274  1.00  0.00     0.049 A 
ATOM     54  H   UNL A   1      42.310  31.217  31.070  1.00  0.00     0.167 HD
ATOM     55  C   UNL A   1      40.870  33.546  31.810  1.00  0.00     0.074 A 
ATOM     56  C   UNL A   1      39.791  34.499  31.955  1.00  0.00     0.031 C 
ATOM     57  C   UNL A   1      42.081  33.667  32.406  1.00  0.00     0.031 A 
BRANCH  44  58
ATOM     58  C   UNL A   1      45.991  29.055  31.188  1.00  0.00    -0.014 A 
ATOM     59  C   UNL A   1      46.296  28.200  32.258  1.00  0.00     0.009 A 
ATOM     60  C   UNL A   1      46.978  29.311  30.222  1.00  0.00     0.009 A 
ATOM     61  C   UNL A   1      47.567  27.628  32.364  1.00  0.00     0.001 A 
ATOM     62  C   UNL A   1      48.238  28.716  30.316  1.00  0.00     0.001 A 
ATOM     63  C   UNL A   1      48.532  27.879  31.390  1.00  0.00     0.000 A 
ENDBRANCH  44  58
BRANCH  45  64
ATOM     64  C   UNL A   1      36.825  32.664  29.586  1.00  0.00    -0.014 A 
ATOM     65  C   UNL A   1      35.803  32.470  30.526  1.00  0.00     0.009 A 
ATOM     66  C   UNL A   1      36.540  33.395  28.420  1.00  0.00     0.009 A 
ATOM     67  C   UNL A   1      34.524  32.987  30.300  1.00  0.00     0.001 A 
ATOM     68  C   UNL A   1      35.272  33.941  28.213  1.00  0.00     0.001 A 
ATOM     69  C   UNL A   1      34.262  33.729  29.149  1.00  0.00     0.000 A 
ENDBRANCH  45  64
BRANCH  57  70
ATOM     70  C   UNL A   1      42.315  34.886  33.250  1.00  0.00    -0.014 A 
ATOM     71  C   UNL A   1      43.003  35.998  32.742  1.00  0.00     0.009 A 
ATOM     72  C   UNL A   1      41.785  34.946  34.548  1.00  0.00     0.009 A 
ATOM     73  C   UNL A   1      43.174  37.140  33.526  1.00  0.00     0.001 A 
ATOM     74  C   UNL A   1      41.932  36.099  35.320  1.00  0.00     0.001 A 
ATOM     75  C   UNL A   1      42.632  37.192  34.811  1.00  0.00     0.000 A 
ENDBRANCH  57  70
ENDBRANCH  31  32
ENDBRANCH  24  26
ENDBRANCH  23  24
ENDBRANCH   1  23
TORSDOF 12
ENDMDL
MODEL 3
REMARK VINA RESULT:     -11.3      1.043      6.102
REMARK SMILES Cc1c(Cl)cc2c(c1C)O[C@H](C(F)(F)F)C(C(=O)OCCOC(=O)c1ccc(-c3c4nc(c(-c5ccccc5)c5ccc([nH]5)c(-c5ccccc5)c5nc(c(-c6ccccc6)c6ccc3[nH]6)C=C5)C=C4)cc1)=C2
REMARK SMILES IDX 21 1 20 2 19 3 17 4 18 5 16 6 1 7 2 8 3 9 8 10 4 11 5 12
REMARK SMILES IDX 7 13 9 14 6 15 10 16 73 17 11 18 12 19 13 20 14 21 15 22
REMARK SMILES IDX 22 23 23 24 24 25 25 26 26 27 72 28 27 29 71 30 28 31 29 32
REMARK SMILES IDX 30 33 65 34 31 35 70 36 64 37 66 38 32 39 69 40 63 41 62 42
REMARK SMILES IDX 33 44 55 45 40 46 54 47 41 48 44 49 53 50 67 51 42 52 43 53
REMARK SMILES IDX 52 55 68 56 45 57 34 58 35 59 39 60 36 61 38 62 37 63 56 64
REMARK SMILES IDX 57 65 61 66 58 67 60 68 59 69 46 70 47 71 51 72 48 73 50 74
REMARK SMILES IDX 49 75
REMARK H PARENT 66 43 44 54
REMARK Flexibility Score: inf
ROOT
ATOM      1  C   UNL A   1      37.408  19.902  24.857  1.00  0.00     0.275 C 
ENDROOT
BRANCH   1   2
ATOM      2  C   UNL A   1      35.921  20.183  25.073  1.00  0.00     0.275 C 
BRANCH   2   3
ATOM      3  O   UNL A   1      35.716  21.255  26.019  1.00  0.00    -0.459 OA
BRANCH   3   4
ATOM      4  C   UNL A   1      34.455  21.740  26.080  1.00  0.00     0.338 C 
ATOM      5  O   UNL A   1      33.530  21.286  26.735  1.00  0.00    -0.246 OA
BRANCH   4   6
ATOM      6  C   UNL A   1      34.322  22.955  25.255  1.00  0.00     0.087 C 
ATOM      7  C   UNL A   1      32.879  28.895  22.982  1.00  0.00     0.046 C 
ATOM      8  C   UNL A   1      33.313  27.661  23.733  1.00  0.00    -0.026 A 
ATOM      9  C   UNL A   1      33.602  27.710  25.110  1.00  0.00     0.045 A 
ATOM     10  C   UNL A   1      33.420  26.414  23.055  1.00  0.00    -0.004 A 
ATOM     11  Cl  UNL A   1      33.517  29.168  26.038  1.00  0.00    -0.084 Cl
ATOM     12  C   UNL A   1      33.965  26.556  25.803  1.00  0.00     0.032 A 
ATOM     13  C   UNL A   1      33.786  25.255  23.773  1.00  0.00     0.131 A 
ATOM     14  C   UNL A   1      33.140  26.272  21.580  1.00  0.00     0.049 C 
ATOM     15  C   UNL A   1      34.041  25.332  25.139  1.00  0.00     0.019 A 
ATOM     16  O   UNL A   1      33.889  24.080  23.073  1.00  0.00    -0.475 OA
ATOM     17  C   UNL A   1      34.341  24.132  25.887  1.00  0.00     0.027 C 
ATOM     18  C   UNL A   1      34.016  22.821  23.794  1.00  0.00     0.316 C 
BRANCH  18  19
ATOM     19  C   UNL A   1      32.747  21.985  23.564  1.00  0.00     0.430 C 
ATOM     20  F   UNL A   1      32.265  22.153  22.310  1.00  0.00    -0.167 F 
ATOM     21  F   UNL A   1      32.992  20.660  23.709  1.00  0.00    -0.167 F 
ATOM     22  F   UNL A   1      31.759  22.310  24.428  1.00  0.00    -0.167 F 
ENDBRANCH  18  19
ENDBRANCH   4   6
ENDBRANCH   3   4
ENDBRANCH   2   3
ENDBRANCH   1   2
BRANCH   1  23
ATOM     23  O   UNL A   1      38.190  21.078  25.136  1.00  0.00    -0.458 OA
BRANCH  23  24
ATOM     24  C   UNL A   1      39.231  20.888  25.976  1.00  0.00     0.338 C 
ATOM     25  O   UNL A   1      39.845  19.853  26.177  1.00  0.00    -0.246 OA
BRANCH  24  26
ATOM     26  C   UNL A   1      39.626  22.158  26.602  1.00  0.00     0.060 A 
ATOM     27  C   UNL A   1      38.946  23.312  26.237  1.00  0.00     0.016 A 
ATOM     28  C   UNL A   1      40.796  22.249  27.352  1.00  0.00     0.016 A 
ATOM     29  C   UNL A   1      39.526  24.558  26.451  1.00  0.00     0.010 A 
ATOM     30  C   UNL A   1      41.286  23.511  27.714  1.00  0.00     0.010 A 
ATOM     31  C   UNL A   1      40.693  24.686  27.216  1.00  0.00    -0.014 A 
BRANCH  31  32
ATOM     32  C   UNL A   1      41.290  26.032  27.469  1.00  0.00     0.031 A 
ATOM     33  C   UNL A   1      42.601  26.424  26.827  1.00  0.00     0.074 A 
ATOM     34  C   UNL A   1      40.651  26.928  28.252  1.00  0.00     0.049 A 
ATOM     35  N   UNL A   1      43.362  27.463  27.071  1.00  0.00    -0.248 NA
ATOM     36  C   UNL A   1      43.134  25.530  25.784  1.00  0.00     0.031 C 
ATOM     37  C   UNL A   1      39.348  26.725  28.893  1.00  0.00     0.029 A 
ATOM     38  N   UNL A   1      41.001  28.203  28.631  1.00  0.00    -0.354 N 
ATOM     39  C   UNL A   1      44.483  27.315  26.261  1.00  0.00     0.074 A 
ATOM     40  C   UNL A   1      44.311  26.083  25.523  1.00  0.00     0.031 C 
ATOM     41  C   UNL A   1      38.980  27.852  29.518  1.00  0.00     0.029 A 
ATOM     42  C   UNL A   1      40.070  28.813  29.437  1.00  0.00     0.049 A 
ATOM     43  H   UNL A   1      41.840  28.636  28.352  1.00  0.00     0.167 HD
ATOM     44  C   UNL A   1      45.557  28.132  26.142  1.00  0.00     0.031 A 
ATOM     45  C   UNL A   1      40.098  29.992  30.089  1.00  0.00     0.031 A 
ATOM     46  C   UNL A   1      45.704  29.384  26.838  1.00  0.00     0.049 A 
ATOM     47  C   UNL A   1      41.329  30.843  29.998  1.00  0.00     0.074 A 
ATOM     48  C   UNL A   1      46.758  30.280  26.784  1.00  0.00     0.029 A 
ATOM     49  N   UNL A   1      44.760  29.926  27.695  1.00  0.00    -0.354 N 
ATOM     50  N   UNL A   1      42.414  30.650  29.289  1.00  0.00    -0.248 NA
ATOM     51  C   UNL A   1      41.352  32.063  30.817  1.00  0.00     0.031 C 
ATOM     52  C   UNL A   1      46.473  31.343  27.646  1.00  0.00     0.029 A 
ATOM     53  C   UNL A   1      45.216  31.136  28.191  1.00  0.00     0.049 A 
ATOM     54  H   UNL A   1      43.895  29.513  27.919  1.00  0.00     0.167 HD
ATOM     55  C   UNL A   1      43.242  31.728  29.567  1.00  0.00     0.074 A 
ATOM     56  C   UNL A   1      42.526  32.584  30.488  1.00  0.00     0.031 C 
ATOM     57  C   UNL A   1      44.490  31.979  29.104  1.00  0.00     0.031 A 
BRANCH  44  58
ATOM     58  C   UNL A   1      46.685  27.699  25.244  1.00  0.00    -0.014 A 
ATOM     59  C   UNL A   1      46.734  28.075  23.893  1.00  0.00     0.009 A 
ATOM     60  C   UNL A   1      47.762  26.977  25.786  1.00  0.00     0.009 A 
ATOM     61  C   UNL A   1      47.830  27.721  23.101  1.00  0.00     0.001 A 
ATOM     62  C   UNL A   1      48.868  26.649  24.999  1.00  0.00     0.001 A 
ATOM     63  C   UNL A   1      48.898  27.017  23.656  1.00  0.00     0.000 A 
ENDBRANCH  44  58
BRANCH  45  64
ATOM     64  C   UNL A   1      38.945  30.403  30.934  1.00  0.00    -0.014 A 
ATOM     65  C   UNL A   1      37.909  31.181  30.399  1.00  0.00     0.009 A 
ATOM     66  C   UNL A   1      38.866  30.007  32.281  1.00  0.00     0.009 A 
ATOM     67  C   UNL A   1      36.825  31.564  31.195  1.00  0.00     0.001 A 
ATOM     68  C   UNL A   1      37.765  30.359  33.063  1.00  0.00     0.001 A 
ATOM     69  C   UNL A   1      36.750  31.144  32.523  1.00  0.00     0.000 A 
ENDBRANCH  45  64
BRANCH  57  70
ATOM     70  C   UNL A   1      45.154  33.245  29.564  1.00  0.00    -0.014 A 
ATOM     71  C   UNL A   1      45.985  33.258  30.694  1.00  0.00     0.009 A 
ATOM     72  C   UNL A   1      44.995  34.423  28.818  1.00  0.00     0.009 A 
ATOM     73  C   UNL A   1      46.628  34.435  31.081  1.00  0.00     0.001 A 
ATOM     74  C   UNL A   1      45.662  35.590  29.190  1.00  0.00     0.001 A 
ATOM     75  C   UNL A   1      46.472  35.597  30.325  1.00  0.00     0.000 A 
ENDBRANCH  57  70
ENDBRANCH  31  32
ENDBRANCH  24  26
ENDBRANCH  23  24
ENDBRANCH   1  23
TORSDOF 12
ENDMDL
