MODEL 1
REMARK VINA RESULT:     -12.8      0.000      0.000
REMARK SMILES Cc1ccccc1-c1c(Cl)ccc2c1C=C(C(=O)OCCOC(=O)c1ccc(-c3c4nc(c(-c5ccccc5)c5ccc([nH]5)c(-c5ccccc5)c5nc(c(-c6ccccc6)c6ccc3[nH]6)C=C5)C=C4)cc1)[C@@H](C(F)(F)F)O2
REMARK SMILES IDX 21 1 20 2 19 3 17 4 18 5 16 6 8 7 9 8 14 9 10 10 11 11 13 12
REMARK SMILES IDX 15 13 12 14 78 15 73 16 7 17 1 18 2 19 3 20 4 21 6 22 5 23
REMARK SMILES IDX 74 24 75 25 76 26 77 27 22 28 23 29 24 30 25 31 26 32 72 33
REMARK SMILES IDX 27 34 71 35 28 36 29 37 30 38 65 39 31 40 70 41 64 42 66 43
REMARK SMILES IDX 32 44 69 45 63 46 62 47 33 49 55 50 40 51 54 52 41 53 44 54
REMARK SMILES IDX 53 55 67 56 42 57 43 58 52 60 68 61 45 62 34 63 35 64 39 65
REMARK SMILES IDX 36 66 38 67 37 68 56 69 57 70 61 71 58 72 60 73 59 74 46 75
REMARK SMILES IDX 47 76 51 77 48 78 50 79 49 80
REMARK H PARENT 66 48 44 59
REMARK Flexibility Score: inf
ROOT
ATOM      1  C   UNL A   1      34.260  30.857  27.635  1.00  0.00     0.275 C 
ENDROOT
BRANCH   1   2
ATOM      2  C   UNL A   1      33.111  30.197  26.858  1.00  0.00     0.275 C 
BRANCH   2   3
ATOM      3  O   UNL A   1      33.387  28.856  26.407  1.00  0.00    -0.459 OA
BRANCH   3   4
ATOM      4  C   UNL A   1      33.129  28.690  25.078  1.00  0.00     0.338 C 
ATOM      5  O   UNL A   1      33.678  29.328  24.190  1.00  0.00    -0.246 OA
BRANCH   4   6
ATOM      6  C   UNL A   1      32.336  27.463  24.822  1.00  0.00     0.087 C 
ATOM      7  C   UNL A   1      33.176  23.956  25.711  1.00  0.00     0.012 A 
ATOM      8  C   UNL A   1      32.539  23.001  26.550  1.00  0.00     0.049 A 
ATOM      9  C   UNL A   1      32.415  25.111  25.360  1.00  0.00     0.027 A 
ATOM     10  Cl  UNL A   1      33.387  21.637  27.219  1.00  0.00    -0.084 Cl
ATOM     11  C   UNL A   1      31.196  23.122  26.922  1.00  0.00     0.025 A 
ATOM     12  C   UNL A   1      31.064  25.219  25.754  1.00  0.00     0.128 A 
ATOM     13  C   UNL A   1      33.039  26.322  24.810  1.00  0.00     0.028 C 
ATOM     14  C   UNL A   1      30.452  24.214  26.497  1.00  0.00     0.049 A 
ATOM     15  O   UNL A   1      30.278  26.324  25.536  1.00  0.00    -0.475 OA
ATOM     16  C   UNL A   1      30.843  27.417  24.772  1.00  0.00     0.316 C 
BRANCH   7  17
ATOM     17  C   UNL A   1      34.543  23.671  25.165  1.00  0.00    -0.013 A 
ATOM     18  C   UNL A   1      33.838  22.956  22.778  1.00  0.00     0.045 C 
ATOM     19  C   UNL A   1      34.851  23.233  23.855  1.00  0.00    -0.043 A 
ATOM     20  C   UNL A   1      36.195  22.996  23.491  1.00  0.00     0.004 A 
ATOM     21  C   UNL A   1      37.242  23.243  24.373  1.00  0.00     0.000 A 
ATOM     22  C   UNL A   1      35.635  23.889  26.041  1.00  0.00     0.009 A 
ATOM     23  C   UNL A   1      36.962  23.702  25.648  1.00  0.00     0.001 A 
ENDBRANCH   7  17
BRANCH  16  24
ATOM     24  C   UNL A   1      30.377  27.327  23.309  1.00  0.00     0.430 C 
ATOM     25  F   UNL A   1      29.049  27.562  23.196  1.00  0.00    -0.167 F 
ATOM     26  F   UNL A   1      31.009  28.246  22.538  1.00  0.00    -0.167 F 
ATOM     27  F   UNL A   1      30.618  26.113  22.762  1.00  0.00    -0.167 F 
ENDBRANCH  16  24
ENDBRANCH   4   6
ENDBRANCH   3   4
ENDBRANCH   2   3
ENDBRANCH   1   2
BRANCH   1  28
ATOM     28  O   UNL A   1      35.324  29.991  28.105  1.00  0.00    -0.458 OA
BRANCH  28  29
ATOM     29  C   UNL A   1      36.357  30.354  28.905  1.00  0.00     0.338 C 
ATOM     30  O   UNL A   1      36.268  31.237  29.747  1.00  0.00    -0.246 OA
BRANCH  29  31
ATOM     31  C   UNL A   1      37.580  29.559  28.763  1.00  0.00     0.060 A 
ATOM     32  C   UNL A   1      37.847  28.584  29.726  1.00  0.00     0.016 A 
ATOM     33  C   UNL A   1      38.373  29.703  27.626  1.00  0.00     0.016 A 
ATOM     34  C   UNL A   1      38.855  27.660  29.500  1.00  0.00     0.010 A 
ATOM     35  C   UNL A   1      39.347  28.760  27.374  1.00  0.00     0.010 A 
ATOM     36  C   UNL A   1      39.591  27.750  28.313  1.00  0.00    -0.014 A 
BRANCH  36  37
ATOM     37  C   UNL A   1      40.856  27.043  28.176  1.00  0.00     0.031 A 
ATOM     38  C   UNL A   1      40.901  25.602  27.912  1.00  0.00     0.074 A 
ATOM     39  C   UNL A   1      41.926  27.772  28.550  1.00  0.00     0.049 A 
ATOM     40  N   UNL A   1      41.468  24.736  28.680  1.00  0.00    -0.248 NA
ATOM     41  C   UNL A   1      40.236  25.020  26.748  1.00  0.00     0.031 C 
ATOM     42  C   UNL A   1      43.326  27.411  28.636  1.00  0.00     0.029 A 
ATOM     43  N   UNL A   1      41.840  29.000  29.203  1.00  0.00    -0.354 N 
ATOM     44  C   UNL A   1      41.489  23.551  27.975  1.00  0.00     0.074 A 
ATOM     45  C   UNL A   1      40.607  23.738  26.845  1.00  0.00     0.031 C 
ATOM     46  C   UNL A   1      43.914  28.245  29.520  1.00  0.00     0.029 A 
ATOM     47  C   UNL A   1      42.867  29.072  30.126  1.00  0.00     0.049 A 
ATOM     48  H   UNL A   1      41.164  29.696  29.037  1.00  0.00     0.167 HD
ATOM     49  C   UNL A   1      42.437  22.603  28.209  1.00  0.00     0.031 A 
ATOM     50  C   UNL A   1      42.568  29.128  31.457  1.00  0.00     0.031 A 
ATOM     51  C   UNL A   1      43.481  23.142  29.062  1.00  0.00     0.049 A 
ATOM     52  C   UNL A   1      43.152  27.948  32.180  1.00  0.00     0.074 A 
ATOM     53  C   UNL A   1      44.605  23.866  28.694  1.00  0.00     0.029 A 
ATOM     54  N   UNL A   1      43.272  23.368  30.415  1.00  0.00    -0.354 N 
ATOM     55  N   UNL A   1      43.166  26.732  31.708  1.00  0.00    -0.248 NA
ATOM     56  C   UNL A   1      43.794  28.078  33.481  1.00  0.00     0.031 C 
ATOM     57  C   UNL A   1      45.030  24.604  29.817  1.00  0.00     0.029 A 
ATOM     58  C   UNL A   1      44.196  24.289  30.874  1.00  0.00     0.049 A 
ATOM     59  H   UNL A   1      42.576  22.939  30.962  1.00  0.00     0.167 HD
ATOM     60  C   UNL A   1      43.908  25.952  32.560  1.00  0.00     0.074 A 
ATOM     61  C   UNL A   1      44.240  26.827  33.673  1.00  0.00     0.031 C 
ATOM     62  C   UNL A   1      44.270  24.670  32.272  1.00  0.00     0.031 A 
BRANCH  49  63
ATOM     63  C   UNL A   1      42.636  21.460  27.251  1.00  0.00    -0.014 A 
ATOM     64  C   UNL A   1      41.995  20.229  27.483  1.00  0.00     0.009 A 
ATOM     65  C   UNL A   1      43.494  21.532  26.140  1.00  0.00     0.009 A 
ATOM     66  C   UNL A   1      42.278  19.095  26.717  1.00  0.00     0.001 A 
ATOM     67  C   UNL A   1      43.792  20.392  25.377  1.00  0.00     0.001 A 
ATOM     68  C   UNL A   1      43.198  19.169  25.679  1.00  0.00     0.000 A 
ENDBRANCH  49  63
BRANCH  50  69
ATOM     69  C   UNL A   1      41.278  29.775  31.874  1.00  0.00    -0.014 A 
ATOM     70  C   UNL A   1      40.897  31.015  31.315  1.00  0.00     0.009 A 
ATOM     71  C   UNL A   1      40.353  29.132  32.709  1.00  0.00     0.009 A 
ATOM     72  C   UNL A   1      39.617  31.548  31.519  1.00  0.00     0.001 A 
ATOM     73  C   UNL A   1      39.080  29.680  32.935  1.00  0.00     0.001 A 
ATOM     74  C   UNL A   1      38.706  30.875  32.324  1.00  0.00     0.000 A 
ENDBRANCH  50  69
BRANCH  62  75
ATOM     75  C   UNL A   1      44.935  23.704  33.215  1.00  0.00    -0.014 A 
ATOM     76  C   UNL A   1      46.247  23.841  33.680  1.00  0.00     0.009 A 
ATOM     77  C   UNL A   1      44.169  22.655  33.773  1.00  0.00     0.009 A 
ATOM     78  C   UNL A   1      46.785  22.938  34.605  1.00  0.00     0.001 A 
ATOM     79  C   UNL A   1      44.683  21.784  34.732  1.00  0.00     0.001 A 
ATOM     80  C   UNL A   1      46.002  21.918  35.137  1.00  0.00     0.000 A 
ENDBRANCH  62  75
ENDBRANCH  36  37
ENDBRANCH  29  31
ENDBRANCH  28  29
ENDBRANCH   1  28
TORSDOF 13
ENDMDL
MODEL 2
REMARK VINA RESULT:     -12.8      1.029      1.378
REMARK SMILES Cc1ccccc1-c1c(Cl)ccc2c1C=C(C(=O)OCCOC(=O)c1ccc(-c3c4nc(c(-c5ccccc5)c5ccc([nH]5)c(-c5ccccc5)c5nc(c(-c6ccccc6)c6ccc3[nH]6)C=C5)C=C4)cc1)[C@@H](C(F)(F)F)O2
REMARK SMILES IDX 21 1 20 2 19 3 17 4 18 5 16 6 8 7 9 8 14 9 10 10 11 11 13 12
REMARK SMILES IDX 15 13 12 14 78 15 73 16 7 17 1 18 2 19 3 20 4 21 6 22 5 23
REMARK SMILES IDX 74 24 75 25 76 26 77 27 22 28 23 29 24 30 25 31 26 32 72 33
REMARK SMILES IDX 27 34 71 35 28 36 29 37 30 38 65 39 31 40 70 41 64 42 66 43
REMARK SMILES IDX 32 44 69 45 63 46 62 47 33 49 55 50 40 51 54 52 41 53 44 54
REMARK SMILES IDX 53 55 67 56 42 57 43 58 52 60 68 61 45 62 34 63 35 64 39 65
REMARK SMILES IDX 36 66 38 67 37 68 56 69 57 70 61 71 58 72 60 73 59 74 46 75
REMARK SMILES IDX 47 76 51 77 48 78 50 79 49 80
REMARK H PARENT 66 48 44 59
REMARK Flexibility Score: inf
ROOT
ATOM      1  C   UNL A   1      34.651  30.585  27.593  1.00  0.00     0.275 C 
ENDROOT
BRANCH   1   2
ATOM      2  C   UNL A   1      33.377  29.823  27.193  1.00  0.00     0.275 C 
BRANCH   2   3
ATOM      3  O   UNL A   1      33.521  28.390  27.167  1.00  0.00    -0.459 OA
BRANCH   3   4
ATOM      4  C   UNL A   1      32.327  27.748  27.022  1.00  0.00     0.338 C 
ATOM      5  O   UNL A   1      31.418  27.800  27.841  1.00  0.00    -0.246 OA
BRANCH   4   6
ATOM      6  C   UNL A   1      32.147  27.227  25.645  1.00  0.00     0.087 C 
ATOM      7  C   UNL A   1      32.985  23.853  24.339  1.00  0.00     0.012 A 
ATOM      8  C   UNL A   1      32.189  22.819  23.772  1.00  0.00     0.049 A 
ATOM      9  C   UNL A   1      32.378  25.139  24.456  1.00  0.00     0.027 A 
ATOM     10  Cl  UNL A   1      32.710  21.160  23.730  1.00  0.00    -0.084 Cl
ATOM     11  C   UNL A   1      30.917  23.069  23.247  1.00  0.00     0.025 A 
ATOM     12  C   UNL A   1      31.089  25.368  23.929  1.00  0.00     0.128 A 
ATOM     13  C   UNL A   1      32.931  26.189  25.322  1.00  0.00     0.028 C 
ATOM     14  C   UNL A   1      30.382  24.349  23.296  1.00  0.00     0.049 A 
ATOM     15  O   UNL A   1      30.392  26.544  24.066  1.00  0.00    -0.475 OA
ATOM     16  C   UNL A   1      31.058  27.654  24.715  1.00  0.00     0.316 C 
BRANCH   7  17
ATOM     17  C   UNL A   1      34.417  23.581  24.686  1.00  0.00    -0.013 A 
ATOM     18  C   UNL A   1      34.089  23.073  27.204  1.00  0.00     0.045 C 
ATOM     19  C   UNL A   1      34.920  23.224  25.960  1.00  0.00    -0.043 A 
ATOM     20  C   UNL A   1      36.306  23.009  26.134  1.00  0.00     0.004 A 
ATOM     21  C   UNL A   1      37.193  23.080  25.065  1.00  0.00     0.000 A 
ATOM     22  C   UNL A   1      35.356  23.665  23.628  1.00  0.00     0.009 A 
ATOM     23  C   UNL A   1      36.715  23.397  23.805  1.00  0.00     0.001 A 
ENDBRANCH   7  17
BRANCH  16  24
ATOM     24  C   UNL A   1      31.627  28.613  23.657  1.00  0.00     0.430 C 
ATOM     25  F   UNL A   1      30.705  29.521  23.262  1.00  0.00    -0.167 F 
ATOM     26  F   UNL A   1      32.683  29.309  24.146  1.00  0.00    -0.167 F 
ATOM     27  F   UNL A   1      32.055  27.966  22.548  1.00  0.00    -0.167 F 
ENDBRANCH  16  24
ENDBRANCH   4   6
ENDBRANCH   3   4
ENDBRANCH   2   3
ENDBRANCH   1   2
BRANCH   1  28
ATOM     28  O   UNL A   1      35.442  30.029  28.672  1.00  0.00    -0.458 OA
BRANCH  28  29
ATOM     29  C   UNL A   1      36.590  30.548  29.172  1.00  0.00     0.338 C 
ATOM     30  O   UNL A   1      36.629  31.600  29.796  1.00  0.00    -0.246 OA
BRANCH  29  31
ATOM     31  C   UNL A   1      37.789  29.722  28.998  1.00  0.00     0.060 A 
ATOM     32  C   UNL A   1      38.032  28.708  29.927  1.00  0.00     0.016 A 
ATOM     33  C   UNL A   1      38.582  29.882  27.864  1.00  0.00     0.016 A 
ATOM     34  C   UNL A   1      39.011  27.764  29.666  1.00  0.00     0.010 A 
ATOM     35  C   UNL A   1      39.527  28.920  27.575  1.00  0.00     0.010 A 
ATOM     36  C   UNL A   1      39.745  27.873  28.479  1.00  0.00    -0.014 A 
BRANCH  36  37
ATOM     37  C   UNL A   1      40.989  27.135  28.313  1.00  0.00     0.031 A 
ATOM     38  C   UNL A   1      40.991  25.694  28.043  1.00  0.00     0.074 A 
ATOM     39  C   UNL A   1      42.084  27.834  28.668  1.00  0.00     0.049 A 
ATOM     40  N   UNL A   1      41.553  24.810  28.796  1.00  0.00    -0.248 NA
ATOM     41  C   UNL A   1      40.288  25.134  26.890  1.00  0.00     0.031 C 
ATOM     42  C   UNL A   1      43.477  27.437  28.723  1.00  0.00     0.029 A 
ATOM     43  N   UNL A   1      42.044  29.061  29.327  1.00  0.00    -0.354 N 
ATOM     44  C   UNL A   1      41.529  23.628  28.085  1.00  0.00     0.074 A 
ATOM     45  C   UNL A   1      40.629  23.843  26.975  1.00  0.00     0.031 C 
ATOM     46  C   UNL A   1      44.104  28.252  29.598  1.00  0.00     0.029 A 
ATOM     47  C   UNL A   1      43.091  29.103  30.228  1.00  0.00     0.049 A 
ATOM     48  H   UNL A   1      41.383  29.774  29.178  1.00  0.00     0.167 HD
ATOM     49  C   UNL A   1      42.457  22.656  28.296  1.00  0.00     0.031 A 
ATOM     50  C   UNL A   1      42.821  29.161  31.565  1.00  0.00     0.031 A 
ATOM     51  C   UNL A   1      43.532  23.165  29.129  1.00  0.00     0.049 A 
ATOM     52  C   UNL A   1      43.390  27.963  32.272  1.00  0.00     0.074 A 
ATOM     53  C   UNL A   1      44.666  23.861  28.741  1.00  0.00     0.029 A 
ATOM     54  N   UNL A   1      43.357  23.389  30.487  1.00  0.00    -0.354 N 
ATOM     55  N   UNL A   1      43.364  26.749  31.795  1.00  0.00    -0.248 NA
ATOM     56  C   UNL A   1      44.062  28.071  33.560  1.00  0.00     0.031 C 
ATOM     57  C   UNL A   1      45.133  24.584  29.857  1.00  0.00     0.029 A 
ATOM     58  C   UNL A   1      44.313  24.285  30.930  1.00  0.00     0.049 A 
ATOM     59  H   UNL A   1      42.661  22.975  31.047  1.00  0.00     0.167 HD
ATOM     60  C   UNL A   1      44.102  25.947  32.628  1.00  0.00     0.074 A 
ATOM     61  C   UNL A   1      44.480  26.809  33.737  1.00  0.00     0.031 C 
ATOM     62  C   UNL A   1      44.426  24.657  32.327  1.00  0.00     0.031 A 
BRANCH  49  63
ATOM     63  C   UNL A   1      42.606  21.512  27.330  1.00  0.00    -0.014 A 
ATOM     64  C   UNL A   1      41.928  20.302  27.563  1.00  0.00     0.009 A 
ATOM     65  C   UNL A   1      43.453  21.563  26.209  1.00  0.00     0.009 A 
ATOM     66  C   UNL A   1      42.164  19.163  26.787  1.00  0.00     0.001 A 
ATOM     67  C   UNL A   1      43.704  20.418  25.436  1.00  0.00     0.001 A 
ATOM     68  C   UNL A   1      43.074  19.213  25.738  1.00  0.00     0.000 A 
ENDBRANCH  49  63
BRANCH  50  69
ATOM     69  C   UNL A   1      41.557  29.838  32.012  1.00  0.00    -0.014 A 
ATOM     70  C   UNL A   1      41.193  31.087  31.462  1.00  0.00     0.009 A 
ATOM     71  C   UNL A   1      40.637  29.217  32.869  1.00  0.00     0.009 A 
ATOM     72  C   UNL A   1      39.932  31.651  31.695  1.00  0.00     0.001 A 
ATOM     73  C   UNL A   1      39.383  29.795  33.124  1.00  0.00     0.001 A 
ATOM     74  C   UNL A   1      39.023  30.999  32.521  1.00  0.00     0.000 A 
ENDBRANCH  50  69
BRANCH  62  75
ATOM     75  C   UNL A   1      45.085  23.671  33.253  1.00  0.00    -0.014 A 
ATOM     76  C   UNL A   1      46.404  23.782  33.706  1.00  0.00     0.009 A 
ATOM     77  C   UNL A   1      44.309  22.627  33.808  1.00  0.00     0.009 A 
ATOM     78  C   UNL A   1      46.938  22.861  34.614  1.00  0.00     0.001 A 
ATOM     79  C   UNL A   1      44.819  21.738  34.751  1.00  0.00     0.001 A 
ATOM     80  C   UNL A   1      46.144  21.847  35.143  1.00  0.00     0.000 A 
ENDBRANCH  62  75
ENDBRANCH  36  37
ENDBRANCH  29  31
ENDBRANCH  28  29
ENDBRANCH   1  28
TORSDOF 13
ENDMDL
MODEL 3
REMARK VINA RESULT:     -12.6      3.808      8.986
REMARK SMILES Cc1ccccc1-c1c(Cl)ccc2c1C=C(C(=O)OCCOC(=O)c1ccc(-c3c4nc(c(-c5ccccc5)c5ccc([nH]5)c(-c5ccccc5)c5nc(c(-c6ccccc6)c6ccc3[nH]6)C=C5)C=C4)cc1)[C@@H](C(F)(F)F)O2
REMARK SMILES IDX 21 1 20 2 19 3 17 4 18 5 16 6 8 7 9 8 14 9 10 10 11 11 13 12
REMARK SMILES IDX 15 13 12 14 78 15 73 16 7 17 1 18 2 19 3 20 4 21 6 22 5 23
REMARK SMILES IDX 74 24 75 25 76 26 77 27 22 28 23 29 24 30 25 31 26 32 72 33
REMARK SMILES IDX 27 34 71 35 28 36 29 37 30 38 65 39 31 40 70 41 64 42 66 43
REMARK SMILES IDX 32 44 69 45 63 46 62 47 33 49 55 50 40 51 54 52 41 53 44 54
REMARK SMILES IDX 53 55 67 56 42 57 43 58 52 60 68 61 45 62 34 63 35 64 39 65
REMARK SMILES IDX 36 66 38 67 37 68 56 69 57 70 61 71 58 72 60 73 59 74 46 75
REMARK SMILES IDX 47 76 51 77 48 78 50 79 49 80
REMARK H PARENT 66 48 44 59
REMARK Flexibility Score: inf
ROOT
ATOM      1  C   UNL A   1      39.262  22.301  26.240  1.00  0.00     0.275 C 
ENDROOT
BRANCH   1   2
ATOM      2  C   UNL A   1      37.938  22.081  25.490  1.00  0.00     0.275 C 
BRANCH   2   3
ATOM      3  O   UNL A   1      36.960  23.121  25.685  1.00  0.00    -0.459 OA
BRANCH   3   4
ATOM      4  C   UNL A   1      36.188  23.325  24.581  1.00  0.00     0.338 C 
ATOM      5  O   UNL A   1      36.629  23.390  23.441  1.00  0.00    -0.246 OA
BRANCH   4   6
ATOM      6  C   UNL A   1      34.744  23.168  24.883  1.00  0.00     0.087 C 
ATOM      7  C   UNL A   1      32.060  25.725  24.656  1.00  0.00     0.012 A 
ATOM      8  C   UNL A   1      30.875  25.804  23.873  1.00  0.00     0.049 A 
ATOM      9  C   UNL A   1      32.710  24.456  24.710  1.00  0.00     0.027 A 
ATOM     10  Cl  UNL A   1      30.070  27.312  23.552  1.00  0.00    -0.084 Cl
ATOM     11  C   UNL A   1      30.304  24.673  23.279  1.00  0.00     0.025 A 
ATOM     12  C   UNL A   1      32.122  23.329  24.095  1.00  0.00     0.128 A 
ATOM     13  C   UNL A   1      34.096  24.306  25.171  1.00  0.00     0.028 C 
ATOM     14  C   UNL A   1      30.910  23.433  23.418  1.00  0.00     0.049 A 
ATOM     15  O   UNL A   1      32.710  22.089  24.023  1.00  0.00    -0.475 OA
ATOM     16  C   UNL A   1      33.975  21.900  24.701  1.00  0.00     0.316 C 
BRANCH   7  17
ATOM     17  C   UNL A   1      32.508  26.916  25.447  1.00  0.00    -0.013 A 
ATOM     18  C   UNL A   1      34.074  27.963  23.670  1.00  0.00     0.045 C 
ATOM     19  C   UNL A   1      33.400  27.926  25.014  1.00  0.00    -0.043 A 
ATOM     20  C   UNL A   1      33.737  28.987  25.884  1.00  0.00     0.004 A 
ATOM     21  C   UNL A   1      33.164  29.103  27.146  1.00  0.00     0.000 A 
ATOM     22  C   UNL A   1      31.964  27.057  26.747  1.00  0.00     0.009 A 
ATOM     23  C   UNL A   1      32.264  28.141  27.575  1.00  0.00     0.001 A 
ENDBRANCH   7  17
BRANCH  16  24
ATOM     24  C   UNL A   1      33.741  21.237  26.069  1.00  0.00     0.430 C 
ATOM     25  F   UNL A   1      33.480  19.915  25.942  1.00  0.00    -0.167 F 
ATOM     26  F   UNL A   1      34.836  21.350  26.860  1.00  0.00    -0.167 F 
ATOM     27  F   UNL A   1      32.703  21.788  26.741  1.00  0.00    -0.167 F 
ENDBRANCH  16  24
ENDBRANCH   4   6
ENDBRANCH   3   4
ENDBRANCH   2   3
ENDBRANCH   1   2
BRANCH   1  28
ATOM     28  O   UNL A   1      39.371  23.497  27.052  1.00  0.00    -0.458 OA
BRANCH  28  29
ATOM     29  C   UNL A   1      40.338  24.441  26.959  1.00  0.00     0.338 C 
ATOM     30  O   UNL A   1      41.324  24.317  26.247  1.00  0.00    -0.246 OA
BRANCH  29  31
ATOM     31  C   UNL A   1      40.090  25.679  27.705  1.00  0.00     0.060 A 
ATOM     32  C   UNL A   1      40.348  26.895  27.068  1.00  0.00     0.016 A 
ATOM     33  C   UNL A   1      39.498  25.623  28.965  1.00  0.00     0.016 A 
ATOM     34  C   UNL A   1      39.904  28.074  27.646  1.00  0.00     0.010 A 
ATOM     35  C   UNL A   1      39.014  26.788  29.522  1.00  0.00     0.010 A 
ATOM     36  C   UNL A   1      39.227  28.007  28.868  1.00  0.00    -0.014 A 
BRANCH  36  37
ATOM     37  C   UNL A   1      39.046  29.205  29.675  1.00  0.00     0.031 A 
ATOM     38  C   UNL A   1      38.053  30.223  29.318  1.00  0.00     0.074 A 
ATOM     39  C   UNL A   1      40.012  29.388  30.596  1.00  0.00     0.049 A 
ATOM     40  N   UNL A   1      38.330  31.457  29.067  1.00  0.00    -0.248 NA
ATOM     41  C   UNL A   1      36.639  29.886  29.163  1.00  0.00     0.031 C 
ATOM     42  C   UNL A   1      40.232  30.479  31.524  1.00  0.00     0.029 A 
ATOM     43  N   UNL A   1      41.187  28.641  30.650  1.00  0.00    -0.354 N 
ATOM     44  C   UNL A   1      37.121  32.118  29.004  1.00  0.00     0.074 A 
ATOM     45  C   UNL A   1      36.104  31.092  28.941  1.00  0.00     0.031 C 
ATOM     46  C   UNL A   1      41.542  30.486  31.850  1.00  0.00     0.029 A 
ATOM     47  C   UNL A   1      42.218  29.481  31.024  1.00  0.00     0.049 A 
ATOM     48  H   UNL A   1      41.268  27.680  30.454  1.00  0.00     0.167 HD
ATOM     49  C   UNL A   1      37.023  33.444  29.289  1.00  0.00     0.031 A 
ATOM     50  C   UNL A   1      43.234  29.726  30.147  1.00  0.00     0.031 A 
ATOM     51  C   UNL A   1      38.260  33.920  29.882  1.00  0.00     0.049 A 
ATOM     52  C   UNL A   1      43.307  31.191  29.817  1.00  0.00     0.074 A 
ATOM     53  C   UNL A   1      38.646  33.884  31.213  1.00  0.00     0.029 A 
ATOM     54  N   UNL A   1      39.410  34.096  29.125  1.00  0.00    -0.354 N 
ATOM     55  N   UNL A   1      42.265  31.951  29.621  1.00  0.00    -0.248 NA
ATOM     56  C   UNL A   1      44.575  31.900  29.721  1.00  0.00     0.031 C 
ATOM     57  C   UNL A   1      40.053  33.953  31.257  1.00  0.00     0.029 A 
ATOM     58  C   UNL A   1      40.513  34.082  29.959  1.00  0.00     0.049 A 
ATOM     59  H   UNL A   1      39.435  34.213  28.148  1.00  0.00     0.167 HD
ATOM     60  C   UNL A   1      42.700  33.247  29.496  1.00  0.00     0.074 A 
ATOM     61  C   UNL A   1      44.151  33.158  29.522  1.00  0.00     0.031 C 
ATOM     62  C   UNL A   1      41.854  34.316  29.459  1.00  0.00     0.031 A 
BRANCH  49  63
ATOM     63  C   UNL A   1      35.680  34.088  29.507  1.00  0.00    -0.014 A 
ATOM     64  C   UNL A   1      35.003  34.684  28.427  1.00  0.00     0.009 A 
ATOM     65  C   UNL A   1      35.073  34.183  30.771  1.00  0.00     0.009 A 
ATOM     66  C   UNL A   1      33.837  35.433  28.612  1.00  0.00     0.001 A 
ATOM     67  C   UNL A   1      33.911  34.946  30.963  1.00  0.00     0.001 A 
ATOM     68  C   UNL A   1      33.305  35.588  29.885  1.00  0.00     0.000 A 
ENDBRANCH  49  63
BRANCH  50  69
ATOM     69  C   UNL A   1      43.600  28.656  29.158  1.00  0.00    -0.014 A 
ATOM     70  C   UNL A   1      43.719  27.314  29.583  1.00  0.00     0.009 A 
ATOM     71  C   UNL A   1      43.703  28.910  27.783  1.00  0.00     0.009 A 
ATOM     72  C   UNL A   1      43.854  26.264  28.665  1.00  0.00     0.001 A 
ATOM     73  C   UNL A   1      43.866  27.859  26.865  1.00  0.00     0.001 A 
ATOM     74  C   UNL A   1      43.920  26.538  27.304  1.00  0.00     0.000 A 
ENDBRANCH  50  69
BRANCH  62  75
ATOM     75  C   UNL A   1      42.241  35.740  29.161  1.00  0.00    -0.014 A 
ATOM     76  C   UNL A   1      43.164  36.474  29.912  1.00  0.00     0.009 A 
ATOM     77  C   UNL A   1      41.746  36.352  27.987  1.00  0.00     0.009 A 
ATOM     78  C   UNL A   1      43.523  37.777  29.545  1.00  0.00     0.001 A 
ATOM     79  C   UNL A   1      42.139  37.628  27.588  1.00  0.00     0.001 A 
ATOM     80  C   UNL A   1      43.019  38.348  28.380  1.00  0.00     0.000 A 
ENDBRANCH  62  75
ENDBRANCH  36  37
ENDBRANCH  29  31
ENDBRANCH  28  29
ENDBRANCH   1  28
TORSDOF 13
ENDMDL
