MODEL 1
REMARK VINA RESULT:      -9.8      0.000      0.000
REMARK SMILES Cc1cc2c(c(C)c1Cl)C=C(C(=O)OCCOC(=O)c1ccc(-c3c4nc(c(-c5ccccc5)c5ccc([nH]5)c(-c5ccccc5)c5nc(c(-c6ccccc6)c6ccc3[nH]6)C=C5)C=C4)cc1)[C@@H](C(F)(F)F)O2
REMARK SMILES IDX 16 1 15 2 14 3 12 4 13 5 11 6 1 7 2 8 3 9 8 10 4 11 6 12
REMARK SMILES IDX 9 13 5 14 73 15 7 16 10 17 68 18 69 19 70 20 71 21 72 22
REMARK SMILES IDX 17 23 18 24 19 25 20 26 21 27 67 28 22 29 66 30 23 31 24 32
REMARK SMILES IDX 25 33 60 34 26 35 65 36 59 37 61 38 27 39 64 40 58 41 57 42
REMARK SMILES IDX 28 44 50 45 35 46 49 47 36 48 39 49 48 50 62 51 37 52 38 53
REMARK SMILES IDX 47 55 63 56 40 57 29 58 30 59 34 60 31 61 33 62 32 63 51 64
REMARK SMILES IDX 52 65 56 66 53 67 55 68 54 69 41 70 42 71 46 72 43 73 45 74
REMARK SMILES IDX 44 75
REMARK H PARENT 61 43 39 54
REMARK Flexibility Score: inf
ROOT
ATOM      1  C   UNL A   1      40.669  19.812  26.168  1.00  0.00     0.275 C 
ENDROOT
BRANCH   1   2
ATOM      2  C   UNL A   1      42.185  19.853  25.984  1.00  0.00     0.275 C 
BRANCH   2   3
ATOM      3  O   UNL A   1      42.773  20.956  26.709  1.00  0.00    -0.459 OA
BRANCH   3   4
ATOM      4  C   UNL A   1      43.131  22.021  25.955  1.00  0.00     0.338 C 
ATOM      5  O   UNL A   1      42.550  22.445  24.967  1.00  0.00    -0.246 OA
BRANCH   4   6
ATOM      6  C   UNL A   1      44.349  22.655  26.499  1.00  0.00     0.087 C 
ATOM      7  C   UNL A   1      48.840  26.511  29.158  1.00  0.00     0.046 C 
ATOM      8  C   UNL A   1      47.610  25.716  28.813  1.00  0.00    -0.028 A 
ATOM      9  C   UNL A   1      47.683  24.792  27.762  1.00  0.00     0.052 A 
ATOM     10  C   UNL A   1      46.406  25.835  29.534  1.00  0.00     0.047 A 
ATOM     11  C   UNL A   1      46.571  24.041  27.387  1.00  0.00     0.128 A 
ATOM     12  C   UNL A   1      45.262  25.093  29.163  1.00  0.00    -0.021 A 
ATOM     13  Cl  UNL A   1      46.358  26.909  30.901  1.00  0.00    -0.084 Cl
ATOM     14  C   UNL A   1      45.357  24.199  28.064  1.00  0.00     0.022 A 
ATOM     15  O   UNL A   1      46.775  23.163  26.360  1.00  0.00    -0.475 OA
ATOM     16  C   UNL A   1      43.960  25.221  29.920  1.00  0.00     0.047 C 
ATOM     17  C   UNL A   1      44.214  23.434  27.578  1.00  0.00     0.027 C 
ATOM     18  C   UNL A   1      45.634  22.511  25.744  1.00  0.00     0.316 C 
BRANCH  18  19
ATOM     19  C   UNL A   1      45.498  23.013  24.298  1.00  0.00     0.430 C 
ATOM     20  F   UNL A   1      46.696  23.384  23.788  1.00  0.00    -0.167 F 
ATOM     21  F   UNL A   1      45.013  22.047  23.479  1.00  0.00    -0.167 F 
ATOM     22  F   UNL A   1      44.668  24.077  24.203  1.00  0.00    -0.167 F 
ENDBRANCH  18  19
ENDBRANCH   4   6
ENDBRANCH   3   4
ENDBRANCH   2   3
ENDBRANCH   1   2
BRANCH   1  23
ATOM     23  O   UNL A   1      40.245  20.869  27.049  1.00  0.00    -0.458 OA
BRANCH  23  24
ATOM     24  C   UNL A   1      39.403  21.776  26.505  1.00  0.00     0.338 C 
ATOM     25  O   UNL A   1      38.441  21.562  25.788  1.00  0.00    -0.246 OA
BRANCH  24  26
ATOM     26  C   UNL A   1      39.759  23.131  26.956  1.00  0.00     0.060 A 
ATOM     27  C   UNL A   1      39.420  24.214  26.156  1.00  0.00     0.016 A 
ATOM     28  C   UNL A   1      40.586  23.316  28.061  1.00  0.00     0.016 A 
ATOM     29  C   UNL A   1      40.030  25.447  26.361  1.00  0.00     0.010 A 
ATOM     30  C   UNL A   1      41.086  24.595  28.347  1.00  0.00     0.010 A 
ATOM     31  C   UNL A   1      40.863  25.670  27.467  1.00  0.00    -0.014 A 
BRANCH  31  32
ATOM     32  C   UNL A   1      41.520  26.998  27.671  1.00  0.00     0.031 A 
ATOM     33  C   UNL A   1      42.840  27.311  27.002  1.00  0.00     0.074 A 
ATOM     34  C   UNL A   1      40.929  27.958  28.416  1.00  0.00     0.049 A 
ATOM     35  N   UNL A   1      43.658  28.313  27.218  1.00  0.00    -0.248 NA
ATOM     36  C   UNL A   1      43.307  26.376  25.966  1.00  0.00     0.031 C 
ATOM     37  C   UNL A   1      39.623  27.849  29.069  1.00  0.00     0.029 A 
ATOM     38  N   UNL A   1      41.344  29.230  28.732  1.00  0.00    -0.354 N 
ATOM     39  C   UNL A   1      44.761  28.089  26.400  1.00  0.00     0.074 A 
ATOM     40  C   UNL A   1      44.508  26.860  25.680  1.00  0.00     0.031 C 
ATOM     41  C   UNL A   1      39.308  29.024  29.632  1.00  0.00     0.029 A 
ATOM     42  C   UNL A   1      40.443  29.928  29.503  1.00  0.00     0.049 A 
ATOM     43  H   UNL A   1      42.204  29.606  28.436  1.00  0.00     0.167 HD
ATOM     44  C   UNL A   1      45.882  28.836  26.266  1.00  0.00     0.031 A 
ATOM     45  C   UNL A   1      40.528  31.135  30.094  1.00  0.00     0.031 A 
ATOM     46  C   UNL A   1      46.109  30.090  26.937  1.00  0.00     0.049 A 
ATOM     47  C   UNL A   1      41.802  31.917  29.981  1.00  0.00     0.074 A 
ATOM     48  C   UNL A   1      47.224  30.909  26.878  1.00  0.00     0.029 A 
ATOM     49  N   UNL A   1      45.194  30.719  27.764  1.00  0.00    -0.354 N 
ATOM     50  N   UNL A   1      42.885  31.632  29.300  1.00  0.00    -0.248 NA
ATOM     51  C   UNL A   1      41.879  33.171  30.742  1.00  0.00     0.031 C 
ATOM     52  C   UNL A   1      46.998  32.016  27.701  1.00  0.00     0.029 A 
ATOM     53  C   UNL A   1      45.721  31.913  28.227  1.00  0.00     0.049 A 
ATOM     54  H   UNL A   1      44.301  30.371  27.989  1.00  0.00     0.167 HD
ATOM     55  C   UNL A   1      43.768  32.675  29.544  1.00  0.00     0.074 A 
ATOM     56  C   UNL A   1      43.087  33.610  30.416  1.00  0.00     0.031 C 
ATOM     57  C   UNL A   1      45.035  32.836  29.092  1.00  0.00     0.031 A 
BRANCH  44  58
ATOM     58  C   UNL A   1      46.984  28.309  25.386  1.00  0.00    -0.014 A 
ATOM     59  C   UNL A   1      48.187  27.826  25.922  1.00  0.00     0.009 A 
ATOM     60  C   UNL A   1      46.773  28.218  24.000  1.00  0.00     0.009 A 
ATOM     61  C   UNL A   1      49.164  27.280  25.083  1.00  0.00     0.001 A 
ATOM     62  C   UNL A   1      47.739  27.646  23.169  1.00  0.00     0.001 A 
ATOM     63  C   UNL A   1      48.935  27.182  23.711  1.00  0.00     0.000 A 
ENDBRANCH  44  58
BRANCH  45  64
ATOM     64  C   UNL A   1      39.388  31.645  30.903  1.00  0.00    -0.014 A 
ATOM     65  C   UNL A   1      38.385  32.426  30.312  1.00  0.00     0.009 A 
ATOM     66  C   UNL A   1      39.283  31.330  32.269  1.00  0.00     0.009 A 
ATOM     67  C   UNL A   1      37.303  32.883  31.070  1.00  0.00     0.001 A 
ATOM     68  C   UNL A   1      38.184  31.757  33.015  1.00  0.00     0.001 A 
ATOM     69  C   UNL A   1      37.199  32.538  32.417  1.00  0.00     0.000 A 
ENDBRANCH  45  64
BRANCH  57  70
ATOM     70  C   UNL A   1      45.757  34.086  29.500  1.00  0.00    -0.014 A 
ATOM     71  C   UNL A   1      46.566  34.118  30.646  1.00  0.00     0.009 A 
ATOM     72  C   UNL A   1      45.667  35.233  28.695  1.00  0.00     0.009 A 
ATOM     73  C   UNL A   1      47.250  35.284  30.993  1.00  0.00     0.001 A 
ATOM     74  C   UNL A   1      46.372  36.390  29.031  1.00  0.00     0.001 A 
ATOM     75  C   UNL A   1      47.157  36.416  30.183  1.00  0.00     0.000 A 
ENDBRANCH  57  70
ENDBRANCH  31  32
ENDBRANCH  24  26
ENDBRANCH  23  24
ENDBRANCH   1  23
TORSDOF 12
ENDMDL
MODEL 2
REMARK VINA RESULT:      -9.6      6.119     11.414
REMARK SMILES Cc1cc2c(c(C)c1Cl)C=C(C(=O)OCCOC(=O)c1ccc(-c3c4nc(c(-c5ccccc5)c5ccc([nH]5)c(-c5ccccc5)c5nc(c(-c6ccccc6)c6ccc3[nH]6)C=C5)C=C4)cc1)[C@@H](C(F)(F)F)O2
REMARK SMILES IDX 16 1 15 2 14 3 12 4 13 5 11 6 1 7 2 8 3 9 8 10 4 11 6 12
REMARK SMILES IDX 9 13 5 14 73 15 7 16 10 17 68 18 69 19 70 20 71 21 72 22
REMARK SMILES IDX 17 23 18 24 19 25 20 26 21 27 67 28 22 29 66 30 23 31 24 32
REMARK SMILES IDX 25 33 60 34 26 35 65 36 59 37 61 38 27 39 64 40 58 41 57 42
REMARK SMILES IDX 28 44 50 45 35 46 49 47 36 48 39 49 48 50 62 51 37 52 38 53
REMARK SMILES IDX 47 55 63 56 40 57 29 58 30 59 34 60 31 61 33 62 32 63 51 64
REMARK SMILES IDX 52 65 56 66 53 67 55 68 54 69 41 70 42 71 46 72 43 73 45 74
REMARK SMILES IDX 44 75
REMARK H PARENT 61 43 39 54
REMARK Flexibility Score: inf
ROOT
ATOM      1  C   UNL A   1      33.080  34.220  28.032  1.00  0.00     0.275 C 
ENDROOT
BRANCH   1   2
ATOM      2  C   UNL A   1      33.281  34.686  29.474  1.00  0.00     0.275 C 
BRANCH   2   3
ATOM      3  O   UNL A   1      34.667  34.593  29.868  1.00  0.00    -0.459 OA
BRANCH   3   4
ATOM      4  C   UNL A   1      34.937  33.684  30.834  1.00  0.00     0.338 C 
ATOM      5  O   UNL A   1      34.353  32.628  31.026  1.00  0.00    -0.246 OA
BRANCH   4   6
ATOM      6  C   UNL A   1      36.083  34.123  31.654  1.00  0.00     0.087 C 
ATOM      7  C   UNL A   1      41.726  34.895  34.764  1.00  0.00     0.046 C 
ATOM      8  C   UNL A   1      40.621  34.643  33.774  1.00  0.00    -0.028 A 
ATOM      9  C   UNL A   1      39.305  34.947  34.148  1.00  0.00     0.052 A 
ATOM     10  C   UNL A   1      40.867  34.155  32.476  1.00  0.00     0.047 A 
ATOM     11  C   UNL A   1      38.241  34.718  33.278  1.00  0.00     0.128 A 
ATOM     12  C   UNL A   1      39.801  33.903  31.583  1.00  0.00    -0.021 A 
ATOM     13  Cl  UNL A   1      42.513  33.878  31.989  1.00  0.00    -0.084 Cl
ATOM     14  C   UNL A   1      38.475  34.180  32.009  1.00  0.00     0.022 A 
ATOM     15  O   UNL A   1      37.010  35.073  33.753  1.00  0.00    -0.475 OA
ATOM     16  C   UNL A   1      40.049  33.367  30.191  1.00  0.00     0.047 C 
ATOM     17  C   UNL A   1      37.311  33.900  31.174  1.00  0.00     0.027 C 
ATOM     18  C   UNL A   1      35.822  34.662  33.026  1.00  0.00     0.316 C 
BRANCH  18  19
ATOM     19  C   UNL A   1      35.038  33.658  33.887  1.00  0.00     0.430 C 
ATOM     20  F   UNL A   1      35.448  32.388  33.662  1.00  0.00    -0.167 F 
ATOM     21  F   UNL A   1      35.214  33.892  35.210  1.00  0.00    -0.167 F 
ATOM     22  F   UNL A   1      33.708  33.706  33.642  1.00  0.00    -0.167 F 
ENDBRANCH  18  19
ENDBRANCH   4   6
ENDBRANCH   3   4
ENDBRANCH   2   3
ENDBRANCH   1   2
BRANCH   1  23
ATOM     23  O   UNL A   1      34.214  33.449  27.596  1.00  0.00    -0.458 OA
BRANCH  23  24
ATOM     24  C   UNL A   1      34.033  32.109  27.578  1.00  0.00     0.338 C 
ATOM     25  O   UNL A   1      33.030  31.499  27.254  1.00  0.00    -0.246 OA
BRANCH  24  26
ATOM     26  C   UNL A   1      35.281  31.425  27.953  1.00  0.00     0.060 A 
ATOM     27  C   UNL A   1      35.214  30.122  28.428  1.00  0.00     0.016 A 
ATOM     28  C   UNL A   1      36.483  32.126  28.018  1.00  0.00     0.016 A 
ATOM     29  C   UNL A   1      36.296  29.573  29.109  1.00  0.00     0.010 A 
ATOM     30  C   UNL A   1      37.613  31.515  28.580  1.00  0.00     0.010 A 
ATOM     31  C   UNL A   1      37.522  30.249  29.188  1.00  0.00    -0.014 A 
BRANCH  31  32
ATOM     32  C   UNL A   1      38.674  29.652  29.932  1.00  0.00     0.031 A 
ATOM     33  C   UNL A   1      38.880  29.956  31.399  1.00  0.00     0.074 A 
ATOM     34  C   UNL A   1      39.526  28.798  29.323  1.00  0.00     0.049 A 
ATOM     35  N   UNL A   1      39.920  29.707  32.156  1.00  0.00    -0.248 NA
ATOM     36  C   UNL A   1      37.782  30.638  32.105  1.00  0.00     0.031 C 
ATOM     37  C   UNL A   1      39.429  28.339  27.936  1.00  0.00     0.029 A 
ATOM     38  N   UNL A   1      40.634  28.141  29.804  1.00  0.00    -0.354 N 
ATOM     39  C   UNL A   1      39.630  30.260  33.399  1.00  0.00     0.074 A 
ATOM     40  C   UNL A   1      38.316  30.856  33.299  1.00  0.00     0.031 C 
ATOM     41  C   UNL A   1      40.376  27.419  27.705  1.00  0.00     0.029 A 
ATOM     42  C   UNL A   1      41.235  27.322  28.877  1.00  0.00     0.049 A 
ATOM     43  H   UNL A   1      40.966  28.247  30.725  1.00  0.00     0.167 HD
ATOM     44  C   UNL A   1      40.392  30.274  34.519  1.00  0.00     0.031 A 
ATOM     45  C   UNL A   1      42.377  26.611  28.929  1.00  0.00     0.031 A 
ATOM     46  C   UNL A   1      41.675  29.631  34.639  1.00  0.00     0.049 A 
ATOM     47  C   UNL A   1      43.233  26.690  30.158  1.00  0.00     0.074 A 
ATOM     48  C   UNL A   1      42.528  29.607  35.729  1.00  0.00     0.029 A 
ATOM     49  N   UNL A   1      42.273  28.873  33.646  1.00  0.00    -0.354 N 
ATOM     50  N   UNL A   1      43.001  27.319  31.283  1.00  0.00    -0.248 NA
ATOM     51  C   UNL A   1      44.523  25.988  30.112  1.00  0.00     0.031 C 
ATOM     52  C   UNL A   1      43.662  28.867  35.381  1.00  0.00     0.029 A 
ATOM     53  C   UNL A   1      43.487  28.383  34.095  1.00  0.00     0.049 A 
ATOM     54  H   UNL A   1      41.891  28.706  32.754  1.00  0.00     0.167 HD
ATOM     55  C   UNL A   1      44.110  27.082  32.083  1.00  0.00     0.074 A 
ATOM     56  C   UNL A   1      45.005  26.233  31.323  1.00  0.00     0.031 C 
ATOM     57  C   UNL A   1      44.368  27.537  33.332  1.00  0.00     0.031 A 
BRANCH  44  58
ATOM     58  C   UNL A   1      39.886  31.043  35.711  1.00  0.00    -0.014 A 
ATOM     59  C   UNL A   1      40.675  32.007  36.355  1.00  0.00     0.009 A 
ATOM     60  C   UNL A   1      38.562  30.854  36.139  1.00  0.00     0.009 A 
ATOM     61  C   UNL A   1      40.153  32.753  37.415  1.00  0.00     0.001 A 
ATOM     62  C   UNL A   1      38.034  31.619  37.180  1.00  0.00     0.001 A 
ATOM     63  C   UNL A   1      38.831  32.565  37.821  1.00  0.00     0.000 A 
ENDBRANCH  44  58
BRANCH  45  64
ATOM     64  C   UNL A   1      42.807  25.813  27.748  1.00  0.00    -0.014 A 
ATOM     65  C   UNL A   1      42.389  24.483  27.594  1.00  0.00     0.009 A 
ATOM     66  C   UNL A   1      43.618  26.387  26.754  1.00  0.00     0.009 A 
ATOM     67  C   UNL A   1      42.776  23.746  26.472  1.00  0.00     0.001 A 
ATOM     68  C   UNL A   1      43.972  25.660  25.618  1.00  0.00     0.001 A 
ATOM     69  C   UNL A   1      43.557  24.339  25.480  1.00  0.00     0.000 A 
ENDBRANCH  45  64
BRANCH  57  70
ATOM     70  C   UNL A   1      45.651  27.098  33.975  1.00  0.00    -0.014 A 
ATOM     71  C   UNL A   1      46.832  27.840  33.823  1.00  0.00     0.009 A 
ATOM     72  C   UNL A   1      45.663  25.951  34.785  1.00  0.00     0.009 A 
ATOM     73  C   UNL A   1      48.008  27.428  34.451  1.00  0.00     0.001 A 
ATOM     74  C   UNL A   1      46.835  25.556  35.431  1.00  0.00     0.001 A 
ATOM     75  C   UNL A   1      48.007  26.290  35.258  1.00  0.00     0.000 A 
ENDBRANCH  57  70
ENDBRANCH  31  32
ENDBRANCH  24  26
ENDBRANCH  23  24
ENDBRANCH   1  23
TORSDOF 12
ENDMDL
MODEL 3
REMARK VINA RESULT:      -9.6      5.123      9.657
REMARK SMILES Cc1cc2c(c(C)c1Cl)C=C(C(=O)OCCOC(=O)c1ccc(-c3c4nc(c(-c5ccccc5)c5ccc([nH]5)c(-c5ccccc5)c5nc(c(-c6ccccc6)c6ccc3[nH]6)C=C5)C=C4)cc1)[C@@H](C(F)(F)F)O2
REMARK SMILES IDX 16 1 15 2 14 3 12 4 13 5 11 6 1 7 2 8 3 9 8 10 4 11 6 12
REMARK SMILES IDX 9 13 5 14 73 15 7 16 10 17 68 18 69 19 70 20 71 21 72 22
REMARK SMILES IDX 17 23 18 24 19 25 20 26 21 27 67 28 22 29 66 30 23 31 24 32
REMARK SMILES IDX 25 33 60 34 26 35 65 36 59 37 61 38 27 39 64 40 58 41 57 42
REMARK SMILES IDX 28 44 50 45 35 46 49 47 36 48 39 49 48 50 62 51 37 52 38 53
REMARK SMILES IDX 47 55 63 56 40 57 29 58 30 59 34 60 31 61 33 62 32 63 51 64
REMARK SMILES IDX 52 65 56 66 53 67 55 68 54 69 41 70 42 71 46 72 43 73 45 74
REMARK SMILES IDX 44 75
REMARK H PARENT 61 43 39 54
REMARK Flexibility Score: inf
ROOT
ATOM      1  C   UNL A   1      35.864  20.726  25.047  1.00  0.00     0.275 C 
ENDROOT
BRANCH   1   2
ATOM      2  C   UNL A   1      34.854  21.376  25.992  1.00  0.00     0.275 C 
BRANCH   2   3
ATOM      3  O   UNL A   1      34.653  22.770  25.669  1.00  0.00    -0.459 OA
BRANCH   3   4
ATOM      4  C   UNL A   1      33.653  23.384  26.342  1.00  0.00     0.338 C 
ATOM      5  O   UNL A   1      33.249  23.108  27.461  1.00  0.00    -0.246 OA
BRANCH   4   6
ATOM      6  C   UNL A   1      33.091  24.490  25.541  1.00  0.00     0.087 C 
ATOM      7  C   UNL A   1      30.138  29.796  23.251  1.00  0.00     0.046 C 
ATOM      8  C   UNL A   1      30.937  28.782  24.026  1.00  0.00    -0.028 A 
ATOM      9  C   UNL A   1      31.113  27.505  23.474  1.00  0.00     0.052 A 
ATOM     10  C   UNL A   1      31.546  29.083  25.259  1.00  0.00     0.047 A 
ATOM     11  C   UNL A   1      31.828  26.522  24.154  1.00  0.00     0.128 A 
ATOM     12  C   UNL A   1      32.265  28.097  25.972  1.00  0.00    -0.021 A 
ATOM     13  Cl  UNL A   1      31.407  30.699  25.883  1.00  0.00    -0.084 Cl
ATOM     14  C   UNL A   1      32.386  26.800  25.406  1.00  0.00     0.022 A 
ATOM     15  O   UNL A   1      31.945  25.326  23.503  1.00  0.00    -0.475 OA
ATOM     16  C   UNL A   1      32.913  28.402  27.303  1.00  0.00     0.047 C 
ATOM     17  C   UNL A   1      33.063  25.706  26.096  1.00  0.00     0.027 C 
ATOM     18  C   UNL A   1      32.462  24.174  24.220  1.00  0.00     0.316 C 
BRANCH  18  19
ATOM     19  C   UNL A   1      31.338  23.136  24.364  1.00  0.00     0.430 C 
ATOM     20  F   UNL A   1      30.393  23.292  23.407  1.00  0.00    -0.167 F 
ATOM     21  F   UNL A   1      31.809  21.871  24.237  1.00  0.00    -0.167 F 
ATOM     22  F   UNL A   1      30.719  23.218  25.564  1.00  0.00    -0.167 F 
ENDBRANCH  18  19
ENDBRANCH   4   6
ENDBRANCH   3   4
ENDBRANCH   2   3
ENDBRANCH   1   2
BRANCH   1  23
ATOM     23  O   UNL A   1      36.996  21.594  24.855  1.00  0.00    -0.458 OA
BRANCH  23  24
ATOM     24  C   UNL A   1      38.149  21.180  25.428  1.00  0.00     0.338 C 
ATOM     25  O   UNL A   1      38.664  20.078  25.350  1.00  0.00    -0.246 OA
BRANCH  24  26
ATOM     26  C   UNL A   1      38.785  22.295  26.147  1.00  0.00     0.060 A 
ATOM     27  C   UNL A   1      38.225  23.562  26.048  1.00  0.00     0.016 A 
ATOM     28  C   UNL A   1      40.028  22.131  26.754  1.00  0.00     0.016 A 
ATOM     29  C   UNL A   1      38.968  24.681  26.410  1.00  0.00     0.010 A 
ATOM     30  C   UNL A   1      40.712  23.251  27.247  1.00  0.00     0.010 A 
ATOM     31  C   UNL A   1      40.220  24.551  27.030  1.00  0.00    -0.014 A 
BRANCH  31  32
ATOM     32  C   UNL A   1      41.013  25.763  27.404  1.00  0.00     0.031 A 
ATOM     33  C   UNL A   1      40.470  26.754  28.409  1.00  0.00     0.074 A 
ATOM     34  C   UNL A   1      42.244  25.973  26.888  1.00  0.00     0.049 A 
ATOM     35  N   UNL A   1      40.907  27.954  28.704  1.00  0.00    -0.248 NA
ATOM     36  C   UNL A   1      39.278  26.353  29.174  1.00  0.00     0.031 C 
ATOM     37  C   UNL A   1      42.947  25.080  25.965  1.00  0.00     0.029 A 
ATOM     38  N   UNL A   1      43.137  27.000  27.088  1.00  0.00    -0.354 N 
ATOM     39  C   UNL A   1      40.008  28.473  29.630  1.00  0.00     0.074 A 
ATOM     40  C   UNL A   1      39.002  27.457  29.853  1.00  0.00     0.031 C 
ATOM     41  C   UNL A   1      44.183  25.550  25.747  1.00  0.00     0.029 A 
ATOM     42  C   UNL A   1      44.317  26.846  26.398  1.00  0.00     0.049 A 
ATOM     43  H   UNL A   1      42.948  27.773  27.668  1.00  0.00     0.167 HD
ATOM     44  C   UNL A   1      40.018  29.685  30.235  1.00  0.00     0.031 A 
ATOM     45  C   UNL A   1      45.373  27.668  26.251  1.00  0.00     0.031 A 
ATOM     46  C   UNL A   1      41.050  30.673  30.059  1.00  0.00     0.049 A 
ATOM     47  C   UNL A   1      45.334  29.029  26.881  1.00  0.00     0.074 A 
ATOM     48  C   UNL A   1      41.135  31.938  30.616  1.00  0.00     0.029 A 
ATOM     49  N   UNL A   1      42.190  30.495  29.293  1.00  0.00    -0.354 N 
ATOM     50  N   UNL A   1      44.416  29.550  27.657  1.00  0.00    -0.248 NA
ATOM     51  C   UNL A   1      46.461  29.925  26.590  1.00  0.00     0.031 C 
ATOM     52  C   UNL A   1      42.309  32.541  30.155  1.00  0.00     0.029 A 
ATOM     53  C   UNL A   1      42.981  31.630  29.357  1.00  0.00     0.049 A 
ATOM     54  H   UNL A   1      42.407  29.684  28.780  1.00  0.00     0.167 HD
ATOM     55  C   UNL A   1      44.858  30.832  27.954  1.00  0.00     0.074 A 
ATOM     56  C   UNL A   1      46.136  31.001  27.294  1.00  0.00     0.031 C 
ATOM     57  C   UNL A   1      44.251  31.787  28.699  1.00  0.00     0.031 A 
BRANCH  44  58
ATOM     58  C   UNL A   1      38.856  30.043  31.123  1.00  0.00    -0.014 A 
ATOM     59  C   UNL A   1      38.910  29.867  32.513  1.00  0.00     0.009 A 
ATOM     60  C   UNL A   1      37.720  30.646  30.558  1.00  0.00     0.009 A 
ATOM     61  C   UNL A   1      37.841  30.273  33.318  1.00  0.00     0.001 A 
ATOM     62  C   UNL A   1      36.666  31.076  31.367  1.00  0.00     0.001 A 
ATOM     63  C   UNL A   1      36.725  30.885  32.745  1.00  0.00     0.000 A 
ENDBRANCH  44  58
BRANCH  45  64
ATOM     64  C   UNL A   1      46.529  27.246  25.415  1.00  0.00    -0.014 A 
ATOM     65  C   UNL A   1      46.718  27.785  24.134  1.00  0.00     0.009 A 
ATOM     66  C   UNL A   1      47.465  26.319  25.904  1.00  0.00     0.009 A 
ATOM     67  C   UNL A   1      47.818  27.404  23.361  1.00  0.00     0.001 A 
ATOM     68  C   UNL A   1      48.581  25.968  25.145  1.00  0.00     0.001 A 
ATOM     69  C   UNL A   1      48.754  26.505  23.872  1.00  0.00     0.000 A 
ENDBRANCH  45  64
BRANCH  57  70
ATOM     70  C   UNL A   1      44.977  33.088  28.874  1.00  0.00    -0.014 A 
ATOM     71  C   UNL A   1      45.913  33.267  29.904  1.00  0.00     0.009 A 
ATOM     72  C   UNL A   1      44.757  34.133  27.962  1.00  0.00     0.009 A 
ATOM     73  C   UNL A   1      46.596  34.477  30.033  1.00  0.00     0.001 A 
ATOM     74  C   UNL A   1      45.460  35.333  28.079  1.00  0.00     0.001 A 
ATOM     75  C   UNL A   1      46.373  35.506  29.118  1.00  0.00     0.000 A 
ENDBRANCH  57  70
ENDBRANCH  31  32
ENDBRANCH  24  26
ENDBRANCH  23  24
ENDBRANCH   1  23
TORSDOF 12
ENDMDL
