MODEL 1
REMARK VINA RESULT:     -10.7      0.000      0.000
REMARK SMILES Cc1cc(C(=O)N2C[C@@H](C(=O)OCCOC(=O)c3ccc(-c4c5nc(c(-c6ccccc6)c6ccc([nH]6)c(-c6ccccc6)c6nc(c(-c7ccccc7)c7ccc4[nH]7)C=C6)C=C5)cc3)[C@H](C3CC3)C2)sc1C
REMARK SMILES IDX 13 1 12 2 10 3 11 4 9 5 7 6 8 7 70 8 66 9 5 10 6 11 4 12
REMARK SMILES IDX 1 13 2 14 3 15 72 16 71 17 73 18 67 19 68 20 69 21 14 22
REMARK SMILES IDX 15 23 16 24 17 25 18 26 19 27 65 28 20 29 64 30 21 31 22 32
REMARK SMILES IDX 23 33 58 34 24 35 63 36 57 37 59 38 25 39 62 40 56 41 55 42
REMARK SMILES IDX 26 44 48 45 33 46 47 47 34 48 37 49 46 50 60 51 35 52 36 53
REMARK SMILES IDX 45 55 61 56 38 57 27 58 28 59 32 60 29 61 31 62 30 63 49 64
REMARK SMILES IDX 50 65 54 66 51 67 53 68 52 69 39 70 40 71 44 72 41 73 43 74
REMARK SMILES IDX 42 75
REMARK H PARENT 59 43 37 54
REMARK Flexibility Score: inf
ROOT
ATOM      1  C   UNL A   1      37.410  22.624  25.253  1.00  0.00     0.274 C 
ENDROOT
BRANCH   1   2
ATOM      2  O   UNL A   1      36.361  21.884  24.592  1.00  0.00    -0.462 OA
BRANCH   2   3
ATOM      3  C   UNL A   1      35.588  22.586  23.721  1.00  0.00     0.311 C 
ATOM      4  O   UNL A   1      36.008  23.182  22.738  1.00  0.00    -0.252 OA
BRANCH   3   5
ATOM      5  C   UNL A   1      34.138  22.565  24.137  1.00  0.00     0.124 C 
ATOM      6  N   UNL A   1      32.636  23.355  25.730  1.00  0.00    -0.337 N 
ATOM      7  C   UNL A   1      33.748  23.808  24.919  1.00  0.00     0.135 C 
ATOM      8  C   UNL A   1      32.848  21.982  26.129  1.00  0.00     0.124 C 
ATOM      9  C   UNL A   1      33.863  21.405  25.124  1.00  0.00     0.028 C 
BRANCH   6  10
ATOM     10  C   UNL A   1      31.647  24.111  26.340  1.00  0.00     0.263 C 
ATOM     11  O   UNL A   1      30.992  23.612  27.258  1.00  0.00    -0.268 OA
BRANCH  10  12
ATOM     12  C   UNL A   1      31.330  25.441  25.832  1.00  0.00     0.093 A 
ATOM     13  C   UNL A   1      29.903  27.617  23.104  1.00  0.00     0.045 C 
ATOM     14  C   UNL A   1      30.598  27.098  24.319  1.00  0.00    -0.037 A 
ATOM     15  C   UNL A   1      30.536  25.725  24.734  1.00  0.00     0.029 A 
ATOM     16  C   UNL A   1      31.409  27.830  25.169  1.00  0.00     0.005 A 
ATOM     17  S   UNL A   1      32.128  26.852  26.371  1.00  0.00    -0.135 S 
ATOM     18  C   UNL A   1      31.754  29.282  25.112  1.00  0.00     0.056 C 
ENDBRANCH  10  12
ENDBRANCH   6  10
BRANCH   9  19
ATOM     19  C   UNL A   1      33.375  20.112  24.517  1.00  0.00    -0.005 C 
ATOM     20  C   UNL A   1      34.097  18.784  24.581  1.00  0.00     0.004 C 
ATOM     21  C   UNL A   1      32.861  19.006  25.407  1.00  0.00     0.004 C 
ENDBRANCH   9  19
ENDBRANCH   3   5
ENDBRANCH   2   3
ENDBRANCH   1   2
BRANCH   1  22
ATOM     22  C   UNL A   1      38.626  21.746  25.532  1.00  0.00     0.275 C 
BRANCH  22  23
ATOM     23  O   UNL A   1      39.321  22.217  26.700  1.00  0.00    -0.458 OA
BRANCH  23  24
ATOM     24  C   UNL A   1      40.381  23.014  26.461  1.00  0.00     0.338 C 
ATOM     25  O   UNL A   1      41.370  22.765  25.781  1.00  0.00    -0.246 OA
BRANCH  24  26
ATOM     26  C   UNL A   1      40.176  24.324  27.089  1.00  0.00     0.060 A 
ATOM     27  C   UNL A   1      41.008  25.375  26.719  1.00  0.00     0.016 A 
ATOM     28  C   UNL A   1      39.299  24.466  28.161  1.00  0.00     0.016 A 
ATOM     29  C   UNL A   1      41.063  26.530  27.491  1.00  0.00     0.010 A 
ATOM     30  C   UNL A   1      39.275  25.673  28.870  1.00  0.00     0.010 A 
ATOM     31  C   UNL A   1      40.192  26.698  28.575  1.00  0.00    -0.014 A 
BRANCH  31  32
ATOM     32  C   UNL A   1      40.291  27.910  29.434  1.00  0.00     0.031 A 
ATOM     33  C   UNL A   1      41.458  28.076  30.373  1.00  0.00     0.074 A 
ATOM     34  C   UNL A   1      39.365  28.887  29.357  1.00  0.00     0.049 A 
ATOM     35  N   UNL A   1      41.628  28.950  31.333  1.00  0.00    -0.248 NA
ATOM     36  C   UNL A   1      42.570  27.123  30.224  1.00  0.00     0.031 C 
ATOM     37  C   UNL A   1      38.216  28.905  28.450  1.00  0.00     0.029 A 
ATOM     38  N   UNL A   1      39.258  30.069  30.048  1.00  0.00    -0.354 N 
ATOM     39  C   UNL A   1      42.826  28.605  31.949  1.00  0.00     0.074 A 
ATOM     40  C   UNL A   1      43.347  27.452  31.247  1.00  0.00     0.031 C 
ATOM     41  C   UNL A   1      37.556  30.064  28.599  1.00  0.00     0.029 A 
ATOM     42  C   UNL A   1      38.177  30.828  29.674  1.00  0.00     0.049 A 
ATOM     43  H   UNL A   1      39.897  30.346  30.744  1.00  0.00     0.167 HD
ATOM     44  C   UNL A   1      43.430  29.190  33.011  1.00  0.00     0.031 A 
ATOM     45  C   UNL A   1      37.709  31.992  30.164  1.00  0.00     0.031 A 
ATOM     46  C   UNL A   1      42.948  30.375  33.669  1.00  0.00     0.049 A 
ATOM     47  C   UNL A   1      38.395  32.623  31.339  1.00  0.00     0.074 A 
ATOM     48  C   UNL A   1      43.485  31.037  34.760  1.00  0.00     0.029 A 
ATOM     49  N   UNL A   1      41.832  31.093  33.274  1.00  0.00    -0.354 N 
ATOM     50  N   UNL A   1      39.466  32.225  31.981  1.00  0.00    -0.248 NA
ATOM     51  C   UNL A   1      37.790  33.851  31.874  1.00  0.00     0.031 C 
ATOM     52  C   UNL A   1      42.680  32.147  35.038  1.00  0.00     0.029 A 
ATOM     53  C   UNL A   1      41.664  32.192  34.098  1.00  0.00     0.049 A 
ATOM     54  H   UNL A   1      41.246  30.858  32.518  1.00  0.00     0.167 HD
ATOM     55  C   UNL A   1      39.660  33.150  32.997  1.00  0.00     0.074 A 
ATOM     56  C   UNL A   1      38.615  34.144  32.868  1.00  0.00     0.031 C 
ATOM     57  C   UNL A   1      40.614  33.167  33.957  1.00  0.00     0.031 A 
BRANCH  44  58
ATOM     58  C   UNL A   1      44.657  28.521  33.560  1.00  0.00    -0.014 A 
ATOM     59  C   UNL A   1      44.575  27.506  34.524  1.00  0.00     0.009 A 
ATOM     60  C   UNL A   1      45.920  28.903  33.078  1.00  0.00     0.009 A 
ATOM     61  C   UNL A   1      45.738  26.907  35.016  1.00  0.00     0.001 A 
ATOM     62  C   UNL A   1      47.078  28.288  33.555  1.00  0.00     0.001 A 
ATOM     63  C   UNL A   1      46.986  27.296  34.529  1.00  0.00     0.000 A 
ENDBRANCH  44  58
BRANCH  45  64
ATOM     64  C   UNL A   1      36.493  32.605  29.573  1.00  0.00    -0.014 A 
ATOM     65  C   UNL A   1      35.233  32.385  30.149  1.00  0.00     0.009 A 
ATOM     66  C   UNL A   1      36.588  33.424  28.437  1.00  0.00     0.009 A 
ATOM     67  C   UNL A   1      34.092  32.966  29.594  1.00  0.00     0.001 A 
ATOM     68  C   UNL A   1      35.449  34.025  27.900  1.00  0.00     0.001 A 
ATOM     69  C   UNL A   1      34.201  33.790  28.474  1.00  0.00     0.000 A 
ENDBRANCH  45  64
BRANCH  57  70
ATOM     70  C   UNL A   1      40.575  34.306  34.931  1.00  0.00    -0.014 A 
ATOM     71  C   UNL A   1      39.809  34.224  36.105  1.00  0.00     0.009 A 
ATOM     72  C   UNL A   1      41.328  35.463  34.683  1.00  0.00     0.009 A 
ATOM     73  C   UNL A   1      39.778  35.295  36.999  1.00  0.00     0.001 A 
ATOM     74  C   UNL A   1      41.308  36.525  35.588  1.00  0.00     0.001 A 
ATOM     75  C   UNL A   1      40.527  36.442  36.742  1.00  0.00     0.000 A 
ENDBRANCH  57  70
ENDBRANCH  31  32
ENDBRANCH  24  26
ENDBRANCH  23  24
ENDBRANCH  22  23
ENDBRANCH   1  22
TORSDOF 14
ENDMDL
MODEL 2
REMARK VINA RESULT:     -10.7      2.525      7.292
REMARK SMILES Cc1cc(C(=O)N2C[C@@H](C(=O)OCCOC(=O)c3ccc(-c4c5nc(c(-c6ccccc6)c6ccc([nH]6)c(-c6ccccc6)c6nc(c(-c7ccccc7)c7ccc4[nH]7)C=C6)C=C5)cc3)[C@H](C3CC3)C2)sc1C
REMARK SMILES IDX 13 1 12 2 10 3 11 4 9 5 7 6 8 7 70 8 66 9 5 10 6 11 4 12
REMARK SMILES IDX 1 13 2 14 3 15 72 16 71 17 73 18 67 19 68 20 69 21 14 22
REMARK SMILES IDX 15 23 16 24 17 25 18 26 19 27 65 28 20 29 64 30 21 31 22 32
REMARK SMILES IDX 23 33 58 34 24 35 63 36 57 37 59 38 25 39 62 40 56 41 55 42
REMARK SMILES IDX 26 44 48 45 33 46 47 47 34 48 37 49 46 50 60 51 35 52 36 53
REMARK SMILES IDX 45 55 61 56 38 57 27 58 28 59 32 60 29 61 31 62 30 63 49 64
REMARK SMILES IDX 50 65 54 66 51 67 53 68 52 69 39 70 40 71 44 72 41 73 43 74
REMARK SMILES IDX 42 75
REMARK H PARENT 59 43 37 54
REMARK Flexibility Score: inf
ROOT
ATOM      1  C   UNL A   1      31.572  28.700  25.307  1.00  0.00     0.274 C 
ENDROOT
BRANCH   1   2
ATOM      2  O   UNL A   1      32.460  27.581  25.516  1.00  0.00    -0.462 OA
BRANCH   2   3
ATOM      3  C   UNL A   1      31.910  26.476  26.088  1.00  0.00     0.311 C 
ATOM      4  O   UNL A   1      31.236  26.481  27.110  1.00  0.00    -0.252 OA
BRANCH   3   5
ATOM      5  C   UNL A   1      32.260  25.229  25.315  1.00  0.00     0.124 C 
ATOM      6  N   UNL A   1      33.987  23.741  24.845  1.00  0.00    -0.337 N 
ATOM      7  C   UNL A   1      33.399  24.457  25.959  1.00  0.00     0.135 C 
ATOM      8  C   UNL A   1      33.916  24.552  23.651  1.00  0.00     0.124 C 
ATOM      9  C   UNL A   1      32.801  25.583  23.910  1.00  0.00     0.028 C 
BRANCH   6  10
ATOM     10  C   UNL A   1      34.789  22.611  24.871  1.00  0.00     0.263 C 
ATOM     11  O   UNL A   1      34.326  21.540  24.469  1.00  0.00    -0.268 OA
BRANCH  10  12
ATOM     12  C   UNL A   1      36.123  22.677  25.456  1.00  0.00     0.093 A 
ATOM     13  C   UNL A   1      39.038  24.741  26.663  1.00  0.00     0.045 C 
ATOM     14  C   UNL A   1      38.139  23.631  26.225  1.00  0.00    -0.037 A 
ATOM     15  C   UNL A   1      36.745  23.816  25.936  1.00  0.00     0.029 A 
ATOM     16  C   UNL A   1      38.516  22.318  26.001  1.00  0.00     0.005 A 
ATOM     17  S   UNL A   1      37.231  21.379  25.382  1.00  0.00    -0.135 S 
ATOM     18  C   UNL A   1      39.861  21.689  26.168  1.00  0.00     0.056 C 
ENDBRANCH  10  12
ENDBRANCH   6  10
BRANCH   9  19
ATOM     19  C   UNL A   1      31.790  25.607  22.789  1.00  0.00    -0.005 C 
ATOM     20  C   UNL A   1      31.205  26.851  22.159  1.00  0.00     0.004 C 
ATOM     21  C   UNL A   1      32.208  26.029  21.401  1.00  0.00     0.004 C 
ENDBRANCH   9  19
ENDBRANCH   3   5
ENDBRANCH   2   3
ENDBRANCH   1   2
BRANCH   1  22
ATOM     22  C   UNL A   1      31.817  29.809  26.327  1.00  0.00     0.275 C 
BRANCH  22  23
ATOM     23  O   UNL A   1      33.128  30.372  26.144  1.00  0.00    -0.458 OA
BRANCH  23  24
ATOM     24  C   UNL A   1      33.514  31.257  27.083  1.00  0.00     0.338 C 
ATOM     25  O   UNL A   1      32.861  32.178  27.560  1.00  0.00    -0.246 OA
BRANCH  24  26
ATOM     26  C   UNL A   1      34.866  30.934  27.551  1.00  0.00     0.060 A 
ATOM     27  C   UNL A   1      35.192  29.599  27.767  1.00  0.00     0.016 A 
ATOM     28  C   UNL A   1      35.738  31.944  27.949  1.00  0.00     0.016 A 
ATOM     29  C   UNL A   1      36.330  29.266  28.493  1.00  0.00     0.010 A 
ATOM     30  C   UNL A   1      36.939  31.601  28.581  1.00  0.00     0.010 A 
ATOM     31  C   UNL A   1      37.224  30.262  28.906  1.00  0.00    -0.014 A 
BRANCH  31  32
ATOM     32  C   UNL A   1      38.411  29.908  29.731  1.00  0.00     0.031 A 
ATOM     33  C   UNL A   1      39.549  29.131  29.122  1.00  0.00     0.074 A 
ATOM     34  C   UNL A   1      38.502  30.307  31.016  1.00  0.00     0.049 A 
ATOM     35  N   UNL A   1      40.571  28.562  29.711  1.00  0.00    -0.248 NA
ATOM     36  C   UNL A   1      39.526  28.956  27.660  1.00  0.00     0.031 C 
ATOM     37  C   UNL A   1      37.515  31.122  31.728  1.00  0.00     0.029 A 
ATOM     38  N   UNL A   1      39.487  30.092  31.948  1.00  0.00    -0.354 N 
ATOM     39  C   UNL A   1      41.266  27.900  28.706  1.00  0.00     0.074 A 
ATOM     40  C   UNL A   1      40.560  28.148  27.468  1.00  0.00     0.031 C 
ATOM     41  C   UNL A   1      37.971  31.386  32.962  1.00  0.00     0.029 A 
ATOM     42  C   UNL A   1      39.234  30.684  33.161  1.00  0.00     0.049 A 
ATOM     43  H   UNL A   1      40.298  29.565  31.764  1.00  0.00     0.167 HD
ATOM     44  C   UNL A   1      42.386  27.144  28.808  1.00  0.00     0.031 A 
ATOM     45  C   UNL A   1      39.917  30.638  34.320  1.00  0.00     0.031 A 
ATOM     46  C   UNL A   1      43.126  26.949  30.025  1.00  0.00     0.049 A 
ATOM     47  C   UNL A   1      41.156  29.796  34.410  1.00  0.00     0.074 A 
ATOM     48  C   UNL A   1      44.267  26.193  30.231  1.00  0.00     0.029 A 
ATOM     49  N   UNL A   1      42.816  27.545  31.236  1.00  0.00    -0.354 N 
ATOM     50  N   UNL A   1      41.740  29.087  33.476  1.00  0.00    -0.248 NA
ATOM     51  C   UNL A   1      41.812  29.728  35.723  1.00  0.00     0.031 C 
ATOM     52  C   UNL A   1      44.635  26.314  31.576  1.00  0.00     0.029 A 
ATOM     53  C   UNL A   1      43.743  27.173  32.195  1.00  0.00     0.049 A 
ATOM     54  H   UNL A   1      42.049  28.143  31.393  1.00  0.00     0.167 HD
ATOM     55  C   UNL A   1      42.831  28.485  34.089  1.00  0.00     0.074 A 
ATOM     56  C   UNL A   1      42.842  28.935  35.466  1.00  0.00     0.031 C 
ATOM     57  C   UNL A   1      43.734  27.627  33.560  1.00  0.00     0.031 A 
BRANCH  44  58
ATOM     58  C   UNL A   1      42.848  26.427  27.572  1.00  0.00    -0.014 A 
ATOM     59  C   UNL A   1      43.517  27.098  26.538  1.00  0.00     0.009 A 
ATOM     60  C   UNL A   1      42.626  25.045  27.457  1.00  0.00     0.009 A 
ATOM     61  C   UNL A   1      43.930  26.400  25.399  1.00  0.00     0.001 A 
ATOM     62  C   UNL A   1      43.059  24.348  26.329  1.00  0.00     0.001 A 
ATOM     63  C   UNL A   1      43.703  25.028  25.297  1.00  0.00     0.000 A 
ENDBRANCH  44  58
BRANCH  45  64
ATOM     64  C   UNL A   1      39.409  31.374  35.505  1.00  0.00    -0.014 A 
ATOM     65  C   UNL A   1      39.985  32.595  35.885  1.00  0.00     0.009 A 
ATOM     66  C   UNL A   1      38.338  30.864  36.254  1.00  0.00     0.009 A 
ATOM     67  C   UNL A   1      39.502  33.287  36.997  1.00  0.00     0.001 A 
ATOM     68  C   UNL A   1      37.840  31.570  37.350  1.00  0.00     0.001 A 
ATOM     69  C   UNL A   1      38.427  32.778  37.725  1.00  0.00     0.000 A 
ENDBRANCH  45  64
BRANCH  57  70
ATOM     70  C   UNL A   1      44.816  27.136  34.473  1.00  0.00    -0.014 A 
ATOM     71  C   UNL A   1      44.655  25.953  35.211  1.00  0.00     0.009 A 
ATOM     72  C   UNL A   1      46.019  27.851  34.581  1.00  0.00     0.009 A 
ATOM     73  C   UNL A   1      45.669  25.511  36.061  1.00  0.00     0.001 A 
ATOM     74  C   UNL A   1      47.037  27.397  35.418  1.00  0.00     0.001 A 
ATOM     75  C   UNL A   1      46.859  26.230  36.164  1.00  0.00     0.000 A 
ENDBRANCH  57  70
ENDBRANCH  31  32
ENDBRANCH  24  26
ENDBRANCH  23  24
ENDBRANCH  22  23
ENDBRANCH   1  22
TORSDOF 14
ENDMDL
MODEL 3
REMARK VINA RESULT:     -10.6      3.906      8.918
REMARK SMILES Cc1cc(C(=O)N2C[C@@H](C(=O)OCCOC(=O)c3ccc(-c4c5nc(c(-c6ccccc6)c6ccc([nH]6)c(-c6ccccc6)c6nc(c(-c7ccccc7)c7ccc4[nH]7)C=C6)C=C5)cc3)[C@H](C3CC3)C2)sc1C
REMARK SMILES IDX 13 1 12 2 10 3 11 4 9 5 7 6 8 7 70 8 66 9 5 10 6 11 4 12
REMARK SMILES IDX 1 13 2 14 3 15 72 16 71 17 73 18 67 19 68 20 69 21 14 22
REMARK SMILES IDX 15 23 16 24 17 25 18 26 19 27 65 28 20 29 64 30 21 31 22 32
REMARK SMILES IDX 23 33 58 34 24 35 63 36 57 37 59 38 25 39 62 40 56 41 55 42
REMARK SMILES IDX 26 44 48 45 33 46 47 47 34 48 37 49 46 50 60 51 35 52 36 53
REMARK SMILES IDX 45 55 61 56 38 57 27 58 28 59 32 60 29 61 31 62 30 63 49 64
REMARK SMILES IDX 50 65 54 66 51 67 53 68 52 69 39 70 40 71 44 72 41 73 43 74
REMARK SMILES IDX 42 75
REMARK H PARENT 59 43 37 54
REMARK Flexibility Score: inf
ROOT
ATOM      1  C   UNL A   1      32.037  30.516  26.537  1.00  0.00     0.274 C 
ENDROOT
BRANCH   1   2
ATOM      2  O   UNL A   1      32.432  29.149  26.287  1.00  0.00    -0.462 OA
BRANCH   2   3
ATOM      3  C   UNL A   1      31.654  28.187  26.851  1.00  0.00     0.311 C 
ATOM      4  O   UNL A   1      31.316  28.163  28.028  1.00  0.00    -0.252 OA
BRANCH   3   5
ATOM      5  C   UNL A   1      31.280  27.127  25.845  1.00  0.00     0.124 C 
ATOM      6  N   UNL A   1      32.129  25.376  24.568  1.00  0.00    -0.337 N 
ATOM      7  C   UNL A   1      32.209  25.927  25.905  1.00  0.00     0.135 C 
ATOM      8  C   UNL A   1      31.984  26.446  23.606  1.00  0.00     0.124 C 
ATOM      9  C   UNL A   1      31.448  27.653  24.400  1.00  0.00     0.028 C 
BRANCH   6  10
ATOM     10  C   UNL A   1      32.442  24.095  24.140  1.00  0.00     0.263 C 
ATOM     11  O   UNL A   1      31.628  23.480  23.446  1.00  0.00    -0.268 OA
BRANCH  10  12
ATOM     12  C   UNL A   1      33.674  23.458  24.589  1.00  0.00     0.093 A 
ATOM     13  C   UNL A   1      37.353  23.702  25.376  1.00  0.00     0.045 C 
ATOM     14  C   UNL A   1      35.966  23.223  25.099  1.00  0.00    -0.037 A 
ATOM     15  C   UNL A   1      34.847  24.107  24.933  1.00  0.00     0.029 A 
ATOM     16  C   UNL A   1      35.579  21.905  24.924  1.00  0.00     0.005 A 
ATOM     17  S   UNL A   1      33.932  21.772  24.493  1.00  0.00    -0.135 S 
ATOM     18  C   UNL A   1      36.412  20.668  25.002  1.00  0.00     0.056 C 
ENDBRANCH  10  12
ENDBRANCH   6  10
BRANCH   9  19
ATOM     19  C   UNL A   1      30.218  28.244  23.755  1.00  0.00    -0.005 C 
ATOM     20  C   UNL A   1      30.005  29.709  23.446  1.00  0.00     0.004 C 
ATOM     21  C   UNL A   1      30.275  28.740  22.330  1.00  0.00     0.004 C 
ENDBRANCH   9  19
ENDBRANCH   3   5
ENDBRANCH   2   3
ENDBRANCH   1   2
BRANCH   1  22
ATOM     22  C   UNL A   1      33.071  31.253  27.384  1.00  0.00     0.275 C 
BRANCH  22  23
ATOM     23  O   UNL A   1      34.157  30.372  27.719  1.00  0.00    -0.458 OA
BRANCH  23  24
ATOM     24  C   UNL A   1      35.065  30.873  28.580  1.00  0.00     0.338 C 
ATOM     25  O   UNL A   1      34.920  31.801  29.367  1.00  0.00    -0.246 OA
BRANCH  24  26
ATOM     26  C   UNL A   1      36.303  30.090  28.515  1.00  0.00     0.060 A 
ATOM     27  C   UNL A   1      36.790  29.519  29.687  1.00  0.00     0.016 A 
ATOM     28  C   UNL A   1      37.072  30.075  27.354  1.00  0.00     0.016 A 
ATOM     29  C   UNL A   1      38.095  29.042  29.744  1.00  0.00     0.010 A 
ATOM     30  C   UNL A   1      38.344  29.491  27.384  1.00  0.00     0.010 A 
ATOM     31  C   UNL A   1      38.889  29.015  28.591  1.00  0.00    -0.014 A 
BRANCH  31  32
ATOM     32  C   UNL A   1      40.304  28.557  28.666  1.00  0.00     0.031 A 
ATOM     33  C   UNL A   1      41.380  29.503  29.132  1.00  0.00     0.074 A 
ATOM     34  C   UNL A   1      40.634  27.286  28.358  1.00  0.00     0.049 A 
ATOM     35  N   UNL A   1      42.681  29.363  29.085  1.00  0.00    -0.248 NA
ATOM     36  C   UNL A   1      40.934  30.781  29.711  1.00  0.00     0.031 C 
ATOM     37  C   UNL A   1      39.698  26.234  27.956  1.00  0.00     0.029 A 
ATOM     38  N   UNL A   1      41.856  26.660  28.352  1.00  0.00    -0.354 N 
ATOM     39  C   UNL A   1      43.207  30.561  29.554  1.00  0.00     0.074 A 
ATOM     40  C   UNL A   1      42.087  31.411  29.894  1.00  0.00     0.031 C 
ATOM     41  C   UNL A   1      40.370  25.082  27.801  1.00  0.00     0.029 A 
ATOM     42  C   UNL A   1      41.792  25.335  27.999  1.00  0.00     0.049 A 
ATOM     43  H   UNL A   1      42.697  27.117  28.581  1.00  0.00     0.167 HD
ATOM     44  C   UNL A   1      44.506  30.923  29.679  1.00  0.00     0.031 A 
ATOM     45  C   UNL A   1      42.770  24.427  27.815  1.00  0.00     0.031 A 
ATOM     46  C   UNL A   1      45.621  30.057  29.404  1.00  0.00     0.049 A 
ATOM     47  C   UNL A   1      44.202  24.849  27.960  1.00  0.00     0.074 A 
ATOM     48  C   UNL A   1      46.974  30.336  29.491  1.00  0.00     0.029 A 
ATOM     49  N   UNL A   1      45.509  28.731  29.020  1.00  0.00    -0.354 N 
ATOM     50  N   UNL A   1      44.687  26.019  28.299  1.00  0.00    -0.248 NA
ATOM     51  C   UNL A   1      45.222  23.831  27.671  1.00  0.00     0.031 C 
ATOM     52  C   UNL A   1      47.682  29.181  29.139  1.00  0.00     0.029 A 
ATOM     53  C   UNL A   1      46.768  28.177  28.867  1.00  0.00     0.049 A 
ATOM     54  H   UNL A   1      44.660  28.253  28.878  1.00  0.00     0.167 HD
ATOM     55  C   UNL A   1      46.067  25.879  28.260  1.00  0.00     0.074 A 
ATOM     56  C   UNL A   1      46.341  24.505  27.893  1.00  0.00     0.031 C 
ATOM     57  C   UNL A   1      47.020  26.810  28.496  1.00  0.00     0.031 A 
BRANCH  44  58
ATOM     58  C   UNL A   1      44.790  32.340  30.086  1.00  0.00    -0.014 A 
ATOM     59  C   UNL A   1      45.018  32.691  31.425  1.00  0.00     0.009 A 
ATOM     60  C   UNL A   1      44.852  33.337  29.100  1.00  0.00     0.009 A 
ATOM     61  C   UNL A   1      45.275  34.021  31.770  1.00  0.00     0.001 A 
ATOM     62  C   UNL A   1      45.132  34.660  29.444  1.00  0.00     0.001 A 
ATOM     63  C   UNL A   1      45.335  35.002  30.780  1.00  0.00     0.000 A 
ENDBRANCH  44  58
BRANCH  45  64
ATOM     64  C   UNL A   1      42.422  23.039  27.417  1.00  0.00    -0.014 A 
ATOM     65  C   UNL A   1      42.089  22.083  28.388  1.00  0.00     0.009 A 
ATOM     66  C   UNL A   1      42.409  22.669  26.064  1.00  0.00     0.009 A 
ATOM     67  C   UNL A   1      41.758  20.781  28.010  1.00  0.00     0.001 A 
ATOM     68  C   UNL A   1      42.053  21.373  25.687  1.00  0.00     0.001 A 
ATOM     69  C   UNL A   1      41.734  20.428  26.661  1.00  0.00     0.000 A 
ENDBRANCH  45  64
BRANCH  57  70
ATOM     70  C   UNL A   1      48.447  26.363  28.378  1.00  0.00    -0.014 A 
ATOM     71  C   UNL A   1      49.135  25.849  29.488  1.00  0.00     0.009 A 
ATOM     72  C   UNL A   1      49.101  26.437  27.139  1.00  0.00     0.009 A 
ATOM     73  C   UNL A   1      50.464  25.443  29.364  1.00  0.00     0.001 A 
ATOM     74  C   UNL A   1      50.425  26.013  27.015  1.00  0.00     0.001 A 
ATOM     75  C   UNL A   1      51.107  25.523  28.129  1.00  0.00     0.000 A 
ENDBRANCH  57  70
ENDBRANCH  31  32
ENDBRANCH  24  26
ENDBRANCH  23  24
ENDBRANCH  22  23
ENDBRANCH   1  22
TORSDOF 14
ENDMDL
