MODEL 1
REMARK VINA RESULT:     -11.4      0.000      0.000
REMARK SMILES COCCNC(=O)c1cccc(NC(=O)[C@@H]2CCCC[C@H]2C(=O)OCCOC(=O)c2ccc(-c3c4nc(c(-c5ccccc5)c5ccc([nH]5)c(-c5ccccc5)c5nc(c(-c6ccccc6)c6ccc3[nH]6)C=C5)C=C4)cc2)c1
REMARK SMILES IDX 22 1 23 2 21 3 16 4 17 5 18 6 20 7 19 8 14 9 13 10 15 12
REMARK SMILES IDX 12 13 8 14 9 15 78 16 10 17 11 18 6 19 5 20 7 22 4 23 3 24
REMARK SMILES IDX 2 25 1 26 24 27 25 28 26 29 27 30 28 31 29 32 30 33 31 34
REMARK SMILES IDX 77 35 32 36 76 37 33 38 34 39 35 40 70 41 36 42 75 43 69 44
REMARK SMILES IDX 71 45 37 46 74 47 68 48 67 49 38 51 60 52 45 53 59 54 46 55
REMARK SMILES IDX 49 56 58 57 72 58 47 59 48 60 57 62 73 63 50 64 39 65 40 66
REMARK SMILES IDX 44 67 41 68 43 69 42 70 61 71 62 72 66 73 63 74 65 75 64 76
REMARK SMILES IDX 51 77 52 78 56 79 53 80 55 81 54 82
REMARK H PARENT 13 11 5 21 71 50 49 61
REMARK Flexibility Score: inf
ROOT
ATOM      1  C   UNL A   1      34.521  23.809  25.598  1.00  0.00     0.309 C 
ATOM      2  O   UNL A   1      34.951  24.937  25.380  1.00  0.00    -0.252 OA
ENDROOT
BRANCH   1   3
ATOM      3  C   UNL A   1      33.196  23.334  25.022  1.00  0.00     0.111 C 
ATOM      4  C   UNL A   1      32.010  24.317  25.171  1.00  0.00     0.093 C 
ATOM      5  C   UNL A   1      30.770  23.727  24.478  1.00  0.00     0.014 C 
ATOM      6  C   UNL A   1      31.031  23.434  23.007  1.00  0.00     0.001 C 
ATOM      7  C   UNL A   1      33.454  23.015  23.541  1.00  0.00     0.016 C 
ATOM      8  C   UNL A   1      32.212  22.489  22.835  1.00  0.00     0.001 C 
BRANCH   4   9
ATOM      9  C   UNL A   1      31.645  24.580  26.622  1.00  0.00     0.228 C 
ATOM     10  N   UNL A   1      31.436  25.824  27.132  1.00  0.00    -0.326 N 
ATOM     11  H   UNL A   1      31.129  25.795  28.067  1.00  0.00     0.169 HD
ATOM     12  O   UNL A   1      31.437  23.634  27.388  1.00  0.00    -0.274 OA
BRANCH  10  13
ATOM     13  C   UNL A   1      31.551  27.144  26.656  1.00  0.00     0.041 A 
ATOM     14  C   UNL A   1      31.237  28.625  24.740  1.00  0.00     0.041 A 
ATOM     15  C   UNL A   1      31.728  29.703  25.475  1.00  0.00     0.014 A 
ATOM     16  C   UNL A   1      31.164  27.352  25.322  1.00  0.00     0.040 A 
ATOM     17  C   UNL A   1      32.104  29.510  26.800  1.00  0.00     0.003 A 
ATOM     18  C   UNL A   1      32.010  28.242  27.384  1.00  0.00     0.026 A 
BRANCH  14  19
ATOM     19  C   UNL A   1      30.947  28.829  23.306  1.00  0.00     0.251 C 
ATOM     20  N   UNL A   1      31.941  28.768  22.367  1.00  0.00    -0.350 N 
ATOM     21  H   UNL A   1      31.718  29.178  21.501  1.00  0.00     0.163 HD
ATOM     22  O   UNL A   1      29.794  29.067  22.957  1.00  0.00    -0.269 OA
BRANCH  20  23
ATOM     23  C   UNL A   1      33.278  28.192  22.446  1.00  0.00     0.144 C 
BRANCH  23  24
ATOM     24  C   UNL A   1      33.262  26.659  22.515  1.00  0.00     0.181 C 
BRANCH  24  25
ATOM     25  O   UNL A   1      33.648  26.042  21.283  1.00  0.00    -0.383 OA
ATOM     26  C   UNL A   1      32.556  25.590  20.494  1.00  0.00     0.194 C 
ENDBRANCH  24  25
ENDBRANCH  23  24
ENDBRANCH  20  23
ENDBRANCH  14  19
ENDBRANCH  10  13
ENDBRANCH   4   9
ENDBRANCH   1   3
BRANCH   1  27
ATOM     27  O   UNL A   1      35.111  22.901  26.421  1.00  0.00    -0.462 OA
BRANCH  27  28
ATOM     28  C   UNL A   1      34.726  21.530  26.194  1.00  0.00     0.274 C 
BRANCH  28  29
ATOM     29  C   UNL A   1      35.826  20.771  25.455  1.00  0.00     0.275 C 
BRANCH  29  30
ATOM     30  O   UNL A   1      36.895  21.674  25.134  1.00  0.00    -0.458 OA
BRANCH  30  31
ATOM     31  C   UNL A   1      38.131  21.286  25.522  1.00  0.00     0.338 C 
ATOM     32  O   UNL A   1      38.601  20.162  25.470  1.00  0.00    -0.246 OA
BRANCH  31  33
ATOM     33  C   UNL A   1      38.846  22.444  26.095  1.00  0.00     0.060 A 
ATOM     34  C   UNL A   1      38.347  23.739  25.945  1.00  0.00     0.016 A 
ATOM     35  C   UNL A   1      40.078  22.238  26.715  1.00  0.00     0.016 A 
ATOM     36  C   UNL A   1      39.106  24.837  26.340  1.00  0.00     0.010 A 
ATOM     37  C   UNL A   1      40.802  23.335  27.187  1.00  0.00     0.010 A 
ATOM     38  C   UNL A   1      40.336  24.646  26.977  1.00  0.00    -0.014 A 
BRANCH  38  39
ATOM     39  C   UNL A   1      41.159  25.807  27.397  1.00  0.00     0.031 A 
ATOM     40  C   UNL A   1      40.597  26.810  28.365  1.00  0.00     0.074 A 
ATOM     41  C   UNL A   1      42.396  25.977  26.893  1.00  0.00     0.049 A 
ATOM     42  N   UNL A   1      41.062  27.987  28.698  1.00  0.00    -0.248 NA
ATOM     43  C   UNL A   1      39.338  26.448  29.037  1.00  0.00     0.031 C 
ATOM     44  C   UNL A   1      43.078  25.058  25.981  1.00  0.00     0.029 A 
ATOM     45  N   UNL A   1      43.295  26.999  27.069  1.00  0.00    -0.354 N 
ATOM     46  C   UNL A   1      40.127  28.529  29.569  1.00  0.00     0.074 A 
ATOM     47  C   UNL A   1      39.070  27.552  29.722  1.00  0.00     0.031 C 
ATOM     48  C   UNL A   1      44.289  25.554  25.682  1.00  0.00     0.029 A 
ATOM     49  C   UNL A   1      44.437  26.856  26.321  1.00  0.00     0.049 A 
ATOM     50  H   UNL A   1      43.136  27.760  27.674  1.00  0.00     0.167 HD
ATOM     51  C   UNL A   1      40.145  29.738  30.179  1.00  0.00     0.031 A 
ATOM     52  C   UNL A   1      45.469  27.699  26.130  1.00  0.00     0.031 A 
ATOM     53  C   UNL A   1      41.217  30.689  30.061  1.00  0.00     0.049 A 
ATOM     54  C   UNL A   1      45.454  29.042  26.800  1.00  0.00     0.074 A 
ATOM     55  C   UNL A   1      41.341  31.927  30.667  1.00  0.00     0.029 A 
ATOM     56  N   UNL A   1      42.355  30.502  29.293  1.00  0.00    -0.354 N 
ATOM     57  N   UNL A   1      44.552  29.554  27.602  1.00  0.00    -0.248 NA
ATOM     58  C   UNL A   1      46.595  29.928  26.530  1.00  0.00     0.031 C 
ATOM     59  C   UNL A   1      42.541  32.505  30.237  1.00  0.00     0.029 A 
ATOM     60  C   UNL A   1      43.179  31.609  29.396  1.00  0.00     0.049 A 
ATOM     61  H   UNL A   1      42.548  29.701  28.755  1.00  0.00     0.167 HD
ATOM     62  C   UNL A   1      45.021  30.815  27.940  1.00  0.00     0.074 A 
ATOM     63  C   UNL A   1      46.296  30.983  27.275  1.00  0.00     0.031 C 
ATOM     64  C   UNL A   1      44.444  31.755  28.727  1.00  0.00     0.031 A 
BRANCH  51  65
ATOM     65  C   UNL A   1      38.947  30.122  30.998  1.00  0.00    -0.014 A 
ATOM     66  C   UNL A   1      37.843  30.770  30.427  1.00  0.00     0.009 A 
ATOM     67  C   UNL A   1      38.908  29.779  32.359  1.00  0.00     0.009 A 
ATOM     68  C   UNL A   1      36.730  31.086  31.209  1.00  0.00     0.001 A 
ATOM     69  C   UNL A   1      37.786  30.076  33.134  1.00  0.00     0.001 A 
ATOM     70  C   UNL A   1      36.699  30.734  32.559  1.00  0.00     0.000 A 
ENDBRANCH  51  65
BRANCH  52  71
ATOM     71  C   UNL A   1      46.573  27.323  25.212  1.00  0.00    -0.014 A 
ATOM     72  C   UNL A   1      46.744  27.985  23.988  1.00  0.00     0.009 A 
ATOM     73  C   UNL A   1      47.462  26.291  25.558  1.00  0.00     0.009 A 
ATOM     74  C   UNL A   1      47.768  27.606  23.118  1.00  0.00     0.001 A 
ATOM     75  C   UNL A   1      48.502  25.934  24.698  1.00  0.00     0.001 A 
ATOM     76  C   UNL A   1      48.649  26.585  23.475  1.00  0.00     0.000 A 
ENDBRANCH  52  71
BRANCH  64  77
ATOM     77  C   UNL A   1      45.204  33.032  28.931  1.00  0.00    -0.014 A 
ATOM     78  C   UNL A   1      46.163  33.148  29.949  1.00  0.00     0.009 A 
ATOM     79  C   UNL A   1      44.979  34.119  28.074  1.00  0.00     0.009 A 
ATOM     80  C   UNL A   1      46.864  34.343  30.121  1.00  0.00     0.001 A 
ATOM     81  C   UNL A   1      45.697  35.305  28.236  1.00  0.00     0.001 A 
ATOM     82  C   UNL A   1      46.632  35.418  29.263  1.00  0.00     0.000 A 
ENDBRANCH  64  77
ENDBRANCH  38  39
ENDBRANCH  31  33
ENDBRANCH  30  31
ENDBRANCH  29  30
ENDBRANCH  28  29
ENDBRANCH  27  28
ENDBRANCH   1  27
TORSDOF 17
ENDMDL
MODEL 2
REMARK VINA RESULT:     -11.1      3.080      6.209
REMARK SMILES COCCNC(=O)c1cccc(NC(=O)[C@@H]2CCCC[C@H]2C(=O)OCCOC(=O)c2ccc(-c3c4nc(c(-c5ccccc5)c5ccc([nH]5)c(-c5ccccc5)c5nc(c(-c6ccccc6)c6ccc3[nH]6)C=C5)C=C4)cc2)c1
REMARK SMILES IDX 22 1 23 2 21 3 16 4 17 5 18 6 20 7 19 8 14 9 13 10 15 12
REMARK SMILES IDX 12 13 8 14 9 15 78 16 10 17 11 18 6 19 5 20 7 22 4 23 3 24
REMARK SMILES IDX 2 25 1 26 24 27 25 28 26 29 27 30 28 31 29 32 30 33 31 34
REMARK SMILES IDX 77 35 32 36 76 37 33 38 34 39 35 40 70 41 36 42 75 43 69 44
REMARK SMILES IDX 71 45 37 46 74 47 68 48 67 49 38 51 60 52 45 53 59 54 46 55
REMARK SMILES IDX 49 56 58 57 72 58 47 59 48 60 57 62 73 63 50 64 39 65 40 66
REMARK SMILES IDX 44 67 41 68 43 69 42 70 61 71 62 72 66 73 63 74 65 75 64 76
REMARK SMILES IDX 51 77 52 78 56 79 53 80 55 81 54 82
REMARK H PARENT 13 11 5 21 71 50 49 61
REMARK Flexibility Score: inf
ROOT
ATOM      1  C   UNL A   1      32.224  25.776  26.277  1.00  0.00     0.309 C 
ATOM      2  O   UNL A   1      31.113  25.517  26.726  1.00  0.00    -0.252 OA
ENDROOT
BRANCH   1   3
ATOM      3  C   UNL A   1      33.036  24.743  25.509  1.00  0.00     0.111 C 
ATOM      4  C   UNL A   1      32.812  24.718  23.979  1.00  0.00     0.093 C 
ATOM      5  C   UNL A   1      33.752  23.679  23.344  1.00  0.00     0.014 C 
ATOM      6  C   UNL A   1      35.213  23.973  23.659  1.00  0.00     0.001 C 
ATOM      7  C   UNL A   1      34.511  25.017  25.839  1.00  0.00     0.016 C 
ATOM      8  C   UNL A   1      35.450  24.029  25.161  1.00  0.00     0.001 C 
BRANCH   4   9
ATOM      9  C   UNL A   1      31.389  24.343  23.599  1.00  0.00     0.228 C 
ATOM     10  N   UNL A   1      30.431  25.254  23.277  1.00  0.00    -0.326 N 
ATOM     11  H   UNL A   1      29.596  24.825  22.980  1.00  0.00     0.169 HD
ATOM     12  O   UNL A   1      31.072  23.155  23.488  1.00  0.00    -0.274 OA
BRANCH  10  13
ATOM     13  C   UNL A   1      30.335  26.658  23.263  1.00  0.00     0.041 A 
ATOM     14  C   UNL A   1      28.817  28.570  23.190  1.00  0.00     0.041 A 
ATOM     15  C   UNL A   1      29.901  29.447  23.190  1.00  0.00     0.014 A 
ATOM     16  C   UNL A   1      29.035  27.186  23.211  1.00  0.00     0.040 A 
ATOM     17  C   UNL A   1      31.192  28.937  23.253  1.00  0.00     0.003 A 
ATOM     18  C   UNL A   1      31.404  27.554  23.294  1.00  0.00     0.026 A 
BRANCH  14  19
ATOM     19  C   UNL A   1      27.462  29.131  23.014  1.00  0.00     0.251 C 
ATOM     20  N   UNL A   1      27.246  30.221  22.216  1.00  0.00    -0.350 N 
ATOM     21  H   UNL A   1      26.390  30.684  22.370  1.00  0.00     0.163 HD
ATOM     22  O   UNL A   1      26.519  28.610  23.604  1.00  0.00    -0.269 OA
BRANCH  20  23
ATOM     23  C   UNL A   1      28.080  30.807  21.174  1.00  0.00     0.144 C 
BRANCH  23  24
ATOM     24  C   UNL A   1      28.331  32.306  21.386  1.00  0.00     0.181 C 
BRANCH  24  25
ATOM     25  O   UNL A   1      28.210  32.703  22.755  1.00  0.00    -0.383 OA
ATOM     26  C   UNL A   1      29.196  33.634  23.179  1.00  0.00     0.194 C 
ENDBRANCH  24  25
ENDBRANCH  23  24
ENDBRANCH  20  23
ENDBRANCH  14  19
ENDBRANCH  10  13
ENDBRANCH   4   9
ENDBRANCH   1   3
BRANCH   1  27
ATOM     27  O   UNL A   1      32.885  26.947  26.474  1.00  0.00    -0.462 OA
BRANCH  27  28
ATOM     28  C   UNL A   1      32.064  28.046  26.919  1.00  0.00     0.274 C 
BRANCH  28  29
ATOM     29  C   UNL A   1      32.833  29.363  26.851  1.00  0.00     0.275 C 
BRANCH  29  30
ATOM     30  O   UNL A   1      33.950  29.310  27.751  1.00  0.00    -0.458 OA
BRANCH  30  31
ATOM     31  C   UNL A   1      34.677  30.446  27.856  1.00  0.00     0.338 C 
ATOM     32  O   UNL A   1      34.302  31.584  27.628  1.00  0.00    -0.246 OA
BRANCH  31  33
ATOM     33  C   UNL A   1      36.059  30.104  28.244  1.00  0.00     0.060 A 
ATOM     34  C   UNL A   1      37.108  30.217  27.329  1.00  0.00     0.016 A 
ATOM     35  C   UNL A   1      36.294  29.577  29.514  1.00  0.00     0.016 A 
ATOM     36  C   UNL A   1      38.376  29.737  27.648  1.00  0.00     0.010 A 
ATOM     37  C   UNL A   1      37.584  29.173  29.862  1.00  0.00     0.010 A 
ATOM     38  C   UNL A   1      38.630  29.222  28.922  1.00  0.00    -0.014 A 
BRANCH  38  39
ATOM     39  C   UNL A   1      39.974  28.700  29.273  1.00  0.00     0.031 A 
ATOM     40  C   UNL A   1      40.947  29.576  30.010  1.00  0.00     0.074 A 
ATOM     41  C   UNL A   1      40.332  27.454  28.909  1.00  0.00     0.049 A 
ATOM     42  N   UNL A   1      42.224  29.392  30.228  1.00  0.00    -0.248 NA
ATOM     43  C   UNL A   1      40.418  30.834  30.564  1.00  0.00     0.031 C 
ATOM     44  C   UNL A   1      39.472  26.484  28.230  1.00  0.00     0.029 A 
ATOM     45  N   UNL A   1      41.529  26.796  29.049  1.00  0.00    -0.354 N 
ATOM     46  C   UNL A   1      42.662  30.532  30.888  1.00  0.00     0.074 A 
ATOM     47  C   UNL A   1      41.515  31.401  31.045  1.00  0.00     0.031 C 
ATOM     48  C   UNL A   1      40.165  25.355  28.017  1.00  0.00     0.029 A 
ATOM     49  C   UNL A   1      41.535  25.547  28.478  1.00  0.00     0.049 A 
ATOM     50  H   UNL A   1      42.306  27.182  29.515  1.00  0.00     0.167 HD
ATOM     51  C   UNL A   1      43.911  30.830  31.317  1.00  0.00     0.031 A 
ATOM     52  C   UNL A   1      42.542  24.672  28.300  1.00  0.00     0.031 A 
ATOM     53  C   UNL A   1      45.040  29.946  31.200  1.00  0.00     0.049 A 
ATOM     54  C   UNL A   1      43.922  25.036  28.765  1.00  0.00     0.074 A 
ATOM     55  C   UNL A   1      46.339  30.146  31.635  1.00  0.00     0.029 A 
ATOM     56  N   UNL A   1      45.001  28.691  30.615  1.00  0.00    -0.354 N 
ATOM     57  N   UNL A   1      44.330  26.128  29.366  1.00  0.00    -0.248 NA
ATOM     58  C   UNL A   1      44.984  24.050  28.517  1.00  0.00     0.031 C 
ATOM     59  C   UNL A   1      47.095  29.023  31.281  1.00  0.00     0.029 A 
ATOM     60  C   UNL A   1      46.256  28.110  30.662  1.00  0.00     0.049 A 
ATOM     61  H   UNL A   1      44.199  28.275  30.225  1.00  0.00     0.167 HD
ATOM     62  C   UNL A   1      45.690  25.956  29.577  1.00  0.00     0.074 A 
ATOM     63  C   UNL A   1      46.035  24.648  29.060  1.00  0.00     0.031 C 
ATOM     64  C   UNL A   1      46.577  26.808  30.144  1.00  0.00     0.031 A 
BRANCH  51  65
ATOM     65  C   UNL A   1      44.137  32.188  31.917  1.00  0.00    -0.014 A 
ATOM     66  C   UNL A   1      44.028  32.409  33.297  1.00  0.00     0.009 A 
ATOM     67  C   UNL A   1      44.519  33.252  31.083  1.00  0.00     0.009 A 
ATOM     68  C   UNL A   1      44.276  33.677  33.828  1.00  0.00     0.001 A 
ATOM     69  C   UNL A   1      44.787  34.512  31.619  1.00  0.00     0.001 A 
ATOM     70  C   UNL A   1      44.661  34.725  32.991  1.00  0.00     0.000 A 
ENDBRANCH  51  65
BRANCH  52  71
ATOM     71  C   UNL A   1      42.294  23.392  27.590  1.00  0.00    -0.014 A 
ATOM     72  C   UNL A   1      42.621  23.250  26.234  1.00  0.00     0.009 A 
ATOM     73  C   UNL A   1      41.723  22.304  28.271  1.00  0.00     0.009 A 
ATOM     74  C   UNL A   1      42.358  22.051  25.568  1.00  0.00     0.001 A 
ATOM     75  C   UNL A   1      41.488  21.098  27.609  1.00  0.00     0.001 A 
ATOM     76  C   UNL A   1      41.798  20.976  26.256  1.00  0.00     0.000 A 
ENDBRANCH  52  71
BRANCH  64  77
ATOM     77  C   UNL A   1      47.997  26.337  30.258  1.00  0.00    -0.014 A 
ATOM     78  C   UNL A   1      48.464  25.726  31.431  1.00  0.00     0.009 A 
ATOM     79  C   UNL A   1      48.866  26.478  29.166  1.00  0.00     0.009 A 
ATOM     80  C   UNL A   1      49.787  25.289  31.517  1.00  0.00     0.001 A 
ATOM     81  C   UNL A   1      50.182  26.021  29.248  1.00  0.00     0.001 A 
ATOM     82  C   UNL A   1      50.642  25.434  30.426  1.00  0.00     0.000 A 
ENDBRANCH  64  77
ENDBRANCH  38  39
ENDBRANCH  31  33
ENDBRANCH  30  31
ENDBRANCH  29  30
ENDBRANCH  28  29
ENDBRANCH  27  28
ENDBRANCH   1  27
TORSDOF 17
ENDMDL
MODEL 3
REMARK VINA RESULT:     -10.9      2.996      6.416
REMARK SMILES COCCNC(=O)c1cccc(NC(=O)[C@@H]2CCCC[C@H]2C(=O)OCCOC(=O)c2ccc(-c3c4nc(c(-c5ccccc5)c5ccc([nH]5)c(-c5ccccc5)c5nc(c(-c6ccccc6)c6ccc3[nH]6)C=C5)C=C4)cc2)c1
REMARK SMILES IDX 22 1 23 2 21 3 16 4 17 5 18 6 20 7 19 8 14 9 13 10 15 12
REMARK SMILES IDX 12 13 8 14 9 15 78 16 10 17 11 18 6 19 5 20 7 22 4 23 3 24
REMARK SMILES IDX 2 25 1 26 24 27 25 28 26 29 27 30 28 31 29 32 30 33 31 34
REMARK SMILES IDX 77 35 32 36 76 37 33 38 34 39 35 40 70 41 36 42 75 43 69 44
REMARK SMILES IDX 71 45 37 46 74 47 68 48 67 49 38 51 60 52 45 53 59 54 46 55
REMARK SMILES IDX 49 56 58 57 72 58 47 59 48 60 57 62 73 63 50 64 39 65 40 66
REMARK SMILES IDX 44 67 41 68 43 69 42 70 61 71 62 72 66 73 63 74 65 75 64 76
REMARK SMILES IDX 51 77 52 78 56 79 53 80 55 81 54 82
REMARK H PARENT 13 11 5 21 71 50 49 61
REMARK Flexibility Score: inf
ROOT
ATOM      1  C   UNL A   1      34.459  24.151  25.643  1.00  0.00     0.309 C 
ATOM      2  O   UNL A   1      34.858  25.279  25.375  1.00  0.00    -0.252 OA
ENDROOT
BRANCH   1   3
ATOM      3  C   UNL A   1      33.165  23.602  25.060  1.00  0.00     0.111 C 
ATOM      4  C   UNL A   1      31.941  24.543  25.143  1.00  0.00     0.093 C 
ATOM      5  C   UNL A   1      30.739  23.878  24.450  1.00  0.00     0.014 C 
ATOM      6  C   UNL A   1      31.044  23.534  22.999  1.00  0.00     0.001 C 
ATOM      7  C   UNL A   1      33.469  23.231  23.600  1.00  0.00     0.016 C 
ATOM      8  C   UNL A   1      32.263  22.630  22.892  1.00  0.00     0.001 C 
BRANCH   4   9
ATOM      9  C   UNL A   1      31.533  24.852  26.574  1.00  0.00     0.228 C 
ATOM     10  N   UNL A   1      31.390  26.115  27.060  1.00  0.00    -0.326 N 
ATOM     11  H   UNL A   1      31.042  26.120  27.981  1.00  0.00     0.169 HD
ATOM     12  O   UNL A   1      31.229  23.934  27.342  1.00  0.00    -0.274 OA
BRANCH  10  13
ATOM     13  C   UNL A   1      31.615  27.417  26.574  1.00  0.00     0.041 A 
ATOM     14  C   UNL A   1      31.286  28.949  24.701  1.00  0.00     0.041 A 
ATOM     15  C   UNL A   1      31.980  29.949  25.380  1.00  0.00     0.014 A 
ATOM     16  C   UNL A   1      31.119  27.687  25.288  1.00  0.00     0.040 A 
ATOM     17  C   UNL A   1      32.466  29.696  26.657  1.00  0.00     0.003 A 
ATOM     18  C   UNL A   1      32.278  28.442  27.249  1.00  0.00     0.026 A 
BRANCH  14  19
ATOM     19  C   UNL A   1      30.876  29.204  23.305  1.00  0.00     0.251 C 
ATOM     20  N   UNL A   1      29.800  29.999  23.018  1.00  0.00    -0.350 N 
ATOM     21  H   UNL A   1      29.438  29.895  22.108  1.00  0.00     0.163 HD
ATOM     22  O   UNL A   1      31.510  28.684  22.391  1.00  0.00    -0.269 OA
BRANCH  20  23
ATOM     23  C   UNL A   1      29.103  30.977  23.845  1.00  0.00     0.144 C 
BRANCH  23  24
ATOM     24  C   UNL A   1      27.839  31.531  23.174  1.00  0.00     0.181 C 
BRANCH  24  25
ATOM     25  O   UNL A   1      28.106  32.643  22.314  1.00  0.00    -0.383 OA
ATOM     26  C   UNL A   1      28.028  32.337  20.929  1.00  0.00     0.194 C 
ENDBRANCH  24  25
ENDBRANCH  23  24
ENDBRANCH  20  23
ENDBRANCH  14  19
ENDBRANCH  10  13
ENDBRANCH   4   9
ENDBRANCH   1   3
BRANCH   1  27
ATOM     27  O   UNL A   1      35.054  23.309  26.529  1.00  0.00    -0.462 OA
BRANCH  27  28
ATOM     28  C   UNL A   1      35.475  22.043  25.982  1.00  0.00     0.274 C 
BRANCH  28  29
ATOM     29  C   UNL A   1      36.870  22.151  25.371  1.00  0.00     0.275 C 
BRANCH  29  30
ATOM     30  O   UNL A   1      37.552  23.281  25.935  1.00  0.00    -0.458 OA
BRANCH  30  31
ATOM     31  C   UNL A   1      38.842  23.076  26.286  1.00  0.00     0.338 C 
ATOM     32  O   UNL A   1      39.496  22.059  26.129  1.00  0.00    -0.246 OA
BRANCH  31  33
ATOM     33  C   UNL A   1      39.358  24.281  26.966  1.00  0.00     0.060 A 
ATOM     34  C   UNL A   1      39.057  24.530  28.306  1.00  0.00     0.016 A 
ATOM     35  C   UNL A   1      40.078  25.218  26.226  1.00  0.00     0.016 A 
ATOM     36  C   UNL A   1      39.404  25.745  28.892  1.00  0.00     0.010 A 
ATOM     37  C   UNL A   1      40.499  26.400  26.837  1.00  0.00     0.010 A 
ATOM     38  C   UNL A   1      40.141  26.687  28.167  1.00  0.00    -0.014 A 
BRANCH  38  39
ATOM     39  C   UNL A   1      40.512  27.988  28.777  1.00  0.00     0.031 A 
ATOM     40  C   UNL A   1      41.880  28.172  29.370  1.00  0.00     0.074 A 
ATOM     41  C   UNL A   1      39.617  28.993  28.823  1.00  0.00     0.049 A 
ATOM     42  N   UNL A   1      42.331  29.143  30.123  1.00  0.00    -0.248 NA
ATOM     43  C   UNL A   1      42.870  27.118  29.090  1.00  0.00     0.031 C 
ATOM     44  C   UNL A   1      38.271  28.963  28.248  1.00  0.00     0.029 A 
ATOM     45  N   UNL A   1      39.705  30.236  29.399  1.00  0.00    -0.354 N 
ATOM     46  C   UNL A   1      43.631  28.789  30.456  1.00  0.00     0.074 A 
ATOM     47  C   UNL A   1      43.905  27.519  29.817  1.00  0.00     0.031 C 
ATOM     48  C   UNL A   1      37.663  30.134  28.494  1.00  0.00     0.029 A 
ATOM     49  C   UNL A   1      38.545  30.964  29.304  1.00  0.00     0.049 A 
ATOM     50  H   UNL A   1      40.521  30.572  29.836  1.00  0.00     0.167 HD
ATOM     51  C   UNL A   1      44.514  29.460  31.232  1.00  0.00     0.031 A 
ATOM     52  C   UNL A   1      38.209  32.148  29.850  1.00  0.00     0.031 A 
ATOM     53  C   UNL A   1      44.257  30.743  31.829  1.00  0.00     0.049 A 
ATOM     54  C   UNL A   1      39.198  32.862  30.724  1.00  0.00     0.074 A 
ATOM     55  C   UNL A   1      45.102  31.518  32.605  1.00  0.00     0.029 A 
ATOM     56  N   UNL A   1      43.069  31.444  31.707  1.00  0.00    -0.354 N 
ATOM     57  N   UNL A   1      40.417  32.505  31.053  1.00  0.00    -0.248 NA
ATOM     58  C   UNL A   1      38.762  34.136  31.313  1.00  0.00     0.031 C 
ATOM     59  C   UNL A   1      44.411  32.675  32.981  1.00  0.00     0.029 A 
ATOM     60  C   UNL A   1      43.151  32.636  32.406  1.00  0.00     0.049 A 
ATOM     61  H   UNL A   1      42.283  31.141  31.197  1.00  0.00     0.167 HD
ATOM     62  C   UNL A   1      40.896  33.514  31.876  1.00  0.00     0.074 A 
ATOM     63  C   UNL A   1      39.846  34.507  31.980  1.00  0.00     0.031 C 
ATOM     64  C   UNL A   1      42.096  33.609  32.495  1.00  0.00     0.031 A 
BRANCH  51  65
ATOM     65  C   UNL A   1      45.832  28.800  31.519  1.00  0.00    -0.014 A 
ATOM     66  C   UNL A   1      45.988  27.901  32.583  1.00  0.00     0.009 A 
ATOM     67  C   UNL A   1      46.923  29.049  30.669  1.00  0.00     0.009 A 
ATOM     68  C   UNL A   1      47.219  27.278  32.803  1.00  0.00     0.001 A 
ATOM     69  C   UNL A   1      48.145  28.409  30.880  1.00  0.00     0.001 A 
ATOM     70  C   UNL A   1      48.294  27.527  31.949  1.00  0.00     0.000 A 
ENDBRANCH  51  65
BRANCH  52  71
ATOM     71  C   UNL A   1      36.848  32.702  29.637  1.00  0.00    -0.014 A 
ATOM     72  C   UNL A   1      36.555  33.462  28.496  1.00  0.00     0.009 A 
ATOM     73  C   UNL A   1      35.834  32.474  30.583  1.00  0.00     0.009 A 
ATOM     74  C   UNL A   1      35.280  34.002  28.317  1.00  0.00     0.001 A 
ATOM     75  C   UNL A   1      34.553  32.992  30.386  1.00  0.00     0.001 A 
ATOM     76  C   UNL A   1      34.279  33.763  29.258  1.00  0.00     0.000 A 
ENDBRANCH  52  71
BRANCH  64  77
ATOM     77  C   UNL A   1      42.344  34.841  33.315  1.00  0.00    -0.014 A 
ATOM     78  C   UNL A   1      41.976  34.895  34.668  1.00  0.00     0.009 A 
ATOM     79  C   UNL A   1      42.981  35.947  32.734  1.00  0.00     0.009 A 
ATOM     80  C   UNL A   1      42.217  36.048  35.417  1.00  0.00     0.001 A 
ATOM     81  C   UNL A   1      43.240  37.090  33.491  1.00  0.00     0.001 A 
ATOM     82  C   UNL A   1      42.852  37.142  34.828  1.00  0.00     0.000 A 
ENDBRANCH  64  77
ENDBRANCH  38  39
ENDBRANCH  31  33
ENDBRANCH  30  31
ENDBRANCH  29  30
ENDBRANCH  28  29
ENDBRANCH  27  28
ENDBRANCH   1  27
TORSDOF 17
ENDMDL
