MODEL 1
REMARK VINA RESULT:     -11.4      0.000      0.000
REMARK SMILES Cc1nccnc1N1CCC2(CCC(=O)N([C@@H](C)C(=O)OCCOC(=O)c3ccc(-c4c5nc(c(-c6ccccc6)c6ccc([nH]6)c(-c6ccccc6)c6nc(c(-c7ccccc7)c7ccc4[nH]7)C=C6)C=C5)cc3)C2)CC1
REMARK SMILES IDX 22 1 21 2 19 3 20 4 17 5 18 6 16 7 8 8 9 9 77 10 10 11 76 12
REMARK SMILES IDX 11 13 12 14 75 15 13 16 14 17 15 18 7 19 1 20 2 21 3 22 4 23
REMARK SMILES IDX 6 24 5 25 23 26 24 27 25 28 26 29 27 30 28 31 74 32 29 33
REMARK SMILES IDX 73 34 30 35 31 36 32 37 67 38 33 39 72 40 66 41 68 42 34 43
REMARK SMILES IDX 71 44 65 45 64 46 35 48 57 49 42 50 56 51 43 52 46 53 55 54
REMARK SMILES IDX 69 55 44 56 45 57 54 59 70 60 47 61 36 62 37 63 41 64 38 65
REMARK SMILES IDX 40 66 39 67 58 68 59 69 63 70 60 71 62 72 61 73 48 74 49 75
REMARK SMILES IDX 53 76 50 77 52 78 51 79
REMARK H PARENT 68 47 46 58
REMARK Flexibility Score: inf
ROOT
ATOM      1  C   UNL A   1      38.510  21.031  25.712  1.00  0.00     0.274 C 
ENDROOT
BRANCH   1   2
ATOM      2  O   UNL A   1      37.182  21.013  25.148  1.00  0.00    -0.461 OA
BRANCH   2   3
ATOM      3  C   UNL A   1      36.408  22.114  25.325  1.00  0.00     0.328 C 
ATOM      4  O   UNL A   1      36.633  22.983  26.167  1.00  0.00    -0.250 OA
BRANCH   3   5
ATOM      5  C   UNL A   1      35.228  22.231  24.327  1.00  0.00     0.192 C 
ATOM      6  C   UNL A   1      35.629  23.098  23.133  1.00  0.00     0.044 C 
BRANCH   5   7
ATOM      7  N   UNL A   1      33.881  22.547  24.858  1.00  0.00    -0.329 N 
ATOM      8  N   UNL A   1      30.431  26.473  24.151  1.00  0.00    -0.355 N 
ATOM      9  C   UNL A   1      30.252  25.151  23.573  1.00  0.00     0.119 C 
ATOM     10  C   UNL A   1      30.656  26.470  25.588  1.00  0.00     0.119 C 
ATOM     11  C   UNL A   1      31.562  24.399  23.773  1.00  0.00     0.030 C 
ATOM     12  C   UNL A   1      31.992  25.764  25.859  1.00  0.00     0.030 C 
ATOM     13  C   UNL A   1      32.106  24.347  25.219  1.00  0.00    -0.008 C 
ATOM     14  C   UNL A   1      31.374  23.302  26.077  1.00  0.00     0.019 C 
ATOM     15  C   UNL A   1      33.600  23.943  25.198  1.00  0.00     0.127 C 
ATOM     16  C   UNL A   1      31.627  21.873  25.611  1.00  0.00     0.101 C 
ATOM     17  C   UNL A   1      33.073  21.521  25.311  1.00  0.00     0.223 C 
ATOM     18  O   UNL A   1      33.447  20.350  25.366  1.00  0.00    -0.275 OA
BRANCH   8  19
ATOM     19  C   UNL A   1      29.820  27.536  23.511  1.00  0.00     0.150 A 
ATOM     20  C   UNL A   1      32.026  28.453  22.607  1.00  0.00     0.071 C 
ATOM     21  C   UNL A   1      30.535  28.502  22.768  1.00  0.00     0.080 A 
ATOM     22  N   UNL A   1      29.921  29.509  22.079  1.00  0.00    -0.256 NA
ATOM     23  C   UNL A   1      28.576  29.518  22.123  1.00  0.00     0.131 A 
ATOM     24  N   UNL A   1      28.464  27.577  23.519  1.00  0.00    -0.236 NA
ATOM     25  C   UNL A   1      27.865  28.569  22.825  1.00  0.00     0.133 A 
ENDBRANCH   8  19
ENDBRANCH   5   7
ENDBRANCH   3   5
ENDBRANCH   2   3
ENDBRANCH   1   2
BRANCH   1  26
ATOM     26  C   UNL A   1      39.292  19.763  25.328  1.00  0.00     0.275 C 
BRANCH  26  27
ATOM     27  O   UNL A   1      40.269  19.385  26.327  1.00  0.00    -0.458 OA
BRANCH  27  28
ATOM     28  C   UNL A   1      41.523  19.739  25.980  1.00  0.00     0.338 C 
ATOM     29  O   UNL A   1      42.255  19.117  25.235  1.00  0.00    -0.246 OA
BRANCH  28  30
ATOM     30  C   UNL A   1      41.966  21.034  26.494  1.00  0.00     0.060 A 
ATOM     31  C   UNL A   1      41.752  21.278  27.853  1.00  0.00     0.016 A 
ATOM     32  C   UNL A   1      42.358  22.061  25.638  1.00  0.00     0.016 A 
ATOM     33  C   UNL A   1      41.926  22.554  28.368  1.00  0.00     0.010 A 
ATOM     34  C   UNL A   1      42.570  23.341  26.164  1.00  0.00     0.010 A 
ATOM     35  C   UNL A   1      42.357  23.593  27.529  1.00  0.00    -0.014 A 
BRANCH  35  36
ATOM     36  C   UNL A   1      42.680  24.905  28.133  1.00  0.00     0.031 A 
ATOM     37  C   UNL A   1      44.068  25.242  28.588  1.00  0.00     0.074 A 
ATOM     38  C   UNL A   1      41.688  25.810  28.235  1.00  0.00     0.049 A 
ATOM     39  N   UNL A   1      44.499  26.349  29.139  1.00  0.00    -0.248 NA
ATOM     40  C   UNL A   1      45.104  24.215  28.404  1.00  0.00     0.031 C 
ATOM     41  C   UNL A   1      40.304  25.593  27.801  1.00  0.00     0.029 A 
ATOM     42  N   UNL A   1      41.688  27.090  28.723  1.00  0.00    -0.354 N 
ATOM     43  C   UNL A   1      45.852  26.150  29.380  1.00  0.00     0.074 A 
ATOM     44  C   UNL A   1      46.170  24.812  28.923  1.00  0.00     0.031 C 
ATOM     45  C   UNL A   1      39.595  26.709  28.027  1.00  0.00     0.029 A 
ATOM     46  C   UNL A   1      40.456  27.694  28.666  1.00  0.00     0.049 A 
ATOM     47  H   UNL A   1      42.492  27.533  29.080  1.00  0.00     0.167 HD
ATOM     48  C   UNL A   1      46.742  27.008  29.936  1.00  0.00     0.031 A 
ATOM     49  C   UNL A   1      40.055  28.899  29.107  1.00  0.00     0.031 A 
ATOM     50  C   UNL A   1      46.417  28.334  30.396  1.00  0.00     0.049 A 
ATOM     51  C   UNL A   1      41.052  29.802  29.765  1.00  0.00     0.074 A 
ATOM     52  C   UNL A   1      47.258  29.285  30.952  1.00  0.00     0.029 A 
ATOM     53  N   UNL A   1      45.150  28.896  30.361  1.00  0.00    -0.354 N 
ATOM     54  N   UNL A   1      42.332  29.608  29.965  1.00  0.00    -0.248 NA
ATOM     55  C   UNL A   1      40.547  31.089  30.264  1.00  0.00     0.031 C 
ATOM     56  C   UNL A   1      46.490  30.403  31.297  1.00  0.00     0.029 A 
ATOM     57  C   UNL A   1      45.179  30.166  30.915  1.00  0.00     0.049 A 
ATOM     58  H   UNL A   1      44.348  28.456  29.998  1.00  0.00     0.167 HD
ATOM     59  C   UNL A   1      42.790  30.749  30.607  1.00  0.00     0.074 A 
ATOM     60  C   UNL A   1      41.655  31.640  30.741  1.00  0.00     0.031 C 
ATOM     61  C   UNL A   1      44.038  31.030  31.053  1.00  0.00     0.031 A 
BRANCH  48  62
ATOM     62  C   UNL A   1      48.153  26.530  30.114  1.00  0.00    -0.014 A 
ATOM     63  C   UNL A   1      48.549  25.847  31.275  1.00  0.00     0.009 A 
ATOM     64  C   UNL A   1      49.082  26.702  29.075  1.00  0.00     0.009 A 
ATOM     65  C   UNL A   1      49.854  25.362  31.396  1.00  0.00     0.001 A 
ATOM     66  C   UNL A   1      50.379  26.200  29.192  1.00  0.00     0.001 A 
ATOM     67  C   UNL A   1      50.765  25.534  30.354  1.00  0.00     0.000 A 
ENDBRANCH  48  62
BRANCH  49  68
ATOM     68  C   UNL A   1      38.631  29.293  28.976  1.00  0.00    -0.014 A 
ATOM     69  C   UNL A   1      38.135  29.807  27.770  1.00  0.00     0.009 A 
ATOM     70  C   UNL A   1      37.756  29.141  30.064  1.00  0.00     0.009 A 
ATOM     71  C   UNL A   1      36.793  30.178  27.663  1.00  0.00     0.001 A 
ATOM     72  C   UNL A   1      36.409  29.489  29.945  1.00  0.00     0.001 A 
ATOM     73  C   UNL A   1      35.931  30.014  28.747  1.00  0.00     0.000 A 
ENDBRANCH  49  68
BRANCH  61  74
ATOM     74  C   UNL A   1      44.228  32.361  31.717  1.00  0.00    -0.014 A 
ATOM     75  C   UNL A   1      44.562  33.499  30.967  1.00  0.00     0.009 A 
ATOM     76  C   UNL A   1      44.065  32.479  33.106  1.00  0.00     0.009 A 
ATOM     77  C   UNL A   1      44.762  34.726  31.602  1.00  0.00     0.001 A 
ATOM     78  C   UNL A   1      44.245  33.711  33.733  1.00  0.00     0.001 A 
ATOM     79  C   UNL A   1      44.602  34.831  32.983  1.00  0.00     0.000 A 
ENDBRANCH  61  74
ENDBRANCH  35  36
ENDBRANCH  28  30
ENDBRANCH  27  28
ENDBRANCH  26  27
ENDBRANCH   1  26
TORSDOF 13
ENDMDL
MODEL 2
REMARK VINA RESULT:     -11.3      0.404      5.860
REMARK SMILES Cc1nccnc1N1CCC2(CCC(=O)N([C@@H](C)C(=O)OCCOC(=O)c3ccc(-c4c5nc(c(-c6ccccc6)c6ccc([nH]6)c(-c6ccccc6)c6nc(c(-c7ccccc7)c7ccc4[nH]7)C=C6)C=C5)cc3)C2)CC1
REMARK SMILES IDX 22 1 21 2 19 3 20 4 17 5 18 6 16 7 8 8 9 9 77 10 10 11 76 12
REMARK SMILES IDX 11 13 12 14 75 15 13 16 14 17 15 18 7 19 1 20 2 21 3 22 4 23
REMARK SMILES IDX 6 24 5 25 23 26 24 27 25 28 26 29 27 30 28 31 74 32 29 33
REMARK SMILES IDX 73 34 30 35 31 36 32 37 67 38 33 39 72 40 66 41 68 42 34 43
REMARK SMILES IDX 71 44 65 45 64 46 35 48 57 49 42 50 56 51 43 52 46 53 55 54
REMARK SMILES IDX 69 55 44 56 45 57 54 59 70 60 47 61 36 62 37 63 41 64 38 65
REMARK SMILES IDX 40 66 39 67 58 68 59 69 63 70 60 71 62 72 61 73 48 74 49 75
REMARK SMILES IDX 53 76 50 77 52 78 51 79
REMARK H PARENT 68 47 46 58
REMARK Flexibility Score: inf
ROOT
ATOM      1  C   UNL A   1      38.456  21.057  25.457  1.00  0.00     0.274 C 
ENDROOT
BRANCH   1   2
ATOM      2  O   UNL A   1      37.249  21.085  24.668  1.00  0.00    -0.461 OA
BRANCH   2   3
ATOM      3  C   UNL A   1      36.130  21.592  25.246  1.00  0.00     0.328 C 
ATOM      4  O   UNL A   1      35.994  21.745  26.460  1.00  0.00    -0.250 OA
BRANCH   3   5
ATOM      5  C   UNL A   1      35.034  22.030  24.241  1.00  0.00     0.192 C 
ATOM      6  C   UNL A   1      35.607  23.031  23.237  1.00  0.00     0.044 C 
BRANCH   5   7
ATOM      7  N   UNL A   1      33.705  22.420  24.769  1.00  0.00    -0.329 N 
ATOM      8  N   UNL A   1      30.514  26.567  24.113  1.00  0.00    -0.355 N 
ATOM      9  C   UNL A   1      30.257  25.270  23.509  1.00  0.00     0.119 C 
ATOM     10  C   UNL A   1      30.727  26.524  25.551  1.00  0.00     0.119 C 
ATOM     11  C   UNL A   1      31.517  24.434  23.703  1.00  0.00     0.030 C 
ATOM     12  C   UNL A   1      32.014  25.731  25.818  1.00  0.00     0.030 C 
ATOM     13  C   UNL A   1      32.044  24.321  25.152  1.00  0.00    -0.008 C 
ATOM     14  C   UNL A   1      31.241  23.308  25.984  1.00  0.00     0.019 C 
ATOM     15  C   UNL A   1      33.510  23.824  25.134  1.00  0.00     0.127 C 
ATOM     16  C   UNL A   1      31.407  21.875  25.493  1.00  0.00     0.101 C 
ATOM     17  C   UNL A   1      32.831  21.439  25.197  1.00  0.00     0.223 C 
ATOM     18  O   UNL A   1      33.131  20.245  25.232  1.00  0.00    -0.275 OA
BRANCH   8  19
ATOM     19  C   UNL A   1      29.977  27.678  23.490  1.00  0.00     0.150 A 
ATOM     20  C   UNL A   1      32.260  28.557  22.755  1.00  0.00     0.071 C 
ATOM     21  C   UNL A   1      30.765  28.651  22.833  1.00  0.00     0.080 A 
ATOM     22  N   UNL A   1      30.224  29.708  22.158  1.00  0.00    -0.256 NA
ATOM     23  C   UNL A   1      28.880  29.762  22.127  1.00  0.00     0.131 A 
ATOM     24  N   UNL A   1      28.625  27.767  23.423  1.00  0.00    -0.236 NA
ATOM     25  C   UNL A   1      28.099  28.809  22.742  1.00  0.00     0.133 A 
ENDBRANCH   8  19
ENDBRANCH   5   7
ENDBRANCH   3   5
ENDBRANCH   2   3
ENDBRANCH   1   2
BRANCH   1  26
ATOM     26  C   UNL A   1      39.196  19.719  25.289  1.00  0.00     0.275 C 
BRANCH  26  27
ATOM     27  O   UNL A   1      40.149  19.470  26.351  1.00  0.00    -0.458 OA
BRANCH  27  28
ATOM     28  C   UNL A   1      41.407  19.809  26.003  1.00  0.00     0.338 C 
ATOM     29  O   UNL A   1      42.134  19.173  25.267  1.00  0.00    -0.246 OA
BRANCH  28  30
ATOM     30  C   UNL A   1      41.859  21.105  26.504  1.00  0.00     0.060 A 
ATOM     31  C   UNL A   1      41.665  21.356  27.865  1.00  0.00     0.016 A 
ATOM     32  C   UNL A   1      42.241  22.128  25.638  1.00  0.00     0.016 A 
ATOM     33  C   UNL A   1      41.850  22.634  28.372  1.00  0.00     0.010 A 
ATOM     34  C   UNL A   1      42.463  23.410  26.155  1.00  0.00     0.010 A 
ATOM     35  C   UNL A   1      42.271  23.669  27.522  1.00  0.00    -0.014 A 
BRANCH  35  36
ATOM     36  C   UNL A   1      42.605  24.982  28.115  1.00  0.00     0.031 A 
ATOM     37  C   UNL A   1      41.561  26.035  28.336  1.00  0.00     0.074 A 
ATOM     38  C   UNL A   1      43.882  25.198  28.483  1.00  0.00     0.049 A 
ATOM     39  N   UNL A   1      41.707  27.235  28.841  1.00  0.00    -0.248 NA
ATOM     40  C   UNL A   1      40.182  25.708  27.945  1.00  0.00     0.031 C 
ATOM     41  C   UNL A   1      44.975  24.231  28.334  1.00  0.00     0.029 A 
ATOM     42  N   UNL A   1      44.478  26.287  29.063  1.00  0.00    -0.354 N 
ATOM     43  C   UNL A   1      40.444  27.812  28.817  1.00  0.00     0.074 A 
ATOM     44  C   UNL A   1      39.544  26.834  28.241  1.00  0.00     0.031 C 
ATOM     45  C   UNL A   1      46.102  24.764  28.827  1.00  0.00     0.029 A 
ATOM     46  C   UNL A   1      45.824  26.123  29.275  1.00  0.00     0.049 A 
ATOM     47  H   UNL A   1      43.988  27.106  29.305  1.00  0.00     0.167 HD
ATOM     48  C   UNL A   1      40.076  29.047  29.237  1.00  0.00     0.031 A 
ATOM     49  C   UNL A   1      46.743  26.981  29.751  1.00  0.00     0.031 A 
ATOM     50  C   UNL A   1      40.978  30.018  29.802  1.00  0.00     0.049 A 
ATOM     51  C   UNL A   1      46.312  28.357  30.156  1.00  0.00     0.074 A 
ATOM     52  C   UNL A   1      40.692  31.288  30.277  1.00  0.00     0.029 A 
ATOM     53  N   UNL A   1      42.343  29.832  29.961  1.00  0.00    -0.354 N 
ATOM     54  N   UNL A   1      45.111  28.879  30.150  1.00  0.00    -0.248 NA
ATOM     55  C   UNL A   1      47.366  29.264  30.629  1.00  0.00     0.031 C 
ATOM     56  C   UNL A   1      41.891  31.887  30.680  1.00  0.00     0.029 A 
ATOM     57  C   UNL A   1      42.917  30.974  30.497  1.00  0.00     0.049 A 
ATOM     58  H   UNL A   1      42.832  29.010  29.728  1.00  0.00     0.167 HD
ATOM     59  C   UNL A   1      45.260  30.173  30.622  1.00  0.00     0.074 A 
ATOM     60  C   UNL A   1      46.666  30.349  30.929  1.00  0.00     0.031 C 
ATOM     61  C   UNL A   1      44.318  31.134  30.781  1.00  0.00     0.031 A 
BRANCH  48  62
ATOM     62  C   UNL A   1      38.637  29.440  29.071  1.00  0.00    -0.014 A 
ATOM     63  C   UNL A   1      38.130  29.831  27.822  1.00  0.00     0.009 A 
ATOM     64  C   UNL A   1      37.761  29.347  30.164  1.00  0.00     0.009 A 
ATOM     65  C   UNL A   1      36.775  30.139  27.678  1.00  0.00     0.001 A 
ATOM     66  C   UNL A   1      36.404  29.638  30.011  1.00  0.00     0.001 A 
ATOM     67  C   UNL A   1      35.913  30.038  28.770  1.00  0.00     0.000 A 
ENDBRANCH  48  62
BRANCH  49  68
ATOM     68  C   UNL A   1      48.167  26.569  29.823  1.00  0.00    -0.014 A 
ATOM     69  C   UNL A   1      48.670  25.918  30.958  1.00  0.00     0.009 A 
ATOM     70  C   UNL A   1      49.027  26.818  28.742  1.00  0.00     0.009 A 
ATOM     71  C   UNL A   1      50.013  25.540  31.014  1.00  0.00     0.001 A 
ATOM     72  C   UNL A   1      50.362  26.416  28.791  1.00  0.00     0.001 A 
ATOM     73  C   UNL A   1      50.856  25.784  29.930  1.00  0.00     0.000 A 
ENDBRANCH  49  68
BRANCH  61  74
ATOM     74  C   UNL A   1      44.790  32.453  31.318  1.00  0.00    -0.014 A 
ATOM     75  C   UNL A   1      45.199  33.478  30.452  1.00  0.00     0.009 A 
ATOM     76  C   UNL A   1      44.817  32.673  32.704  1.00  0.00     0.009 A 
ATOM     77  C   UNL A   1      45.661  34.690  30.967  1.00  0.00     0.001 A 
ATOM     78  C   UNL A   1      45.258  33.895  33.213  1.00  0.00     0.001 A 
ATOM     79  C   UNL A   1      45.688  34.898  32.345  1.00  0.00     0.000 A 
ENDBRANCH  61  74
ENDBRANCH  35  36
ENDBRANCH  28  30
ENDBRANCH  27  28
ENDBRANCH  26  27
ENDBRANCH   1  26
TORSDOF 13
ENDMDL
MODEL 3
REMARK VINA RESULT:     -11.2      3.672      8.101
REMARK SMILES Cc1nccnc1N1CCC2(CCC(=O)N([C@@H](C)C(=O)OCCOC(=O)c3ccc(-c4c5nc(c(-c6ccccc6)c6ccc([nH]6)c(-c6ccccc6)c6nc(c(-c7ccccc7)c7ccc4[nH]7)C=C6)C=C5)cc3)C2)CC1
REMARK SMILES IDX 22 1 21 2 19 3 20 4 17 5 18 6 16 7 8 8 9 9 77 10 10 11 76 12
REMARK SMILES IDX 11 13 12 14 75 15 13 16 14 17 15 18 7 19 1 20 2 21 3 22 4 23
REMARK SMILES IDX 6 24 5 25 23 26 24 27 25 28 26 29 27 30 28 31 74 32 29 33
REMARK SMILES IDX 73 34 30 35 31 36 32 37 67 38 33 39 72 40 66 41 68 42 34 43
REMARK SMILES IDX 71 44 65 45 64 46 35 48 57 49 42 50 56 51 43 52 46 53 55 54
REMARK SMILES IDX 69 55 44 56 45 57 54 59 70 60 47 61 36 62 37 63 41 64 38 65
REMARK SMILES IDX 40 66 39 67 58 68 59 69 63 70 60 71 62 72 61 73 48 74 49 75
REMARK SMILES IDX 53 76 50 77 52 78 51 79
REMARK H PARENT 68 47 46 58
REMARK Flexibility Score: inf
ROOT
ATOM      1  C   UNL A   1      31.114  29.472  24.358  1.00  0.00     0.274 C 
ENDROOT
BRANCH   1   2
ATOM      2  O   UNL A   1      30.897  28.070  24.622  1.00  0.00    -0.461 OA
BRANCH   2   3
ATOM      3  C   UNL A   1      31.827  27.192  24.168  1.00  0.00     0.328 C 
ATOM      4  O   UNL A   1      32.243  27.171  23.010  1.00  0.00    -0.250 OA
BRANCH   3   5
ATOM      5  C   UNL A   1      32.385  26.236  25.253  1.00  0.00     0.192 C 
ATOM      6  C   UNL A   1      33.390  26.971  26.141  1.00  0.00     0.044 C 
BRANCH   5   7
ATOM      7  N   UNL A   1      32.840  24.887  24.839  1.00  0.00    -0.329 N 
ATOM      8  N   UNL A   1      37.349  22.186  25.278  1.00  0.00    -0.355 N 
ATOM      9  C   UNL A   1      36.176  21.901  26.088  1.00  0.00     0.119 C 
ATOM     10  C   UNL A   1      37.096  22.199  23.846  1.00  0.00     0.119 C 
ATOM     11  C   UNL A   1      35.194  23.045  25.864  1.00  0.00     0.030 C 
ATOM     12  C   UNL A   1      36.144  23.364  23.541  1.00  0.00     0.030 C 
ATOM     13  C   UNL A   1      34.838  23.360  24.393  1.00  0.00    -0.008 C 
ATOM     14  C   UNL A   1      33.815  22.367  23.818  1.00  0.00     0.019 C 
ATOM     15  C   UNL A   1      34.197  24.767  24.304  1.00  0.00     0.127 C 
ATOM     16  C   UNL A   1      32.449  22.473  24.485  1.00  0.00     0.101 C 
ATOM     17  C   UNL A   1      31.908  23.880  24.666  1.00  0.00     0.223 C 
ATOM     18  O   UNL A   1      30.696  24.068  24.766  1.00  0.00    -0.275 OA
BRANCH   8  19
ATOM     19  C   UNL A   1      38.582  21.836  25.797  1.00  0.00     0.150 A 
ATOM     20  C   UNL A   1      38.933  24.115  26.896  1.00  0.00     0.071 C 
ATOM     21  C   UNL A   1      39.371  22.718  26.570  1.00  0.00     0.080 A 
ATOM     22  N   UNL A   1      40.555  22.344  27.139  1.00  0.00    -0.256 NA
ATOM     23  C   UNL A   1      40.924  21.064  26.946  1.00  0.00     0.131 A 
ATOM     24  N   UNL A   1      38.987  20.551  25.637  1.00  0.00    -0.236 NA
ATOM     25  C   UNL A   1      40.153  20.187  26.215  1.00  0.00     0.133 A 
ENDBRANCH   8  19
ENDBRANCH   5   7
ENDBRANCH   3   5
ENDBRANCH   2   3
ENDBRANCH   1   2
BRANCH   1  26
ATOM     26  C   UNL A   1      31.462  30.231  25.650  1.00  0.00     0.275 C 
BRANCH  26  27
ATOM     27  O   UNL A   1      32.883  30.238  25.928  1.00  0.00    -0.458 OA
BRANCH  27  28
ATOM     28  C   UNL A   1      33.227  31.184  26.826  1.00  0.00     0.338 C 
ATOM     29  O   UNL A   1      32.521  32.101  27.194  1.00  0.00    -0.246 OA
BRANCH  28  30
ATOM     30  C   UNL A   1      34.534  30.996  27.452  1.00  0.00     0.060 A 
ATOM     31  C   UNL A   1      34.837  29.709  27.903  1.00  0.00     0.016 A 
ATOM     32  C   UNL A   1      35.337  32.081  27.801  1.00  0.00     0.016 A 
ATOM     33  C   UNL A   1      35.946  29.495  28.709  1.00  0.00     0.010 A 
ATOM     34  C   UNL A   1      36.476  31.861  28.583  1.00  0.00     0.010 A 
ATOM     35  C   UNL A   1      36.787  30.569  29.039  1.00  0.00    -0.014 A 
BRANCH  35  36
ATOM     36  C   UNL A   1      38.042  30.288  29.771  1.00  0.00     0.031 A 
ATOM     37  C   UNL A   1      39.162  29.512  29.146  1.00  0.00     0.074 A 
ATOM     38  C   UNL A   1      38.164  30.781  31.018  1.00  0.00     0.049 A 
ATOM     39  N   UNL A   1      40.318  29.185  29.667  1.00  0.00    -0.248 NA
ATOM     40  C   UNL A   1      38.967  29.043  27.766  1.00  0.00     0.031 C 
ATOM     41  C   UNL A   1      37.143  31.571  31.714  1.00  0.00     0.029 A 
ATOM     42  N   UNL A   1      39.195  30.703  31.917  1.00  0.00    -0.354 N 
ATOM     43  C   UNL A   1      40.984  28.462  28.687  1.00  0.00     0.074 A 
ATOM     44  C   UNL A   1      40.101  28.390  27.541  1.00  0.00     0.031 C 
ATOM     45  C   UNL A   1      37.607  31.919  32.923  1.00  0.00     0.029 A 
ATOM     46  C   UNL A   1      38.929  31.335  33.107  1.00  0.00     0.049 A 
ATOM     47  H   UNL A   1      40.043  30.240  31.728  1.00  0.00     0.167 HD
ATOM     48  C   UNL A   1      42.220  27.908  28.746  1.00  0.00     0.031 A 
ATOM     49  C   UNL A   1      39.656  31.412  34.235  1.00  0.00     0.031 A 
ATOM     50  C   UNL A   1      43.090  27.976  29.892  1.00  0.00     0.049 A 
ATOM     51  C   UNL A   1      40.995  30.742  34.285  1.00  0.00     0.074 A 
ATOM     52  C   UNL A   1      44.370  27.464  30.035  1.00  0.00     0.029 A 
ATOM     53  N   UNL A   1      42.769  28.587  31.094  1.00  0.00    -0.354 N 
ATOM     54  N   UNL A   1      41.621  30.082  33.342  1.00  0.00    -0.248 NA
ATOM     55  C   UNL A   1      41.726  30.824  35.556  1.00  0.00     0.031 C 
ATOM     56  C   UNL A   1      44.804  27.725  31.340  1.00  0.00     0.029 A 
ATOM     57  C   UNL A   1      43.812  28.437  31.995  1.00  0.00     0.049 A 
ATOM     58  H   UNL A   1      41.925  29.058  31.281  1.00  0.00     0.167 HD
ATOM     59  C   UNL A   1      42.822  29.674  33.901  1.00  0.00     0.074 A 
ATOM     60  C   UNL A   1      42.847  30.182  35.259  1.00  0.00     0.031 C 
ATOM     61  C   UNL A   1      43.812  28.937  33.344  1.00  0.00     0.031 A 
BRANCH  48  62
ATOM     62  C   UNL A   1      42.699  27.143  27.546  1.00  0.00    -0.014 A 
ATOM     63  C   UNL A   1      42.436  25.772  27.406  1.00  0.00     0.009 A 
ATOM     64  C   UNL A   1      43.358  27.821  26.508  1.00  0.00     0.009 A 
ATOM     65  C   UNL A   1      42.842  25.092  26.255  1.00  0.00     0.001 A 
ATOM     66  C   UNL A   1      43.746  27.141  25.352  1.00  0.00     0.001 A 
ATOM     67  C   UNL A   1      43.491  25.777  25.228  1.00  0.00     0.000 A 
ENDBRANCH  48  62
BRANCH  49  68
ATOM     68  C   UNL A   1      39.104  32.114  35.420  1.00  0.00    -0.014 A 
ATOM     69  C   UNL A   1      39.297  33.492  35.593  1.00  0.00     0.009 A 
ATOM     70  C   UNL A   1      38.366  31.402  36.379  1.00  0.00     0.009 A 
ATOM     71  C   UNL A   1      38.776  34.139  36.715  1.00  0.00     0.001 A 
ATOM     72  C   UNL A   1      37.825  32.057  37.486  1.00  0.00     0.001 A 
ATOM     73  C   UNL A   1      38.037  33.423  37.657  1.00  0.00     0.000 A 
ENDBRANCH  49  68
BRANCH  61  74
ATOM     74  C   UNL A   1      45.003  28.651  34.209  1.00  0.00    -0.014 A 
ATOM     75  C   UNL A   1      46.151  29.456  34.143  1.00  0.00     0.009 A 
ATOM     76  C   UNL A   1      44.975  27.570  35.103  1.00  0.00     0.009 A 
ATOM     77  C   UNL A   1      47.263  29.163  34.934  1.00  0.00     0.001 A 
ATOM     78  C   UNL A   1      46.080  27.294  35.908  1.00  0.00     0.001 A 
ATOM     79  C   UNL A   1      47.225  28.084  35.817  1.00  0.00     0.000 A 
ENDBRANCH  61  74
ENDBRANCH  35  36
ENDBRANCH  28  30
ENDBRANCH  27  28
ENDBRANCH  26  27
ENDBRANCH   1  26
TORSDOF 13
ENDMDL
