MODEL 1
REMARK VINA RESULT:      -9.2      0.000      0.000
REMARK SMILES Cc1cscc1-c1noc(SCC(=O)OCCOC(=O)c2ccc(-c3c4nc(c(-c5ccccc5)c5ccc([nH]5)c(-c5ccccc5)c5nc(c(-c6ccccc6)c6ccc3[nH]6)C=C5)C=C4)cc2)n1
REMARK SMILES IDX 16 1 15 2 13 3 14 4 12 5 11 6 10 7 7 8 8 9 69 10 9 11 6 12
REMARK SMILES IDX 1 13 2 14 3 15 4 16 5 17 17 18 18 19 19 20 20 21 21 22 22 23
REMARK SMILES IDX 68 24 23 25 67 26 24 27 25 28 26 29 61 30 27 31 66 32 60 33
REMARK SMILES IDX 62 34 28 35 65 36 59 37 58 38 29 40 51 41 36 42 50 43 37 44
REMARK SMILES IDX 40 45 49 46 63 47 38 48 39 49 48 51 64 52 41 53 30 54 31 55
REMARK SMILES IDX 35 56 32 57 34 58 33 59 52 60 53 61 57 62 54 63 56 64 55 65
REMARK SMILES IDX 42 66 43 67 47 68 44 69 46 70 45 71
REMARK H PARENT 62 39 40 50
REMARK Flexibility Score: inf
ROOT
ATOM      1  C   UNL A   1      33.122  36.823  30.739  1.00  0.00     0.274 C 
ENDROOT
BRANCH   1   2
ATOM      2  O   UNL A   1      32.790  36.898  32.142  1.00  0.00    -0.461 OA
BRANCH   2   3
ATOM      3  C   UNL A   1      33.831  36.786  33.006  1.00  0.00     0.316 C 
ATOM      4  O   UNL A   1      33.979  37.509  33.990  1.00  0.00    -0.251 OA
BRANCH   3   5
ATOM      5  C   UNL A   1      34.802  35.659  32.728  1.00  0.00     0.202 C 
BRANCH   5   6
ATOM      6  S   UNL A   1      34.335  34.022  33.303  1.00  0.00    -0.053 SA
BRANCH   6   7
ATOM      7  C   UNL A   1      35.846  33.350  33.846  1.00  0.00     0.286 A 
ATOM      8  C   UNL A   1      37.544  32.176  34.173  1.00  0.00     0.204 A 
ATOM      9  N   UNL A   1      37.859  33.325  34.778  1.00  0.00    -0.056 NA
ATOM     10  N   UNL A   1      36.263  32.112  33.668  1.00  0.00    -0.181 NA
ATOM     11  O   UNL A   1      36.734  34.111  34.559  1.00  0.00    -0.327 OA
BRANCH   8  12
ATOM     12  C   UNL A   1      38.509  31.084  34.008  1.00  0.00     0.036 A 
ATOM     13  C   UNL A   1      40.018  31.733  36.061  1.00  0.00     0.046 C 
ATOM     14  C   UNL A   1      39.630  30.875  34.898  1.00  0.00    -0.029 A 
ATOM     15  C   UNL A   1      40.346  29.752  34.526  1.00  0.00     0.069 A 
ATOM     16  S   UNL A   1      39.655  28.929  33.204  1.00  0.00    -0.151 S 
ATOM     17  C   UNL A   1      38.431  30.113  33.032  1.00  0.00     0.077 A 
ENDBRANCH   8  12
ENDBRANCH   6   7
ENDBRANCH   5   6
ENDBRANCH   3   5
ENDBRANCH   2   3
ENDBRANCH   1   2
BRANCH   1  18
ATOM     18  C   UNL A   1      32.576  35.552  30.078  1.00  0.00     0.275 C 
BRANCH  18  19
ATOM     19  O   UNL A   1      32.952  35.456  28.690  1.00  0.00    -0.458 OA
BRANCH  19  20
ATOM     20  C   UNL A   1      33.045  34.179  28.256  1.00  0.00     0.338 C 
ATOM     21  O   UNL A   1      32.185  33.570  27.644  1.00  0.00    -0.246 OA
BRANCH  20  22
ATOM     22  C   UNL A   1      34.343  33.578  28.583  1.00  0.00     0.060 A 
ATOM     23  C   UNL A   1      34.444  32.696  29.660  1.00  0.00     0.016 A 
ATOM     24  C   UNL A   1      35.489  34.022  27.922  1.00  0.00     0.016 A 
ATOM     25  C   UNL A   1      35.697  32.272  30.098  1.00  0.00     0.010 A 
ATOM     26  C   UNL A   1      36.744  33.564  28.334  1.00  0.00     0.010 A 
ATOM     27  C   UNL A   1      36.856  32.692  29.430  1.00  0.00    -0.014 A 
BRANCH  27  28
ATOM     28  C   UNL A   1      38.180  32.163  29.835  1.00  0.00     0.031 A 
ATOM     29  C   UNL A   1      38.681  30.844  29.331  1.00  0.00     0.074 A 
ATOM     30  C   UNL A   1      38.928  32.883  30.690  1.00  0.00     0.049 A 
ATOM     31  N   UNL A   1      39.738  30.162  29.694  1.00  0.00    -0.248 NA
ATOM     32  C   UNL A   1      37.884  30.204  28.280  1.00  0.00     0.031 C 
ATOM     33  C   UNL A   1      38.570  34.197  31.223  1.00  0.00     0.029 A 
ATOM     34  N   UNL A   1      40.140  32.603  31.262  1.00  0.00    -0.354 N 
ATOM     35  C   UNL A   1      39.706  28.990  28.945  1.00  0.00     0.074 A 
ATOM     36  C   UNL A   1      38.523  29.053  28.114  1.00  0.00     0.031 C 
ATOM     37  C   UNL A   1      39.545  34.613  32.043  1.00  0.00     0.029 A 
ATOM     38  C   UNL A   1      40.566  33.574  32.130  1.00  0.00     0.049 A 
ATOM     39  H   UNL A   1      40.654  31.786  31.068  1.00  0.00     0.167 HD
ATOM     40  C   UNL A   1      40.586  27.960  28.952  1.00  0.00     0.031 A 
ATOM     41  C   UNL A   1      41.643  33.610  32.934  1.00  0.00     0.031 A 
ATOM     42  C   UNL A   1      41.782  27.923  29.754  1.00  0.00     0.049 A 
ATOM     43  C   UNL A   1      42.591  32.451  32.945  1.00  0.00     0.074 A 
ATOM     44  C   UNL A   1      42.759  26.942  29.806  1.00  0.00     0.029 A 
ATOM     45  N   UNL A   1      42.169  28.919  30.635  1.00  0.00    -0.354 N 
ATOM     46  N   UNL A   1      42.539  31.338  32.256  1.00  0.00    -0.248 NA
ATOM     47  C   UNL A   1      43.744  32.552  33.850  1.00  0.00     0.031 C 
ATOM     48  C   UNL A   1      43.722  27.334  30.743  1.00  0.00     0.029 A 
ATOM     49  C   UNL A   1      43.363  28.574  31.245  1.00  0.00     0.049 A 
ATOM     50  H   UNL A   1      41.670  29.752  30.802  1.00  0.00     0.167 HD
ATOM     51  C   UNL A   1      43.658  30.609  32.633  1.00  0.00     0.074 A 
ATOM     52  C   UNL A   1      44.375  31.412  33.602  1.00  0.00     0.031 C 
ATOM     53  C   UNL A   1      44.054  29.382  32.214  1.00  0.00     0.031 A 
BRANCH  40  54
ATOM     54  C   UNL A   1      40.279  26.772  28.084  1.00  0.00    -0.014 A 
ATOM     55  C   UNL A   1      40.841  26.636  26.806  1.00  0.00     0.009 A 
ATOM     56  C   UNL A   1      39.456  25.747  28.578  1.00  0.00     0.009 A 
ATOM     57  C   UNL A   1      40.564  25.508  26.029  1.00  0.00     0.001 A 
ATOM     58  C   UNL A   1      39.197  24.612  27.807  1.00  0.00     0.001 A 
ATOM     59  C   UNL A   1      39.745  24.496  26.531  1.00  0.00     0.000 A 
ENDBRANCH  40  54
BRANCH  41  60
ATOM     60  C   UNL A   1      41.853  34.789  33.806  1.00  0.00    -0.014 A 
ATOM     61  C   UNL A   1      42.660  35.853  33.379  1.00  0.00     0.009 A 
ATOM     62  C   UNL A   1      41.203  34.877  35.047  1.00  0.00     0.009 A 
ATOM     63  C   UNL A   1      42.817  36.982  34.184  1.00  0.00     0.001 A 
ATOM     64  C   UNL A   1      41.345  36.017  35.839  1.00  0.00     0.001 A 
ATOM     65  C   UNL A   1      42.154  37.066  35.409  1.00  0.00     0.000 A 
ENDBRANCH  41  60
BRANCH  53  66
ATOM     66  C   UNL A   1      45.331  28.854  32.793  1.00  0.00    -0.014 A 
ATOM     67  C   UNL A   1      46.548  29.002  32.110  1.00  0.00     0.009 A 
ATOM     68  C   UNL A   1      45.320  28.217  34.042  1.00  0.00     0.009 A 
ATOM     69  C   UNL A   1      47.727  28.494  32.655  1.00  0.00     0.001 A 
ATOM     70  C   UNL A   1      46.504  27.726  34.594  1.00  0.00     0.001 A 
ATOM     71  C   UNL A   1      47.704  27.858  33.897  1.00  0.00     0.000 A 
ENDBRANCH  53  66
ENDBRANCH  27  28
ENDBRANCH  20  22
ENDBRANCH  19  20
ENDBRANCH  18  19
ENDBRANCH   1  18
TORSDOF 14
ENDMDL
MODEL 2
REMARK VINA RESULT:      -8.4      5.537     10.712
REMARK SMILES Cc1cscc1-c1noc(SCC(=O)OCCOC(=O)c2ccc(-c3c4nc(c(-c5ccccc5)c5ccc([nH]5)c(-c5ccccc5)c5nc(c(-c6ccccc6)c6ccc3[nH]6)C=C5)C=C4)cc2)n1
REMARK SMILES IDX 16 1 15 2 13 3 14 4 12 5 11 6 10 7 7 8 8 9 69 10 9 11 6 12
REMARK SMILES IDX 1 13 2 14 3 15 4 16 5 17 17 18 18 19 19 20 20 21 21 22 22 23
REMARK SMILES IDX 68 24 23 25 67 26 24 27 25 28 26 29 61 30 27 31 66 32 60 33
REMARK SMILES IDX 62 34 28 35 65 36 59 37 58 38 29 40 51 41 36 42 50 43 37 44
REMARK SMILES IDX 40 45 49 46 63 47 38 48 39 49 48 51 64 52 41 53 30 54 31 55
REMARK SMILES IDX 35 56 32 57 34 58 33 59 52 60 53 61 57 62 54 63 56 64 55 65
REMARK SMILES IDX 42 66 43 67 47 68 44 69 46 70 45 71
REMARK H PARENT 62 39 40 50
REMARK Flexibility Score: inf
ROOT
ATOM      1  C   UNL A   1      41.756  20.274  26.608  1.00  0.00     0.274 C 
ENDROOT
BRANCH   1   2
ATOM      2  O   UNL A   1      42.108  19.398  25.516  1.00  0.00    -0.461 OA
BRANCH   2   3
ATOM      3  C   UNL A   1      43.411  19.020  25.454  1.00  0.00     0.316 C 
ATOM      4  O   UNL A   1      43.873  18.070  26.084  1.00  0.00    -0.251 OA
BRANCH   3   5
ATOM      5  C   UNL A   1      44.284  19.808  24.502  1.00  0.00     0.202 C 
BRANCH   5   6
ATOM      6  S   UNL A   1      45.896  20.319  25.108  1.00  0.00    -0.053 SA
BRANCH   6   7
ATOM      7  C   UNL A   1      45.596  21.921  25.719  1.00  0.00     0.286 A 
ATOM      8  C   UNL A   1      45.634  23.963  26.165  1.00  0.00     0.204 A 
ATOM      9  N   UNL A   1      44.452  23.576  26.654  1.00  0.00    -0.056 NA
ATOM     10  N   UNL A   1      46.421  22.948  25.665  1.00  0.00    -0.181 NA
ATOM     11  O   UNL A   1      44.421  22.218  26.355  1.00  0.00    -0.327 OA
BRANCH   8  12
ATOM     12  C   UNL A   1      46.038  25.372  26.111  1.00  0.00     0.036 A 
ATOM     13  C   UNL A   1      47.311  25.385  28.411  1.00  0.00     0.046 C 
ATOM     14  C   UNL A   1      46.832  26.009  27.138  1.00  0.00    -0.029 A 
ATOM     15  C   UNL A   1      47.095  27.326  26.806  1.00  0.00     0.069 A 
ATOM     16  S   UNL A   1      46.480  27.762  25.277  1.00  0.00    -0.151 S 
ATOM     17  C   UNL A   1      45.759  26.224  25.064  1.00  0.00     0.077 A 
ENDBRANCH   8  12
ENDBRANCH   6   7
ENDBRANCH   5   6
ENDBRANCH   3   5
ENDBRANCH   2   3
ENDBRANCH   1   2
BRANCH   1  18
ATOM     18  C   UNL A   1      41.027  21.536  26.132  1.00  0.00     0.275 C 
BRANCH  18  19
ATOM     19  O   UNL A   1      39.739  21.690  26.759  1.00  0.00    -0.458 OA
BRANCH  19  20
ATOM     20  C   UNL A   1      39.063  22.774  26.316  1.00  0.00     0.338 C 
ATOM     21  O   UNL A   1      38.126  22.762  25.538  1.00  0.00    -0.246 OA
BRANCH  20  22
ATOM     22  C   UNL A   1      39.572  24.019  26.905  1.00  0.00     0.060 A 
ATOM     23  C   UNL A   1      39.298  24.313  28.242  1.00  0.00     0.016 A 
ATOM     24  C   UNL A   1      40.179  24.968  26.082  1.00  0.00     0.016 A 
ATOM     25  C   UNL A   1      39.609  25.570  28.756  1.00  0.00     0.010 A 
ATOM     26  C   UNL A   1      40.529  26.215  26.608  1.00  0.00     0.010 A 
ATOM     27  C   UNL A   1      40.238  26.527  27.947  1.00  0.00    -0.014 A 
BRANCH  27  28
ATOM     28  C   UNL A   1      40.656  27.827  28.521  1.00  0.00     0.031 A 
ATOM     29  C   UNL A   1      42.059  28.057  28.995  1.00  0.00     0.074 A 
ATOM     30  C   UNL A   1      39.741  28.806  28.634  1.00  0.00     0.049 A 
ATOM     31  N   UNL A   1      42.558  29.070  29.656  1.00  0.00    -0.248 NA
ATOM     32  C   UNL A   1      43.030  27.003  28.687  1.00  0.00     0.031 C 
ATOM     33  C   UNL A   1      38.354  28.720  28.177  1.00  0.00     0.029 A 
ATOM     34  N   UNL A   1      39.844  30.060  29.174  1.00  0.00    -0.354 N 
ATOM     35  C   UNL A   1      43.894  28.753  29.882  1.00  0.00     0.074 A 
ATOM     36  C   UNL A   1      44.123  27.452  29.291  1.00  0.00     0.031 C 
ATOM     37  C   UNL A   1      37.734  29.877  28.452  1.00  0.00     0.029 A 
ATOM     38  C   UNL A   1      38.665  30.759  29.148  1.00  0.00     0.049 A 
ATOM     39  H   UNL A   1      40.681  30.423  29.543  1.00  0.00     0.167 HD
ATOM     40  C   UNL A   1      44.838  29.484  30.521  1.00  0.00     0.031 A 
ATOM     41  C   UNL A   1      38.357  31.964  29.658  1.00  0.00     0.031 A 
ATOM     42  C   UNL A   1      44.612  30.796  31.070  1.00  0.00     0.049 A 
ATOM     43  C   UNL A   1      39.409  32.746  30.382  1.00  0.00     0.074 A 
ATOM     44  C   UNL A   1      45.512  31.636  31.704  1.00  0.00     0.029 A 
ATOM     45  N   UNL A   1      43.398  31.463  31.040  1.00  0.00    -0.354 N 
ATOM     46  N   UNL A   1      40.659  32.427  30.613  1.00  0.00    -0.248 NA
ATOM     47  C   UNL A   1      39.005  34.053  30.920  1.00  0.00     0.031 C 
ATOM     48  C   UNL A   1      44.833  32.799  32.083  1.00  0.00     0.029 A 
ATOM     49  C   UNL A   1      43.520  32.698  31.653  1.00  0.00     0.049 A 
ATOM     50  H   UNL A   1      42.570  31.111  30.639  1.00  0.00     0.167 HD
ATOM     51  C   UNL A   1      41.197  33.498  31.313  1.00  0.00     0.074 A 
ATOM     52  C   UNL A   1      40.140  34.480  31.456  1.00  0.00     0.031 C 
ATOM     53  C   UNL A   1      42.454  33.654  31.794  1.00  0.00     0.031 A 
BRANCH  40  54
ATOM     54  C   UNL A   1      46.202  28.875  30.684  1.00  0.00    -0.014 A 
ATOM     55  C   UNL A   1      47.254  29.192  29.811  1.00  0.00     0.009 A 
ATOM     56  C   UNL A   1      46.450  28.009  31.761  1.00  0.00     0.009 A 
ATOM     57  C   UNL A   1      48.521  28.635  30.001  1.00  0.00     0.001 A 
ATOM     58  C   UNL A   1      47.723  27.470  31.960  1.00  0.00     0.001 A 
ATOM     59  C   UNL A   1      48.755  27.777  31.076  1.00  0.00     0.000 A 
ENDBRANCH  40  54
BRANCH  41  60
ATOM     60  C   UNL A   1      36.976  32.479  29.510  1.00  0.00    -0.014 A 
ATOM     61  C   UNL A   1      36.597  33.169  28.350  1.00  0.00     0.009 A 
ATOM     62  C   UNL A   1      36.018  32.235  30.506  1.00  0.00     0.009 A 
ATOM     63  C   UNL A   1      35.282  33.611  28.194  1.00  0.00     0.001 A 
ATOM     64  C   UNL A   1      34.700  32.659  30.337  1.00  0.00     0.001 A 
ATOM     65  C   UNL A   1      34.334  33.350  29.183  1.00  0.00     0.000 A 
ENDBRANCH  41  60
BRANCH  53  66
ATOM     66  C   UNL A   1      42.750  34.942  32.501  1.00  0.00    -0.014 A 
ATOM     67  C   UNL A   1      43.405  35.992  31.841  1.00  0.00     0.009 A 
ATOM     68  C   UNL A   1      42.354  35.113  33.836  1.00  0.00     0.009 A 
ATOM     69  C   UNL A   1      43.684  37.181  32.515  1.00  0.00     0.001 A 
ATOM     70  C   UNL A   1      42.618  36.309  34.502  1.00  0.00     0.001 A 
ATOM     71  C   UNL A   1      43.290  37.339  33.844  1.00  0.00     0.000 A 
ENDBRANCH  53  66
ENDBRANCH  27  28
ENDBRANCH  20  22
ENDBRANCH  19  20
ENDBRANCH  18  19
ENDBRANCH   1  18
TORSDOF 14
ENDMDL
MODEL 3
REMARK VINA RESULT:      -8.3      7.287     12.430
REMARK SMILES Cc1cscc1-c1noc(SCC(=O)OCCOC(=O)c2ccc(-c3c4nc(c(-c5ccccc5)c5ccc([nH]5)c(-c5ccccc5)c5nc(c(-c6ccccc6)c6ccc3[nH]6)C=C5)C=C4)cc2)n1
REMARK SMILES IDX 16 1 15 2 13 3 14 4 12 5 11 6 10 7 7 8 8 9 69 10 9 11 6 12
REMARK SMILES IDX 1 13 2 14 3 15 4 16 5 17 17 18 18 19 19 20 20 21 21 22 22 23
REMARK SMILES IDX 68 24 23 25 67 26 24 27 25 28 26 29 61 30 27 31 66 32 60 33
REMARK SMILES IDX 62 34 28 35 65 36 59 37 58 38 29 40 51 41 36 42 50 43 37 44
REMARK SMILES IDX 40 45 49 46 63 47 38 48 39 49 48 51 64 52 41 53 30 54 31 55
REMARK SMILES IDX 35 56 32 57 34 58 33 59 52 60 53 61 57 62 54 63 56 64 55 65
REMARK SMILES IDX 42 66 43 67 47 68 44 69 46 70 45 71
REMARK H PARENT 62 39 40 50
REMARK Flexibility Score: inf
ROOT
ATOM      1  C   UNL A   1      42.466  18.995  26.663  1.00  0.00     0.274 C 
ENDROOT
BRANCH   1   2
ATOM      2  O   UNL A   1      41.306  19.488  25.959  1.00  0.00    -0.461 OA
BRANCH   2   3
ATOM      3  C   UNL A   1      41.023  20.805  26.128  1.00  0.00     0.316 C 
ATOM      4  O   UNL A   1      41.882  21.665  26.315  1.00  0.00    -0.251 OA
BRANCH   3   5
ATOM      5  C   UNL A   1      39.563  21.188  26.015  1.00  0.00     0.202 C 
BRANCH   5   6
ATOM      6  S   UNL A   1      39.146  22.906  26.331  1.00  0.00    -0.053 SA
BRANCH   6   7
ATOM      7  C   UNL A   1      37.479  23.002  25.840  1.00  0.00     0.286 A 
ATOM      8  C   UNL A   1      35.521  22.617  25.217  1.00  0.00     0.204 A 
ATOM      9  N   UNL A   1      35.461  23.895  25.604  1.00  0.00    -0.056 NA
ATOM     10  N   UNL A   1      36.778  22.053  25.252  1.00  0.00    -0.181 NA
ATOM     11  O   UNL A   1      36.761  24.154  26.024  1.00  0.00    -0.327 OA
BRANCH   8  12
ATOM     12  C   UNL A   1      34.327  21.854  24.838  1.00  0.00     0.036 A 
ATOM     13  C   UNL A   1      33.770  23.256  22.685  1.00  0.00     0.046 C 
ATOM     14  C   UNL A   1      33.544  22.141  23.657  1.00  0.00    -0.029 A 
ATOM     15  C   UNL A   1      32.502  21.239  23.530  1.00  0.00     0.069 A 
ATOM     16  S   UNL A   1      32.509  20.040  24.741  1.00  0.00    -0.151 S 
ATOM     17  C   UNL A   1      33.851  20.757  25.525  1.00  0.00     0.077 A 
ENDBRANCH   8  12
ENDBRANCH   6   7
ENDBRANCH   5   6
ENDBRANCH   3   5
ENDBRANCH   2   3
ENDBRANCH   1   2
BRANCH   1  18
ATOM     18  C   UNL A   1      43.531  18.436  25.712  1.00  0.00     0.275 C 
BRANCH  18  19
ATOM     19  O   UNL A   1      43.580  19.157  24.466  1.00  0.00    -0.458 OA
BRANCH  19  20
ATOM     20  C   UNL A   1      44.826  19.576  24.148  1.00  0.00     0.338 C 
ATOM     21  O   UNL A   1      45.681  18.912  23.589  1.00  0.00    -0.246 OA
BRANCH  20  22
ATOM     22  C   UNL A   1      45.053  20.974  24.534  1.00  0.00     0.060 A 
ATOM     23  C   UNL A   1      45.628  21.263  25.773  1.00  0.00     0.016 A 
ATOM     24  C   UNL A   1      44.540  21.997  23.736  1.00  0.00     0.016 A 
ATOM     25  C   UNL A   1      45.672  22.579  26.230  1.00  0.00     0.010 A 
ATOM     26  C   UNL A   1      44.621  23.321  24.176  1.00  0.00     0.010 A 
ATOM     27  C   UNL A   1      45.180  23.620  25.430  1.00  0.00    -0.014 A 
BRANCH  27  28
ATOM     28  C   UNL A   1      45.316  25.027  25.874  1.00  0.00     0.031 A 
ATOM     29  C   UNL A   1      46.631  25.743  25.808  1.00  0.00     0.074 A 
ATOM     30  C   UNL A   1      44.234  25.655  26.366  1.00  0.00     0.049 A 
ATOM     31  N   UNL A   1      46.965  26.914  26.289  1.00  0.00    -0.248 NA
ATOM     32  C   UNL A   1      47.716  25.048  25.111  1.00  0.00     0.031 C 
ATOM     33  C   UNL A   1      42.891  25.080  26.449  1.00  0.00     0.029 A 
ATOM     34  N   UNL A   1      44.099  26.912  26.892  1.00  0.00    -0.354 N 
ATOM     35  C   UNL A   1      48.314  27.074  25.990  1.00  0.00     0.074 A 
ATOM     36  C   UNL A   1      48.735  25.878  25.291  1.00  0.00     0.031 C 
ATOM     37  C   UNL A   1      42.064  25.986  26.992  1.00  0.00     0.029 A 
ATOM     38  C   UNL A   1      42.830  27.178  27.338  1.00  0.00     0.049 A 
ATOM     39  H   UNL A   1      44.839  27.559  26.944  1.00  0.00     0.167 HD
ATOM     40  C   UNL A   1      49.122  28.124  26.271  1.00  0.00     0.031 A 
ATOM     41  C   UNL A   1      42.344  28.251  27.986  1.00  0.00     0.031 A 
ATOM     42  C   UNL A   1      48.685  29.327  26.931  1.00  0.00     0.049 A 
ATOM     43  C   UNL A   1      43.259  29.391  28.309  1.00  0.00     0.074 A 
ATOM     44  C   UNL A   1      49.416  30.465  27.229  1.00  0.00     0.029 A 
ATOM     45  N   UNL A   1      47.395  29.552  27.384  1.00  0.00    -0.354 N 
ATOM     46  N   UNL A   1      44.536  29.522  28.047  1.00  0.00    -0.248 NA
ATOM     47  C   UNL A   1      42.666  30.530  29.023  1.00  0.00     0.031 C 
ATOM     48  C   UNL A   1      48.573  31.366  27.890  1.00  0.00     0.029 A 
ATOM     49  C   UNL A   1      47.310  30.803  27.970  1.00  0.00     0.049 A 
ATOM     50  H   UNL A   1      46.648  28.916  27.300  1.00  0.00     0.167 HD
ATOM     51  C   UNL A   1      44.899  30.763  28.552  1.00  0.00     0.074 A 
ATOM     52  C   UNL A   1      43.704  31.350  29.124  1.00  0.00     0.031 C 
ATOM     53  C   UNL A   1      46.115  31.362  28.543  1.00  0.00     0.031 A 
BRANCH  40  54
ATOM     54  C   UNL A   1      50.571  28.014  25.888  1.00  0.00    -0.014 A 
ATOM     55  C   UNL A   1      51.031  28.442  24.633  1.00  0.00     0.009 A 
ATOM     56  C   UNL A   1      51.498  27.522  26.821  1.00  0.00     0.009 A 
ATOM     57  C   UNL A   1      52.388  28.355  24.312  1.00  0.00     0.001 A 
ATOM     58  C   UNL A   1      52.856  27.456  26.504  1.00  0.00     0.001 A 
ATOM     59  C   UNL A   1      53.300  27.866  25.248  1.00  0.00     0.000 A 
ENDBRANCH  40  54
BRANCH  41  60
ATOM     60  C   UNL A   1      40.918  28.268  28.384  1.00  0.00    -0.014 A 
ATOM     61  C   UNL A   1      40.514  27.709  29.604  1.00  0.00     0.009 A 
ATOM     62  C   UNL A   1      39.962  28.895  27.568  1.00  0.00     0.009 A 
ATOM     63  C   UNL A   1      39.175  27.770  29.997  1.00  0.00     0.001 A 
ATOM     64  C   UNL A   1      38.630  28.973  27.974  1.00  0.00     0.001 A 
ATOM     65  C   UNL A   1      38.237  28.408  29.185  1.00  0.00     0.000 A 
ENDBRANCH  41  60
BRANCH  53  66
ATOM     66  C   UNL A   1      46.196  32.728  29.154  1.00  0.00    -0.014 A 
ATOM     67  C   UNL A   1      45.948  33.877  28.388  1.00  0.00     0.009 A 
ATOM     68  C   UNL A   1      46.508  32.866  30.515  1.00  0.00     0.009 A 
ATOM     69  C   UNL A   1      46.039  35.142  28.968  1.00  0.00     0.001 A 
ATOM     70  C   UNL A   1      46.581  34.131  31.097  1.00  0.00     0.001 A 
ATOM     71  C   UNL A   1      46.355  35.269  30.322  1.00  0.00     0.000 A 
ENDBRANCH  53  66
ENDBRANCH  27  28
ENDBRANCH  20  22
ENDBRANCH  19  20
ENDBRANCH  18  19
ENDBRANCH   1  18
TORSDOF 14
ENDMDL
