MODEL 1
REMARK VINA RESULT:     -10.7      0.000      0.000
REMARK SMILES COc1ccc(OCCNc2c(Cl)cccc2C(=O)OCCOC(=O)c2ccc(-c3c4nc(c(-c5ccccc5)c5ccc([nH]5)c(-c5ccccc5)c5nc(c(-c6ccccc6)c6ccc3[nH]6)C=C5)C=C4)cc2)cc1
REMARK SMILES IDX 18 1 19 2 17 3 11 4 12 5 13 6 14 7 16 8 15 9 10 10 9 12 8 13
REMARK SMILES IDX 7 14 6 15 3 16 4 17 75 18 5 19 74 20 2 21 1 22 20 23 21 24
REMARK SMILES IDX 22 25 23 26 24 27 25 28 26 29 27 30 73 31 28 32 72 33 29 34
REMARK SMILES IDX 30 35 31 36 66 37 32 38 71 39 65 40 67 41 33 42 70 43 64 44
REMARK SMILES IDX 63 45 34 47 56 48 41 49 55 50 42 51 45 52 54 53 68 54 43 55
REMARK SMILES IDX 44 56 53 58 69 59 46 60 35 61 36 62 40 63 37 64 39 65 38 66
REMARK SMILES IDX 57 67 58 68 62 69 59 70 61 71 60 72 47 73 48 74 52 75 49 76
REMARK SMILES IDX 51 77 50 78
REMARK H PARENT 10 11 67 46 45 57
REMARK Flexibility Score: inf
ROOT
ATOM      1  C   UNL A   1      33.143  20.777  24.754  1.00  0.00     0.340 C 
ATOM      2  O   UNL A   1      32.197  20.261  25.324  1.00  0.00    -0.246 OA
ENDROOT
BRANCH   1   3
ATOM      3  C   UNL A   1      33.027  22.134  24.184  1.00  0.00     0.084 A 
ATOM      4  C   UNL A   1      33.246  23.285  24.948  1.00  0.00     0.068 A 
ATOM      5  C   UNL A   1      33.499  24.479  24.215  1.00  0.00     0.065 A 
ATOM      6  Cl  UNL A   1      34.016  25.933  25.006  1.00  0.00    -0.082 Cl
ATOM      7  C   UNL A   1      33.418  24.551  22.821  1.00  0.00     0.023 A 
ATOM      8  C   UNL A   1      32.923  22.220  22.781  1.00  0.00     0.018 A 
ATOM      9  C   UNL A   1      33.084  23.423  22.101  1.00  0.00     0.003 A 
BRANCH   4  10
ATOM     10  N   UNL A   1      33.027  23.390  26.311  1.00  0.00    -0.380 N 
ATOM     11  H   UNL A   1      33.841  23.492  26.855  1.00  0.00     0.160 HD
BRANCH  10  12
ATOM     12  C   UNL A   1      31.786  23.374  27.071  1.00  0.00     0.154 C 
BRANCH  12  13
ATOM     13  C   UNL A   1      30.711  24.232  26.356  1.00  0.00     0.250 C 
BRANCH  13  14
ATOM     14  O   UNL A   1      30.828  25.650  26.590  1.00  0.00    -0.492 OA
BRANCH  14  15
ATOM     15  C   UNL A   1      30.537  26.518  25.575  1.00  0.00     0.119 A 
ATOM     16  C   UNL A   1      30.137  27.956  23.203  1.00  0.00     0.119 A 
ATOM     17  C   UNL A   1      29.449  26.767  23.420  1.00  0.00     0.050 A 
ATOM     18  C   UNL A   1      30.908  28.497  24.225  1.00  0.00     0.050 A 
ATOM     19  C   UNL A   1      29.662  26.041  24.599  1.00  0.00     0.050 A 
ATOM     20  C   UNL A   1      31.067  27.796  25.426  1.00  0.00     0.050 A 
BRANCH  16  21
ATOM     21  O   UNL A   1      29.964  28.588  22.003  1.00  0.00    -0.497 OA
ATOM     22  C   UNL A   1      29.816  30.003  22.151  1.00  0.00     0.278 C 
ENDBRANCH  16  21
ENDBRANCH  14  15
ENDBRANCH  13  14
ENDBRANCH  12  13
ENDBRANCH  10  12
ENDBRANCH   4  10
ENDBRANCH   1   3
BRANCH   1  23
ATOM     23  O   UNL A   1      34.377  20.243  24.596  1.00  0.00    -0.458 OA
BRANCH  23  24
ATOM     24  C   UNL A   1      35.418  20.841  25.405  1.00  0.00     0.275 C 
BRANCH  24  25
ATOM     25  C   UNL A   1      36.802  20.362  24.976  1.00  0.00     0.275 C 
BRANCH  25  26
ATOM     26  O   UNL A   1      37.742  21.436  25.134  1.00  0.00    -0.458 OA
BRANCH  26  27
ATOM     27  C   UNL A   1      38.872  21.114  25.792  1.00  0.00     0.338 C 
ATOM     28  O   UNL A   1      39.488  20.056  25.761  1.00  0.00    -0.246 OA
BRANCH  27  29
ATOM     29  C   UNL A   1      39.379  22.291  26.501  1.00  0.00     0.060 A 
ATOM     30  C   UNL A   1      38.829  23.526  26.183  1.00  0.00     0.016 A 
ATOM     31  C   UNL A   1      40.517  22.218  27.297  1.00  0.00     0.016 A 
ATOM     32  C   UNL A   1      39.518  24.692  26.489  1.00  0.00     0.010 A 
ATOM     33  C   UNL A   1      41.109  23.400  27.754  1.00  0.00     0.010 A 
ATOM     34  C   UNL A   1      40.657  24.656  27.304  1.00  0.00    -0.014 A 
BRANCH  34  35
ATOM     35  C   UNL A   1      41.378  25.916  27.654  1.00  0.00     0.031 A 
ATOM     36  C   UNL A   1      40.736  26.935  28.562  1.00  0.00     0.074 A 
ATOM     37  C   UNL A   1      42.616  26.153  27.171  1.00  0.00     0.049 A 
ATOM     38  N   UNL A   1      41.092  28.175  28.797  1.00  0.00    -0.248 NA
ATOM     39  C   UNL A   1      39.522  26.518  29.283  1.00  0.00     0.031 C 
ATOM     40  C   UNL A   1      43.394  25.244  26.325  1.00  0.00     0.029 A 
ATOM     41  N   UNL A   1      43.446  27.237  27.332  1.00  0.00    -0.354 N 
ATOM     42  C   UNL A   1      40.101  28.706  29.616  1.00  0.00     0.074 A 
ATOM     43  C   UNL A   1      39.135  27.654  29.846  1.00  0.00     0.031 C 
ATOM     44  C   UNL A   1      44.601  25.775  26.093  1.00  0.00     0.029 A 
ATOM     45  C   UNL A   1      44.638  27.117  26.658  1.00  0.00     0.049 A 
ATOM     46  H   UNL A   1      43.210  28.022  27.876  1.00  0.00     0.167 HD
ATOM     47  C   UNL A   1      39.999  29.962  30.116  1.00  0.00     0.031 A 
ATOM     48  C   UNL A   1      45.630  28.002  26.449  1.00  0.00     0.031 A 
ATOM     49  C   UNL A   1      40.996  30.985  29.933  1.00  0.00     0.049 A 
ATOM     50  C   UNL A   1      45.489  29.391  26.992  1.00  0.00     0.074 A 
ATOM     51  C   UNL A   1      41.005  32.281  30.424  1.00  0.00     0.029 A 
ATOM     52  N   UNL A   1      42.171  30.823  29.214  1.00  0.00    -0.354 N 
ATOM     53  N   UNL A   1      44.515  29.901  27.705  1.00  0.00    -0.248 NA
ATOM     54  C   UNL A   1      46.572  30.331  26.681  1.00  0.00     0.031 C 
ATOM     55  C   UNL A   1      42.162  32.916  29.961  1.00  0.00     0.029 A 
ATOM     56  C   UNL A   1      42.902  32.000  29.230  1.00  0.00     0.049 A 
ATOM     57  H   UNL A   1      42.445  29.994  28.760  1.00  0.00     0.167 HD
ATOM     58  C   UNL A   1      44.866  31.223  27.931  1.00  0.00     0.074 A 
ATOM     59  C   UNL A   1      46.158  31.426  27.306  1.00  0.00     0.031 C 
ATOM     60  C   UNL A   1      44.178  32.186  28.591  1.00  0.00     0.031 A 
BRANCH  47  61
ATOM     61  C   UNL A   1      38.739  30.319  30.858  1.00  0.00    -0.014 A 
ATOM     62  C   UNL A   1      38.596  30.103  32.237  1.00  0.00     0.009 A 
ATOM     63  C   UNL A   1      37.677  30.911  30.153  1.00  0.00     0.009 A 
ATOM     64  C   UNL A   1      37.402  30.435  32.885  1.00  0.00     0.001 A 
ATOM     65  C   UNL A   1      36.497  31.270  30.809  1.00  0.00     0.001 A 
ATOM     66  C   UNL A   1      36.357  31.020  32.172  1.00  0.00     0.000 A 
ENDBRANCH  47  61
BRANCH  48  67
ATOM     67  C   UNL A   1      46.800  27.611  25.618  1.00  0.00    -0.014 A 
ATOM     68  C   UNL A   1      46.784  27.790  24.228  1.00  0.00     0.009 A 
ATOM     69  C   UNL A   1      47.957  27.091  26.223  1.00  0.00     0.009 A 
ATOM     70  C   UNL A   1      47.901  27.449  23.460  1.00  0.00     0.001 A 
ATOM     71  C   UNL A   1      49.084  26.785  25.457  1.00  0.00     0.001 A 
ATOM     72  C   UNL A   1      49.052  26.958  24.076  1.00  0.00     0.000 A 
ENDBRANCH  48  67
BRANCH  60  73
ATOM     73  C   UNL A   1      44.828  33.536  28.686  1.00  0.00    -0.014 A 
ATOM     74  C   UNL A   1      44.643  34.503  27.685  1.00  0.00     0.009 A 
ATOM     75  C   UNL A   1      45.624  33.847  29.798  1.00  0.00     0.009 A 
ATOM     76  C   UNL A   1      45.275  35.744  27.780  1.00  0.00     0.001 A 
ATOM     77  C   UNL A   1      46.231  35.099  29.904  1.00  0.00     0.001 A 
ATOM     78  C   UNL A   1      46.064  36.042  28.891  1.00  0.00     0.000 A 
ENDBRANCH  60  73
ENDBRANCH  34  35
ENDBRANCH  27  29
ENDBRANCH  26  27
ENDBRANCH  25  26
ENDBRANCH  24  25
ENDBRANCH  23  24
ENDBRANCH   1  23
TORSDOF 17
ENDMDL
MODEL 2
REMARK VINA RESULT:     -10.6      1.695      4.118
REMARK SMILES COc1ccc(OCCNc2c(Cl)cccc2C(=O)OCCOC(=O)c2ccc(-c3c4nc(c(-c5ccccc5)c5ccc([nH]5)c(-c5ccccc5)c5nc(c(-c6ccccc6)c6ccc3[nH]6)C=C5)C=C4)cc2)cc1
REMARK SMILES IDX 18 1 19 2 17 3 11 4 12 5 13 6 14 7 16 8 15 9 10 10 9 12 8 13
REMARK SMILES IDX 7 14 6 15 3 16 4 17 75 18 5 19 74 20 2 21 1 22 20 23 21 24
REMARK SMILES IDX 22 25 23 26 24 27 25 28 26 29 27 30 73 31 28 32 72 33 29 34
REMARK SMILES IDX 30 35 31 36 66 37 32 38 71 39 65 40 67 41 33 42 70 43 64 44
REMARK SMILES IDX 63 45 34 47 56 48 41 49 55 50 42 51 45 52 54 53 68 54 43 55
REMARK SMILES IDX 44 56 53 58 69 59 46 60 35 61 36 62 40 63 37 64 39 65 38 66
REMARK SMILES IDX 57 67 58 68 62 69 59 70 61 71 60 72 47 73 48 74 52 75 49 76
REMARK SMILES IDX 51 77 50 78
REMARK H PARENT 10 11 67 46 45 57
REMARK Flexibility Score: inf
ROOT
ATOM      1  C   UNL A   1      33.824  23.453  26.249  1.00  0.00     0.340 C 
ATOM      2  O   UNL A   1      33.421  23.107  27.346  1.00  0.00    -0.246 OA
ENDROOT
BRANCH   1   3
ATOM      3  C   UNL A   1      33.278  24.658  25.595  1.00  0.00     0.084 A 
ATOM      4  C   UNL A   1      32.011  24.676  25.002  1.00  0.00     0.068 A 
ATOM      5  C   UNL A   1      31.449  25.964  24.774  1.00  0.00     0.065 A 
ATOM      6  Cl  UNL A   1      29.802  26.155  24.264  1.00  0.00    -0.082 Cl
ATOM      7  C   UNL A   1      32.146  27.154  25.006  1.00  0.00     0.023 A 
ATOM      8  C   UNL A   1      33.983  25.861  25.803  1.00  0.00     0.018 A 
ATOM      9  C   UNL A   1      33.440  27.101  25.482  1.00  0.00     0.003 A 
BRANCH   4  10
ATOM     10  N   UNL A   1      31.379  23.580  24.439  1.00  0.00    -0.380 N 
ATOM     11  H   UNL A   1      30.671  23.180  24.994  1.00  0.00     0.160 HD
BRANCH  10  12
ATOM     12  C   UNL A   1      31.594  22.921  23.159  1.00  0.00     0.154 C 
BRANCH  12  13
ATOM     13  C   UNL A   1      32.509  21.684  23.342  1.00  0.00     0.250 C 
BRANCH  13  14
ATOM     14  O   UNL A   1      32.022  20.484  22.708  1.00  0.00    -0.492 OA
BRANCH  14  15
ATOM     15  C   UNL A   1      32.348  19.269  23.242  1.00  0.00     0.119 A 
ATOM     16  C   UNL A   1      33.404  17.012  24.525  1.00  0.00     0.119 A 
ATOM     17  C   UNL A   1      32.928  18.081  25.277  1.00  0.00     0.050 A 
ATOM     18  C   UNL A   1      33.221  17.009  23.147  1.00  0.00     0.050 A 
ATOM     19  C   UNL A   1      32.416  19.215  24.634  1.00  0.00     0.050 A 
ATOM     20  C   UNL A   1      32.650  18.120  22.516  1.00  0.00     0.050 A 
BRANCH  16  21
ATOM     21  O   UNL A   1      33.975  15.963  25.190  1.00  0.00    -0.497 OA
ATOM     22  C   UNL A   1      33.010  14.989  25.597  1.00  0.00     0.278 C 
ENDBRANCH  16  21
ENDBRANCH  14  15
ENDBRANCH  13  14
ENDBRANCH  12  13
ENDBRANCH  10  12
ENDBRANCH   4  10
ENDBRANCH   1   3
BRANCH   1  23
ATOM     23  O   UNL A   1      34.796  22.853  25.521  1.00  0.00    -0.458 OA
BRANCH  23  24
ATOM     24  C   UNL A   1      35.257  21.580  26.035  1.00  0.00     0.275 C 
BRANCH  24  25
ATOM     25  C   UNL A   1      36.049  20.809  24.984  1.00  0.00     0.275 C 
BRANCH  25  26
ATOM     26  O   UNL A   1      37.277  21.505  24.715  1.00  0.00    -0.458 OA
BRANCH  26  27
ATOM     27  C   UNL A   1      38.347  21.060  25.402  1.00  0.00     0.338 C 
ATOM     28  O   UNL A   1      38.852  19.945  25.374  1.00  0.00    -0.246 OA
BRANCH  27  29
ATOM     29  C   UNL A   1      38.949  22.171  26.144  1.00  0.00     0.060 A 
ATOM     30  C   UNL A   1      38.427  23.442  25.942  1.00  0.00     0.016 A 
ATOM     31  C   UNL A   1      40.136  22.006  26.848  1.00  0.00     0.016 A 
ATOM     32  C   UNL A   1      39.181  24.561  26.269  1.00  0.00     0.010 A 
ATOM     33  C   UNL A   1      40.805  23.136  27.333  1.00  0.00     0.010 A 
ATOM     34  C   UNL A   1      40.372  24.433  26.995  1.00  0.00    -0.014 A 
BRANCH  34  35
ATOM     35  C   UNL A   1      41.166  25.642  27.369  1.00  0.00     0.031 A 
ATOM     36  C   UNL A   1      40.625  26.629  28.374  1.00  0.00     0.074 A 
ATOM     37  C   UNL A   1      42.380  25.860  26.821  1.00  0.00     0.049 A 
ATOM     38  N   UNL A   1      41.046  27.838  28.655  1.00  0.00    -0.248 NA
ATOM     39  C   UNL A   1      39.443  26.216  29.147  1.00  0.00     0.031 C 
ATOM     40  C   UNL A   1      43.065  24.974  25.876  1.00  0.00     0.029 A 
ATOM     41  N   UNL A   1      43.263  26.900  26.988  1.00  0.00    -0.354 N 
ATOM     42  C   UNL A   1      40.131  28.357  29.565  1.00  0.00     0.074 A 
ATOM     43  C   UNL A   1      39.139  27.330  29.797  1.00  0.00     0.031 C 
ATOM     44  C   UNL A   1      44.276  25.472  25.596  1.00  0.00     0.029 A 
ATOM     45  C   UNL A   1      44.404  26.775  26.233  1.00  0.00     0.049 A 
ATOM     46  H   UNL A   1      43.094  27.660  27.591  1.00  0.00     0.167 HD
ATOM     47  C   UNL A   1      40.114  29.584  30.141  1.00  0.00     0.031 A 
ATOM     48  C   UNL A   1      45.417  27.633  26.010  1.00  0.00     0.031 A 
ATOM     49  C   UNL A   1      41.138  30.578  29.953  1.00  0.00     0.049 A 
ATOM     50  C   UNL A   1      45.368  28.991  26.640  1.00  0.00     0.074 A 
ATOM     51  C   UNL A   1      41.232  31.840  30.515  1.00  0.00     0.029 A 
ATOM     52  N   UNL A   1      42.258  30.414  29.151  1.00  0.00    -0.354 N 
ATOM     53  N   UNL A   1      44.462  29.495  27.442  1.00  0.00    -0.248 NA
ATOM     54  C   UNL A   1      46.468  29.907  26.313  1.00  0.00     0.031 C 
ATOM     55  C   UNL A   1      42.384  32.457  30.014  1.00  0.00     0.029 A 
ATOM     56  C   UNL A   1      43.037  31.559  29.186  1.00  0.00     0.049 A 
ATOM     57  H   UNL A   1      42.469  29.604  28.634  1.00  0.00     0.167 HD
ATOM     58  C   UNL A   1      44.882  30.787  27.720  1.00  0.00     0.074 A 
ATOM     59  C   UNL A   1      46.140  30.977  27.024  1.00  0.00     0.031 C 
ATOM     60  C   UNL A   1      44.278  31.734  28.476  1.00  0.00     0.031 A 
BRANCH  47  61
ATOM     61  C   UNL A   1      38.919  29.943  30.983  1.00  0.00    -0.014 A 
ATOM     62  C   UNL A   1      38.911  29.786  32.377  1.00  0.00     0.009 A 
ATOM     63  C   UNL A   1      37.779  30.478  30.357  1.00  0.00     0.009 A 
ATOM     64  C   UNL A   1      37.773  30.118  33.120  1.00  0.00     0.001 A 
ATOM     65  C   UNL A   1      36.656  30.837  31.105  1.00  0.00     0.001 A 
ATOM     66  C   UNL A   1      36.650  30.645  32.484  1.00  0.00     0.000 A 
ENDBRANCH  47  61
BRANCH  48  67
ATOM     67  C   UNL A   1      46.515  27.249  25.084  1.00  0.00    -0.014 A 
ATOM     68  C   UNL A   1      46.779  28.002  23.931  1.00  0.00     0.009 A 
ATOM     69  C   UNL A   1      47.332  26.142  25.373  1.00  0.00     0.009 A 
ATOM     70  C   UNL A   1      47.834  27.651  23.085  1.00  0.00     0.001 A 
ATOM     71  C   UNL A   1      48.406  25.815  24.545  1.00  0.00     0.001 A 
ATOM     72  C   UNL A   1      48.652  26.565  23.397  1.00  0.00     0.000 A 
ENDBRANCH  48  67
BRANCH  60  73
ATOM     73  C   UNL A   1      44.987  33.051  28.606  1.00  0.00    -0.014 A 
ATOM     74  C   UNL A   1      45.955  33.259  29.601  1.00  0.00     0.009 A 
ATOM     75  C   UNL A   1      44.693  34.090  27.711  1.00  0.00     0.009 A 
ATOM     76  C   UNL A   1      46.587  34.498  29.720  1.00  0.00     0.001 A 
ATOM     77  C   UNL A   1      45.347  35.319  27.815  1.00  0.00     0.001 A 
ATOM     78  C   UNL A   1      46.285  35.524  28.825  1.00  0.00     0.000 A 
ENDBRANCH  60  73
ENDBRANCH  34  35
ENDBRANCH  27  29
ENDBRANCH  26  27
ENDBRANCH  25  26
ENDBRANCH  24  25
ENDBRANCH  23  24
ENDBRANCH   1  23
TORSDOF 17
ENDMDL
MODEL 3
REMARK VINA RESULT:     -10.6      4.006      8.460
REMARK SMILES COc1ccc(OCCNc2c(Cl)cccc2C(=O)OCCOC(=O)c2ccc(-c3c4nc(c(-c5ccccc5)c5ccc([nH]5)c(-c5ccccc5)c5nc(c(-c6ccccc6)c6ccc3[nH]6)C=C5)C=C4)cc2)cc1
REMARK SMILES IDX 18 1 19 2 17 3 11 4 12 5 13 6 14 7 16 8 15 9 10 10 9 12 8 13
REMARK SMILES IDX 7 14 6 15 3 16 4 17 75 18 5 19 74 20 2 21 1 22 20 23 21 24
REMARK SMILES IDX 22 25 23 26 24 27 25 28 26 29 27 30 73 31 28 32 72 33 29 34
REMARK SMILES IDX 30 35 31 36 66 37 32 38 71 39 65 40 67 41 33 42 70 43 64 44
REMARK SMILES IDX 63 45 34 47 56 48 41 49 55 50 42 51 45 52 54 53 68 54 43 55
REMARK SMILES IDX 44 56 53 58 69 59 46 60 35 61 36 62 40 63 37 64 39 65 38 66
REMARK SMILES IDX 57 67 58 68 62 69 59 70 61 71 60 72 47 73 48 74 52 75 49 76
REMARK SMILES IDX 51 77 50 78
REMARK H PARENT 10 11 67 46 45 57
REMARK Flexibility Score: inf
ROOT
ATOM      1  C   UNL A   1      33.090  27.152  25.535  1.00  0.00     0.340 C 
ATOM      2  O   UNL A   1      33.733  27.690  24.650  1.00  0.00    -0.246 OA
ENDROOT
BRANCH   1   3
ATOM      3  C   UNL A   1      33.208  25.700  25.771  1.00  0.00     0.084 A 
ATOM      4  C   UNL A   1      32.090  24.881  25.966  1.00  0.00     0.068 A 
ATOM      5  C   UNL A   1      32.301  23.486  25.782  1.00  0.00     0.065 A 
ATOM      6  Cl  UNL A   1      30.976  22.367  25.757  1.00  0.00    -0.082 Cl
ATOM      7  C   UNL A   1      33.560  22.929  25.540  1.00  0.00     0.023 A 
ATOM      8  C   UNL A   1      34.478  25.128  25.553  1.00  0.00     0.018 A 
ATOM      9  C   UNL A   1      34.665  23.752  25.470  1.00  0.00     0.003 A 
BRANCH   4  10
ATOM     10  N   UNL A   1      30.889  25.293  26.520  1.00  0.00    -0.380 N 
ATOM     11  H   UNL A   1      30.900  25.401  27.498  1.00  0.00     0.160 HD
BRANCH  10  12
ATOM     12  C   UNL A   1      29.613  25.591  25.889  1.00  0.00     0.154 C 
BRANCH  12  13
ATOM     13  C   UNL A   1      29.826  25.963  24.400  1.00  0.00     0.250 C 
BRANCH  13  14
ATOM     14  O   UNL A   1      28.702  26.621  23.783  1.00  0.00    -0.492 OA
BRANCH  14  15
ATOM     15  C   UNL A   1      28.874  27.864  23.238  1.00  0.00     0.119 A 
ATOM     16  C   UNL A   1      28.907  30.257  21.781  1.00  0.00     0.119 A 
ATOM     17  C   UNL A   1      27.748  29.859  22.439  1.00  0.00     0.050 A 
ATOM     18  C   UNL A   1      30.082  29.539  21.969  1.00  0.00     0.050 A 
ATOM     19  C   UNL A   1      27.728  28.654  23.153  1.00  0.00     0.050 A 
ATOM     20  C   UNL A   1      30.070  28.369  22.737  1.00  0.00     0.050 A 
BRANCH  16  21
ATOM     21  O   UNL A   1      28.857  31.395  21.025  1.00  0.00    -0.497 OA
ATOM     22  C   UNL A   1      28.130  32.444  21.671  1.00  0.00     0.278 C 
ENDBRANCH  16  21
ENDBRANCH  14  15
ENDBRANCH  13  14
ENDBRANCH  12  13
ENDBRANCH  10  12
ENDBRANCH   4  10
ENDBRANCH   1   3
BRANCH   1  23
ATOM     23  O   UNL A   1      32.252  27.761  26.408  1.00  0.00    -0.458 OA
BRANCH  23  24
ATOM     24  C   UNL A   1      31.584  28.941  25.902  1.00  0.00     0.275 C 
BRANCH  24  25
ATOM     25  C   UNL A   1      31.832  30.150  26.800  1.00  0.00     0.275 C 
BRANCH  25  26
ATOM     26  O   UNL A   1      33.052  30.793  26.397  1.00  0.00    -0.458 OA
BRANCH  26  27
ATOM     27  C   UNL A   1      33.530  31.705  27.264  1.00  0.00     0.338 C 
ATOM     28  O   UNL A   1      32.937  32.649  27.771  1.00  0.00    -0.246 OA
BRANCH  27  29
ATOM     29  C   UNL A   1      34.897  31.345  27.651  1.00  0.00     0.060 A 
ATOM     30  C   UNL A   1      35.172  30.004  27.884  1.00  0.00     0.016 A 
ATOM     31  C   UNL A   1      35.829  32.319  27.991  1.00  0.00     0.016 A 
ATOM     32  C   UNL A   1      36.285  29.644  28.632  1.00  0.00     0.010 A 
ATOM     33  C   UNL A   1      37.034  31.932  28.588  1.00  0.00     0.010 A 
ATOM     34  C   UNL A   1      37.253  30.596  28.976  1.00  0.00    -0.014 A 
BRANCH  34  35
ATOM     35  C   UNL A   1      38.462  30.198  29.757  1.00  0.00     0.031 A 
ATOM     36  C   UNL A   1      39.544  29.365  29.116  1.00  0.00     0.074 A 
ATOM     37  C   UNL A   1      38.607  30.589  31.040  1.00  0.00     0.049 A 
ATOM     38  N   UNL A   1      40.543  28.731  29.679  1.00  0.00    -0.248 NA
ATOM     39  C   UNL A   1      39.484  29.200  27.654  1.00  0.00     0.031 C 
ATOM     40  C   UNL A   1      37.677  31.441  31.787  1.00  0.00     0.029 A 
ATOM     41  N   UNL A   1      39.604  30.324  31.949  1.00  0.00    -0.354 N 
ATOM     42  C   UNL A   1      41.171  28.025  28.658  1.00  0.00     0.074 A 
ATOM     43  C   UNL A   1      40.448  28.315  27.439  1.00  0.00     0.031 C 
ATOM     44  C   UNL A   1      38.173  31.677  33.008  1.00  0.00     0.029 A 
ATOM     45  C   UNL A   1      39.385  30.890  33.182  1.00  0.00     0.049 A 
ATOM     46  H   UNL A   1      40.398  29.781  31.737  1.00  0.00     0.167 HD
ATOM     47  C   UNL A   1      42.242  27.199  28.734  1.00  0.00     0.031 A 
ATOM     48  C   UNL A   1      40.036  30.745  34.351  1.00  0.00     0.031 A 
ATOM     49  C   UNL A   1      42.994  26.963  29.939  1.00  0.00     0.049 A 
ATOM     50  C   UNL A   1      41.204  29.811  34.419  1.00  0.00     0.074 A 
ATOM     51  C   UNL A   1      44.115  26.169  30.118  1.00  0.00     0.029 A 
ATOM     52  N   UNL A   1      42.711  27.535  31.170  1.00  0.00    -0.354 N 
ATOM     53  N   UNL A   1      41.744  29.096  33.463  1.00  0.00    -0.248 NA
ATOM     54  C   UNL A   1      41.838  29.645  35.733  1.00  0.00     0.031 C 
ATOM     55  C   UNL A   1      44.480  26.223  31.468  1.00  0.00     0.029 A 
ATOM     56  C   UNL A   1      43.622  27.096  32.118  1.00  0.00     0.049 A 
ATOM     57  H   UNL A   1      41.972  28.161  31.346  1.00  0.00     0.167 HD
ATOM     58  C   UNL A   1      42.783  28.396  34.056  1.00  0.00     0.074 A 
ATOM     59  C   UNL A   1      42.816  28.796  35.449  1.00  0.00     0.031 C 
ATOM     60  C   UNL A   1      43.630  27.495  33.501  1.00  0.00     0.031 A 
BRANCH  47  61
ATOM     61  C   UNL A   1      42.629  26.440  27.493  1.00  0.00    -0.014 A 
ATOM     62  C   UNL A   1      43.545  26.949  26.560  1.00  0.00     0.009 A 
ATOM     63  C   UNL A   1      42.075  25.168  27.270  1.00  0.00     0.009 A 
ATOM     64  C   UNL A   1      43.866  26.218  25.412  1.00  0.00     0.001 A 
ATOM     65  C   UNL A   1      42.420  24.426  26.138  1.00  0.00     0.001 A 
ATOM     66  C   UNL A   1      43.306  24.958  25.204  1.00  0.00     0.000 A 
ENDBRANCH  47  61
BRANCH  48  67
ATOM     67  C   UNL A   1      39.535  31.447  35.563  1.00  0.00    -0.014 A 
ATOM     68  C   UNL A   1      40.147  32.625  36.014  1.00  0.00     0.009 A 
ATOM     69  C   UNL A   1      38.412  30.957  36.253  1.00  0.00     0.009 A 
ATOM     70  C   UNL A   1      39.648  33.295  37.135  1.00  0.00     0.001 A 
ATOM     71  C   UNL A   1      37.895  31.648  37.350  1.00  0.00     0.001 A 
ATOM     72  C   UNL A   1      38.518  32.812  37.795  1.00  0.00     0.000 A 
ENDBRANCH  48  67
BRANCH  60  73
ATOM     73  C   UNL A   1      44.675  26.906  34.402  1.00  0.00    -0.014 A 
ATOM     74  C   UNL A   1      44.443  25.708  35.097  1.00  0.00     0.009 A 
ATOM     75  C   UNL A   1      45.913  27.550  34.546  1.00  0.00     0.009 A 
ATOM     76  C   UNL A   1      45.420  25.188  35.949  1.00  0.00     0.001 A 
ATOM     77  C   UNL A   1      46.897  27.013  35.376  1.00  0.00     0.001 A 
ATOM     78  C   UNL A   1      46.646  25.838  36.084  1.00  0.00     0.000 A 
ENDBRANCH  60  73
ENDBRANCH  34  35
ENDBRANCH  27  29
ENDBRANCH  26  27
ENDBRANCH  25  26
ENDBRANCH  24  25
ENDBRANCH  23  24
ENDBRANCH   1  23
TORSDOF 17
ENDMDL
