MODEL 1
REMARK VINA RESULT:     -11.6      0.000      0.000
REMARK SMILES Cc1cccc(-c2cc(C(=O)OCCOC(=O)c3ccc(-c4c5nc(c(-c6ccccc6)c6ccc([nH]6)c(-c6ccccc6)c6nc(c(-c7ccccc7)c7ccc4[nH]7)C=C6)C=C5)cc3)ccn2)c1
REMARK SMILES IDX 14 1 13 2 12 3 10 4 11 5 9 6 7 7 8 8 68 9 67 10 66 11 6 12
REMARK SMILES IDX 1 13 2 14 3 15 69 16 4 17 5 18 15 19 16 20 17 21 18 22 19 23
REMARK SMILES IDX 65 24 20 25 64 26 21 27 22 28 23 29 58 30 24 31 63 32 57 33
REMARK SMILES IDX 59 34 25 35 62 36 56 37 55 38 26 40 48 41 33 42 47 43 34 44
REMARK SMILES IDX 37 45 46 46 60 47 35 48 36 49 45 51 61 52 38 53 27 54 28 55
REMARK SMILES IDX 32 56 29 57 31 58 30 59 49 60 50 61 54 62 51 63 53 64 52 65
REMARK SMILES IDX 39 66 40 67 44 68 41 69 43 70 42 71
REMARK H PARENT 59 39 37 50
REMARK Flexibility Score: inf
ROOT
ATOM      1  C   UNL A   1      31.671  32.248  27.189  1.00  0.00     0.275 C 
ENDROOT
BRANCH   1   2
ATOM      2  C   UNL A   1      32.307  30.839  27.298  1.00  0.00     0.275 C 
BRANCH   2   3
ATOM      3  O   UNL A   1      33.494  30.511  26.564  1.00  0.00    -0.458 OA
BRANCH   3   4
ATOM      4  C   UNL A   1      33.887  29.232  26.492  1.00  0.00     0.338 C 
ATOM      5  O   UNL A   1      34.981  28.774  26.820  1.00  0.00    -0.246 OA
BRANCH   4   6
ATOM      6  C   UNL A   1      32.813  28.434  25.893  1.00  0.00     0.063 A 
ATOM      7  C   UNL A   1      30.932  28.275  24.448  1.00  0.00     0.071 A 
ATOM      8  C   UNL A   1      32.059  28.973  24.858  1.00  0.00     0.044 A 
ATOM      9  N   UNL A   1      30.618  27.044  24.925  1.00  0.00    -0.256 NA
ATOM     10  C   UNL A   1      31.410  26.523  25.887  1.00  0.00     0.112 A 
ATOM     11  C   UNL A   1      32.480  27.197  26.439  1.00  0.00     0.036 A 
BRANCH   7  12
ATOM     12  C   UNL A   1      29.880  28.982  23.715  1.00  0.00     0.000 A 
ATOM     13  C   UNL A   1      28.568  32.517  23.122  1.00  0.00     0.044 C 
ATOM     14  C   UNL A   1      28.676  31.021  23.137  1.00  0.00    -0.050 A 
ATOM     15  C   UNL A   1      27.607  30.247  22.666  1.00  0.00     0.003 A 
ATOM     16  C   UNL A   1      29.812  30.382  23.658  1.00  0.00     0.013 A 
ATOM     17  C   UNL A   1      27.679  28.856  22.682  1.00  0.00     0.001 A 
ATOM     18  C   UNL A   1      28.812  28.232  23.193  1.00  0.00     0.010 A 
ENDBRANCH   7  12
ENDBRANCH   4   6
ENDBRANCH   3   4
ENDBRANCH   2   3
ENDBRANCH   1   2
BRANCH   1  19
ATOM     19  O   UNL A   1      32.370  33.530  27.280  1.00  0.00    -0.458 OA
BRANCH  19  20
ATOM     20  C   UNL A   1      32.939  34.128  28.348  1.00  0.00     0.338 C 
ATOM     21  O   UNL A   1      32.493  35.124  28.897  1.00  0.00    -0.246 OA
BRANCH  20  22
ATOM     22  C   UNL A   1      34.224  33.562  28.745  1.00  0.00     0.060 A 
ATOM     23  C   UNL A   1      34.289  32.668  29.825  1.00  0.00     0.016 A 
ATOM     24  C   UNL A   1      35.331  33.855  27.959  1.00  0.00     0.016 A 
ATOM     25  C   UNL A   1      35.458  31.964  30.055  1.00  0.00     0.010 A 
ATOM     26  C   UNL A   1      36.433  33.061  28.083  1.00  0.00     0.010 A 
ATOM     27  C   UNL A   1      36.510  32.178  29.168  1.00  0.00    -0.014 A 
BRANCH  27  28
ATOM     28  C   UNL A   1      37.882  31.874  29.492  1.00  0.00     0.031 A 
ATOM     29  C   UNL A   1      38.502  30.634  29.026  1.00  0.00     0.074 A 
ATOM     30  C   UNL A   1      38.477  32.942  30.069  1.00  0.00     0.049 A 
ATOM     31  N   UNL A   1      39.521  30.094  29.588  1.00  0.00    -0.248 NA
ATOM     32  C   UNL A   1      37.991  29.850  27.898  1.00  0.00     0.031 C 
ATOM     33  C   UNL A   1      39.865  33.310  30.254  1.00  0.00     0.029 A 
ATOM     34  N   UNL A   1      37.814  33.980  30.710  1.00  0.00    -0.354 N 
ATOM     35  C   UNL A   1      40.022  29.175  28.691  1.00  0.00     0.074 A 
ATOM     36  C   UNL A   1      38.955  28.930  27.752  1.00  0.00     0.031 C 
ATOM     37  C   UNL A   1      39.928  34.276  31.199  1.00  0.00     0.029 A 
ATOM     38  C   UNL A   1      38.583  34.463  31.746  1.00  0.00     0.049 A 
ATOM     39  H   UNL A   1      36.925  34.321  30.462  1.00  0.00     0.167 HD
ATOM     40  C   UNL A   1      41.360  28.917  28.712  1.00  0.00     0.031 A 
ATOM     41  C   UNL A   1      38.187  34.152  33.020  1.00  0.00     0.031 A 
ATOM     42  C   UNL A   1      42.003  29.734  29.742  1.00  0.00     0.049 A 
ATOM     43  C   UNL A   1      39.129  33.120  33.607  1.00  0.00     0.074 A 
ATOM     44  C   UNL A   1      42.621  30.972  29.668  1.00  0.00     0.029 A 
ATOM     45  N   UNL A   1      41.671  29.535  31.077  1.00  0.00    -0.354 N 
ATOM     46  N   UNL A   1      39.757  32.213  32.905  1.00  0.00    -0.248 NA
ATOM     47  C   UNL A   1      39.496  33.096  35.018  1.00  0.00     0.031 C 
ATOM     48  C   UNL A   1      42.554  31.566  30.958  1.00  0.00     0.029 A 
ATOM     49  C   UNL A   1      41.903  30.687  31.808  1.00  0.00     0.049 A 
ATOM     50  H   UNL A   1      41.321  28.694  31.449  1.00  0.00     0.167 HD
ATOM     51  C   UNL A   1      40.683  31.594  33.698  1.00  0.00     0.074 A 
ATOM     52  C   UNL A   1      40.449  32.148  35.023  1.00  0.00     0.031 C 
ATOM     53  C   UNL A   1      41.612  30.710  33.233  1.00  0.00     0.031 A 
BRANCH  40  54
ATOM     54  C   UNL A   1      42.125  28.232  27.609  1.00  0.00    -0.014 A 
ATOM     55  C   UNL A   1      41.802  28.528  26.269  1.00  0.00     0.009 A 
ATOM     56  C   UNL A   1      43.155  27.297  27.805  1.00  0.00     0.009 A 
ATOM     57  C   UNL A   1      42.424  27.890  25.189  1.00  0.00     0.001 A 
ATOM     58  C   UNL A   1      43.770  26.638  26.727  1.00  0.00     0.001 A 
ATOM     59  C   UNL A   1      43.402  26.933  25.419  1.00  0.00     0.000 A 
ENDBRANCH  40  54
BRANCH  41  60
ATOM     60  C   UNL A   1      36.695  34.192  33.235  1.00  0.00    -0.014 A 
ATOM     61  C   UNL A   1      35.980  35.317  32.757  1.00  0.00     0.009 A 
ATOM     62  C   UNL A   1      35.945  33.071  33.624  1.00  0.00     0.009 A 
ATOM     63  C   UNL A   1      34.594  35.280  32.557  1.00  0.00     0.001 A 
ATOM     64  C   UNL A   1      34.547  33.049  33.453  1.00  0.00     0.001 A 
ATOM     65  C   UNL A   1      33.879  34.135  32.887  1.00  0.00     0.000 A 
ENDBRANCH  41  60
BRANCH  53  66
ATOM     66  C   UNL A   1      42.415  29.792  34.108  1.00  0.00    -0.014 A 
ATOM     67  C   UNL A   1      41.865  28.681  34.758  1.00  0.00     0.009 A 
ATOM     68  C   UNL A   1      43.821  29.926  34.134  1.00  0.00     0.009 A 
ATOM     69  C   UNL A   1      42.676  27.776  35.445  1.00  0.00     0.001 A 
ATOM     70  C   UNL A   1      44.638  28.989  34.763  1.00  0.00     0.001 A 
ATOM     71  C   UNL A   1      44.061  27.922  35.434  1.00  0.00     0.000 A 
ENDBRANCH  53  66
ENDBRANCH  27  28
ENDBRANCH  20  22
ENDBRANCH  19  20
ENDBRANCH   1  19
TORSDOF 12
ENDMDL
MODEL 2
REMARK VINA RESULT:     -11.4      4.197      9.561
REMARK SMILES Cc1cccc(-c2cc(C(=O)OCCOC(=O)c3ccc(-c4c5nc(c(-c6ccccc6)c6ccc([nH]6)c(-c6ccccc6)c6nc(c(-c7ccccc7)c7ccc4[nH]7)C=C6)C=C5)cc3)ccn2)c1
REMARK SMILES IDX 14 1 13 2 12 3 10 4 11 5 9 6 7 7 8 8 68 9 67 10 66 11 6 12
REMARK SMILES IDX 1 13 2 14 3 15 69 16 4 17 5 18 15 19 16 20 17 21 18 22 19 23
REMARK SMILES IDX 65 24 20 25 64 26 21 27 22 28 23 29 58 30 24 31 63 32 57 33
REMARK SMILES IDX 59 34 25 35 62 36 56 37 55 38 26 40 48 41 33 42 47 43 34 44
REMARK SMILES IDX 37 45 46 46 60 47 35 48 36 49 45 51 61 52 38 53 27 54 28 55
REMARK SMILES IDX 32 56 29 57 31 58 30 59 49 60 50 61 54 62 51 63 53 64 52 65
REMARK SMILES IDX 39 66 40 67 44 68 41 69 43 70 42 71
REMARK H PARENT 59 39 37 50
REMARK Flexibility Score: inf
ROOT
ATOM      1  C   UNL A   1      37.057  21.061  25.743  1.00  0.00     0.275 C 
ENDROOT
BRANCH   1   2
ATOM      2  C   UNL A   1      35.847  21.168  24.781  1.00  0.00     0.275 C 
BRANCH   2   3
ATOM      3  O   UNL A   1      35.166  22.416  24.595  1.00  0.00    -0.458 OA
BRANCH   3   4
ATOM      4  C   UNL A   1      35.407  23.135  23.491  1.00  0.00     0.338 C 
ATOM      5  O   UNL A   1      36.387  23.050  22.752  1.00  0.00    -0.246 OA
BRANCH   4   6
ATOM      6  C   UNL A   1      34.329  24.113  23.310  1.00  0.00     0.063 A 
ATOM      7  C   UNL A   1      33.190  26.072  24.029  1.00  0.00     0.071 A 
ATOM      8  C   UNL A   1      34.319  25.267  24.083  1.00  0.00     0.044 A 
ATOM      9  N   UNL A   1      32.169  25.844  23.166  1.00  0.00    -0.256 NA
ATOM     10  C   UNL A   1      32.241  24.745  22.384  1.00  0.00     0.112 A 
ATOM     11  C   UNL A   1      33.268  23.827  22.457  1.00  0.00     0.036 A 
BRANCH   7  12
ATOM     12  C   UNL A   1      32.930  27.013  25.120  1.00  0.00     0.000 A 
ATOM     13  C   UNL A   1      34.786  29.323  27.525  1.00  0.00     0.044 C 
ATOM     14  C   UNL A   1      33.699  28.523  26.872  1.00  0.00    -0.050 A 
ATOM     15  C   UNL A   1      32.435  28.457  27.473  1.00  0.00     0.003 A 
ATOM     16  C   UNL A   1      33.939  27.801  25.693  1.00  0.00     0.013 A 
ATOM     17  C   UNL A   1      31.413  27.710  26.893  1.00  0.00     0.001 A 
ATOM     18  C   UNL A   1      31.659  27.003  25.719  1.00  0.00     0.010 A 
ENDBRANCH   7  12
ENDBRANCH   4   6
ENDBRANCH   3   4
ENDBRANCH   2   3
ENDBRANCH   1   2
BRANCH   1  19
ATOM     19  O   UNL A   1      38.445  21.420  25.445  1.00  0.00    -0.458 OA
BRANCH  19  20
ATOM     20  C   UNL A   1      39.573  21.145  26.134  1.00  0.00     0.338 C 
ATOM     21  O   UNL A   1      40.014  20.020  26.311  1.00  0.00    -0.246 OA
BRANCH  20  22
ATOM     22  C   UNL A   1      40.187  22.304  26.774  1.00  0.00     0.060 A 
ATOM     23  C   UNL A   1      40.934  22.138  27.951  1.00  0.00     0.016 A 
ATOM     24  C   UNL A   1      40.092  23.529  26.125  1.00  0.00     0.016 A 
ATOM     25  C   UNL A   1      41.695  23.190  28.427  1.00  0.00     0.010 A 
ATOM     26  C   UNL A   1      40.951  24.519  26.498  1.00  0.00     0.010 A 
ATOM     27  C   UNL A   1      41.687  24.365  27.680  1.00  0.00    -0.014 A 
BRANCH  27  28
ATOM     28  C   UNL A   1      42.058  25.646  28.231  1.00  0.00     0.031 A 
ATOM     29  C   UNL A   1      41.035  26.619  28.612  1.00  0.00     0.074 A 
ATOM     30  C   UNL A   1      43.384  25.679  28.493  1.00  0.00     0.049 A 
ATOM     31  N   UNL A   1      41.253  27.880  28.701  1.00  0.00    -0.248 NA
ATOM     32  C   UNL A   1      39.640  26.261  28.880  1.00  0.00     0.031 C 
ATOM     33  C   UNL A   1      44.195  26.526  29.342  1.00  0.00     0.029 A 
ATOM     34  N   UNL A   1      44.339  24.862  27.902  1.00  0.00    -0.354 N 
ATOM     35  C   UNL A   1      40.195  28.412  29.406  1.00  0.00     0.074 A 
ATOM     36  C   UNL A   1      39.148  27.421  29.337  1.00  0.00     0.031 C 
ATOM     37  C   UNL A   1      45.489  26.387  28.972  1.00  0.00     0.029 A 
ATOM     38  C   UNL A   1      45.530  25.541  27.779  1.00  0.00     0.049 A 
ATOM     39  H   UNL A   1      44.187  23.933  27.613  1.00  0.00     0.167 HD
ATOM     40  C   UNL A   1      40.418  29.520  30.166  1.00  0.00     0.031 A 
ATOM     41  C   UNL A   1      45.895  25.948  26.522  1.00  0.00     0.031 A 
ATOM     42  C   UNL A   1      41.824  29.914  30.061  1.00  0.00     0.049 A 
ATOM     43  C   UNL A   1      45.727  27.449  26.405  1.00  0.00     0.074 A 
ATOM     44  C   UNL A   1      42.917  29.606  30.854  1.00  0.00     0.029 A 
ATOM     45  N   UNL A   1      42.327  30.326  28.832  1.00  0.00    -0.354 N 
ATOM     46  N   UNL A   1      44.827  28.142  27.055  1.00  0.00    -0.248 NA
ATOM     47  C   UNL A   1      46.621  28.287  25.614  1.00  0.00     0.031 C 
ATOM     48  C   UNL A   1      44.083  29.728  30.048  1.00  0.00     0.029 A 
ATOM     49  C   UNL A   1      43.693  30.114  28.776  1.00  0.00     0.049 A 
ATOM     50  H   UNL A   1      41.788  30.713  28.106  1.00  0.00     0.167 HD
ATOM     51  C   UNL A   1      45.086  29.475  26.896  1.00  0.00     0.074 A 
ATOM     52  C   UNL A   1      46.190  29.516  25.949  1.00  0.00     0.031 C 
ATOM     53  C   UNL A   1      44.430  30.462  27.571  1.00  0.00     0.031 A 
BRANCH  40  54
ATOM     54  C   UNL A   1      39.503  30.022  31.254  1.00  0.00    -0.014 A 
ATOM     55  C   UNL A   1      38.483  30.936  30.920  1.00  0.00     0.009 A 
ATOM     56  C   UNL A   1      39.583  29.651  32.606  1.00  0.00     0.009 A 
ATOM     57  C   UNL A   1      37.633  31.494  31.881  1.00  0.00     0.001 A 
ATOM     58  C   UNL A   1      38.745  30.221  33.579  1.00  0.00     0.001 A 
ATOM     59  C   UNL A   1      37.772  31.146  33.217  1.00  0.00     0.000 A 
ENDBRANCH  40  54
BRANCH  41  60
ATOM     60  C   UNL A   1      45.590  24.950  25.432  1.00  0.00    -0.014 A 
ATOM     61  C   UNL A   1      46.648  24.137  24.957  1.00  0.00     0.009 A 
ATOM     62  C   UNL A   1      44.286  24.589  25.064  1.00  0.00     0.009 A 
ATOM     63  C   UNL A   1      46.406  22.950  24.253  1.00  0.00     0.001 A 
ATOM     64  C   UNL A   1      44.047  23.412  24.329  1.00  0.00     0.001 A 
ATOM     65  C   UNL A   1      45.101  22.576  23.957  1.00  0.00     0.000 A 
ENDBRANCH  41  60
BRANCH  53  66
ATOM     66  C   UNL A   1      44.471  31.914  27.192  1.00  0.00    -0.014 A 
ATOM     67  C   UNL A   1      44.142  32.377  25.913  1.00  0.00     0.009 A 
ATOM     68  C   UNL A   1      44.657  32.882  28.203  1.00  0.00     0.009 A 
ATOM     69  C   UNL A   1      44.056  33.746  25.645  1.00  0.00     0.001 A 
ATOM     70  C   UNL A   1      44.507  34.245  27.954  1.00  0.00     0.001 A 
ATOM     71  C   UNL A   1      44.224  34.676  26.668  1.00  0.00     0.000 A 
ENDBRANCH  53  66
ENDBRANCH  27  28
ENDBRANCH  20  22
ENDBRANCH  19  20
ENDBRANCH   1  19
TORSDOF 12
ENDMDL
MODEL 3
REMARK VINA RESULT:     -11.4      3.190      5.740
REMARK SMILES Cc1cccc(-c2cc(C(=O)OCCOC(=O)c3ccc(-c4c5nc(c(-c6ccccc6)c6ccc([nH]6)c(-c6ccccc6)c6nc(c(-c7ccccc7)c7ccc4[nH]7)C=C6)C=C5)cc3)ccn2)c1
REMARK SMILES IDX 14 1 13 2 12 3 10 4 11 5 9 6 7 7 8 8 68 9 67 10 66 11 6 12
REMARK SMILES IDX 1 13 2 14 3 15 69 16 4 17 5 18 15 19 16 20 17 21 18 22 19 23
REMARK SMILES IDX 65 24 20 25 64 26 21 27 22 28 23 29 58 30 24 31 63 32 57 33
REMARK SMILES IDX 59 34 25 35 62 36 56 37 55 38 26 40 48 41 33 42 47 43 34 44
REMARK SMILES IDX 37 45 46 46 60 47 35 48 36 49 45 51 61 52 38 53 27 54 28 55
REMARK SMILES IDX 32 56 29 57 31 58 30 59 49 60 50 61 54 62 51 63 53 64 52 65
REMARK SMILES IDX 39 66 40 67 44 68 41 69 43 70 42 71
REMARK H PARENT 59 39 37 50
REMARK Flexibility Score: inf
ROOT
ATOM      1  C   UNL A   1      34.526  28.753  26.670  1.00  0.00     0.275 C 
ENDROOT
BRANCH   1   2
ATOM      2  C   UNL A   1      33.334  29.230  25.802  1.00  0.00     0.275 C 
BRANCH   2   3
ATOM      3  O   UNL A   1      31.982  28.978  26.211  1.00  0.00    -0.458 OA
BRANCH   3   4
ATOM      4  C   UNL A   1      31.697  27.848  26.871  1.00  0.00     0.338 C 
ATOM      5  O   UNL A   1      31.499  27.727  28.079  1.00  0.00    -0.246 OA
BRANCH   4   6
ATOM      6  C   UNL A   1      31.710  26.726  25.928  1.00  0.00     0.063 A 
ATOM      7  C   UNL A   1      32.827  24.856  24.974  1.00  0.00     0.071 A 
ATOM      8  C   UNL A   1      32.735  25.789  25.997  1.00  0.00     0.044 A 
ATOM      9  N   UNL A   1      31.894  24.746  23.996  1.00  0.00    -0.256 NA
ATOM     10  C   UNL A   1      30.877  25.634  23.996  1.00  0.00     0.112 A 
ATOM     11  C   UNL A   1      30.771  26.668  24.903  1.00  0.00     0.036 A 
BRANCH   7  12
ATOM     12  C   UNL A   1      34.099  24.166  24.748  1.00  0.00     0.000 A 
ATOM     13  C   UNL A   1      37.618  23.920  26.205  1.00  0.00     0.044 C 
ATOM     14  C   UNL A   1      36.444  23.773  25.284  1.00  0.00    -0.050 A 
ATOM     15  C   UNL A   1      36.623  23.177  24.028  1.00  0.00     0.003 A 
ATOM     16  C   UNL A   1      35.178  24.263  25.639  1.00  0.00     0.013 A 
ATOM     17  C   UNL A   1      35.551  23.041  23.150  1.00  0.00     0.001 A 
ATOM     18  C   UNL A   1      34.297  23.523  23.514  1.00  0.00     0.010 A 
ENDBRANCH   7  12
ENDBRANCH   4   6
ENDBRANCH   3   4
ENDBRANCH   2   3
ENDBRANCH   1   2
BRANCH   1  19
ATOM     19  O   UNL A   1      34.840  29.182  28.033  1.00  0.00    -0.458 OA
BRANCH  19  20
ATOM     20  C   UNL A   1      35.763  30.067  28.468  1.00  0.00     0.338 C 
ATOM     21  O   UNL A   1      35.535  31.246  28.690  1.00  0.00    -0.246 OA
BRANCH  20  22
ATOM     22  C   UNL A   1      37.120  29.535  28.544  1.00  0.00     0.060 A 
ATOM     23  C   UNL A   1      38.018  29.757  27.488  1.00  0.00     0.016 A 
ATOM     24  C   UNL A   1      37.505  28.908  29.723  1.00  0.00     0.016 A 
ATOM     25  C   UNL A   1      39.356  29.451  27.658  1.00  0.00     0.010 A 
ATOM     26  C   UNL A   1      38.838  28.744  29.955  1.00  0.00     0.010 A 
ATOM     27  C   UNL A   1      39.737  28.950  28.900  1.00  0.00    -0.014 A 
BRANCH  27  28
ATOM     28  C   UNL A   1      40.955  28.203  29.103  1.00  0.00     0.031 A 
ATOM     29  C   UNL A   1      41.124  26.877  28.509  1.00  0.00     0.074 A 
ATOM     30  C   UNL A   1      41.886  28.975  29.707  1.00  0.00     0.049 A 
ATOM     31  N   UNL A   1      41.943  25.997  28.958  1.00  0.00    -0.248 NA
ATOM     32  C   UNL A   1      40.338  26.395  27.370  1.00  0.00     0.031 C 
ATOM     33  C   UNL A   1      43.325  28.870  29.817  1.00  0.00     0.029 A 
ATOM     34  N   UNL A   1      41.619  30.109  30.464  1.00  0.00    -0.354 N 
ATOM     35  C   UNL A   1      42.083  25.050  27.968  1.00  0.00     0.074 A 
ATOM     36  C   UNL A   1      40.950  25.236  27.093  1.00  0.00     0.031 C 
ATOM     37  C   UNL A   1      43.737  29.681  30.819  1.00  0.00     0.029 A 
ATOM     38  C   UNL A   1      42.549  30.232  31.472  1.00  0.00     0.049 A 
ATOM     39  H   UNL A   1      40.874  30.732  30.304  1.00  0.00     0.167 HD
ATOM     40  C   UNL A   1      43.267  24.383  27.874  1.00  0.00     0.031 A 
ATOM     41  C   UNL A   1      42.134  29.952  32.747  1.00  0.00     0.031 A 
ATOM     42  C   UNL A   1      44.184  24.863  28.909  1.00  0.00     0.049 A 
ATOM     43  C   UNL A   1      42.724  28.629  33.193  1.00  0.00     0.074 A 
ATOM     44  C   UNL A   1      45.161  25.846  28.875  1.00  0.00     0.029 A 
ATOM     45  N   UNL A   1      43.869  24.662  30.247  1.00  0.00    -0.354 N 
ATOM     46  N   UNL A   1      42.997  27.635  32.388  1.00  0.00    -0.248 NA
ATOM     47  C   UNL A   1      43.129  28.367  34.569  1.00  0.00     0.031 C 
ATOM     48  C   UNL A   1      45.347  26.315  30.205  1.00  0.00     0.029 A 
ATOM     49  C   UNL A   1      44.490  25.615  31.036  1.00  0.00     0.049 A 
ATOM     50  H   UNL A   1      43.286  23.945  30.586  1.00  0.00     0.167 HD
ATOM     51  C   UNL A   1      43.712  26.689  33.068  1.00  0.00     0.074 A 
ATOM     52  C   UNL A   1      43.730  27.171  34.441  1.00  0.00     0.031 C 
ATOM     53  C   UNL A   1      44.288  25.602  32.477  1.00  0.00     0.031 A 
BRANCH  40  54
ATOM     54  C   UNL A   1      43.722  23.592  26.674  1.00  0.00    -0.014 A 
ATOM     55  C   UNL A   1      44.404  24.258  25.636  1.00  0.00     0.009 A 
ATOM     56  C   UNL A   1      43.515  22.215  26.494  1.00  0.00     0.009 A 
ATOM     57  C   UNL A   1      44.804  23.608  24.463  1.00  0.00     0.001 A 
ATOM     58  C   UNL A   1      43.897  21.559  25.312  1.00  0.00     0.001 A 
ATOM     59  C   UNL A   1      44.538  22.257  24.295  1.00  0.00     0.000 A 
ENDBRANCH  40  54
BRANCH  41  60
ATOM     60  C   UNL A   1      40.744  30.439  33.071  1.00  0.00    -0.014 A 
ATOM     61  C   UNL A   1      40.404  31.769  32.723  1.00  0.00     0.009 A 
ATOM     62  C   UNL A   1      39.696  29.581  33.436  1.00  0.00     0.009 A 
ATOM     63  C   UNL A   1      39.070  32.186  32.621  1.00  0.00     0.001 A 
ATOM     64  C   UNL A   1      38.357  30.014  33.365  1.00  0.00     0.001 A 
ATOM     65  C   UNL A   1      38.044  31.300  32.924  1.00  0.00     0.000 A 
ENDBRANCH  41  60
BRANCH  53  66
ATOM     66  C   UNL A   1      44.797  24.406  33.228  1.00  0.00    -0.014 A 
ATOM     67  C   UNL A   1      46.101  24.317  33.727  1.00  0.00     0.009 A 
ATOM     68  C   UNL A   1      43.883  23.405  33.623  1.00  0.00     0.009 A 
ATOM     69  C   UNL A   1      46.488  23.249  34.540  1.00  0.00     0.001 A 
ATOM     70  C   UNL A   1      44.248  22.375  34.487  1.00  0.00     0.001 A 
ATOM     71  C   UNL A   1      45.558  22.289  34.931  1.00  0.00     0.000 A 
ENDBRANCH  53  66
ENDBRANCH  27  28
ENDBRANCH  20  22
ENDBRANCH  19  20
ENDBRANCH   1  19
TORSDOF 12
ENDMDL
