MODEL 1
REMARK VINA RESULT:     -10.1      0.000      0.000
REMARK SMILES CCSc1cccc(-c2ccc([C@@H](C)C(=O)OCCOC(=O)c3ccc(-c4c5nc(c(-c6ccccc6)c6ccc([nH]6)c(-c6ccccc6)c6nc(c(-c7ccccc7)c7ccc4[nH]7)C=C6)C=C5)cc3)cc2)c1
REMARK SMILES IDX 18 1 17 2 15 3 16 4 13 5 14 6 12 7 9 8 10 9 72 10 11 11
REMARK SMILES IDX 71 12 8 13 4 14 5 15 73 16 6 17 7 18 3 19 2 20 1 21 19 22
REMARK SMILES IDX 20 23 21 24 22 25 23 26 24 27 70 28 25 29 69 30 26 31 27 32
REMARK SMILES IDX 28 33 63 34 29 35 68 36 62 37 64 38 30 39 67 40 61 41 60 42
REMARK SMILES IDX 31 44 53 45 38 46 52 47 39 48 42 49 51 50 65 51 40 52 41 53
REMARK SMILES IDX 50 55 66 56 43 57 32 58 33 59 37 60 34 61 36 62 35 63 54 64
REMARK SMILES IDX 55 65 59 66 56 67 58 68 57 69 44 70 45 71 49 72 46 73 48 74
REMARK SMILES IDX 47 75
REMARK H PARENT 64 43 42 54
REMARK Flexibility Score: inf
ROOT
ATOM      1  C   UNL A   1      42.360  18.685  26.357  1.00  0.00     0.274 C 
ENDROOT
BRANCH   1   2
ATOM      2  O   UNL A   1      41.918  20.051  26.231  1.00  0.00    -0.462 OA
BRANCH   2   3
ATOM      3  C   UNL A   1      41.241  20.576  27.285  1.00  0.00     0.313 C 
ATOM      4  O   UNL A   1      40.778  19.912  28.208  1.00  0.00    -0.252 OA
BRANCH   3   5
ATOM      5  C   UNL A   1      41.041  22.084  27.196  1.00  0.00     0.126 C 
ATOM      6  C   UNL A   1      41.361  22.728  28.544  1.00  0.00     0.025 C 
BRANCH   5   7
ATOM      7  C   UNL A   1      39.707  22.545  26.629  1.00  0.00    -0.034 A 
ATOM      8  C   UNL A   1      37.225  23.367  25.506  1.00  0.00    -0.018 A 
ATOM      9  C   UNL A   1      37.982  24.233  26.308  1.00  0.00     0.009 A 
ATOM     10  C   UNL A   1      37.726  22.078  25.285  1.00  0.00     0.009 A 
ATOM     11  C   UNL A   1      39.203  23.831  26.861  1.00  0.00     0.005 A 
ATOM     12  C   UNL A   1      38.950  21.676  25.828  1.00  0.00     0.005 A 
BRANCH   8  13
ATOM     13  C   UNL A   1      35.960  23.806  24.892  1.00  0.00    -0.017 A 
ATOM     14  C   UNL A   1      33.905  25.127  24.958  1.00  0.00     0.008 A 
ATOM     15  C   UNL A   1      33.522  24.597  23.725  1.00  0.00     0.015 A 
ATOM     16  C   UNL A   1      35.114  24.723  25.539  1.00  0.00     0.023 A 
ATOM     17  C   UNL A   1      34.346  23.686  23.068  1.00  0.00     0.002 A 
ATOM     18  C   UNL A   1      35.555  23.297  23.647  1.00  0.00     0.009 A 
BRANCH  14  19
ATOM     19  S   UNL A   1      32.852  26.279  25.823  1.00  0.00    -0.126 SA
BRANCH  19  20
ATOM     20  C   UNL A   1      33.727  27.840  25.469  1.00  0.00     0.071 C 
ATOM     21  C   UNL A   1      34.270  28.478  26.736  1.00  0.00     0.016 C 
ENDBRANCH  19  20
ENDBRANCH  14  19
ENDBRANCH   8  13
ENDBRANCH   5   7
ENDBRANCH   3   5
ENDBRANCH   2   3
ENDBRANCH   1   2
BRANCH   1  22
ATOM     22  C   UNL A   1      43.541  18.391  25.431  1.00  0.00     0.275 C 
BRANCH  22  23
ATOM     23  O   UNL A   1      43.669  19.406  24.420  1.00  0.00    -0.458 OA
BRANCH  23  24
ATOM     24  C   UNL A   1      44.940  19.729  24.089  1.00  0.00     0.338 C 
ATOM     25  O   UNL A   1      45.742  19.057  23.466  1.00  0.00    -0.246 OA
BRANCH  24  26
ATOM     26  C   UNL A   1      45.214  21.115  24.494  1.00  0.00     0.060 A 
ATOM     27  C   UNL A   1      45.667  21.332  25.796  1.00  0.00     0.016 A 
ATOM     28  C   UNL A   1      44.935  22.190  23.651  1.00  0.00     0.016 A 
ATOM     29  C   UNL A   1      45.818  22.628  26.276  1.00  0.00     0.010 A 
ATOM     30  C   UNL A   1      45.099  23.496  24.129  1.00  0.00     0.010 A 
ATOM     31  C   UNL A   1      45.520  23.720  25.453  1.00  0.00    -0.014 A 
BRANCH  31  32
ATOM     32  C   UNL A   1      45.603  25.088  26.016  1.00  0.00     0.031 A 
ATOM     33  C   UNL A   1      46.909  25.830  26.001  1.00  0.00     0.074 A 
ATOM     34  C   UNL A   1      44.492  25.689  26.480  1.00  0.00     0.049 A 
ATOM     35  N   UNL A   1      47.173  27.042  26.418  1.00  0.00    -0.248 NA
ATOM     36  C   UNL A   1      48.067  25.118  25.439  1.00  0.00     0.031 C 
ATOM     37  C   UNL A   1      43.157  25.090  26.511  1.00  0.00     0.029 A 
ATOM     38  N   UNL A   1      44.309  26.946  26.997  1.00  0.00    -0.354 N 
ATOM     39  C   UNL A   1      48.528  27.235  26.181  1.00  0.00     0.074 A 
ATOM     40  C   UNL A   1      49.034  26.009  25.602  1.00  0.00     0.031 C 
ATOM     41  C   UNL A   1      42.288  25.988  27.002  1.00  0.00     0.029 A 
ATOM     42  C   UNL A   1      43.009  27.210  27.347  1.00  0.00     0.049 A 
ATOM     43  H   UNL A   1      45.041  27.595  27.107  1.00  0.00     0.167 HD
ATOM     44  C   UNL A   1      49.283  28.334  26.420  1.00  0.00     0.031 A 
ATOM     45  C   UNL A   1      42.460  28.312  27.891  1.00  0.00     0.031 A 
ATOM     46  C   UNL A   1      48.787  29.556  26.996  1.00  0.00     0.049 A 
ATOM     47  C   UNL A   1      43.328  29.503  28.185  1.00  0.00     0.074 A 
ATOM     48  C   UNL A   1      49.477  30.721  27.277  1.00  0.00     0.029 A 
ATOM     49  N   UNL A   1      47.472  29.768  27.379  1.00  0.00    -0.354 N 
ATOM     50  N   UNL A   1      44.607  29.669  27.957  1.00  0.00    -0.248 NA
ATOM     51  C   UNL A   1      42.671  30.660  28.810  1.00  0.00     0.031 C 
ATOM     52  C   UNL A   1      48.587  31.628  27.862  1.00  0.00     0.029 A 
ATOM     53  C   UNL A   1      47.334  31.040  27.908  1.00  0.00     0.049 A 
ATOM     54  H   UNL A   1      46.744  29.111  27.288  1.00  0.00     0.167 HD
ATOM     55  C   UNL A   1      44.907  30.951  28.398  1.00  0.00     0.074 A 
ATOM     56  C   UNL A   1      43.671  31.526  28.887  1.00  0.00     0.031 C 
ATOM     57  C   UNL A   1      46.100  31.594  28.398  1.00  0.00     0.031 A 
BRANCH  44  58
ATOM     58  C   UNL A   1      50.743  28.248  26.086  1.00  0.00    -0.014 A 
ATOM     59  C   UNL A   1      51.678  27.787  27.026  1.00  0.00     0.009 A 
ATOM     60  C   UNL A   1      51.186  28.611  24.804  1.00  0.00     0.009 A 
ATOM     61  C   UNL A   1      53.033  27.719  26.697  1.00  0.00     0.001 A 
ATOM     62  C   UNL A   1      52.539  28.523  24.473  1.00  0.00     0.001 A 
ATOM     63  C   UNL A   1      53.462  28.084  25.420  1.00  0.00     0.000 A 
ENDBRANCH  44  58
BRANCH  45  64
ATOM     64  C   UNL A   1      41.010  28.340  28.202  1.00  0.00    -0.014 A 
ATOM     65  C   UNL A   1      40.520  27.748  29.377  1.00  0.00     0.009 A 
ATOM     66  C   UNL A   1      40.107  28.955  27.321  1.00  0.00     0.009 A 
ATOM     67  C   UNL A   1      39.151  27.756  29.652  1.00  0.00     0.001 A 
ATOM     68  C   UNL A   1      38.742  28.980  27.611  1.00  0.00     0.001 A 
ATOM     69  C   UNL A   1      38.265  28.375  28.772  1.00  0.00     0.000 A 
ENDBRANCH  45  64
BRANCH  57  70
ATOM     70  C   UNL A   1      46.114  32.997  28.930  1.00  0.00    -0.014 A 
ATOM     71  C   UNL A   1      45.986  34.099  28.069  1.00  0.00     0.009 A 
ATOM     72  C   UNL A   1      46.237  33.218  30.310  1.00  0.00     0.009 A 
ATOM     73  C   UNL A   1      46.016  35.398  28.580  1.00  0.00     0.001 A 
ATOM     74  C   UNL A   1      46.244  34.518  30.819  1.00  0.00     0.001 A 
ATOM     75  C   UNL A   1      46.142  35.606  29.953  1.00  0.00     0.000 A 
ENDBRANCH  57  70
ENDBRANCH  31  32
ENDBRANCH  24  26
ENDBRANCH  23  24
ENDBRANCH  22  23
ENDBRANCH   1  22
TORSDOF 15
ENDMDL
MODEL 2
REMARK VINA RESULT:     -10.0      5.816     11.283
REMARK SMILES CCSc1cccc(-c2ccc([C@@H](C)C(=O)OCCOC(=O)c3ccc(-c4c5nc(c(-c6ccccc6)c6ccc([nH]6)c(-c6ccccc6)c6nc(c(-c7ccccc7)c7ccc4[nH]7)C=C6)C=C5)cc3)cc2)c1
REMARK SMILES IDX 18 1 17 2 15 3 16 4 13 5 14 6 12 7 9 8 10 9 72 10 11 11
REMARK SMILES IDX 71 12 8 13 4 14 5 15 73 16 6 17 7 18 3 19 2 20 1 21 19 22
REMARK SMILES IDX 20 23 21 24 22 25 23 26 24 27 70 28 25 29 69 30 26 31 27 32
REMARK SMILES IDX 28 33 63 34 29 35 68 36 62 37 64 38 30 39 67 40 61 41 60 42
REMARK SMILES IDX 31 44 53 45 38 46 52 47 39 48 42 49 51 50 65 51 40 52 41 53
REMARK SMILES IDX 50 55 66 56 43 57 32 58 33 59 37 60 34 61 36 62 35 63 54 64
REMARK SMILES IDX 55 65 59 66 56 67 58 68 57 69 44 70 45 71 49 72 46 73 48 74
REMARK SMILES IDX 47 75
REMARK H PARENT 64 43 42 54
REMARK Flexibility Score: inf
ROOT
ATOM      1  C   UNL A   1      34.057  34.347  29.370  1.00  0.00     0.274 C 
ENDROOT
BRANCH   1   2
ATOM      2  O   UNL A   1      33.678  34.063  30.730  1.00  0.00    -0.462 OA
BRANCH   2   3
ATOM      3  C   UNL A   1      34.642  34.207  31.677  1.00  0.00     0.313 C 
ATOM      4  O   UNL A   1      34.696  35.142  32.472  1.00  0.00    -0.252 OA
BRANCH   3   5
ATOM      5  C   UNL A   1      35.713  33.124  31.632  1.00  0.00     0.126 C 
ATOM      6  C   UNL A   1      35.808  32.433  32.991  1.00  0.00     0.025 C 
BRANCH   5   7
ATOM      7  C   UNL A   1      37.071  33.554  31.098  1.00  0.00    -0.034 A 
ATOM      8  C   UNL A   1      39.611  34.299  30.054  1.00  0.00    -0.018 A 
ATOM      9  C   UNL A   1      39.274  34.546  31.393  1.00  0.00     0.009 A 
ATOM     10  C   UNL A   1      38.650  33.682  29.243  1.00  0.00     0.009 A 
ATOM     11  C   UNL A   1      38.026  34.181  31.909  1.00  0.00     0.005 A 
ATOM     12  C   UNL A   1      37.405  33.308  29.758  1.00  0.00     0.005 A 
BRANCH   8  13
ATOM     13  C   UNL A   1      40.940  34.648  29.525  1.00  0.00    -0.017 A 
ATOM     14  C   UNL A   1      42.372  36.016  28.092  1.00  0.00     0.008 A 
ATOM     15  C   UNL A   1      43.484  35.270  28.487  1.00  0.00     0.015 A 
ATOM     16  C   UNL A   1      41.108  35.697  28.604  1.00  0.00     0.023 A 
ATOM     17  C   UNL A   1      43.339  34.227  29.399  1.00  0.00     0.002 A 
ATOM     18  C   UNL A   1      42.078  33.922  29.914  1.00  0.00     0.009 A 
BRANCH  14  19
ATOM     19  S   UNL A   1      42.535  37.342  26.909  1.00  0.00    -0.126 SA
BRANCH  19  20
ATOM     20  C   UNL A   1      42.366  38.782  28.017  1.00  0.00     0.071 C 
ATOM     21  C   UNL A   1      41.659  39.937  27.330  1.00  0.00     0.016 C 
ENDBRANCH  19  20
ENDBRANCH  14  19
ENDBRANCH   8  13
ENDBRANCH   5   7
ENDBRANCH   3   5
ENDBRANCH   2   3
ENDBRANCH   1   2
BRANCH   1  22
ATOM     22  C   UNL A   1      33.718  33.182  28.439  1.00  0.00     0.275 C 
BRANCH  22  23
ATOM     23  O   UNL A   1      34.281  31.951  28.927  1.00  0.00    -0.458 OA
BRANCH  23  24
ATOM     24  C   UNL A   1      34.514  31.012  27.982  1.00  0.00     0.338 C 
ATOM     25  O   UNL A   1      33.862  30.788  26.978  1.00  0.00    -0.246 OA
BRANCH  24  26
ATOM     26  C   UNL A   1      35.786  30.335  28.268  1.00  0.00     0.060 A 
ATOM     27  C   UNL A   1      35.960  29.792  29.541  1.00  0.00     0.016 A 
ATOM     28  C   UNL A   1      36.829  30.319  27.341  1.00  0.00     0.016 A 
ATOM     29  C   UNL A   1      37.187  29.255  29.911  1.00  0.00     0.010 A 
ATOM     30  C   UNL A   1      38.062  29.767  27.708  1.00  0.00     0.010 A 
ATOM     31  C   UNL A   1      38.253  29.253  29.004  1.00  0.00    -0.014 A 
BRANCH  31  32
ATOM     32  C   UNL A   1      39.576  28.758  29.451  1.00  0.00     0.031 A 
ATOM     33  C   UNL A   1      40.344  29.509  30.501  1.00  0.00     0.074 A 
ATOM     34  C   UNL A   1      40.057  27.599  28.965  1.00  0.00     0.049 A 
ATOM     35  N   UNL A   1      41.500  29.219  31.043  1.00  0.00    -0.248 NA
ATOM     36  C   UNL A   1      39.730  30.745  31.012  1.00  0.00     0.031 C 
ATOM     37  C   UNL A   1      39.388  26.756  27.973  1.00  0.00     0.029 A 
ATOM     38  N   UNL A   1      41.214  26.923  29.256  1.00  0.00    -0.354 N 
ATOM     39  C   UNL A   1      41.758  30.240  31.949  1.00  0.00     0.074 A 
ATOM     40  C   UNL A   1      40.648  31.166  31.869  1.00  0.00     0.031 C 
ATOM     41  C   UNL A   1      40.137  25.664  27.754  1.00  0.00     0.029 A 
ATOM     42  C   UNL A   1      41.350  25.747  28.563  1.00  0.00     0.049 A 
ATOM     43  H   UNL A   1      41.883  27.252  29.899  1.00  0.00     0.167 HD
ATOM     44  C   UNL A   1      42.821  30.392  32.774  1.00  0.00     0.031 A 
ATOM     45  C   UNL A   1      42.343  24.838  28.575  1.00  0.00     0.031 A 
ATOM     46  C   UNL A   1      43.928  29.476  32.858  1.00  0.00     0.049 A 
ATOM     47  C   UNL A   1      43.530  25.052  29.469  1.00  0.00     0.074 A 
ATOM     48  C   UNL A   1      45.050  29.549  33.664  1.00  0.00     0.029 A 
ATOM     49  N   UNL A   1      44.049  28.318  32.107  1.00  0.00    -0.354 N 
ATOM     50  N   UNL A   1      43.761  26.023  30.318  1.00  0.00    -0.248 NA
ATOM     51  C   UNL A   1      44.594  24.039  29.408  1.00  0.00     0.031 C 
ATOM     52  C   UNL A   1      45.868  28.451  33.377  1.00  0.00     0.029 A 
ATOM     53  C   UNL A   1      45.235  27.675  32.419  1.00  0.00     0.049 A 
ATOM     54  H   UNL A   1      43.390  28.000  31.448  1.00  0.00     0.167 HD
ATOM     55  C   UNL A   1      44.987  25.733  30.901  1.00  0.00     0.074 A 
ATOM     56  C   UNL A   1      45.442  24.485  30.324  1.00  0.00     0.031 C 
ATOM     57  C   UNL A   1      45.676  26.439  31.830  1.00  0.00     0.031 A 
BRANCH  44  58
ATOM     58  C   UNL A   1      42.849  31.622  33.634  1.00  0.00    -0.014 A 
ATOM     59  C   UNL A   1      43.386  32.828  33.159  1.00  0.00     0.009 A 
ATOM     60  C   UNL A   1      42.312  31.577  34.930  1.00  0.00     0.009 A 
ATOM     61  C   UNL A   1      43.408  33.960  33.976  1.00  0.00     0.001 A 
ATOM     62  C   UNL A   1      42.317  32.715  35.737  1.00  0.00     0.001 A 
ATOM     63  C   UNL A   1      42.871  33.904  35.263  1.00  0.00     0.000 A 
ENDBRANCH  44  58
BRANCH  45  64
ATOM     64  C   UNL A   1      42.261  23.641  27.702  1.00  0.00    -0.014 A 
ATOM     65  C   UNL A   1      42.760  23.679  26.390  1.00  0.00     0.009 A 
ATOM     66  C   UNL A   1      41.679  22.456  28.176  1.00  0.00     0.009 A 
ATOM     67  C   UNL A   1      42.658  22.557  25.565  1.00  0.00     0.001 A 
ATOM     68  C   UNL A   1      41.599  21.330  27.354  1.00  0.00     0.001 A 
ATOM     69  C   UNL A   1      42.082  21.383  26.049  1.00  0.00     0.000 A 
ENDBRANCH  45  64
BRANCH  57  70
ATOM     70  C   UNL A   1      46.984  25.863  32.287  1.00  0.00    -0.014 A 
ATOM     71  C   UNL A   1      48.165  26.083  31.559  1.00  0.00     0.009 A 
ATOM     72  C   UNL A   1      47.040  25.110  33.469  1.00  0.00     0.009 A 
ATOM     73  C   UNL A   1      49.371  25.528  31.990  1.00  0.00     0.001 A 
ATOM     74  C   UNL A   1      48.252  24.575  33.909  1.00  0.00     0.001 A 
ATOM     75  C   UNL A   1      49.414  24.777  33.165  1.00  0.00     0.000 A 
ENDBRANCH  57  70
ENDBRANCH  31  32
ENDBRANCH  24  26
ENDBRANCH  23  24
ENDBRANCH  22  23
ENDBRANCH   1  22
TORSDOF 15
ENDMDL
MODEL 3
REMARK VINA RESULT:     -10.0      3.493      6.314
REMARK SMILES CCSc1cccc(-c2ccc([C@@H](C)C(=O)OCCOC(=O)c3ccc(-c4c5nc(c(-c6ccccc6)c6ccc([nH]6)c(-c6ccccc6)c6nc(c(-c7ccccc7)c7ccc4[nH]7)C=C6)C=C5)cc3)cc2)c1
REMARK SMILES IDX 18 1 17 2 15 3 16 4 13 5 14 6 12 7 9 8 10 9 72 10 11 11
REMARK SMILES IDX 71 12 8 13 4 14 5 15 73 16 6 17 7 18 3 19 2 20 1 21 19 22
REMARK SMILES IDX 20 23 21 24 22 25 23 26 24 27 70 28 25 29 69 30 26 31 27 32
REMARK SMILES IDX 28 33 63 34 29 35 68 36 62 37 64 38 30 39 67 40 61 41 60 42
REMARK SMILES IDX 31 44 53 45 38 46 52 47 39 48 42 49 51 50 65 51 40 52 41 53
REMARK SMILES IDX 50 55 66 56 43 57 32 58 33 59 37 60 34 61 36 62 35 63 54 64
REMARK SMILES IDX 55 65 59 66 56 67 58 68 57 69 44 70 45 71 49 72 46 73 48 74
REMARK SMILES IDX 47 75
REMARK H PARENT 64 43 42 54
REMARK Flexibility Score: inf
ROOT
ATOM      1  C   UNL A   1      43.197  18.112  26.134  1.00  0.00     0.274 C 
ENDROOT
BRANCH   1   2
ATOM      2  O   UNL A   1      44.587  17.732  26.122  1.00  0.00    -0.462 OA
BRANCH   2   3
ATOM      3  C   UNL A   1      45.413  18.456  25.322  1.00  0.00     0.313 C 
ATOM      4  O   UNL A   1      46.639  18.397  25.361  1.00  0.00    -0.252 OA
BRANCH   3   5
ATOM      5  C   UNL A   1      44.681  19.418  24.393  1.00  0.00     0.126 C 
ATOM      6  C   UNL A   1      44.882  18.988  22.941  1.00  0.00     0.025 C 
BRANCH   5   7
ATOM      7  C   UNL A   1      44.963  20.896  24.612  1.00  0.00    -0.034 A 
ATOM      8  C   UNL A   1      45.512  23.668  24.950  1.00  0.00    -0.018 A 
ATOM      9  C   UNL A   1      45.725  22.752  25.990  1.00  0.00     0.009 A 
ATOM     10  C   UNL A   1      45.008  23.173  23.740  1.00  0.00     0.009 A 
ATOM     11  C   UNL A   1      45.456  21.389  25.826  1.00  0.00     0.005 A 
ATOM     12  C   UNL A   1      44.747  21.811  23.570  1.00  0.00     0.005 A 
BRANCH   8  13
ATOM     13  C   UNL A   1      45.834  25.095  25.112  1.00  0.00    -0.017 A 
ATOM     14  C   UNL A   1      47.462  26.916  25.202  1.00  0.00     0.008 A 
ATOM     15  C   UNL A   1      46.436  27.823  25.472  1.00  0.00     0.015 A 
ATOM     16  C   UNL A   1      47.159  25.559  25.033  1.00  0.00     0.023 A 
ATOM     17  C   UNL A   1      45.116  27.384  25.555  1.00  0.00     0.002 A 
ATOM     18  C   UNL A   1      44.820  26.032  25.374  1.00  0.00     0.009 A 
BRANCH  14  19
ATOM     19  S   UNL A   1      49.159  27.458  25.113  1.00  0.00    -0.126 SA
BRANCH  19  20
ATOM     20  C   UNL A   1      49.639  26.746  23.502  1.00  0.00     0.071 C 
ATOM     21  C   UNL A   1      50.240  27.795  22.583  1.00  0.00     0.016 C 
ENDBRANCH  19  20
ENDBRANCH  14  19
ENDBRANCH   8  13
ENDBRANCH   5   7
ENDBRANCH   3   5
ENDBRANCH   2   3
ENDBRANCH   1   2
BRANCH   1  22
ATOM     22  C   UNL A   1      42.636  18.138  27.557  1.00  0.00     0.275 C 
BRANCH  22  23
ATOM     23  O   UNL A   1      41.724  19.238  27.731  1.00  0.00    -0.458 OA
BRANCH  23  24
ATOM     24  C   UNL A   1      41.594  20.050  26.658  1.00  0.00     0.338 C 
ATOM     25  O   UNL A   1      41.147  19.770  25.560  1.00  0.00    -0.246 OA
BRANCH  24  26
ATOM     26  C   UNL A   1      41.970  21.420  27.033  1.00  0.00     0.060 A 
ATOM     27  C   UNL A   1      42.261  21.669  28.374  1.00  0.00     0.016 A 
ATOM     28  C   UNL A   1      41.940  22.465  26.108  1.00  0.00     0.016 A 
ATOM     29  C   UNL A   1      42.495  22.967  28.811  1.00  0.00     0.010 A 
ATOM     30  C   UNL A   1      42.188  23.772  26.543  1.00  0.00     0.010 A 
ATOM     31  C   UNL A   1      42.445  24.032  27.902  1.00  0.00    -0.014 A 
BRANCH  31  32
ATOM     32  C   UNL A   1      42.609  25.415  28.407  1.00  0.00     0.031 A 
ATOM     33  C   UNL A   1      43.977  25.933  28.748  1.00  0.00     0.074 A 
ATOM     34  C   UNL A   1      41.539  26.226  28.496  1.00  0.00     0.049 A 
ATOM     35  N   UNL A   1      44.326  27.122  29.174  1.00  0.00    -0.248 NA
ATOM     36  C   UNL A   1      45.099  24.997  28.585  1.00  0.00     0.031 C 
ATOM     37  C   UNL A   1      40.166  25.854  28.156  1.00  0.00     0.029 A 
ATOM     38  N   UNL A   1      41.447  27.538  28.882  1.00  0.00    -0.354 N 
ATOM     39  C   UNL A   1      45.704  27.072  29.340  1.00  0.00     0.074 A 
ATOM     40  C   UNL A   1      46.124  25.733  28.989  1.00  0.00     0.031 C 
ATOM     41  C   UNL A   1      39.370  26.921  28.329  1.00  0.00     0.029 A 
ATOM     42  C   UNL A   1      40.171  28.039  28.821  1.00  0.00     0.049 A 
ATOM     43  H   UNL A   1      42.222  28.070  29.177  1.00  0.00     0.167 HD
ATOM     44  C   UNL A   1      46.544  28.054  29.746  1.00  0.00     0.031 A 
ATOM     45  C   UNL A   1      39.697  29.260  29.131  1.00  0.00     0.031 A 
ATOM     46  C   UNL A   1      46.133  29.387  30.098  1.00  0.00     0.049 A 
ATOM     47  C   UNL A   1      40.645  30.319  29.618  1.00  0.00     0.074 A 
ATOM     48  C   UNL A   1      46.914  30.448  30.521  1.00  0.00     0.029 A 
ATOM     49  N   UNL A   1      44.825  29.841  30.065  1.00  0.00    -0.354 N 
ATOM     50  N   UNL A   1      41.945  30.256  29.773  1.00  0.00    -0.248 NA
ATOM     51  C   UNL A   1      40.057  31.619  29.972  1.00  0.00     0.031 C 
ATOM     52  C   UNL A   1      46.073  31.536  30.778  1.00  0.00     0.029 A 
ATOM     53  C   UNL A   1      44.774  31.163  30.475  1.00  0.00     0.049 A 
ATOM     54  H   UNL A   1      44.047  29.304  29.790  1.00  0.00     0.167 HD
ATOM     55  C   UNL A   1      42.333  31.509  30.228  1.00  0.00     0.074 A 
ATOM     56  C   UNL A   1      41.134  32.318  30.305  1.00  0.00     0.031 C 
ATOM     57  C   UNL A   1      43.572  31.950  30.554  1.00  0.00     0.031 A 
BRANCH  44  58
ATOM     58  C   UNL A   1      47.999  27.705  29.863  1.00  0.00    -0.014 A 
ATOM     59  C   UNL A   1      48.889  27.935  28.802  1.00  0.00     0.009 A 
ATOM     60  C   UNL A   1      48.490  27.157  31.058  1.00  0.00     0.009 A 
ATOM     61  C   UNL A   1      50.238  27.598  28.928  1.00  0.00     0.001 A 
ATOM     62  C   UNL A   1      49.842  26.839  31.188  1.00  0.00     0.001 A 
ATOM     63  C   UNL A   1      50.714  27.054  30.121  1.00  0.00     0.000 A 
ENDBRANCH  44  58
BRANCH  45  64
ATOM     64  C   UNL A   1      38.248  29.548  28.997  1.00  0.00    -0.014 A 
ATOM     65  C   UNL A   1      37.405  29.500  30.118  1.00  0.00     0.009 A 
ATOM     66  C   UNL A   1      37.701  29.868  27.745  1.00  0.00     0.009 A 
ATOM     67  C   UNL A   1      36.037  29.747  29.982  1.00  0.00     0.001 A 
ATOM     68  C   UNL A   1      36.337  30.137  27.617  1.00  0.00     0.001 A 
ATOM     69  C   UNL A   1      35.506  30.070  28.734  1.00  0.00     0.000 A 
ENDBRANCH  45  64
BRANCH  57  70
ATOM     70  C   UNL A   1      43.687  33.376  31.008  1.00  0.00    -0.014 A 
ATOM     71  C   UNL A   1      43.856  34.418  30.082  1.00  0.00     0.009 A 
ATOM     72  C   UNL A   1      43.604  33.682  32.374  1.00  0.00     0.009 A 
ATOM     73  C   UNL A   1      43.975  35.738  30.523  1.00  0.00     0.001 A 
ATOM     74  C   UNL A   1      43.702  35.005  32.809  1.00  0.00     0.001 A 
ATOM     75  C   UNL A   1      43.896  36.030  31.883  1.00  0.00     0.000 A 
ENDBRANCH  57  70
ENDBRANCH  31  32
ENDBRANCH  24  26
ENDBRANCH  23  24
ENDBRANCH  22  23
ENDBRANCH   1  22
TORSDOF 15
ENDMDL
