MODEL 1
REMARK VINA RESULT:     -11.3      0.000      0.000
REMARK SMILES CC(C)CCc1cc2c(cc1Cl)C=C(C(=O)OCCOC(=O)c1ccc(-c3c4nc(c(-c5ccccc5)c5ccc([nH]5)c(-c5ccccc5)c5nc(c(-c6ccccc6)c6ccc3[nH]6)C=C5)C=C4)cc1)[C@@H](C(F)(F)F)O2
REMARK SMILES IDX 18 1 17 2 15 3 16 4 14 5 6 6 7 7 11 8 8 9 10 10 12 11 9 12
REMARK SMILES IDX 76 13 13 14 71 15 5 16 4 17 2 18 1 19 3 20 72 21 73 22 74 23
REMARK SMILES IDX 75 24 19 25 20 26 21 27 22 28 23 29 24 30 70 31 25 32 69 33
REMARK SMILES IDX 26 34 27 35 28 36 63 37 29 38 68 39 62 40 64 41 30 42 67 43
REMARK SMILES IDX 61 44 60 45 31 47 53 48 38 49 52 50 39 51 42 52 51 53 65 54
REMARK SMILES IDX 40 55 41 56 50 58 66 59 43 60 32 61 33 62 37 63 34 64 36 65
REMARK SMILES IDX 35 66 54 67 55 68 59 69 56 70 58 71 57 72 44 73 45 74 49 75
REMARK SMILES IDX 46 76 48 77 47 78
REMARK H PARENT 64 46 42 57
REMARK Flexibility Score: inf
ROOT
ATOM      1  C   UNL A   1      35.167  21.017  25.071  1.00  0.00     0.275 C 
ENDROOT
BRANCH   1   2
ATOM      2  O   UNL A   1      34.992  22.441  24.881  1.00  0.00    -0.459 OA
BRANCH   2   3
ATOM      3  C   UNL A   1      34.197  23.048  25.791  1.00  0.00     0.338 C 
ATOM      4  O   UNL A   1      34.091  22.750  26.973  1.00  0.00    -0.246 OA
BRANCH   3   5
ATOM      5  C   UNL A   1      33.501  24.211  25.202  1.00  0.00     0.087 C 
ATOM      6  C   UNL A   1      31.275  28.703  24.635  1.00  0.00    -0.026 A 
ATOM      7  C   UNL A   1      31.363  27.539  23.834  1.00  0.00     0.052 A 
ATOM      8  C   UNL A   1      31.977  28.730  25.851  1.00  0.00     0.045 A 
ATOM      9  C   UNL A   1      32.104  26.428  24.248  1.00  0.00     0.128 A 
ATOM     10  C   UNL A   1      32.740  27.633  26.245  1.00  0.00     0.032 A 
ATOM     11  Cl  UNL A   1      31.900  30.049  26.962  1.00  0.00    -0.084 Cl
ATOM     12  C   UNL A   1      32.775  26.480  25.462  1.00  0.00     0.019 A 
ATOM     13  O   UNL A   1      32.136  25.337  23.424  1.00  0.00    -0.475 OA
ATOM     14  C   UNL A   1      33.482  25.321  25.947  1.00  0.00     0.027 C 
ATOM     15  C   UNL A   1      32.728  24.091  23.916  1.00  0.00     0.316 C 
BRANCH   6  16
ATOM     16  C   UNL A   1      30.394  29.845  24.177  1.00  0.00     0.037 C 
BRANCH  16  17
ATOM     17  C   UNL A   1      29.872  29.765  22.734  1.00  0.00     0.008 C 
BRANCH  17  18
ATOM     18  C   UNL A   1      28.370  30.044  22.557  1.00  0.00    -0.017 C 
ATOM     19  C   UNL A   1      27.517  28.869  23.030  1.00  0.00     0.007 C 
ATOM     20  C   UNL A   1      27.989  31.312  23.326  1.00  0.00     0.007 C 
ENDBRANCH  17  18
ENDBRANCH  16  17
ENDBRANCH   6  16
BRANCH  15  21
ATOM     21  C   UNL A   1      31.612  23.041  24.068  1.00  0.00     0.430 C 
ATOM     22  F   UNL A   1      31.023  23.110  25.284  1.00  0.00    -0.167 F 
ATOM     23  F   UNL A   1      30.631  23.221  23.150  1.00  0.00    -0.167 F 
ATOM     24  F   UNL A   1      32.078  21.781  23.912  1.00  0.00    -0.167 F 
ENDBRANCH  15  21
ENDBRANCH   3   5
ENDBRANCH   2   3
ENDBRANCH   1   2
BRANCH   1  25
ATOM     25  C   UNL A   1      36.640  20.603  24.999  1.00  0.00     0.275 C 
BRANCH  25  26
ATOM     26  O   UNL A   1      37.502  21.693  25.377  1.00  0.00    -0.458 OA
BRANCH  26  27
ATOM     27  C   UNL A   1      38.710  21.335  25.872  1.00  0.00     0.338 C 
ATOM     28  O   UNL A   1      39.279  20.266  25.746  1.00  0.00    -0.246 OA
BRANCH  27  29
ATOM     29  C   UNL A   1      39.344  22.497  26.511  1.00  0.00     0.060 A 
ATOM     30  C   UNL A   1      40.484  22.388  27.297  1.00  0.00     0.016 A 
ATOM     31  C   UNL A   1      38.861  23.752  26.167  1.00  0.00     0.016 A 
ATOM     32  C   UNL A   1      41.111  23.558  27.751  1.00  0.00     0.010 A 
ATOM     33  C   UNL A   1      39.548  24.912  26.516  1.00  0.00     0.010 A 
ATOM     34  C   UNL A   1      40.671  24.838  27.345  1.00  0.00    -0.014 A 
BRANCH  34  35
ATOM     35  C   UNL A   1      41.395  26.075  27.767  1.00  0.00     0.031 A 
ATOM     36  C   UNL A   1      42.760  26.426  27.216  1.00  0.00     0.074 A 
ATOM     37  C   UNL A   1      40.829  26.897  28.676  1.00  0.00     0.049 A 
ATOM     38  N   UNL A   1      43.455  27.526  27.385  1.00  0.00    -0.248 NA
ATOM     39  C   UNL A   1      43.456  25.410  26.410  1.00  0.00     0.031 C 
ATOM     40  C   UNL A   1      39.581  26.629  29.395  1.00  0.00     0.029 A 
ATOM     41  N   UNL A   1      41.207  28.140  29.125  1.00  0.00    -0.354 N 
ATOM     42  C   UNL A   1      44.662  27.321  26.725  1.00  0.00     0.074 A 
ATOM     43  C   UNL A   1      44.642  25.970  26.219  1.00  0.00     0.031 C 
ATOM     44  C   UNL A   1      39.244  27.715  30.108  1.00  0.00     0.029 A 
ATOM     45  C   UNL A   1      40.264  28.742  29.925  1.00  0.00     0.049 A 
ATOM     46  H   UNL A   1      42.069  28.558  28.898  1.00  0.00     0.167 HD
ATOM     47  C   UNL A   1      45.681  28.190  26.515  1.00  0.00     0.031 A 
ATOM     48  C   UNL A   1      40.195  29.995  30.418  1.00  0.00     0.031 A 
ATOM     49  C   UNL A   1      45.687  29.552  26.975  1.00  0.00     0.049 A 
ATOM     50  C   UNL A   1      41.279  30.982  30.085  1.00  0.00     0.074 A 
ATOM     51  C   UNL A   1      46.638  30.533  26.747  1.00  0.00     0.029 A 
ATOM     52  N   UNL A   1      44.687  30.130  27.740  1.00  0.00    -0.354 N 
ATOM     53  N   UNL A   1      42.361  30.804  29.369  1.00  0.00    -0.248 NA
ATOM     54  C   UNL A   1      41.119  32.349  30.604  1.00  0.00     0.031 C 
ATOM     55  C   UNL A   1      46.228  31.696  27.404  1.00  0.00     0.029 A 
ATOM     56  C   UNL A   1      44.997  31.454  27.991  1.00  0.00     0.049 A 
ATOM     57  H   UNL A   1      43.879  29.666  28.057  1.00  0.00     0.167 HD
ATOM     58  C   UNL A   1      42.997  32.038  29.327  1.00  0.00     0.074 A 
ATOM     59  C   UNL A   1      42.171  32.962  30.076  1.00  0.00     0.031 C 
ATOM     60  C   UNL A   1      44.161  32.371  28.721  1.00  0.00     0.031 A 
BRANCH  47  61
ATOM     61  C   UNL A   1      46.860  27.715  25.707  1.00  0.00    -0.014 A 
ATOM     62  C   UNL A   1      47.995  27.196  26.350  1.00  0.00     0.009 A 
ATOM     63  C   UNL A   1      46.881  27.859  24.311  1.00  0.00     0.009 A 
ATOM     64  C   UNL A   1      49.125  26.834  25.612  1.00  0.00     0.001 A 
ATOM     65  C   UNL A   1      47.999  27.466  23.572  1.00  0.00     0.001 A 
ATOM     66  C   UNL A   1      49.123  26.961  24.224  1.00  0.00     0.000 A 
ENDBRANCH  47  61
BRANCH  48  67
ATOM     67  C   UNL A   1      38.988  30.411  31.183  1.00  0.00    -0.014 A 
ATOM     68  C   UNL A   1      38.952  30.317  32.582  1.00  0.00     0.009 A 
ATOM     69  C   UNL A   1      37.842  30.852  30.504  1.00  0.00     0.009 A 
ATOM     70  C   UNL A   1      37.787  30.639  33.284  1.00  0.00     0.001 A 
ATOM     71  C   UNL A   1      36.688  31.200  31.209  1.00  0.00     0.001 A 
ATOM     72  C   UNL A   1      36.658  31.084  32.597  1.00  0.00     0.000 A 
ENDBRANCH  48  67
BRANCH  60  73
ATOM     73  C   UNL A   1      44.619  33.800  28.800  1.00  0.00    -0.014 A 
ATOM     74  C   UNL A   1      44.270  34.694  27.774  1.00  0.00     0.009 A 
ATOM     75  C   UNL A   1      45.484  34.231  29.815  1.00  0.00     0.009 A 
ATOM     76  C   UNL A   1      44.791  35.988  27.756  1.00  0.00     0.001 A 
ATOM     77  C   UNL A   1      45.982  35.535  29.810  1.00  0.00     0.001 A 
ATOM     78  C   UNL A   1      45.643  36.408  28.775  1.00  0.00     0.000 A 
ENDBRANCH  60  73
ENDBRANCH  34  35
ENDBRANCH  27  29
ENDBRANCH  26  27
ENDBRANCH  25  26
ENDBRANCH   1  25
TORSDOF 15
ENDMDL
MODEL 2
REMARK VINA RESULT:     -11.3      3.924      9.103
REMARK SMILES CC(C)CCc1cc2c(cc1Cl)C=C(C(=O)OCCOC(=O)c1ccc(-c3c4nc(c(-c5ccccc5)c5ccc([nH]5)c(-c5ccccc5)c5nc(c(-c6ccccc6)c6ccc3[nH]6)C=C5)C=C4)cc1)[C@@H](C(F)(F)F)O2
REMARK SMILES IDX 18 1 17 2 15 3 16 4 14 5 6 6 7 7 11 8 8 9 10 10 12 11 9 12
REMARK SMILES IDX 76 13 13 14 71 15 5 16 4 17 2 18 1 19 3 20 72 21 73 22 74 23
REMARK SMILES IDX 75 24 19 25 20 26 21 27 22 28 23 29 24 30 70 31 25 32 69 33
REMARK SMILES IDX 26 34 27 35 28 36 63 37 29 38 68 39 62 40 64 41 30 42 67 43
REMARK SMILES IDX 61 44 60 45 31 47 53 48 38 49 52 50 39 51 42 52 51 53 65 54
REMARK SMILES IDX 40 55 41 56 50 58 66 59 43 60 32 61 33 62 37 63 34 64 36 65
REMARK SMILES IDX 35 66 54 67 55 68 59 69 56 70 58 71 57 72 44 73 45 74 49 75
REMARK SMILES IDX 46 76 48 77 47 78
REMARK H PARENT 64 46 42 57
REMARK Flexibility Score: inf
ROOT
ATOM      1  C   UNL A   1      31.445  29.486  24.735  1.00  0.00     0.275 C 
ENDROOT
BRANCH   1   2
ATOM      2  O   UNL A   1      32.379  28.419  25.021  1.00  0.00    -0.459 OA
BRANCH   2   3
ATOM      3  C   UNL A   1      32.784  27.706  23.945  1.00  0.00     0.338 C 
ATOM      4  O   UNL A   1      33.121  28.162  22.861  1.00  0.00    -0.246 OA
BRANCH   3   5
ATOM      5  C   UNL A   1      32.858  26.263  24.255  1.00  0.00     0.087 C 
ATOM      6  C   UNL A   1      34.512  21.518  24.697  1.00  0.00    -0.026 A 
ATOM      7  C   UNL A   1      33.248  22.138  24.841  1.00  0.00     0.052 A 
ATOM      8  C   UNL A   1      35.625  22.330  24.427  1.00  0.00     0.045 A 
ATOM      9  C   UNL A   1      33.096  23.520  24.692  1.00  0.00     0.128 A 
ATOM     10  C   UNL A   1      35.476  23.710  24.309  1.00  0.00     0.032 A 
ATOM     11  Cl  UNL A   1      37.210  21.705  24.151  1.00  0.00    -0.084 Cl
ATOM     12  C   UNL A   1      34.213  24.294  24.410  1.00  0.00     0.019 A 
ATOM     13  O   UNL A   1      31.841  24.046  24.838  1.00  0.00    -0.475 OA
ATOM     14  C   UNL A   1      34.071  25.709  24.174  1.00  0.00     0.027 C 
ATOM     15  C   UNL A   1      31.614  25.449  24.487  1.00  0.00     0.316 C 
BRANCH   6  16
ATOM     16  C   UNL A   1      34.606  20.010  24.790  1.00  0.00     0.037 C 
BRANCH  16  17
ATOM     17  C   UNL A   1      33.273  19.247  24.824  1.00  0.00     0.008 C 
BRANCH  17  18
ATOM     18  C   UNL A   1      33.308  17.828  24.230  1.00  0.00    -0.017 C 
ATOM     19  C   UNL A   1      32.703  17.787  22.829  1.00  0.00     0.007 C 
ATOM     20  C   UNL A   1      34.752  17.322  24.193  1.00  0.00     0.007 C 
ENDBRANCH  17  18
ENDBRANCH  16  17
ENDBRANCH   6  16
BRANCH  15  21
ATOM     21  C   UNL A   1      30.707  25.506  23.245  1.00  0.00     0.430 C 
ATOM     22  F   UNL A   1      31.426  25.466  22.099  1.00  0.00    -0.167 F 
ATOM     23  F   UNL A   1      29.852  24.454  23.203  1.00  0.00    -0.167 F 
ATOM     24  F   UNL A   1      29.957  26.631  23.215  1.00  0.00    -0.167 F 
ENDBRANCH  15  21
ENDBRANCH   3   5
ENDBRANCH   2   3
ENDBRANCH   1   2
BRANCH   1  25
ATOM     25  C   UNL A   1      31.445  30.560  25.827  1.00  0.00     0.275 C 
BRANCH  25  26
ATOM     26  O   UNL A   1      32.575  30.403  26.706  1.00  0.00    -0.458 OA
BRANCH  26  27
ATOM     27  C   UNL A   1      33.148  31.554  27.129  1.00  0.00     0.338 C 
ATOM     28  O   UNL A   1      32.636  32.656  27.207  1.00  0.00    -0.246 OA
BRANCH  27  29
ATOM     29  C   UNL A   1      34.503  31.276  27.628  1.00  0.00     0.060 A 
ATOM     30  C   UNL A   1      35.408  32.283  27.933  1.00  0.00     0.016 A 
ATOM     31  C   UNL A   1      34.802  29.959  27.949  1.00  0.00     0.016 A 
ATOM     32  C   UNL A   1      36.626  31.942  28.540  1.00  0.00     0.010 A 
ATOM     33  C   UNL A   1      35.955  29.632  28.658  1.00  0.00     0.010 A 
ATOM     34  C   UNL A   1      36.907  30.615  28.938  1.00  0.00    -0.014 A 
BRANCH  34  35
ATOM     35  C   UNL A   1      38.171  30.275  29.658  1.00  0.00     0.031 A 
ATOM     36  C   UNL A   1      38.397  30.670  31.101  1.00  0.00     0.074 A 
ATOM     37  C   UNL A   1      39.149  29.613  29.004  1.00  0.00     0.049 A 
ATOM     38  N   UNL A   1      39.383  30.334  31.899  1.00  0.00    -0.248 NA
ATOM     39  C   UNL A   1      37.426  31.586  31.722  1.00  0.00     0.031 C 
ATOM     40  C   UNL A   1      39.135  29.278  27.578  1.00  0.00     0.029 A 
ATOM     41  N   UNL A   1      40.327  29.066  29.458  1.00  0.00    -0.354 N 
ATOM     42  C   UNL A   1      39.155  31.008  33.094  1.00  0.00     0.074 A 
ATOM     43  C   UNL A   1      37.985  31.831  32.897  1.00  0.00     0.031 C 
ATOM     44  C   UNL A   1      40.191  28.499  27.299  1.00  0.00     0.029 A 
ATOM     45  C   UNL A   1      40.975  28.304  28.514  1.00  0.00     0.049 A 
ATOM     46  H   UNL A   1      40.673  29.209  30.368  1.00  0.00     0.167 HD
ATOM     47  C   UNL A   1      39.826  30.920  34.269  1.00  0.00     0.031 A 
ATOM     48  C   UNL A   1      42.048  27.496  28.619  1.00  0.00     0.031 A 
ATOM     49  C   UNL A   1      40.962  30.067  34.486  1.00  0.00     0.049 A 
ATOM     50  C   UNL A   1      42.716  27.322  29.954  1.00  0.00     0.074 A 
ATOM     51  C   UNL A   1      41.663  29.849  35.660  1.00  0.00     0.029 A 
ATOM     52  N   UNL A   1      41.552  29.277  33.513  1.00  0.00    -0.354 N 
ATOM     53  N   UNL A   1      42.421  27.883  31.100  1.00  0.00    -0.248 NA
ATOM     54  C   UNL A   1      43.846  26.383  30.018  1.00  0.00     0.031 C 
ATOM     55  C   UNL A   1      42.699  28.952  35.388  1.00  0.00     0.029 A 
ATOM     56  C   UNL A   1      42.606  28.569  34.060  1.00  0.00     0.049 A 
ATOM     57  H   UNL A   1      41.263  29.228  32.573  1.00  0.00     0.167 HD
ATOM     58  C   UNL A   1      43.308  27.347  32.025  1.00  0.00     0.074 A 
ATOM     59  C   UNL A   1      44.142  26.404  31.311  1.00  0.00     0.031 C 
ATOM     60  C   UNL A   1      43.418  27.618  33.347  1.00  0.00     0.031 A 
BRANCH  47  61
ATOM     61  C   UNL A   1      39.321  31.730  35.434  1.00  0.00    -0.014 A 
ATOM     62  C   UNL A   1      39.884  32.982  35.722  1.00  0.00     0.009 A 
ATOM     63  C   UNL A   1      38.343  31.214  36.299  1.00  0.00     0.009 A 
ATOM     64  C   UNL A   1      39.480  33.700  36.851  1.00  0.00     0.001 A 
ATOM     65  C   UNL A   1      37.916  31.947  37.409  1.00  0.00     0.001 A 
ATOM     66  C   UNL A   1      38.492  33.186  37.688  1.00  0.00     0.000 A 
ENDBRANCH  47  61
BRANCH  48  67
ATOM     67  C   UNL A   1      42.478  26.699  27.438  1.00  0.00    -0.014 A 
ATOM     68  C   UNL A   1      41.948  25.423  27.196  1.00  0.00     0.009 A 
ATOM     69  C   UNL A   1      43.470  27.195  26.577  1.00  0.00     0.009 A 
ATOM     70  C   UNL A   1      42.415  24.653  26.127  1.00  0.00     0.001 A 
ATOM     71  C   UNL A   1      43.915  26.435  25.493  1.00  0.00     0.001 A 
ATOM     72  C   UNL A   1      43.394  25.161  25.275  1.00  0.00     0.000 A 
ENDBRANCH  48  67
BRANCH  60  73
ATOM     73  C   UNL A   1      44.451  26.869  34.142  1.00  0.00    -0.014 A 
ATOM     74  C   UNL A   1      44.091  25.678  34.794  1.00  0.00     0.009 A 
ATOM     75  C   UNL A   1      45.735  27.395  34.341  1.00  0.00     0.009 A 
ATOM     76  C   UNL A   1      44.994  25.036  35.642  1.00  0.00     0.001 A 
ATOM     77  C   UNL A   1      46.645  26.735  35.169  1.00  0.00     0.001 A 
ATOM     78  C   UNL A   1      46.270  25.563  35.827  1.00  0.00     0.000 A 
ENDBRANCH  60  73
ENDBRANCH  34  35
ENDBRANCH  27  29
ENDBRANCH  26  27
ENDBRANCH  25  26
ENDBRANCH   1  25
TORSDOF 15
ENDMDL
MODEL 3
REMARK VINA RESULT:     -11.1      2.817      7.460
REMARK SMILES CC(C)CCc1cc2c(cc1Cl)C=C(C(=O)OCCOC(=O)c1ccc(-c3c4nc(c(-c5ccccc5)c5ccc([nH]5)c(-c5ccccc5)c5nc(c(-c6ccccc6)c6ccc3[nH]6)C=C5)C=C4)cc1)[C@@H](C(F)(F)F)O2
REMARK SMILES IDX 18 1 17 2 15 3 16 4 14 5 6 6 7 7 11 8 8 9 10 10 12 11 9 12
REMARK SMILES IDX 76 13 13 14 71 15 5 16 4 17 2 18 1 19 3 20 72 21 73 22 74 23
REMARK SMILES IDX 75 24 19 25 20 26 21 27 22 28 23 29 24 30 70 31 25 32 69 33
REMARK SMILES IDX 26 34 27 35 28 36 63 37 29 38 68 39 62 40 64 41 30 42 67 43
REMARK SMILES IDX 61 44 60 45 31 47 53 48 38 49 52 50 39 51 42 52 51 53 65 54
REMARK SMILES IDX 40 55 41 56 50 58 66 59 43 60 32 61 33 62 37 63 34 64 36 65
REMARK SMILES IDX 35 66 54 67 55 68 59 69 56 70 58 71 57 72 44 73 45 74 49 75
REMARK SMILES IDX 46 76 48 77 47 78
REMARK H PARENT 64 46 42 57
REMARK Flexibility Score: inf
ROOT
ATOM      1  C   UNL A   1      32.082  29.772  26.227  1.00  0.00     0.275 C 
ENDROOT
BRANCH   1   2
ATOM      2  O   UNL A   1      31.542  28.764  25.340  1.00  0.00    -0.459 OA
BRANCH   2   3
ATOM      3  C   UNL A   1      32.434  28.212  24.487  1.00  0.00     0.338 C 
ATOM      4  O   UNL A   1      33.153  28.815  23.702  1.00  0.00    -0.246 OA
BRANCH   3   5
ATOM      5  C   UNL A   1      32.512  26.747  24.667  1.00  0.00     0.087 C 
ATOM      6  C   UNL A   1      34.173  21.983  24.666  1.00  0.00    -0.026 A 
ATOM      7  C   UNL A   1      32.910  22.586  24.882  1.00  0.00     0.052 A 
ATOM      8  C   UNL A   1      35.282  22.817  24.453  1.00  0.00     0.045 A 
ATOM      9  C   UNL A   1      32.756  23.976  24.857  1.00  0.00     0.128 A 
ATOM     10  C   UNL A   1      35.131  24.202  24.460  1.00  0.00     0.032 A 
ATOM     11  Cl  UNL A   1      36.863  22.221  24.102  1.00  0.00    -0.084 Cl
ATOM     12  C   UNL A   1      33.870  24.773  24.629  1.00  0.00     0.019 A 
ATOM     13  O   UNL A   1      31.504  24.486  25.066  1.00  0.00    -0.475 OA
ATOM     14  C   UNL A   1      33.725  26.203  24.521  1.00  0.00     0.027 C 
ATOM     15  C   UNL A   1      31.272  25.914  24.843  1.00  0.00     0.316 C 
BRANCH   6  16
ATOM     16  C   UNL A   1      34.267  20.473  24.624  1.00  0.00     0.037 C 
BRANCH  16  17
ATOM     17  C   UNL A   1      32.934  19.709  24.609  1.00  0.00     0.008 C 
BRANCH  17  18
ATOM     18  C   UNL A   1      33.018  18.244  24.145  1.00  0.00    -0.017 C 
ATOM     19  C   UNL A   1      32.528  18.078  22.708  1.00  0.00     0.007 C 
ATOM     20  C   UNL A   1      34.461  17.747  24.268  1.00  0.00     0.007 C 
ENDBRANCH  17  18
ENDBRANCH  16  17
ENDBRANCH   6  16
BRANCH  15  21
ATOM     21  C   UNL A   1      30.348  26.079  23.623  1.00  0.00     0.430 C 
ATOM     22  F   UNL A   1      29.483  27.107  23.788  1.00  0.00    -0.167 F 
ATOM     23  F   UNL A   1      31.053  26.342  22.496  1.00  0.00    -0.167 F 
ATOM     24  F   UNL A   1      29.617  24.966  23.387  1.00  0.00    -0.167 F 
ENDBRANCH  15  21
ENDBRANCH   3   5
ENDBRANCH   2   3
ENDBRANCH   1   2
BRANCH   1  25
ATOM     25  C   UNL A   1      32.845  29.155  27.403  1.00  0.00     0.275 C 
BRANCH  25  26
ATOM     26  O   UNL A   1      34.267  29.323  27.241  1.00  0.00    -0.458 OA
BRANCH  26  27
ATOM     27  C   UNL A   1      34.824  30.310  27.979  1.00  0.00     0.338 C 
ATOM     28  O   UNL A   1      34.276  31.294  28.444  1.00  0.00    -0.246 OA
BRANCH  27  29
ATOM     29  C   UNL A   1      36.224  29.972  28.277  1.00  0.00     0.060 A 
ATOM     30  C   UNL A   1      36.610  29.369  29.466  1.00  0.00     0.016 A 
ATOM     31  C   UNL A   1      37.145  30.124  27.249  1.00  0.00     0.016 A 
ATOM     32  C   UNL A   1      37.940  28.947  29.614  1.00  0.00     0.010 A 
ATOM     33  C   UNL A   1      38.431  29.600  27.348  1.00  0.00     0.010 A 
ATOM     34  C   UNL A   1      38.865  29.030  28.547  1.00  0.00    -0.014 A 
BRANCH  34  35
ATOM     35  C   UNL A   1      40.256  28.502  28.687  1.00  0.00     0.031 A 
ATOM     36  C   UNL A   1      40.603  27.071  28.341  1.00  0.00     0.074 A 
ATOM     37  C   UNL A   1      41.229  29.315  29.150  1.00  0.00     0.049 A 
ATOM     38  N   UNL A   1      41.785  26.504  28.285  1.00  0.00    -0.248 NA
ATOM     39  C   UNL A   1      39.495  26.144  28.062  1.00  0.00     0.031 C 
ATOM     40  C   UNL A   1      41.026  30.678  29.648  1.00  0.00     0.029 A 
ATOM     41  N   UNL A   1      42.589  29.131  29.242  1.00  0.00    -0.354 N 
ATOM     42  C   UNL A   1      41.555  25.166  27.985  1.00  0.00     0.074 A 
ATOM     43  C   UNL A   1      40.124  24.984  27.946  1.00  0.00     0.031 C 
ATOM     44  C   UNL A   1      42.220  31.239  29.891  1.00  0.00     0.029 A 
ATOM     45  C   UNL A   1      43.272  30.270  29.598  1.00  0.00     0.049 A 
ATOM     46  H   UNL A   1      43.030  28.267  29.072  1.00  0.00     0.167 HD
ATOM     47  C   UNL A   1      42.449  24.182  27.717  1.00  0.00     0.031 A 
ATOM     48  C   UNL A   1      44.594  30.530  29.639  1.00  0.00     0.031 A 
ATOM     49  C   UNL A   1      43.874  24.369  27.707  1.00  0.00     0.049 A 
ATOM     50  C   UNL A   1      45.570  29.462  29.232  1.00  0.00     0.074 A 
ATOM     51  C   UNL A   1      44.859  23.454  27.373  1.00  0.00     0.029 A 
ATOM     52  N   UNL A   1      44.516  25.553  28.027  1.00  0.00    -0.354 N 
ATOM     53  N   UNL A   1      45.332  28.233  28.846  1.00  0.00    -0.248 NA
ATOM     54  C   UNL A   1      46.996  29.823  29.241  1.00  0.00     0.031 C 
ATOM     55  C   UNL A   1      46.100  24.078  27.525  1.00  0.00     0.029 A 
ATOM     56  C   UNL A   1      45.883  25.394  27.896  1.00  0.00     0.049 A 
ATOM     57  H   UNL A   1      44.065  26.383  28.305  1.00  0.00     0.167 HD
ATOM     58  C   UNL A   1      46.570  27.684  28.540  1.00  0.00     0.074 A 
ATOM     59  C   UNL A   1      47.557  28.717  28.769  1.00  0.00     0.031 C 
ATOM     60  C   UNL A   1      46.857  26.433  28.108  1.00  0.00     0.031 A 
BRANCH  47  61
ATOM     61  C   UNL A   1      41.914  22.820  27.361  1.00  0.00    -0.014 A 
ATOM     62  C   UNL A   1      41.451  22.559  26.062  1.00  0.00     0.009 A 
ATOM     63  C   UNL A   1      41.789  21.818  28.337  1.00  0.00     0.009 A 
ATOM     64  C   UNL A   1      40.874  21.325  25.749  1.00  0.00     0.001 A 
ATOM     65  C   UNL A   1      41.243  20.574  28.013  1.00  0.00     0.001 A 
ATOM     66  C   UNL A   1      40.778  20.332  26.722  1.00  0.00     0.000 A 
ENDBRANCH  47  61
BRANCH  48  67
ATOM     67  C   UNL A   1      45.056  31.906  29.968  1.00  0.00    -0.014 A 
ATOM     68  C   UNL A   1      45.253  32.862  28.961  1.00  0.00     0.009 A 
ATOM     69  C   UNL A   1      45.360  32.248  31.295  1.00  0.00     0.009 A 
ATOM     70  C   UNL A   1      45.760  34.126  29.273  1.00  0.00     0.001 A 
ATOM     71  C   UNL A   1      45.840  33.521  31.609  1.00  0.00     0.001 A 
ATOM     72  C   UNL A   1      46.049  34.456  30.597  1.00  0.00     0.000 A 
ENDBRANCH  48  67
BRANCH  60  73
ATOM     73  C   UNL A   1      48.292  26.096  27.814  1.00  0.00    -0.014 A 
ATOM     74  C   UNL A   1      48.766  26.187  26.495  1.00  0.00     0.009 A 
ATOM     75  C   UNL A   1      49.135  25.580  28.809  1.00  0.00     0.009 A 
ATOM     76  C   UNL A   1      50.054  25.755  26.176  1.00  0.00     0.001 A 
ATOM     77  C   UNL A   1      50.432  25.174  28.490  1.00  0.00     0.001 A 
ATOM     78  C   UNL A   1      50.886  25.252  27.173  1.00  0.00     0.000 A 
ENDBRANCH  60  73
ENDBRANCH  34  35
ENDBRANCH  27  29
ENDBRANCH  26  27
ENDBRANCH  25  26
ENDBRANCH   1  25
TORSDOF 15
ENDMDL
