MODEL 1
REMARK VINA RESULT:     -10.6      0.000      0.000
REMARK SMILES CC1=C(CC(=O)OCCOC(=O)c2ccc(-c3c4nc(c(-c5ccccc5)c5ccc([nH]5)c(-c5ccccc5)c5nc(c(-c6ccccc6)c6ccc3[nH]6)C=C5)C=C4)cc2)c2cc(F)ccc2/C1=C\c1ccc([S@@+](C)[O-])cc1
REMARK SMILES IDX 8 1 7 2 5 3 6 4 4 5 3 6 1 7 2 8 68 9 61 10 67 11 69 12 62 13
REMARK SMILES IDX 66 14 63 15 65 16 64 17 70 18 71 19 78 20 72 21 77 22 73 23
REMARK SMILES IDX 74 24 75 25 76 26 9 27 10 28 11 29 12 30 13 31 14 32 60 33
REMARK SMILES IDX 15 34 59 35 16 36 17 37 18 38 53 39 19 40 58 41 52 42 54 43
REMARK SMILES IDX 20 44 57 45 51 46 50 47 21 49 43 50 28 51 42 52 29 53 32 54
REMARK SMILES IDX 41 55 55 56 30 57 31 58 40 60 56 61 33 62 22 63 23 64 27 65
REMARK SMILES IDX 24 66 26 67 25 68 44 69 45 70 49 71 46 72 48 73 47 74 34 75
REMARK SMILES IDX 35 76 39 77 36 78 38 79 37 80
REMARK H PARENT 54 48 32 59
REMARK Flexibility Score: inf
ROOT
ATOM      1  C   UNL A   1      44.843  20.005  25.070  1.00  0.00     0.274 C 
ENDROOT
BRANCH   1   2
ATOM      2  O   UNL A   1      43.831  20.736  25.793  1.00  0.00    -0.462 OA
BRANCH   2   3
ATOM      3  C   UNL A   1      42.675  20.064  26.035  1.00  0.00     0.310 C 
ATOM      4  O   UNL A   1      42.183  19.232  25.276  1.00  0.00    -0.252 OA
BRANCH   3   5
ATOM      5  C   UNL A   1      42.008  20.410  27.358  1.00  0.00     0.159 C 
BRANCH   5   6
ATOM      6  C   UNL A   1      41.453  21.787  27.512  1.00  0.00    -0.025 C 
ATOM      7  C   UNL A   1      43.345  22.943  28.775  1.00  0.00     0.045 C 
ATOM      8  C   UNL A   1      42.015  22.867  28.103  1.00  0.00    -0.039 C 
ATOM      9  C   UNL A   1      41.119  24.027  27.964  1.00  0.00    -0.014 C 
ATOM     10  C   UNL A   1      40.184  22.220  26.902  1.00  0.00    -0.011 A 
ATOM     11  C   UNL A   1      39.962  23.582  27.162  1.00  0.00    -0.010 A 
ATOM     12  C   UNL A   1      41.361  25.240  28.499  1.00  0.00     0.017 C 
ATOM     13  C   UNL A   1      39.290  21.502  26.121  1.00  0.00     0.048 A 
ATOM     14  C   UNL A   1      38.842  24.223  26.641  1.00  0.00     0.012 A 
ATOM     15  C   UNL A   1      38.159  22.144  25.629  1.00  0.00     0.123 A 
ATOM     16  C   UNL A   1      37.925  23.492  25.883  1.00  0.00     0.040 A 
ATOM     17  F   UNL A   1      37.292  21.459  24.870  1.00  0.00    -0.207 F 
BRANCH  12  18
ATOM     18  C   UNL A   1      40.464  26.390  28.387  1.00  0.00    -0.025 A 
ATOM     19  C   UNL A   1      40.696  27.367  27.412  1.00  0.00     0.013 A 
ATOM     20  C   UNL A   1      39.462  26.585  29.340  1.00  0.00     0.013 A 
ATOM     21  C   UNL A   1      40.001  28.579  27.456  1.00  0.00     0.061 A 
ATOM     22  C   UNL A   1      38.754  27.789  29.369  1.00  0.00     0.061 A 
ATOM     23  C   UNL A   1      39.040  28.807  28.449  1.00  0.00     0.152 A 
BRANCH  23  24
ATOM     24  S   UNL A   1      38.293  30.441  28.670  1.00  0.00    -0.018 S 
ATOM     25  C   UNL A   1      36.666  30.130  27.956  1.00  0.00     0.346 C 
ATOM     26  O   UNL A   1      38.110  30.656  30.214  1.00  0.00    -0.612 OA
ENDBRANCH  23  24
ENDBRANCH  12  18
ENDBRANCH   5   6
ENDBRANCH   3   5
ENDBRANCH   2   3
ENDBRANCH   1   2
BRANCH   1  27
ATOM     27  C   UNL A   1      46.129  20.821  24.962  1.00  0.00     0.275 C 
BRANCH  27  28
ATOM     28  O   UNL A   1      46.002  22.020  25.743  1.00  0.00    -0.458 OA
BRANCH  28  29
ATOM     29  C   UNL A   1      46.059  23.177  25.046  1.00  0.00     0.338 C 
ATOM     30  O   UNL A   1      46.307  23.322  23.862  1.00  0.00    -0.246 OA
BRANCH  29  31
ATOM     31  C   UNL A   1      45.789  24.306  25.953  1.00  0.00     0.060 A 
ATOM     32  C   UNL A   1      44.557  24.952  25.869  1.00  0.00     0.016 A 
ATOM     33  C   UNL A   1      46.704  24.659  26.950  1.00  0.00     0.016 A 
ATOM     34  C   UNL A   1      44.260  25.981  26.763  1.00  0.00     0.010 A 
ATOM     35  C   UNL A   1      46.363  25.615  27.903  1.00  0.00     0.010 A 
ATOM     36  C   UNL A   1      45.153  26.312  27.798  1.00  0.00    -0.014 A 
BRANCH  36  37
ATOM     37  C   UNL A   1      44.827  27.409  28.744  1.00  0.00     0.031 A 
ATOM     38  C   UNL A   1      44.844  28.840  28.282  1.00  0.00     0.074 A 
ATOM     39  C   UNL A   1      44.496  27.116  30.016  1.00  0.00     0.049 A 
ATOM     40  N   UNL A   1      44.477  29.916  28.931  1.00  0.00    -0.248 NA
ATOM     41  C   UNL A   1      45.348  29.105  26.924  1.00  0.00     0.031 C 
ATOM     42  C   UNL A   1      44.492  25.772  30.601  1.00  0.00     0.029 A 
ATOM     43  N   UNL A   1      44.075  27.927  31.041  1.00  0.00    -0.354 N 
ATOM     44  C   UNL A   1      44.699  30.976  28.061  1.00  0.00     0.074 A 
ATOM     45  C   UNL A   1      45.293  30.427  26.864  1.00  0.00     0.031 C 
ATOM     46  C   UNL A   1      44.033  25.846  31.861  1.00  0.00     0.029 A 
ATOM     47  C   UNL A   1      43.737  27.239  32.183  1.00  0.00     0.049 A 
ATOM     48  H   UNL A   1      44.021  28.907  30.966  1.00  0.00     0.167 HD
ATOM     49  C   UNL A   1      44.403  32.285  28.228  1.00  0.00     0.031 A 
ATOM     50  C   UNL A   1      43.227  27.677  33.349  1.00  0.00     0.031 A 
ATOM     51  C   UNL A   1      43.800  32.831  29.412  1.00  0.00     0.049 A 
ATOM     52  C   UNL A   1      42.919  29.138  33.519  1.00  0.00     0.074 A 
ATOM     53  C   UNL A   1      43.406  34.135  29.649  1.00  0.00     0.029 A 
ATOM     54  N   UNL A   1      43.506  32.104  30.554  1.00  0.00    -0.354 N 
ATOM     55  N   UNL A   1      43.054  30.113  32.654  1.00  0.00    -0.248 NA
ATOM     56  C   UNL A   1      42.378  29.560  34.820  1.00  0.00     0.031 C 
ATOM     57  C   UNL A   1      42.922  34.210  30.958  1.00  0.00     0.029 A 
ATOM     58  C   UNL A   1      42.962  32.940  31.512  1.00  0.00     0.049 A 
ATOM     59  H   UNL A   1      43.662  31.139  30.667  1.00  0.00     0.167 HD
ATOM     60  C   UNL A   1      42.599  31.258  33.295  1.00  0.00     0.074 A 
ATOM     61  C   UNL A   1      42.171  30.856  34.619  1.00  0.00     0.031 C 
ATOM     62  C   UNL A   1      42.542  32.527  32.826  1.00  0.00     0.031 A 
BRANCH  49  63
ATOM     63  C   UNL A   1      44.705  33.222  27.094  1.00  0.00    -0.014 A 
ATOM     64  C   UNL A   1      43.780  33.386  26.051  1.00  0.00     0.009 A 
ATOM     65  C   UNL A   1      45.941  33.885  27.018  1.00  0.00     0.009 A 
ATOM     66  C   UNL A   1      44.089  34.190  24.953  1.00  0.00     0.001 A 
ATOM     67  C   UNL A   1      46.236  34.709  25.931  1.00  0.00     0.001 A 
ATOM     68  C   UNL A   1      45.314  34.854  24.896  1.00  0.00     0.000 A 
ENDBRANCH  49  63
BRANCH  50  69
ATOM     69  C   UNL A   1      42.924  26.699  34.427  1.00  0.00    -0.014 A 
ATOM     70  C   UNL A   1      41.606  26.270  34.655  1.00  0.00     0.009 A 
ATOM     71  C   UNL A   1      43.946  26.224  35.262  1.00  0.00     0.009 A 
ATOM     72  C   UNL A   1      41.317  25.401  35.709  1.00  0.00     0.001 A 
ATOM     73  C   UNL A   1      43.656  25.334  36.300  1.00  0.00     0.001 A 
ATOM     74  C   UNL A   1      42.341  24.931  36.528  1.00  0.00     0.000 A 
ENDBRANCH  50  69
BRANCH  62  75
ATOM     75  C   UNL A   1      41.993  33.591  33.732  1.00  0.00    -0.014 A 
ATOM     76  C   UNL A   1      40.628  33.911  33.683  1.00  0.00     0.009 A 
ATOM     77  C   UNL A   1      42.848  34.363  34.533  1.00  0.00     0.009 A 
ATOM     78  C   UNL A   1      40.129  34.998  34.404  1.00  0.00     0.001 A 
ATOM     79  C   UNL A   1      42.342  35.434  35.272  1.00  0.00     0.001 A 
ATOM     80  C   UNL A   1      40.986  35.757  35.197  1.00  0.00     0.000 A 
ENDBRANCH  62  75
ENDBRANCH  36  37
ENDBRANCH  29  31
ENDBRANCH  28  29
ENDBRANCH  27  28
ENDBRANCH   1  27
TORSDOF 14
ENDMDL
MODEL 2
REMARK VINA RESULT:     -10.5      3.188     10.973
REMARK SMILES CC1=C(CC(=O)OCCOC(=O)c2ccc(-c3c4nc(c(-c5ccccc5)c5ccc([nH]5)c(-c5ccccc5)c5nc(c(-c6ccccc6)c6ccc3[nH]6)C=C5)C=C4)cc2)c2cc(F)ccc2/C1=C\c1ccc([S@@+](C)[O-])cc1
REMARK SMILES IDX 8 1 7 2 5 3 6 4 4 5 3 6 1 7 2 8 68 9 61 10 67 11 69 12 62 13
REMARK SMILES IDX 66 14 63 15 65 16 64 17 70 18 71 19 78 20 72 21 77 22 73 23
REMARK SMILES IDX 74 24 75 25 76 26 9 27 10 28 11 29 12 30 13 31 14 32 60 33
REMARK SMILES IDX 15 34 59 35 16 36 17 37 18 38 53 39 19 40 58 41 52 42 54 43
REMARK SMILES IDX 20 44 57 45 51 46 50 47 21 49 43 50 28 51 42 52 29 53 32 54
REMARK SMILES IDX 41 55 55 56 30 57 31 58 40 60 56 61 33 62 22 63 23 64 27 65
REMARK SMILES IDX 24 66 26 67 25 68 44 69 45 70 49 71 46 72 48 73 47 74 34 75
REMARK SMILES IDX 35 76 39 77 36 78 38 79 37 80
REMARK H PARENT 54 48 32 59
REMARK Flexibility Score: inf
ROOT
ATOM      1  C   UNL A   1      33.807  35.816  31.720  1.00  0.00     0.274 C 
ENDROOT
BRANCH   1   2
ATOM      2  O   UNL A   1      34.446  34.835  30.877  1.00  0.00    -0.462 OA
BRANCH   2   3
ATOM      3  C   UNL A   1      33.893  34.663  29.647  1.00  0.00     0.310 C 
ATOM      4  O   UNL A   1      32.685  34.642  29.425  1.00  0.00    -0.252 OA
BRANCH   3   5
ATOM      5  C   UNL A   1      34.902  34.505  28.519  1.00  0.00     0.159 C 
BRANCH   5   6
ATOM      6  C   UNL A   1      35.737  33.268  28.507  1.00  0.00    -0.025 C 
ATOM      7  C   UNL A   1      37.916  34.135  29.515  1.00  0.00     0.045 C 
ATOM      8  C   UNL A   1      37.010  33.101  28.934  1.00  0.00    -0.039 C 
ATOM      9  C   UNL A   1      37.401  31.690  28.778  1.00  0.00    -0.014 C 
ATOM     10  C   UNL A   1      35.219  31.947  28.111  1.00  0.00    -0.011 A 
ATOM     11  C   UNL A   1      36.216  30.969  28.271  1.00  0.00    -0.010 A 
ATOM     12  C   UNL A   1      38.629  31.208  29.054  1.00  0.00     0.017 C 
ATOM     13  C   UNL A   1      33.949  31.588  27.686  1.00  0.00     0.048 A 
ATOM     14  C   UNL A   1      35.938  29.634  28.001  1.00  0.00     0.012 A 
ATOM     15  C   UNL A   1      33.689  30.255  27.391  1.00  0.00     0.123 A 
ATOM     16  C   UNL A   1      34.668  29.277  27.541  1.00  0.00     0.040 A 
ATOM     17  F   UNL A   1      32.463  29.898  26.984  1.00  0.00    -0.207 F 
BRANCH  12  18
ATOM     18  C   UNL A   1      39.031  29.813  28.878  1.00  0.00    -0.025 A 
ATOM     19  C   UNL A   1      39.177  28.979  29.992  1.00  0.00     0.013 A 
ATOM     20  C   UNL A   1      39.406  29.353  27.613  1.00  0.00     0.013 A 
ATOM     21  C   UNL A   1      39.794  27.732  29.857  1.00  0.00     0.061 A 
ATOM     22  C   UNL A   1      40.003  28.097  27.478  1.00  0.00     0.061 A 
ATOM     23  C   UNL A   1      40.231  27.291  28.602  1.00  0.00     0.152 A 
BRANCH  23  24
ATOM     24  S   UNL A   1      41.231  25.792  28.433  1.00  0.00    -0.018 S 
ATOM     25  C   UNL A   1      41.505  25.808  26.649  1.00  0.00     0.346 C 
ATOM     26  O   UNL A   1      42.607  26.077  29.135  1.00  0.00    -0.612 OA
ENDBRANCH  23  24
ENDBRANCH  12  18
ENDBRANCH   5   6
ENDBRANCH   3   5
ENDBRANCH   2   3
ENDBRANCH   1   2
BRANCH   1  27
ATOM     27  C   UNL A   1      34.483  35.878  33.088  1.00  0.00     0.275 C 
BRANCH  27  28
ATOM     28  O   UNL A   1      35.831  35.394  32.978  1.00  0.00    -0.458 OA
BRANCH  28  29
ATOM     29  C   UNL A   1      36.181  34.439  33.870  1.00  0.00     0.338 C 
ATOM     30  O   UNL A   1      35.637  34.173  34.927  1.00  0.00    -0.246 OA
BRANCH  29  31
ATOM     31  C   UNL A   1      37.382  33.737  33.385  1.00  0.00     0.060 A 
ATOM     32  C   UNL A   1      38.635  34.252  33.712  1.00  0.00     0.016 A 
ATOM     33  C   UNL A   1      37.275  32.523  32.701  1.00  0.00     0.016 A 
ATOM     34  C   UNL A   1      39.783  33.566  33.316  1.00  0.00     0.010 A 
ATOM     35  C   UNL A   1      38.420  31.790  32.397  1.00  0.00     0.010 A 
ATOM     36  C   UNL A   1      39.687  32.322  32.668  1.00  0.00    -0.014 A 
BRANCH  36  37
ATOM     37  C   UNL A   1      40.915  31.598  32.251  1.00  0.00     0.031 A 
ATOM     38  C   UNL A   1      41.347  30.355  32.977  1.00  0.00     0.074 A 
ATOM     39  C   UNL A   1      41.631  32.050  31.203  1.00  0.00     0.049 A 
ATOM     40  N   UNL A   1      42.320  29.529  32.683  1.00  0.00    -0.248 NA
ATOM     41  C   UNL A   1      40.605  29.993  34.196  1.00  0.00     0.031 C 
ATOM     42  C   UNL A   1      41.345  33.272  30.447  1.00  0.00     0.029 A 
ATOM     43  N   UNL A   1      42.732  31.520  30.577  1.00  0.00    -0.354 N 
ATOM     44  C   UNL A   1      42.299  28.555  33.673  1.00  0.00     0.074 A 
ATOM     45  C   UNL A   1      41.265  28.922  34.612  1.00  0.00     0.031 C 
ATOM     46  C   UNL A   1      42.212  33.365  29.425  1.00  0.00     0.029 A 
ATOM     47  C   UNL A   1      43.128  32.230  29.468  1.00  0.00     0.049 A 
ATOM     48  H   UNL A   1      43.193  30.709  30.890  1.00  0.00     0.167 HD
ATOM     49  C   UNL A   1      43.051  27.434  33.773  1.00  0.00     0.031 A 
ATOM     50  C   UNL A   1      44.105  31.984  28.575  1.00  0.00     0.031 A 
ATOM     51  C   UNL A   1      44.071  27.060  32.834  1.00  0.00     0.049 A 
ATOM     52  C   UNL A   1      44.939  30.741  28.714  1.00  0.00     0.074 A 
ATOM     53  C   UNL A   1      44.842  25.912  32.819  1.00  0.00     0.029 A 
ATOM     54  N   UNL A   1      44.461  27.825  31.747  1.00  0.00    -0.354 N 
ATOM     55  N   UNL A   1      44.847  29.785  29.606  1.00  0.00    -0.248 NA
ATOM     56  C   UNL A   1      46.001  30.534  27.718  1.00  0.00     0.031 C 
ATOM     57  C   UNL A   1      45.738  26.007  31.752  1.00  0.00     0.029 A 
ATOM     58  C   UNL A   1      45.484  27.187  31.070  1.00  0.00     0.049 A 
ATOM     59  H   UNL A   1      44.069  28.692  31.495  1.00  0.00     0.167 HD
ATOM     60  C   UNL A   1      45.824  28.857  29.271  1.00  0.00     0.074 A 
ATOM     61  C   UNL A   1      46.489  29.356  28.085  1.00  0.00     0.031 C 
ATOM     62  C   UNL A   1      46.138  27.695  29.893  1.00  0.00     0.031 A 
BRANCH  49  63
ATOM     63  C   UNL A   1      42.785  26.513  34.930  1.00  0.00    -0.014 A 
ATOM     64  C   UNL A   1      43.544  26.623  36.105  1.00  0.00     0.009 A 
ATOM     65  C   UNL A   1      41.833  25.486  34.827  1.00  0.00     0.009 A 
ATOM     66  C   UNL A   1      43.359  25.717  37.152  1.00  0.00     0.001 A 
ATOM     67  C   UNL A   1      41.634  24.598  35.886  1.00  0.00     0.001 A 
ATOM     68  C   UNL A   1      42.402  24.710  37.043  1.00  0.00     0.000 A 
ENDBRANCH  49  63
BRANCH  50  69
ATOM     69  C   UNL A   1      44.304  32.918  27.435  1.00  0.00    -0.014 A 
ATOM     70  C   UNL A   1      43.810  32.606  26.158  1.00  0.00     0.009 A 
ATOM     71  C   UNL A   1      45.030  34.106  27.610  1.00  0.00     0.009 A 
ATOM     72  C   UNL A   1      44.055  33.454  25.077  1.00  0.00     0.001 A 
ATOM     73  C   UNL A   1      45.252  34.965  26.530  1.00  0.00     0.001 A 
ATOM     74  C   UNL A   1      44.772  34.634  25.264  1.00  0.00     0.000 A 
ENDBRANCH  50  69
BRANCH  62  75
ATOM     75  C   UNL A   1      47.245  26.862  29.314  1.00  0.00    -0.014 A 
ATOM     76  C   UNL A   1      46.949  25.880  28.355  1.00  0.00     0.009 A 
ATOM     77  C   UNL A   1      48.552  26.957  29.813  1.00  0.00     0.009 A 
ATOM     78  C   UNL A   1      47.937  24.995  27.920  1.00  0.00     0.001 A 
ATOM     79  C   UNL A   1      49.544  26.086  29.358  1.00  0.00     0.001 A 
ATOM     80  C   UNL A   1      49.233  25.100  28.422  1.00  0.00     0.000 A 
ENDBRANCH  62  75
ENDBRANCH  36  37
ENDBRANCH  29  31
ENDBRANCH  28  29
ENDBRANCH  27  28
ENDBRANCH   1  27
TORSDOF 14
ENDMDL
MODEL 3
REMARK VINA RESULT:     -10.0      3.784      9.310
REMARK SMILES CC1=C(CC(=O)OCCOC(=O)c2ccc(-c3c4nc(c(-c5ccccc5)c5ccc([nH]5)c(-c5ccccc5)c5nc(c(-c6ccccc6)c6ccc3[nH]6)C=C5)C=C4)cc2)c2cc(F)ccc2/C1=C\c1ccc([S@@+](C)[O-])cc1
REMARK SMILES IDX 8 1 7 2 5 3 6 4 4 5 3 6 1 7 2 8 68 9 61 10 67 11 69 12 62 13
REMARK SMILES IDX 66 14 63 15 65 16 64 17 70 18 71 19 78 20 72 21 77 22 73 23
REMARK SMILES IDX 74 24 75 25 76 26 9 27 10 28 11 29 12 30 13 31 14 32 60 33
REMARK SMILES IDX 15 34 59 35 16 36 17 37 18 38 53 39 19 40 58 41 52 42 54 43
REMARK SMILES IDX 20 44 57 45 51 46 50 47 21 49 43 50 28 51 42 52 29 53 32 54
REMARK SMILES IDX 41 55 55 56 30 57 31 58 40 60 56 61 33 62 22 63 23 64 27 65
REMARK SMILES IDX 24 66 26 67 25 68 44 69 45 70 49 71 46 72 48 73 47 74 34 75
REMARK SMILES IDX 35 76 39 77 36 78 38 79 37 80
REMARK H PARENT 54 48 32 59
REMARK Flexibility Score: inf
ROOT
ATOM      1  C   UNL A   1      36.466  33.905  32.777  1.00  0.00     0.274 C 
ENDROOT
BRANCH   1   2
ATOM      2  O   UNL A   1      35.530  34.591  31.921  1.00  0.00    -0.462 OA
BRANCH   2   3
ATOM      3  C   UNL A   1      35.085  33.887  30.847  1.00  0.00     0.310 C 
ATOM      4  O   UNL A   1      34.032  33.254  30.819  1.00  0.00    -0.252 OA
BRANCH   3   5
ATOM      5  C   UNL A   1      35.999  33.944  29.631  1.00  0.00     0.159 C 
BRANCH   5   6
ATOM      6  C   UNL A   1      36.649  32.674  29.197  1.00  0.00    -0.025 C 
ATOM      7  C   UNL A   1      38.932  32.879  30.319  1.00  0.00     0.045 C 
ATOM      8  C   UNL A   1      37.886  32.211  29.489  1.00  0.00    -0.039 C 
ATOM      9  C   UNL A   1      38.073  30.882  28.884  1.00  0.00    -0.014 C 
ATOM     10  C   UNL A   1      35.948  31.626  28.435  1.00  0.00    -0.011 A 
ATOM     11  C   UNL A   1      36.795  30.523  28.235  1.00  0.00    -0.010 A 
ATOM     12  C   UNL A   1      39.220  30.177  28.939  1.00  0.00     0.017 C 
ATOM     13  C   UNL A   1      34.638  31.593  27.979  1.00  0.00     0.048 A 
ATOM     14  C   UNL A   1      36.330  29.390  27.577  1.00  0.00     0.012 A 
ATOM     15  C   UNL A   1      34.190  30.467  27.297  1.00  0.00     0.123 A 
ATOM     16  C   UNL A   1      35.021  29.370  27.089  1.00  0.00     0.040 A 
ATOM     17  F   UNL A   1      32.925  30.424  26.858  1.00  0.00    -0.207 F 
BRANCH  12  18
ATOM     18  C   UNL A   1      39.420  28.868  28.318  1.00  0.00    -0.025 A 
ATOM     19  C   UNL A   1      39.027  27.706  28.992  1.00  0.00     0.013 A 
ATOM     20  C   UNL A   1      40.128  28.768  27.119  1.00  0.00     0.013 A 
ATOM     21  C   UNL A   1      39.434  26.454  28.524  1.00  0.00     0.061 A 
ATOM     22  C   UNL A   1      40.516  27.514  26.642  1.00  0.00     0.061 A 
ATOM     23  C   UNL A   1      40.201  26.350  27.356  1.00  0.00     0.152 A 
BRANCH  23  24
ATOM     24  S   UNL A   1      40.931  24.772  26.854  1.00  0.00    -0.018 S 
ATOM     25  C   UNL A   1      41.752  24.312  28.393  1.00  0.00     0.346 C 
ATOM     26  O   UNL A   1      39.744  23.771  26.622  1.00  0.00    -0.612 OA
ENDBRANCH  23  24
ENDBRANCH  12  18
ENDBRANCH   5   6
ENDBRANCH   3   5
ENDBRANCH   2   3
ENDBRANCH   1   2
BRANCH   1  27
ATOM     27  C   UNL A   1      35.955  32.510  33.131  1.00  0.00     0.275 C 
BRANCH  27  28
ATOM     28  O   UNL A   1      37.070  31.629  33.339  1.00  0.00    -0.458 OA
BRANCH  28  29
ATOM     29  C   UNL A   1      37.085  30.516  32.572  1.00  0.00     0.338 C 
ATOM     30  O   UNL A   1      36.179  30.070  31.891  1.00  0.00    -0.246 OA
BRANCH  29  31
ATOM     31  C   UNL A   1      38.401  29.864  32.685  1.00  0.00     0.060 A 
ATOM     32  C   UNL A   1      38.482  28.485  32.500  1.00  0.00     0.016 A 
ATOM     33  C   UNL A   1      39.562  30.620  32.871  1.00  0.00     0.016 A 
ATOM     34  C   UNL A   1      39.729  27.860  32.541  1.00  0.00     0.010 A 
ATOM     35  C   UNL A   1      40.811  30.008  32.809  1.00  0.00     0.010 A 
ATOM     36  C   UNL A   1      40.906  28.616  32.680  1.00  0.00    -0.014 A 
BRANCH  36  37
ATOM     37  C   UNL A   1      42.228  27.942  32.722  1.00  0.00     0.031 A 
ATOM     38  C   UNL A   1      42.987  27.680  31.450  1.00  0.00     0.074 A 
ATOM     39  C   UNL A   1      42.756  27.583  33.908  1.00  0.00     0.049 A 
ATOM     40  N   UNL A   1      44.200  27.210  31.301  1.00  0.00    -0.248 NA
ATOM     41  C   UNL A   1      42.297  27.966  30.181  1.00  0.00     0.031 C 
ATOM     42  C   UNL A   1      42.099  27.736  35.208  1.00  0.00     0.029 A 
ATOM     43  N   UNL A   1      43.979  27.038  34.215  1.00  0.00    -0.354 N 
ATOM     44  C   UNL A   1      44.416  27.154  29.929  1.00  0.00     0.074 A 
ATOM     45  C   UNL A   1      43.191  27.572  29.288  1.00  0.00     0.031 C 
ATOM     46  C   UNL A   1      42.947  27.350  36.175  1.00  0.00     0.029 A 
ATOM     47  C   UNL A   1      44.194  26.898  35.565  1.00  0.00     0.049 A 
ATOM     48  H   UNL A   1      44.638  26.773  33.533  1.00  0.00     0.167 HD
ATOM     49  C   UNL A   1      45.544  26.818  29.264  1.00  0.00     0.031 A 
ATOM     50  C   UNL A   1      45.280  26.474  36.239  1.00  0.00     0.031 A 
ATOM     51  C   UNL A   1      46.767  26.415  29.900  1.00  0.00     0.049 A 
ATOM     52  C   UNL A   1      46.519  26.090  35.478  1.00  0.00     0.074 A 
ATOM     53  C   UNL A   1      47.981  26.114  29.310  1.00  0.00     0.029 A 
ATOM     54  N   UNL A   1      46.929  26.254  31.266  1.00  0.00    -0.354 N 
ATOM     55  N   UNL A   1      46.734  26.127  34.186  1.00  0.00    -0.248 NA
ATOM     56  C   UNL A   1      47.668  25.620  36.266  1.00  0.00     0.031 C 
ATOM     57  C   UNL A   1      48.866  25.720  30.317  1.00  0.00     0.029 A 
ATOM     58  C   UNL A   1      48.217  25.831  31.537  1.00  0.00     0.049 A 
ATOM     59  H   UNL A   1      46.232  26.418  31.942  1.00  0.00     0.167 HD
ATOM     60  C   UNL A   1      48.045  25.703  34.006  1.00  0.00     0.074 A 
ATOM     61  C   UNL A   1      48.581  25.427  35.322  1.00  0.00     0.031 C 
ATOM     62  C   UNL A   1      48.738  25.558  32.851  1.00  0.00     0.031 A 
BRANCH  49  63
ATOM     63  C   UNL A   1      45.521  26.893  27.763  1.00  0.00    -0.014 A 
ATOM     64  C   UNL A   1      45.138  25.773  27.009  1.00  0.00     0.009 A 
ATOM     65  C   UNL A   1      45.954  28.049  27.094  1.00  0.00     0.009 A 
ATOM     66  C   UNL A   1      45.194  25.809  25.615  1.00  0.00     0.001 A 
ATOM     67  C   UNL A   1      45.984  28.089  25.700  1.00  0.00     0.001 A 
ATOM     68  C   UNL A   1      45.612  26.967  24.961  1.00  0.00     0.000 A 
ENDBRANCH  49  63
BRANCH  50  69
ATOM     69  C   UNL A   1      45.254  26.446  37.724  1.00  0.00    -0.014 A 
ATOM     70  C   UNL A   1      45.574  27.593  38.469  1.00  0.00     0.009 A 
ATOM     71  C   UNL A   1      44.950  25.258  38.407  1.00  0.00     0.009 A 
ATOM     72  C   UNL A   1      45.610  27.546  39.863  1.00  0.00     0.001 A 
ATOM     73  C   UNL A   1      44.964  25.221  39.804  1.00  0.00     0.001 A 
ATOM     74  C   UNL A   1      45.302  26.362  40.530  1.00  0.00     0.000 A 
ENDBRANCH  50  69
BRANCH  62  75
ATOM     75  C   UNL A   1      50.160  25.085  32.936  1.00  0.00    -0.014 A 
ATOM     76  C   UNL A   1      51.207  26.021  32.932  1.00  0.00     0.009 A 
ATOM     77  C   UNL A   1      50.467  23.717  32.887  1.00  0.00     0.009 A 
ATOM     78  C   UNL A   1      52.534  25.598  32.856  1.00  0.00     0.001 A 
ATOM     79  C   UNL A   1      51.797  23.297  32.836  1.00  0.00     0.001 A 
ATOM     80  C   UNL A   1      52.828  24.236  32.809  1.00  0.00     0.000 A 
ENDBRANCH  62  75
ENDBRANCH  36  37
ENDBRANCH  29  31
ENDBRANCH  28  29
ENDBRANCH  27  28
ENDBRANCH   1  27
TORSDOF 14
ENDMDL
