MODEL 1
REMARK VINA RESULT:     -10.6      0.000      0.000
REMARK SMILES CN1CCN(C(=O)N2CC[C@@H](CC(=O)OCCOC(=O)c3ccc(-c4c5nc(c(-c6ccccc6)c6ccc([nH]6)c(-c6ccccc6)c6nc(c(-c7ccccc7)c7ccc4[nH]7)C=C6)C=C5)cc3)C2)C(C)(C)C1=O
REMARK SMILES IDX 16 1 15 2 13 3 14 4 12 5 11 6 8 7 9 8 69 9 10 10 6 11 7 12
REMARK SMILES IDX 5 13 1 14 2 15 3 16 73 17 4 18 70 19 74 20 71 21 72 22 17 23
REMARK SMILES IDX 18 24 19 25 20 26 21 27 22 28 68 29 23 30 67 31 24 32 25 33
REMARK SMILES IDX 26 34 61 35 27 36 66 37 60 38 62 39 28 40 65 41 59 42 58 43
REMARK SMILES IDX 29 45 51 46 36 47 50 48 37 49 40 50 49 51 63 52 38 53 39 54
REMARK SMILES IDX 48 56 64 57 41 58 30 59 31 60 35 61 32 62 34 63 33 64 52 65
REMARK SMILES IDX 53 66 57 67 54 68 56 69 55 70 42 71 43 72 47 73 44 74 46 75
REMARK SMILES IDX 45 76
REMARK H PARENT 62 44 40 55
REMARK Flexibility Score: inf
ROOT
ATOM      1  C   UNL A   1      31.796  31.364  26.502  1.00  0.00     0.274 C 
ENDROOT
BRANCH   1   2
ATOM      2  O   UNL A   1      32.991  30.738  27.011  1.00  0.00    -0.462 OA
BRANCH   2   3
ATOM      3  C   UNL A   1      33.234  29.465  26.626  1.00  0.00     0.306 C 
ATOM      4  O   UNL A   1      33.724  28.605  27.350  1.00  0.00    -0.252 OA
BRANCH   3   5
ATOM      5  C   UNL A   1      32.973  29.215  25.154  1.00  0.00     0.128 C 
BRANCH   5   6
ATOM      6  C   UNL A   1      33.786  28.195  24.350  1.00  0.00     0.021 C 
ATOM      7  N   UNL A   1      33.350  26.393  22.886  1.00  0.00    -0.324 N 
ATOM      8  C   UNL A   1      33.323  27.582  22.062  1.00  0.00     0.122 C 
ATOM      9  C   UNL A   1      33.173  26.787  24.269  1.00  0.00     0.125 C 
ATOM     10  C   UNL A   1      34.142  28.559  22.895  1.00  0.00     0.027 C 
BRANCH   7  11
ATOM     11  C   UNL A   1      33.354  25.075  22.518  1.00  0.00     0.320 C 
ATOM     12  O   UNL A   1      33.433  24.743  21.333  1.00  0.00    -0.248 OA
BRANCH  11  13
ATOM     13  N   UNL A   1      33.340  24.123  23.526  1.00  0.00    -0.309 N 
ATOM     14  C   UNL A   1      33.708  21.327  26.765  1.00  0.00     0.146 C 
ATOM     15  N   UNL A   1      33.556  22.204  25.617  1.00  0.00    -0.342 N 
ATOM     16  C   UNL A   1      34.760  22.873  25.136  1.00  0.00     0.140 C 
ATOM     17  C   UNL A   1      32.284  22.535  25.157  1.00  0.00     0.247 C 
ATOM     18  C   UNL A   1      34.648  23.515  23.762  1.00  0.00     0.144 C 
ATOM     19  C   UNL A   1      32.193  23.177  23.734  1.00  0.00     0.118 C 
ATOM     20  O   UNL A   1      31.271  22.149  25.747  1.00  0.00    -0.272 OA
ATOM     21  C   UNL A   1      32.275  21.998  22.731  1.00  0.00     0.045 C 
ATOM     22  C   UNL A   1      30.778  23.762  23.559  1.00  0.00     0.045 C 
ENDBRANCH  11  13
ENDBRANCH   7  11
ENDBRANCH   5   6
ENDBRANCH   3   5
ENDBRANCH   2   3
ENDBRANCH   1   2
BRANCH   1  23
ATOM     23  C   UNL A   1      31.653  32.787  27.033  1.00  0.00     0.275 C 
BRANCH  23  24
ATOM     24  O   UNL A   1      32.945  33.414  27.100  1.00  0.00    -0.458 OA
BRANCH  24  25
ATOM     25  C   UNL A   1      33.186  34.131  28.219  1.00  0.00     0.338 C 
ATOM     26  O   UNL A   1      32.552  35.071  28.658  1.00  0.00    -0.246 OA
BRANCH  25  27
ATOM     27  C   UNL A   1      34.384  33.612  28.876  1.00  0.00     0.060 A 
ATOM     28  C   UNL A   1      34.285  32.542  29.767  1.00  0.00     0.016 A 
ATOM     29  C   UNL A   1      35.598  34.257  28.648  1.00  0.00     0.016 A 
ATOM     30  C   UNL A   1      35.420  32.095  30.432  1.00  0.00     0.010 A 
ATOM     31  C   UNL A   1      36.739  33.794  29.294  1.00  0.00     0.010 A 
ATOM     32  C   UNL A   1      36.655  32.705  30.177  1.00  0.00    -0.014 A 
BRANCH  32  33
ATOM     33  C   UNL A   1      37.895  32.132  30.734  1.00  0.00     0.031 A 
ATOM     34  C   UNL A   1      38.623  31.043  30.014  1.00  0.00     0.074 A 
ATOM     35  C   UNL A   1      38.300  32.575  31.937  1.00  0.00     0.049 A 
ATOM     36  N   UNL A   1      39.630  30.320  30.429  1.00  0.00    -0.248 NA
ATOM     37  C   UNL A   1      38.158  30.718  28.658  1.00  0.00     0.031 C 
ATOM     38  C   UNL A   1      37.656  33.651  32.697  1.00  0.00     0.029 A 
ATOM     39  N   UNL A   1      39.332  32.170  32.738  1.00  0.00    -0.354 N 
ATOM     40  C   UNL A   1      39.911  29.440  29.393  1.00  0.00     0.074 A 
ATOM     41  C   UNL A   1      38.963  29.715  28.333  1.00  0.00     0.031 C 
ATOM     42  C   UNL A   1      38.309  33.818  33.857  1.00  0.00     0.029 A 
ATOM     43  C   UNL A   1      39.371  32.826  33.943  1.00  0.00     0.049 A 
ATOM     44  H   UNL A   1      39.980  31.476  32.477  1.00  0.00     0.167 HD
ATOM     45  C   UNL A   1      40.871  28.485  29.347  1.00  0.00     0.031 A 
ATOM     46  C   UNL A   1      40.152  32.619  35.017  1.00  0.00     0.031 A 
ATOM     47  C   UNL A   1      41.787  28.219  30.426  1.00  0.00     0.049 A 
ATOM     48  C   UNL A   1      41.163  31.515  34.961  1.00  0.00     0.074 A 
ATOM     49  C   UNL A   1      42.806  27.286  30.487  1.00  0.00     0.029 A 
ATOM     50  N   UNL A   1      41.785  28.890  31.642  1.00  0.00    -0.354 N 
ATOM     51  N   UNL A   1      41.423  30.688  33.978  1.00  0.00    -0.248 NA
ATOM     52  C   UNL A   1      41.978  31.308  36.163  1.00  0.00     0.031 C 
ATOM     53  C   UNL A   1      43.390  27.361  31.758  1.00  0.00     0.029 A 
ATOM     54  C   UNL A   1      42.766  28.373  32.470  1.00  0.00     0.049 A 
ATOM     55  H   UNL A   1      41.175  29.627  31.880  1.00  0.00     0.167 HD
ATOM     56  C   UNL A   1      42.436  29.861  34.437  1.00  0.00     0.074 A 
ATOM     57  C   UNL A   1      42.757  30.305  35.781  1.00  0.00     0.031 C 
ATOM     58  C   UNL A   1      43.043  28.824  33.811  1.00  0.00     0.031 A 
BRANCH  45  59
ATOM     59  C   UNL A   1      40.944  27.635  28.111  1.00  0.00    -0.014 A 
ATOM     60  C   UNL A   1      41.730  28.011  27.011  1.00  0.00     0.009 A 
ATOM     61  C   UNL A   1      40.238  26.423  28.058  1.00  0.00     0.009 A 
ATOM     62  C   UNL A   1      41.784  27.203  25.871  1.00  0.00     0.001 A 
ATOM     63  C   UNL A   1      40.310  25.607  26.926  1.00  0.00     0.001 A 
ATOM     64  C   UNL A   1      41.077  26.002  25.831  1.00  0.00     0.000 A 
ENDBRANCH  45  59
BRANCH  46  65
ATOM     65  C   UNL A   1      39.970  33.456  36.229  1.00  0.00    -0.014 A 
ATOM     66  C   UNL A   1      39.048  33.086  37.217  1.00  0.00     0.009 A 
ATOM     67  C   UNL A   1      40.758  34.602  36.427  1.00  0.00     0.009 A 
ATOM     68  C   UNL A   1      38.911  33.853  38.377  1.00  0.00     0.001 A 
ATOM     69  C   UNL A   1      40.639  35.350  37.600  1.00  0.00     0.001 A 
ATOM     70  C   UNL A   1      39.712  34.977  38.571  1.00  0.00     0.000 A 
ENDBRANCH  46  65
BRANCH  58  71
ATOM     71  C   UNL A   1      44.114  28.115  34.584  1.00  0.00    -0.014 A 
ATOM     72  C   UNL A   1      43.809  26.997  35.375  1.00  0.00     0.009 A 
ATOM     73  C   UNL A   1      45.440  28.565  34.512  1.00  0.00     0.009 A 
ATOM     74  C   UNL A   1      44.812  26.361  36.107  1.00  0.00     0.001 A 
ATOM     75  C   UNL A   1      46.444  27.912  35.226  1.00  0.00     0.001 A 
ATOM     76  C   UNL A   1      46.128  26.817  36.029  1.00  0.00     0.000 A 
ENDBRANCH  58  71
ENDBRANCH  32  33
ENDBRANCH  25  27
ENDBRANCH  24  25
ENDBRANCH  23  24
ENDBRANCH   1  23
TORSDOF 14
ENDMDL
MODEL 2
REMARK VINA RESULT:     -10.6      4.387      9.172
REMARK SMILES CN1CCN(C(=O)N2CC[C@@H](CC(=O)OCCOC(=O)c3ccc(-c4c5nc(c(-c6ccccc6)c6ccc([nH]6)c(-c6ccccc6)c6nc(c(-c7ccccc7)c7ccc4[nH]7)C=C6)C=C5)cc3)C2)C(C)(C)C1=O
REMARK SMILES IDX 16 1 15 2 13 3 14 4 12 5 11 6 8 7 9 8 69 9 10 10 6 11 7 12
REMARK SMILES IDX 5 13 1 14 2 15 3 16 73 17 4 18 70 19 74 20 71 21 72 22 17 23
REMARK SMILES IDX 18 24 19 25 20 26 21 27 22 28 68 29 23 30 67 31 24 32 25 33
REMARK SMILES IDX 26 34 61 35 27 36 66 37 60 38 62 39 28 40 65 41 59 42 58 43
REMARK SMILES IDX 29 45 51 46 36 47 50 48 37 49 40 50 49 51 63 52 38 53 39 54
REMARK SMILES IDX 48 56 64 57 41 58 30 59 31 60 35 61 32 62 34 63 33 64 52 65
REMARK SMILES IDX 53 66 57 67 54 68 56 69 55 70 42 71 43 72 47 73 44 74 46 75
REMARK SMILES IDX 45 76
REMARK H PARENT 62 44 40 55
REMARK Flexibility Score: inf
ROOT
ATOM      1  C   UNL A   1      38.254  21.177  25.378  1.00  0.00     0.274 C 
ENDROOT
BRANCH   1   2
ATOM      2  O   UNL A   1      37.147  21.257  24.457  1.00  0.00    -0.462 OA
BRANCH   2   3
ATOM      3  C   UNL A   1      36.771  22.489  24.048  1.00  0.00     0.306 C 
ATOM      4  O   UNL A   1      36.505  22.782  22.888  1.00  0.00    -0.252 OA
BRANCH   3   5
ATOM      5  C   UNL A   1      36.836  23.539  25.141  1.00  0.00     0.128 C 
BRANCH   5   6
ATOM      6  C   UNL A   1      35.677  23.763  26.118  1.00  0.00     0.021 C 
ATOM      7  N   UNL A   1      33.336  24.059  25.995  1.00  0.00    -0.324 N 
ATOM      8  C   UNL A   1      33.550  22.629  25.991  1.00  0.00     0.122 C 
ATOM      9  C   UNL A   1      34.574  24.712  25.618  1.00  0.00     0.125 C 
ATOM     10  C   UNL A   1      34.928  22.515  26.628  1.00  0.00     0.027 C 
BRANCH   7  11
ATOM     11  C   UNL A   1      32.175  24.769  26.136  1.00  0.00     0.320 C 
ATOM     12  O   UNL A   1      31.411  24.562  27.082  1.00  0.00    -0.248 OA
BRANCH  11  13
ATOM     13  N   UNL A   1      31.920  25.779  25.221  1.00  0.00    -0.309 N 
ATOM     14  C   UNL A   1      31.356  29.185  22.667  1.00  0.00     0.146 C 
ATOM     15  N   UNL A   1      31.459  28.015  23.521  1.00  0.00    -0.342 N 
ATOM     16  C   UNL A   1      31.870  28.242  24.902  1.00  0.00     0.140 C 
ATOM     17  C   UNL A   1      31.372  26.740  22.968  1.00  0.00     0.247 C 
ATOM     18  C   UNL A   1      31.657  27.072  25.850  1.00  0.00     0.144 C 
ATOM     19  C   UNL A   1      31.134  25.555  23.962  1.00  0.00     0.118 C 
ATOM     20  O   UNL A   1      31.273  26.577  21.749  1.00  0.00    -0.272 OA
ATOM     21  C   UNL A   1      29.614  25.554  24.265  1.00  0.00     0.045 C 
ATOM     22  C   UNL A   1      31.400  24.236  23.210  1.00  0.00     0.045 C 
ENDBRANCH  11  13
ENDBRANCH   7  11
ENDBRANCH   5   6
ENDBRANCH   3   5
ENDBRANCH   2   3
ENDBRANCH   1   2
BRANCH   1  23
ATOM     23  C   UNL A   1      39.060  19.901  25.157  1.00  0.00     0.275 C 
BRANCH  23  24
ATOM     24  O   UNL A   1      39.974  19.706  26.250  1.00  0.00    -0.458 OA
BRANCH  24  25
ATOM     25  C   UNL A   1      41.276  19.923  25.964  1.00  0.00     0.338 C 
ATOM     26  O   UNL A   1      42.035  19.211  25.335  1.00  0.00    -0.246 OA
BRANCH  25  27
ATOM     27  C   UNL A   1      41.692  21.195  26.550  1.00  0.00     0.060 A 
ATOM     28  C   UNL A   1      42.165  22.222  25.729  1.00  0.00     0.016 A 
ATOM     29  C   UNL A   1      41.677  21.325  27.938  1.00  0.00     0.016 A 
ATOM     30  C   UNL A   1      42.615  23.406  26.301  1.00  0.00     0.010 A 
ATOM     31  C   UNL A   1      42.103  22.519  28.508  1.00  0.00     0.010 A 
ATOM     32  C   UNL A   1      42.561  23.565  27.692  1.00  0.00    -0.014 A 
BRANCH  32  33
ATOM     33  C   UNL A   1      42.864  24.874  28.301  1.00  0.00     0.031 A 
ATOM     34  C   UNL A   1      41.788  25.892  28.498  1.00  0.00     0.074 A 
ATOM     35  C   UNL A   1      44.148  25.139  28.601  1.00  0.00     0.049 A 
ATOM     36  N   UNL A   1      41.901  27.141  28.868  1.00  0.00    -0.248 NA
ATOM     37  C   UNL A   1      40.407  25.456  28.242  1.00  0.00     0.031 C 
ATOM     38  C   UNL A   1      45.258  24.191  28.457  1.00  0.00     0.029 A 
ATOM     39  N   UNL A   1      44.739  26.279  29.071  1.00  0.00    -0.354 N 
ATOM     40  C   UNL A   1      40.609  27.649  28.873  1.00  0.00     0.074 A 
ATOM     41  C   UNL A   1      39.729  26.575  28.462  1.00  0.00     0.031 C 
ATOM     42  C   UNL A   1      46.397  24.792  28.831  1.00  0.00     0.029 A 
ATOM     43  C   UNL A   1      46.104  26.175  29.179  1.00  0.00     0.049 A 
ATOM     44  H   UNL A   1      44.237  27.092  29.307  1.00  0.00     0.167 HD
ATOM     45  C   UNL A   1      40.208  28.904  29.185  1.00  0.00     0.031 A 
ATOM     46  C   UNL A   1      47.022  27.108  29.484  1.00  0.00     0.031 A 
ATOM     47  C   UNL A   1      41.109  29.959  29.570  1.00  0.00     0.049 A 
ATOM     48  C   UNL A   1      46.555  28.504  29.763  1.00  0.00     0.074 A 
ATOM     49  C   UNL A   1      40.814  31.265  29.919  1.00  0.00     0.029 A 
ATOM     50  N   UNL A   1      42.489  29.825  29.649  1.00  0.00    -0.354 N 
ATOM     51  N   UNL A   1      45.332  28.975  29.766  1.00  0.00    -0.248 NA
ATOM     52  C   UNL A   1      47.591  29.496  30.068  1.00  0.00     0.031 C 
ATOM     53  C   UNL A   1      42.021  31.933  30.163  1.00  0.00     0.029 A 
ATOM     54  C   UNL A   1      43.062  31.031  30.012  1.00  0.00     0.049 A 
ATOM     55  H   UNL A   1      42.986  28.993  29.472  1.00  0.00     0.167 HD
ATOM     56  C   UNL A   1      45.447  30.321  30.077  1.00  0.00     0.074 A 
ATOM     57  C   UNL A   1      46.860  30.581  30.278  1.00  0.00     0.031 C 
ATOM     58  C   UNL A   1      44.475  31.260  30.181  1.00  0.00     0.031 A 
BRANCH  45  59
ATOM     59  C   UNL A   1      38.741  29.209  29.077  1.00  0.00    -0.014 A 
ATOM     60  C   UNL A   1      37.888  29.100  30.186  1.00  0.00     0.009 A 
ATOM     61  C   UNL A   1      38.209  29.643  27.852  1.00  0.00     0.009 A 
ATOM     62  C   UNL A   1      36.526  29.391  30.062  1.00  0.00     0.001 A 
ATOM     63  C   UNL A   1      36.852  29.953  27.736  1.00  0.00     0.001 A 
ATOM     64  C   UNL A   1      36.011  29.820  28.839  1.00  0.00     0.000 A 
ENDBRANCH  45  59
BRANCH  46  65
ATOM     65  C   UNL A   1      48.460  26.744  29.500  1.00  0.00    -0.014 A 
ATOM     66  C   UNL A   1      49.035  26.164  30.639  1.00  0.00     0.009 A 
ATOM     67  C   UNL A   1      49.253  26.927  28.355  1.00  0.00     0.009 A 
ATOM     68  C   UNL A   1      50.379  25.782  30.634  1.00  0.00     0.001 A 
ATOM     69  C   UNL A   1      50.588  26.519  28.343  1.00  0.00     0.001 A 
ATOM     70  C   UNL A   1      51.151  25.951  29.485  1.00  0.00     0.000 A 
ENDBRANCH  46  65
BRANCH  58  71
ATOM     71  C   UNL A   1      44.926  32.646  30.533  1.00  0.00    -0.014 A 
ATOM     72  C   UNL A   1      45.052  33.043  31.873  1.00  0.00     0.009 A 
ATOM     73  C   UNL A   1      45.237  33.558  29.515  1.00  0.00     0.009 A 
ATOM     74  C   UNL A   1      45.451  34.342  32.186  1.00  0.00     0.001 A 
ATOM     75  C   UNL A   1      45.659  34.849  29.831  1.00  0.00     0.001 A 
ATOM     76  C   UNL A   1      45.757  35.242  31.166  1.00  0.00     0.000 A 
ENDBRANCH  58  71
ENDBRANCH  32  33
ENDBRANCH  25  27
ENDBRANCH  24  25
ENDBRANCH  23  24
ENDBRANCH   1  23
TORSDOF 14
ENDMDL
MODEL 3
REMARK VINA RESULT:     -10.5      4.054      9.301
REMARK SMILES CN1CCN(C(=O)N2CC[C@@H](CC(=O)OCCOC(=O)c3ccc(-c4c5nc(c(-c6ccccc6)c6ccc([nH]6)c(-c6ccccc6)c6nc(c(-c7ccccc7)c7ccc4[nH]7)C=C6)C=C5)cc3)C2)C(C)(C)C1=O
REMARK SMILES IDX 16 1 15 2 13 3 14 4 12 5 11 6 8 7 9 8 69 9 10 10 6 11 7 12
REMARK SMILES IDX 5 13 1 14 2 15 3 16 73 17 4 18 70 19 74 20 71 21 72 22 17 23
REMARK SMILES IDX 18 24 19 25 20 26 21 27 22 28 68 29 23 30 67 31 24 32 25 33
REMARK SMILES IDX 26 34 61 35 27 36 66 37 60 38 62 39 28 40 65 41 59 42 58 43
REMARK SMILES IDX 29 45 51 46 36 47 50 48 37 49 40 50 49 51 63 52 38 53 39 54
REMARK SMILES IDX 48 56 64 57 41 58 30 59 31 60 35 61 32 62 34 63 33 64 52 65
REMARK SMILES IDX 53 66 57 67 54 68 56 69 55 70 42 71 43 72 47 73 44 74 46 75
REMARK SMILES IDX 45 76
REMARK H PARENT 62 44 40 55
REMARK Flexibility Score: inf
ROOT
ATOM      1  C   UNL A   1      35.252  20.748  25.389  1.00  0.00     0.274 C 
ENDROOT
BRANCH   1   2
ATOM      2  O   UNL A   1      34.486  19.752  24.681  1.00  0.00    -0.462 OA
BRANCH   2   3
ATOM      3  C   UNL A   1      33.141  19.813  24.789  1.00  0.00     0.306 C 
ATOM      4  O   UNL A   1      32.502  19.371  25.737  1.00  0.00    -0.252 OA
BRANCH   3   5
ATOM      5  C   UNL A   1      32.456  20.365  23.554  1.00  0.00     0.128 C 
BRANCH   5   6
ATOM      6  C   UNL A   1      32.247  21.869  23.349  1.00  0.00     0.021 C 
ATOM      7  N   UNL A   1      33.110  23.880  24.241  1.00  0.00    -0.324 N 
ATOM      8  C   UNL A   1      34.034  23.486  23.200  1.00  0.00     0.122 C 
ATOM      9  C   UNL A   1      32.328  22.722  24.626  1.00  0.00     0.125 C 
ATOM     10  C   UNL A   1      33.165  22.582  22.335  1.00  0.00     0.027 C 
BRANCH   7  11
ATOM     11  C   UNL A   1      33.026  25.055  24.936  1.00  0.00     0.320 C 
ATOM     12  O   UNL A   1      33.599  25.199  26.019  1.00  0.00    -0.248 OA
BRANCH  11  13
ATOM     13  N   UNL A   1      32.336  26.105  24.349  1.00  0.00    -0.309 N 
ATOM     14  C   UNL A   1      30.538  29.377  22.227  1.00  0.00     0.146 C 
ATOM     15  N   UNL A   1      31.131  28.316  23.021  1.00  0.00    -0.342 N 
ATOM     16  C   UNL A   1      32.539  28.022  22.782  1.00  0.00     0.140 C 
ATOM     17  C   UNL A   1      30.321  27.498  23.806  1.00  0.00     0.247 C 
ATOM     18  C   UNL A   1      33.215  27.152  23.830  1.00  0.00     0.144 C 
ATOM     19  C   UNL A   1      31.037  26.627  24.890  1.00  0.00     0.118 C 
ATOM     20  O   UNL A   1      29.093  27.614  23.793  1.00  0.00    -0.272 OA
ATOM     21  C   UNL A   1      31.292  27.571  26.093  1.00  0.00     0.045 C 
ATOM     22  C   UNL A   1      30.034  25.576  25.403  1.00  0.00     0.045 C 
ENDBRANCH  11  13
ENDBRANCH   7  11
ENDBRANCH   5   6
ENDBRANCH   3   5
ENDBRANCH   2   3
ENDBRANCH   1   2
BRANCH   1  23
ATOM     23  C   UNL A   1      36.718  20.715  24.969  1.00  0.00     0.275 C 
BRANCH  23  24
ATOM     24  O   UNL A   1      37.448  21.735  25.671  1.00  0.00    -0.458 OA
BRANCH  24  25
ATOM     25  C   UNL A   1      38.739  21.442  25.944  1.00  0.00     0.338 C 
ATOM     26  O   UNL A   1      39.308  20.375  25.822  1.00  0.00    -0.246 OA
BRANCH  25  27
ATOM     27  C   UNL A   1      39.409  22.641  26.444  1.00  0.00     0.060 A 
ATOM     28  C   UNL A   1      40.451  22.526  27.367  1.00  0.00     0.016 A 
ATOM     29  C   UNL A   1      38.933  23.886  26.039  1.00  0.00     0.016 A 
ATOM     30  C   UNL A   1      41.041  23.674  27.882  1.00  0.00     0.010 A 
ATOM     31  C   UNL A   1      39.540  25.034  26.534  1.00  0.00     0.010 A 
ATOM     32  C   UNL A   1      40.602  24.931  27.447  1.00  0.00    -0.014 A 
BRANCH  32  33
ATOM     33  C   UNL A   1      41.332  26.150  27.844  1.00  0.00     0.031 A 
ATOM     34  C   UNL A   1      40.684  27.178  28.713  1.00  0.00     0.074 A 
ATOM     35  C   UNL A   1      42.565  26.329  27.340  1.00  0.00     0.049 A 
ATOM     36  N   UNL A   1      41.114  28.372  29.029  1.00  0.00    -0.248 NA
ATOM     37  C   UNL A   1      39.382  26.827  29.299  1.00  0.00     0.031 C 
ATOM     38  C   UNL A   1      43.279  25.363  26.499  1.00  0.00     0.029 A 
ATOM     39  N   UNL A   1      43.428  27.386  27.443  1.00  0.00    -0.354 N 
ATOM     40  C   UNL A   1      40.129  28.924  29.836  1.00  0.00     0.074 A 
ATOM     41  C   UNL A   1      39.076  27.938  29.956  1.00  0.00     0.031 C 
ATOM     42  C   UNL A   1      44.472  25.874  26.162  1.00  0.00     0.029 A 
ATOM     43  C   UNL A   1      44.577  27.219  26.710  1.00  0.00     0.049 A 
ATOM     44  H   UNL A   1      43.243  28.185  27.987  1.00  0.00     0.167 HD
ATOM     45  C   UNL A   1      40.114  30.150  30.411  1.00  0.00     0.031 A 
ATOM     46  C   UNL A   1      45.585  28.075  26.473  1.00  0.00     0.031 A 
ATOM     47  C   UNL A   1      41.167  31.120  30.257  1.00  0.00     0.049 A 
ATOM     48  C   UNL A   1      45.511  29.447  27.071  1.00  0.00     0.074 A 
ATOM     49  C   UNL A   1      41.264  32.388  30.802  1.00  0.00     0.029 A 
ATOM     50  N   UNL A   1      42.309  30.926  29.490  1.00  0.00    -0.354 N 
ATOM     51  N   UNL A   1      44.577  29.961  27.834  1.00  0.00    -0.248 NA
ATOM     52  C   UNL A   1      46.620  30.358  26.767  1.00  0.00     0.031 C 
ATOM     53  C   UNL A   1      42.442  32.977  30.326  1.00  0.00     0.029 A 
ATOM     54  C   UNL A   1      43.101  32.059  29.523  1.00  0.00     0.049 A 
ATOM     55  H   UNL A   1      42.523  30.101  28.995  1.00  0.00     0.167 HD
ATOM     56  C   UNL A   1      44.984  31.257  28.108  1.00  0.00     0.074 A 
ATOM     57  C   UNL A   1      46.263  31.439  27.446  1.00  0.00     0.031 C 
ATOM     58  C   UNL A   1      44.357  32.214  28.834  1.00  0.00     0.031 A 
BRANCH  45  59
ATOM     59  C   UNL A   1      38.903  30.521  31.219  1.00  0.00    -0.014 A 
ATOM     60  C   UNL A   1      37.781  31.117  30.623  1.00  0.00     0.009 A 
ATOM     61  C   UNL A   1      38.872  30.242  32.595  1.00  0.00     0.009 A 
ATOM     62  C   UNL A   1      36.664  31.452  31.394  1.00  0.00     0.001 A 
ATOM     63  C   UNL A   1      37.747  30.559  33.359  1.00  0.00     0.001 A 
ATOM     64  C   UNL A   1      36.647  31.170  32.760  1.00  0.00     0.000 A 
ENDBRANCH  45  59
BRANCH  46  65
ATOM     65  C   UNL A   1      46.714  27.658  25.605  1.00  0.00    -0.014 A 
ATOM     66  C   UNL A   1      46.674  27.892  24.224  1.00  0.00     0.009 A 
ATOM     67  C   UNL A   1      47.861  27.069  26.163  1.00  0.00     0.009 A 
ATOM     68  C   UNL A   1      47.758  27.537  23.417  1.00  0.00     0.001 A 
ATOM     69  C   UNL A   1      48.954  26.742  25.358  1.00  0.00     0.001 A 
ATOM     70  C   UNL A   1      48.898  26.971  23.985  1.00  0.00     0.000 A 
ENDBRANCH  46  65
BRANCH  58  71
ATOM     71  C   UNL A   1      45.062  33.533  28.944  1.00  0.00    -0.014 A 
ATOM     72  C   UNL A   1      45.991  33.769  29.969  1.00  0.00     0.009 A 
ATOM     73  C   UNL A   1      44.802  34.543  28.007  1.00  0.00     0.009 A 
ATOM     74  C   UNL A   1      46.622  35.008  30.072  1.00  0.00     0.001 A 
ATOM     75  C   UNL A   1      45.453  35.772  28.098  1.00  0.00     0.001 A 
ATOM     76  C   UNL A   1      46.356  36.007  29.136  1.00  0.00     0.000 A 
ENDBRANCH  58  71
ENDBRANCH  32  33
ENDBRANCH  25  27
ENDBRANCH  24  25
ENDBRANCH  23  24
ENDBRANCH   1  23
TORSDOF 14
ENDMDL
