MODEL 1
REMARK VINA RESULT:     -12.0      0.000      0.000
REMARK SMILES O=C(Nc1ccccc1)N[C@H]1C[C@@H](C(=O)OCCOC(=O)c2ccc(-c3c4nc(c(-c5ccccc5)c5ccc([nH]5)c(-c5ccccc5)c5nc(c(-c6ccccc6)c6ccc3[nH]6)C=C5)C=C4)cc2)Nc2cc(Cl)cc(Cl)c21
REMARK SMILES IDX 17 1 16 2 14 3 15 4 13 5 11 6 12 7 78 8 71 9 76 10 70 11
REMARK SMILES IDX 72 12 75 13 77 14 73 16 74 17 10 18 1 19 2 20 3 21 4 24 5 25
REMARK SMILES IDX 9 26 6 27 8 28 7 29 18 30 19 31 20 32 21 33 22 34 23 35
REMARK SMILES IDX 69 36 24 37 68 38 25 39 26 40 27 41 62 42 28 43 67 44 61 45
REMARK SMILES IDX 63 46 29 47 66 48 60 49 59 50 30 52 52 53 37 54 51 55 38 56
REMARK SMILES IDX 41 57 50 58 64 59 39 60 40 61 49 63 65 64 42 65 31 66 32 67
REMARK SMILES IDX 36 68 33 69 35 70 34 71 53 72 54 73 58 74 55 75 57 76 56 77
REMARK SMILES IDX 43 78 44 79 48 80 45 81 47 82 46 83
REMARK H PARENT 70 15 3 22 10 23 63 51 41 62
REMARK Flexibility Score: inf
ROOT
ATOM      1  C   UNL A   1      37.163  20.484  25.008  1.00  0.00     0.274 C 
ENDROOT
BRANCH   1   2
ATOM      2  O   UNL A   1      37.161  21.763  24.345  1.00  0.00    -0.461 OA
BRANCH   2   3
ATOM      3  C   UNL A   1      37.256  22.869  25.130  1.00  0.00     0.328 C 
ATOM      4  O   UNL A   1      38.220  23.145  25.836  1.00  0.00    -0.250 OA
BRANCH   3   5
ATOM      5  C   UNL A   1      36.038  23.789  24.960  1.00  0.00     0.192 C 
ATOM      6  C   UNL A   1      33.633  23.295  25.778  1.00  0.00     0.120 C 
ATOM      7  C   UNL A   1      35.071  23.716  26.144  1.00  0.00     0.067 C 
ATOM      8  C   UNL A   1      33.190  24.048  24.535  1.00  0.00     0.016 A 
ATOM      9  C   UNL A   1      34.134  24.151  23.498  1.00  0.00     0.043 A 
ATOM     10  C   UNL A   1      31.901  24.554  24.327  1.00  0.00     0.049 A 
ATOM     11  N   UNL A   1      35.387  23.560  23.661  1.00  0.00    -0.372 N 
ATOM     12  C   UNL A   1      33.772  24.678  22.259  1.00  0.00     0.046 A 
ATOM     13  C   UNL A   1      31.557  25.137  23.103  1.00  0.00     0.041 A 
ATOM     14  Cl  UNL A   1      30.676  24.456  25.537  1.00  0.00    -0.084 Cl
ATOM     15  H   UNL A   1      35.809  23.024  22.951  1.00  0.00     0.161 HD
ATOM     16  C   UNL A   1      32.492  25.186  22.072  1.00  0.00     0.044 A 
ATOM     17  Cl  UNL A   1      32.057  25.861  20.551  1.00  0.00    -0.084 Cl
BRANCH   6  18
ATOM     18  N   UNL A   1      33.451  21.862  25.557  1.00  0.00    -0.331 N 
ATOM     19  O   UNL A   1      33.769  21.201  27.702  1.00  0.00    -0.248 OA
ATOM     20  C   UNL A   1      33.560  20.923  26.521  1.00  0.00     0.319 C 
ATOM     21  N   UNL A   1      33.405  19.615  26.187  1.00  0.00    -0.308 N 
ATOM     22  H   UNL A   1      33.348  19.032  26.978  1.00  0.00     0.171 HD
ATOM     23  H   UNL A   1      33.236  21.561  24.645  1.00  0.00     0.166 HD
BRANCH  21  24
ATOM     24  C   UNL A   1      33.307  18.890  24.983  1.00  0.00     0.042 A 
ATOM     25  C   UNL A   1      34.275  17.893  24.781  1.00  0.00     0.026 A 
ATOM     26  C   UNL A   1      32.370  19.105  23.972  1.00  0.00     0.026 A 
ATOM     27  C   UNL A   1      34.295  17.125  23.614  1.00  0.00     0.002 A 
ATOM     28  C   UNL A   1      32.384  18.332  22.803  1.00  0.00     0.002 A 
ATOM     29  C   UNL A   1      33.343  17.341  22.624  1.00  0.00     0.000 A 
ENDBRANCH  21  24
ENDBRANCH   6  18
ENDBRANCH   3   5
ENDBRANCH   2   3
ENDBRANCH   1   2
BRANCH   1  30
ATOM     30  C   UNL A   1      38.556  19.855  24.914  1.00  0.00     0.275 C 
BRANCH  30  31
ATOM     31  O   UNL A   1      39.247  19.910  26.179  1.00  0.00    -0.458 OA
BRANCH  31  32
ATOM     32  C   UNL A   1      40.591  19.828  26.088  1.00  0.00     0.338 C 
ATOM     33  O   UNL A   1      41.257  18.948  25.570  1.00  0.00    -0.246 OA
BRANCH  32  34
ATOM     34  C   UNL A   1      41.233  21.031  26.612  1.00  0.00     0.060 A 
ATOM     35  C   UNL A   1      41.179  21.250  27.990  1.00  0.00     0.016 A 
ATOM     36  C   UNL A   1      41.695  22.015  25.738  1.00  0.00     0.016 A 
ATOM     37  C   UNL A   1      41.563  22.482  28.502  1.00  0.00     0.010 A 
ATOM     38  C   UNL A   1      42.105  23.244  26.258  1.00  0.00     0.010 A 
ATOM     39  C   UNL A   1      42.023  23.487  27.639  1.00  0.00    -0.014 A 
BRANCH  39  40
ATOM     40  C   UNL A   1      42.429  24.793  28.199  1.00  0.00     0.031 A 
ATOM     41  C   UNL A   1      41.415  25.868  28.447  1.00  0.00     0.074 A 
ATOM     42  C   UNL A   1      43.718  24.988  28.523  1.00  0.00     0.049 A 
ATOM     43  N   UNL A   1      41.607  27.097  28.853  1.00  0.00    -0.248 NA
ATOM     44  C   UNL A   1      40.005  25.521  28.210  1.00  0.00     0.031 C 
ATOM     45  C   UNL A   1      44.787  23.999  28.372  1.00  0.00     0.029 A 
ATOM     46  N   UNL A   1      44.341  26.078  29.067  1.00  0.00    -0.354 N 
ATOM     47  C   UNL A   1      40.349  27.682  28.890  1.00  0.00     0.074 A 
ATOM     48  C   UNL A   1      39.398  26.670  28.482  1.00  0.00     0.031 C 
ATOM     49  C   UNL A   1      45.929  24.516  28.850  1.00  0.00     0.029 A 
ATOM     50  C   UNL A   1      45.678  25.882  29.299  1.00  0.00     0.049 A 
ATOM     51  H   UNL A   1      43.875  26.922  29.273  1.00  0.00     0.167 HD
ATOM     52  C   UNL A   1      40.022  28.953  29.226  1.00  0.00     0.031 A 
ATOM     53  C   UNL A   1      46.603  26.715  29.805  1.00  0.00     0.031 A 
ATOM     54  C   UNL A   1      40.962  29.953  29.651  1.00  0.00     0.049 A 
ATOM     55  C   UNL A   1      46.216  28.114  30.170  1.00  0.00     0.074 A 
ATOM     56  C   UNL A   1      40.730  31.283  29.964  1.00  0.00     0.029 A 
ATOM     57  N   UNL A   1      42.314  29.726  29.845  1.00  0.00    -0.354 N 
ATOM     58  N   UNL A   1      45.037  28.683  30.108  1.00  0.00    -0.248 NA
ATOM     59  C   UNL A   1      47.292  28.993  30.649  1.00  0.00     0.031 C 
ATOM     60  C   UNL A   1      41.948  31.861  30.343  1.00  0.00     0.029 A 
ATOM     61  C   UNL A   1      42.932  30.887  30.275  1.00  0.00     0.049 A 
ATOM     62  H   UNL A   1      42.769  28.866  29.698  1.00  0.00     0.167 HD
ATOM     63  C   UNL A   1      45.232  29.995  30.512  1.00  0.00     0.074 A 
ATOM     64  C   UNL A   1      46.637  30.129  30.846  1.00  0.00     0.031 C 
ATOM     65  C   UNL A   1      44.331  31.002  30.583  1.00  0.00     0.031 A 
BRANCH  52  66
ATOM     66  C   UNL A   1      38.579  29.337  29.107  1.00  0.00    -0.014 A 
ATOM     67  C   UNL A   1      37.728  29.291  30.220  1.00  0.00     0.009 A 
ATOM     68  C   UNL A   1      38.075  29.774  27.872  1.00  0.00     0.009 A 
ATOM     69  C   UNL A   1      36.388  29.666  30.095  1.00  0.00     0.001 A 
ATOM     70  C   UNL A   1      36.738  30.154  27.752  1.00  0.00     0.001 A 
ATOM     71  C   UNL A   1      35.896  30.097  28.862  1.00  0.00     0.000 A 
ENDBRANCH  52  66
BRANCH  53  72
ATOM     72  C   UNL A   1      47.996  26.242  29.960  1.00  0.00    -0.014 A 
ATOM     73  C   UNL A   1      48.444  25.764  31.199  1.00  0.00     0.009 A 
ATOM     74  C   UNL A   1      48.864  26.223  28.858  1.00  0.00     0.009 A 
ATOM     75  C   UNL A   1      49.745  25.276  31.333  1.00  0.00     0.001 A 
ATOM     76  C   UNL A   1      50.161  25.726  28.993  1.00  0.00     0.001 A 
ATOM     77  C   UNL A   1      50.599  25.255  30.230  1.00  0.00     0.000 A 
ENDBRANCH  53  72
BRANCH  65  78
ATOM     78  C   UNL A   1      44.854  32.338  31.010  1.00  0.00    -0.014 A 
ATOM     79  C   UNL A   1      44.875  32.682  32.370  1.00  0.00     0.009 A 
ATOM     80  C   UNL A   1      45.333  33.249  30.058  1.00  0.00     0.009 A 
ATOM     81  C   UNL A   1      45.355  33.930  32.769  1.00  0.00     0.001 A 
ATOM     82  C   UNL A   1      45.817  34.493  30.462  1.00  0.00     0.001 A 
ATOM     83  C   UNL A   1      45.823  34.834  31.816  1.00  0.00     0.000 A 
ENDBRANCH  65  78
ENDBRANCH  39  40
ENDBRANCH  32  34
ENDBRANCH  31  32
ENDBRANCH  30  31
ENDBRANCH   1  30
TORSDOF 13
ENDMDL
MODEL 2
REMARK VINA RESULT:     -11.9      4.276      9.017
REMARK SMILES O=C(Nc1ccccc1)N[C@H]1C[C@@H](C(=O)OCCOC(=O)c2ccc(-c3c4nc(c(-c5ccccc5)c5ccc([nH]5)c(-c5ccccc5)c5nc(c(-c6ccccc6)c6ccc3[nH]6)C=C5)C=C4)cc2)Nc2cc(Cl)cc(Cl)c21
REMARK SMILES IDX 17 1 16 2 14 3 15 4 13 5 11 6 12 7 78 8 71 9 76 10 70 11
REMARK SMILES IDX 72 12 75 13 77 14 73 16 74 17 10 18 1 19 2 20 3 21 4 24 5 25
REMARK SMILES IDX 9 26 6 27 8 28 7 29 18 30 19 31 20 32 21 33 22 34 23 35
REMARK SMILES IDX 69 36 24 37 68 38 25 39 26 40 27 41 62 42 28 43 67 44 61 45
REMARK SMILES IDX 63 46 29 47 66 48 60 49 59 50 30 52 52 53 37 54 51 55 38 56
REMARK SMILES IDX 41 57 50 58 64 59 39 60 40 61 49 63 65 64 42 65 31 66 32 67
REMARK SMILES IDX 36 68 33 69 35 70 34 71 53 72 54 73 58 74 55 75 57 76 56 77
REMARK SMILES IDX 43 78 44 79 48 80 45 81 47 82 46 83
REMARK H PARENT 70 15 3 22 10 23 63 51 41 62
REMARK Flexibility Score: inf
ROOT
ATOM      1  C   UNL A   1      31.714  30.948  26.262  1.00  0.00     0.274 C 
ENDROOT
BRANCH   1   2
ATOM      2  O   UNL A   1      31.950  29.834  27.143  1.00  0.00    -0.461 OA
BRANCH   2   3
ATOM      3  C   UNL A   1      33.213  29.331  27.183  1.00  0.00     0.328 C 
ATOM      4  O   UNL A   1      34.194  29.937  27.601  1.00  0.00    -0.250 OA
BRANCH   3   5
ATOM      5  C   UNL A   1      33.254  27.868  26.721  1.00  0.00     0.192 C 
ATOM      6  C   UNL A   1      32.979  27.033  24.286  1.00  0.00     0.120 C 
ATOM      7  C   UNL A   1      33.889  27.701  25.338  1.00  0.00     0.067 C 
ATOM      8  C   UNL A   1      32.289  25.831  24.909  1.00  0.00     0.016 A 
ATOM      9  C   UNL A   1      31.781  26.007  26.209  1.00  0.00     0.043 A 
ATOM     10  C   UNL A   1      32.054  24.618  24.251  1.00  0.00     0.049 A 
ATOM     11  N   UNL A   1      31.924  27.246  26.830  1.00  0.00    -0.372 N 
ATOM     12  C   UNL A   1      30.993  25.021  26.801  1.00  0.00     0.046 A 
ATOM     13  C   UNL A   1      31.313  23.606  24.871  1.00  0.00     0.041 A 
ATOM     14  Cl  UNL A   1      32.627  24.323  22.650  1.00  0.00    -0.084 Cl
ATOM     15  H   UNL A   1      31.183  27.679  27.313  1.00  0.00     0.161 HD
ATOM     16  C   UNL A   1      30.778  23.818  26.138  1.00  0.00     0.044 A 
ATOM     17  Cl  UNL A   1      29.827  22.593  26.883  1.00  0.00    -0.084 Cl
BRANCH   6  18
ATOM     18  N   UNL A   1      31.969  27.913  23.703  1.00  0.00    -0.331 N 
ATOM     19  O   UNL A   1      33.317  28.934  22.194  1.00  0.00    -0.248 OA
ATOM     20  C   UNL A   1      32.215  28.813  22.726  1.00  0.00     0.319 C 
ATOM     21  N   UNL A   1      31.200  29.603  22.289  1.00  0.00    -0.308 N 
ATOM     22  H   UNL A   1      31.442  30.107  21.478  1.00  0.00     0.171 HD
ATOM     23  H   UNL A   1      31.048  27.845  24.045  1.00  0.00     0.166 HD
BRANCH  21  24
ATOM     24  C   UNL A   1      29.884  29.877  22.712  1.00  0.00     0.042 A 
ATOM     25  C   UNL A   1      28.951  28.843  22.535  1.00  0.00     0.026 A 
ATOM     26  C   UNL A   1      29.430  31.084  23.244  1.00  0.00     0.026 A 
ATOM     27  C   UNL A   1      27.610  29.005  22.895  1.00  0.00     0.002 A 
ATOM     28  C   UNL A   1      28.087  31.247  23.610  1.00  0.00     0.002 A 
ATOM     29  C   UNL A   1      27.178  30.209  23.439  1.00  0.00     0.000 A 
ENDBRANCH  21  24
ENDBRANCH   6  18
ENDBRANCH   3   5
ENDBRANCH   2   3
ENDBRANCH   1   2
BRANCH   1  30
ATOM     30  C   UNL A   1      31.645  32.244  27.075  1.00  0.00     0.275 C 
BRANCH  30  31
ATOM     31  O   UNL A   1      32.884  32.980  27.002  1.00  0.00    -0.458 OA
BRANCH  31  32
ATOM     32  C   UNL A   1      33.132  33.768  28.069  1.00  0.00     0.338 C 
ATOM     33  O   UNL A   1      32.399  34.599  28.576  1.00  0.00    -0.246 OA
BRANCH  32  34
ATOM     34  C   UNL A   1      34.417  33.441  28.682  1.00  0.00     0.060 A 
ATOM     35  C   UNL A   1      35.576  33.762  27.972  1.00  0.00     0.016 A 
ATOM     36  C   UNL A   1      34.465  32.655  29.833  1.00  0.00     0.016 A 
ATOM     37  C   UNL A   1      36.799  33.264  28.400  1.00  0.00     0.010 A 
ATOM     38  C   UNL A   1      35.700  32.177  30.276  1.00  0.00     0.010 A 
ATOM     39  C   UNL A   1      36.867  32.466  29.551  1.00  0.00    -0.014 A 
BRANCH  39  40
ATOM     40  C   UNL A   1      38.177  31.943  29.994  1.00  0.00     0.031 A 
ATOM     41  C   UNL A   1      38.707  30.649  29.456  1.00  0.00     0.074 A 
ATOM     42  C   UNL A   1      38.905  32.669  30.860  1.00  0.00     0.049 A 
ATOM     43  N   UNL A   1      39.794  30.005  29.797  1.00  0.00    -0.248 NA
ATOM     44  C   UNL A   1      37.920  29.995  28.400  1.00  0.00     0.031 C 
ATOM     45  C   UNL A   1      38.514  33.966  31.416  1.00  0.00     0.029 A 
ATOM     46  N   UNL A   1      40.138  32.426  31.403  1.00  0.00    -0.354 N 
ATOM     47  C   UNL A   1      39.807  28.854  29.023  1.00  0.00     0.074 A 
ATOM     48  C   UNL A   1      38.629  28.894  28.182  1.00  0.00     0.031 C 
ATOM     49  C   UNL A   1      39.507  34.423  32.193  1.00  0.00     0.029 A 
ATOM     50  C   UNL A   1      40.580  33.434  32.221  1.00  0.00     0.049 A 
ATOM     51  H   UNL A   1      40.657  31.608  31.224  1.00  0.00     0.167 HD
ATOM     52  C   UNL A   1      40.716  27.849  29.023  1.00  0.00     0.031 A 
ATOM     53  C   UNL A   1      41.718  33.543  32.926  1.00  0.00     0.031 A 
ATOM     54  C   UNL A   1      41.897  27.817  29.842  1.00  0.00     0.049 A 
ATOM     55  C   UNL A   1      42.709  32.421  32.909  1.00  0.00     0.074 A 
ATOM     56  C   UNL A   1      42.850  26.818  29.948  1.00  0.00     0.029 A 
ATOM     57  N   UNL A   1      42.296  28.843  30.682  1.00  0.00    -0.354 N 
ATOM     58  N   UNL A   1      42.659  31.292  32.244  1.00  0.00    -0.248 NA
ATOM     59  C   UNL A   1      43.896  32.575  33.760  1.00  0.00     0.031 C 
ATOM     60  C   UNL A   1      43.827  27.241  30.859  1.00  0.00     0.029 A 
ATOM     61  C   UNL A   1      43.483  28.506  31.309  1.00  0.00     0.049 A 
ATOM     62  H   UNL A   1      41.808  29.687  30.814  1.00  0.00     0.167 HD
ATOM     63  C   UNL A   1      43.794  30.588  32.617  1.00  0.00     0.074 A 
ATOM     64  C   UNL A   1      44.528  31.429  33.542  1.00  0.00     0.031 C 
ATOM     65  C   UNL A   1      44.184  29.349  32.238  1.00  0.00     0.031 A 
BRANCH  52  66
ATOM     66  C   UNL A   1      40.439  26.682  28.127  1.00  0.00    -0.014 A 
ATOM     67  C   UNL A   1      39.636  25.617  28.558  1.00  0.00     0.009 A 
ATOM     68  C   UNL A   1      40.967  26.664  26.826  1.00  0.00     0.009 A 
ATOM     69  C   UNL A   1      39.376  24.543  27.704  1.00  0.00     0.001 A 
ATOM     70  C   UNL A   1      40.700  25.592  25.973  1.00  0.00     0.001 A 
ATOM     71  C   UNL A   1      39.908  24.532  26.414  1.00  0.00     0.000 A 
ENDBRANCH  52  66
BRANCH  53  72
ATOM     72  C   UNL A   1      41.955  34.759  33.735  1.00  0.00    -0.014 A 
ATOM     73  C   UNL A   1      41.514  34.817  35.065  1.00  0.00     0.009 A 
ATOM     74  C   UNL A   1      42.663  35.842  33.195  1.00  0.00     0.009 A 
ATOM     75  C   UNL A   1      41.778  35.946  35.841  1.00  0.00     0.001 A 
ATOM     76  C   UNL A   1      42.932  36.966  33.976  1.00  0.00     0.001 A 
ATOM     77  C   UNL A   1      42.489  37.017  35.297  1.00  0.00     0.000 A 
ENDBRANCH  53  72
BRANCH  65  78
ATOM     78  C   UNL A   1      45.444  28.826  32.855  1.00  0.00    -0.014 A 
ATOM     79  C   UNL A   1      46.679  29.061  32.234  1.00  0.00     0.009 A 
ATOM     80  C   UNL A   1      45.400  28.109  34.059  1.00  0.00     0.009 A 
ATOM     81  C   UNL A   1      47.855  28.569  32.803  1.00  0.00     0.001 A 
ATOM     82  C   UNL A   1      46.577  27.624  34.627  1.00  0.00     0.001 A 
ATOM     83  C   UNL A   1      47.802  27.850  33.997  1.00  0.00     0.000 A 
ENDBRANCH  65  78
ENDBRANCH  39  40
ENDBRANCH  32  34
ENDBRANCH  31  32
ENDBRANCH  30  31
ENDBRANCH   1  30
TORSDOF 13
ENDMDL
MODEL 3
REMARK VINA RESULT:     -11.9      0.412      5.752
REMARK SMILES O=C(Nc1ccccc1)N[C@H]1C[C@@H](C(=O)OCCOC(=O)c2ccc(-c3c4nc(c(-c5ccccc5)c5ccc([nH]5)c(-c5ccccc5)c5nc(c(-c6ccccc6)c6ccc3[nH]6)C=C5)C=C4)cc2)Nc2cc(Cl)cc(Cl)c21
REMARK SMILES IDX 17 1 16 2 14 3 15 4 13 5 11 6 12 7 78 8 71 9 76 10 70 11
REMARK SMILES IDX 72 12 75 13 77 14 73 16 74 17 10 18 1 19 2 20 3 21 4 24 5 25
REMARK SMILES IDX 9 26 6 27 8 28 7 29 18 30 19 31 20 32 21 33 22 34 23 35
REMARK SMILES IDX 69 36 24 37 68 38 25 39 26 40 27 41 62 42 28 43 67 44 61 45
REMARK SMILES IDX 63 46 29 47 66 48 60 49 59 50 30 52 52 53 37 54 51 55 38 56
REMARK SMILES IDX 41 57 50 58 64 59 39 60 40 61 49 63 65 64 42 65 31 66 32 67
REMARK SMILES IDX 36 68 33 69 35 70 34 71 53 72 54 73 58 74 55 75 57 76 56 77
REMARK SMILES IDX 43 78 44 79 48 80 45 81 47 82 46 83
REMARK H PARENT 70 15 3 22 10 23 63 51 41 62
REMARK Flexibility Score: inf
ROOT
ATOM      1  C   UNL A   1      37.224  20.334  24.981  1.00  0.00     0.274 C 
ENDROOT
BRANCH   1   2
ATOM      2  O   UNL A   1      37.331  21.645  24.394  1.00  0.00    -0.461 OA
BRANCH   2   3
ATOM      3  C   UNL A   1      37.378  22.705  25.245  1.00  0.00     0.328 C 
ATOM      4  O   UNL A   1      38.283  22.919  26.045  1.00  0.00    -0.250 OA
BRANCH   3   5
ATOM      5  C   UNL A   1      36.198  23.661  25.023  1.00  0.00     0.192 C 
ATOM      6  C   UNL A   1      33.752  23.258  25.766  1.00  0.00     0.120 C 
ATOM      7  C   UNL A   1      35.191  23.637  26.174  1.00  0.00     0.067 C 
ATOM      8  C   UNL A   1      33.376  24.008  24.499  1.00  0.00     0.016 A 
ATOM      9  C   UNL A   1      34.356  24.065  23.493  1.00  0.00     0.043 A 
ATOM     10  C   UNL A   1      32.112  24.553  24.242  1.00  0.00     0.049 A 
ATOM     11  N   UNL A   1      35.582  23.436  23.705  1.00  0.00    -0.372 N 
ATOM     12  C   UNL A   1      34.053  24.587  22.236  1.00  0.00     0.046 A 
ATOM     13  C   UNL A   1      31.828  25.130  23.000  1.00  0.00     0.041 A 
ATOM     14  Cl  UNL A   1      30.845  24.512  25.412  1.00  0.00    -0.084 Cl
ATOM     15  H   UNL A   1      36.009  22.877  23.016  1.00  0.00     0.161 HD
ATOM     16  C   UNL A   1      32.797  25.134  22.000  1.00  0.00     0.044 A 
ATOM     17  Cl  UNL A   1      32.434  25.801  20.457  1.00  0.00    -0.084 Cl
BRANCH   6  18
ATOM     18  N   UNL A   1      33.531  21.829  25.558  1.00  0.00    -0.331 N 
ATOM     19  O   UNL A   1      33.709  21.194  27.726  1.00  0.00    -0.248 OA
ATOM     20  C   UNL A   1      33.553  20.903  26.541  1.00  0.00     0.319 C 
ATOM     21  N   UNL A   1      33.369  19.597  26.219  1.00  0.00    -0.308 N 
ATOM     22  H   UNL A   1      33.248  19.030  27.015  1.00  0.00     0.171 HD
ATOM     23  H   UNL A   1      33.353  21.520  24.640  1.00  0.00     0.166 HD
BRANCH  21  24
ATOM     24  C   UNL A   1      33.309  18.854  25.023  1.00  0.00     0.042 A 
ATOM     25  C   UNL A   1      34.327  17.908  24.832  1.00  0.00     0.026 A 
ATOM     26  C   UNL A   1      32.362  19.010  24.010  1.00  0.00     0.026 A 
ATOM     27  C   UNL A   1      34.387  17.129  23.673  1.00  0.00     0.002 A 
ATOM     28  C   UNL A   1      32.416  18.226  22.849  1.00  0.00     0.002 A 
ATOM     29  C   UNL A   1      33.426  17.285  22.681  1.00  0.00     0.000 A 
ENDBRANCH  21  24
ENDBRANCH   6  18
ENDBRANCH   3   5
ENDBRANCH   2   3
ENDBRANCH   1   2
BRANCH   1  30
ATOM     30  C   UNL A   1      38.591  19.645  24.961  1.00  0.00     0.275 C 
BRANCH  30  31
ATOM     31  O   UNL A   1      39.288  19.818  26.212  1.00  0.00    -0.458 OA
BRANCH  31  32
ATOM     32  C   UNL A   1      40.634  19.768  26.115  1.00  0.00     0.338 C 
ATOM     33  O   UNL A   1      41.320  18.891  25.621  1.00  0.00    -0.246 OA
BRANCH  32  34
ATOM     34  C   UNL A   1      41.245  21.005  26.596  1.00  0.00     0.060 A 
ATOM     35  C   UNL A   1      41.162  21.283  27.962  1.00  0.00     0.016 A 
ATOM     36  C   UNL A   1      41.708  21.957  25.688  1.00  0.00     0.016 A 
ATOM     37  C   UNL A   1      41.516  22.543  28.425  1.00  0.00     0.010 A 
ATOM     38  C   UNL A   1      42.088  23.215  26.160  1.00  0.00     0.010 A 
ATOM     39  C   UNL A   1      41.976  23.516  27.527  1.00  0.00    -0.014 A 
BRANCH  39  40
ATOM     40  C   UNL A   1      42.350  24.853  28.036  1.00  0.00     0.031 A 
ATOM     41  C   UNL A   1      43.786  25.211  28.268  1.00  0.00     0.074 A 
ATOM     42  C   UNL A   1      41.381  25.760  28.249  1.00  0.00     0.049 A 
ATOM     43  N   UNL A   1      44.285  26.303  28.787  1.00  0.00    -0.248 NA
ATOM     44  C   UNL A   1      44.793  24.217  27.865  1.00  0.00     0.031 C 
ATOM     45  C   UNL A   1      39.952  25.542  28.014  1.00  0.00     0.029 A 
ATOM     46  N   UNL A   1      41.458  27.053  28.689  1.00  0.00    -0.354 N 
ATOM     47  C   UNL A   1      45.659  26.118  28.804  1.00  0.00     0.074 A 
ATOM     48  C   UNL A   1      45.920  24.816  28.229  1.00  0.00     0.031 C 
ATOM     49  C   UNL A   1      39.290  26.680  28.277  1.00  0.00     0.029 A 
ATOM     50  C   UNL A   1      40.242  27.685  28.737  1.00  0.00     0.049 A 
ATOM     51  H   UNL A   1      42.304  27.488  28.947  1.00  0.00     0.167 HD
ATOM     52  C   UNL A   1      46.616  26.958  29.270  1.00  0.00     0.031 A 
ATOM     53  C   UNL A   1      39.928  28.934  29.121  1.00  0.00     0.031 A 
ATOM     54  C   UNL A   1      46.361  28.260  29.822  1.00  0.00     0.049 A 
ATOM     55  C   UNL A   1      41.002  29.844  29.630  1.00  0.00     0.074 A 
ATOM     56  C   UNL A   1      47.261  29.162  30.365  1.00  0.00     0.029 A 
ATOM     57  N   UNL A   1      45.112  28.855  29.883  1.00  0.00    -0.354 N 
ATOM     58  N   UNL A   1      42.289  29.617  29.731  1.00  0.00    -0.248 NA
ATOM     59  C   UNL A   1      40.577  31.168  30.101  1.00  0.00     0.031 C 
ATOM     60  C   UNL A   1      46.552  30.304  30.759  1.00  0.00     0.029 A 
ATOM     61  C   UNL A   1      45.214  30.113  30.450  1.00  0.00     0.049 A 
ATOM     62  H   UNL A   1      44.275  28.444  29.568  1.00  0.00     0.167 HD
ATOM     63  C   UNL A   1      42.826  30.761  30.304  1.00  0.00     0.074 A 
ATOM     64  C   UNL A   1      41.730  31.689  30.500  1.00  0.00     0.031 C 
ATOM     65  C   UNL A   1      44.110  31.011  30.652  1.00  0.00     0.031 A 
BRANCH  52  66
ATOM     66  C   UNL A   1      48.029  26.466  29.229  1.00  0.00    -0.014 A 
ATOM     67  C   UNL A   1      48.570  25.739  30.300  1.00  0.00     0.009 A 
ATOM     68  C   UNL A   1      48.819  26.710  28.095  1.00  0.00     0.009 A 
ATOM     69  C   UNL A   1      49.885  25.275  30.240  1.00  0.00     0.001 A 
ATOM     70  C   UNL A   1      50.131  26.239  28.036  1.00  0.00     0.001 A 
ATOM     71  C   UNL A   1      50.664  25.526  29.109  1.00  0.00     0.000 A 
ENDBRANCH  52  66
BRANCH  53  72
ATOM     72  C   UNL A   1      38.516  29.374  29.067  1.00  0.00    -0.014 A 
ATOM     73  C   UNL A   1      37.695  29.246  30.196  1.00  0.00     0.009 A 
ATOM     74  C   UNL A   1      38.003  29.965  27.904  1.00  0.00     0.009 A 
ATOM     75  C   UNL A   1      36.377  29.703  30.158  1.00  0.00     0.001 A 
ATOM     76  C   UNL A   1      36.688  30.429  27.872  1.00  0.00     0.001 A 
ATOM     77  C   UNL A   1      35.876  30.296  28.998  1.00  0.00     0.000 A 
ENDBRANCH  53  72
BRANCH  65  78
ATOM     78  C   UNL A   1      44.381  32.328  31.308  1.00  0.00    -0.014 A 
ATOM     79  C   UNL A   1      44.317  32.444  32.704  1.00  0.00     0.009 A 
ATOM     80  C   UNL A   1      44.709  33.451  30.535  1.00  0.00     0.009 A 
ATOM     81  C   UNL A   1      44.561  33.673  33.318  1.00  0.00     0.001 A 
ATOM     82  C   UNL A   1      44.958  34.677  31.152  1.00  0.00     0.001 A 
ATOM     83  C   UNL A   1      44.880  34.787  32.542  1.00  0.00     0.000 A 
ENDBRANCH  65  78
ENDBRANCH  39  40
ENDBRANCH  32  34
ENDBRANCH  31  32
ENDBRANCH  30  31
ENDBRANCH   1  30
TORSDOF 13
ENDMDL
