MODEL 1
REMARK VINA RESULT:      -9.9      0.000      0.000
REMARK SMILES O=C(CCc1cccnc1)Nc1ccsc1C(=O)OCCOC(=O)c1ccc(-c2c3nc(c(-c4ccccc4)c4ccc([nH]4)c(-c4ccccc4)c4nc(c(-c5ccccc5)c5ccc2[nH]5)C=C4)C=C3)cc1
REMARK SMILES IDX 20 1 19 2 17 3 18 4 16 5 12 6 13 7 14 8 15 9 11 10 1 11 2 12
REMARK SMILES IDX 3 14 4 15 5 16 6 17 10 18 7 19 9 20 8 21 21 22 22 23 23 24
REMARK SMILES IDX 24 25 25 26 26 27 72 28 27 29 71 30 28 31 29 32 30 33 65 34
REMARK SMILES IDX 31 35 70 36 64 37 66 38 32 39 69 40 63 41 62 42 33 44 55 45
REMARK SMILES IDX 40 46 54 47 41 48 44 49 53 50 67 51 42 52 43 53 52 55 68 56
REMARK SMILES IDX 45 57 34 58 35 59 39 60 36 61 38 62 37 63 56 64 57 65 61 66
REMARK SMILES IDX 58 67 60 68 59 69 46 70 47 71 51 72 48 73 50 74 49 75
REMARK H PARENT 11 13 66 43 44 54
REMARK Flexibility Score: inf
ROOT
ATOM      1  C   UNL A   1      40.856  19.921  26.425  1.00  0.00     0.275 C 
ENDROOT
BRANCH   1   2
ATOM      2  O   UNL A   1      41.976  19.997  25.514  1.00  0.00    -0.458 OA
BRANCH   2   3
ATOM      3  C   UNL A   1      42.893  18.982  25.582  1.00  0.00     0.350 C 
ATOM      4  O   UNL A   1      42.595  17.810  25.796  1.00  0.00    -0.245 OA
BRANCH   3   5
ATOM      5  C   UNL A   1      44.237  19.476  25.308  1.00  0.00     0.136 A 
ATOM      6  C   UNL A   1      44.694  20.712  24.865  1.00  0.00     0.066 A 
ATOM      7  C   UNL A   1      46.106  20.693  24.627  1.00  0.00     0.039 A 
ATOM      8  C   UNL A   1      46.689  19.492  24.954  1.00  0.00     0.068 A 
ATOM      9  S   UNL A   1      45.564  18.419  25.641  1.00  0.00    -0.135 S 
BRANCH   6  10
ATOM     10  N   UNL A   1      43.850  21.815  24.758  1.00  0.00    -0.325 N 
ATOM     11  O   UNL A   1      45.194  23.279  23.571  1.00  0.00    -0.275 OA
ATOM     12  C   UNL A   1      44.230  23.058  24.303  1.00  0.00     0.224 C 
ATOM     13  H   UNL A   1      42.910  21.698  25.028  1.00  0.00     0.169 HD
BRANCH  12  14
ATOM     14  C   UNL A   1      43.488  24.237  24.927  1.00  0.00     0.105 C 
BRANCH  14  15
ATOM     15  C   UNL A   1      44.132  24.976  26.098  1.00  0.00     0.047 C 
BRANCH  15  16
ATOM     16  C   UNL A   1      44.104  24.341  27.471  1.00  0.00    -0.029 A 
ATOM     17  C   UNL A   1      43.000  23.698  28.040  1.00  0.00     0.007 A 
ATOM     18  C   UNL A   1      45.249  24.432  28.263  1.00  0.00     0.114 A 
ATOM     19  C   UNL A   1      43.051  23.262  29.363  1.00  0.00     0.020 A 
ATOM     20  N   UNL A   1      45.333  24.002  29.543  1.00  0.00    -0.264 NA
ATOM     21  C   UNL A   1      44.227  23.437  30.070  1.00  0.00     0.111 A 
ENDBRANCH  15  16
ENDBRANCH  14  15
ENDBRANCH  12  14
ENDBRANCH   6  10
ENDBRANCH   3   5
ENDBRANCH   2   3
ENDBRANCH   1   2
BRANCH   1  22
ATOM     22  C   UNL A   1      40.607  21.236  27.162  1.00  0.00     0.275 C 
BRANCH  22  23
ATOM     23  O   UNL A   1      40.524  22.335  26.245  1.00  0.00    -0.458 OA
BRANCH  23  24
ATOM     24  C   UNL A   1      39.350  23.002  26.282  1.00  0.00     0.338 C 
ATOM     25  O   UNL A   1      38.248  22.595  25.962  1.00  0.00    -0.246 OA
BRANCH  24  26
ATOM     26  C   UNL A   1      39.565  24.276  26.972  1.00  0.00     0.060 A 
ATOM     27  C   UNL A   1      40.226  25.272  26.259  1.00  0.00     0.016 A 
ATOM     28  C   UNL A   1      39.192  24.475  28.297  1.00  0.00     0.016 A 
ATOM     29  C   UNL A   1      40.549  26.474  26.863  1.00  0.00     0.010 A 
ATOM     30  C   UNL A   1      39.485  25.701  28.900  1.00  0.00     0.010 A 
ATOM     31  C   UNL A   1      40.172  26.703  28.189  1.00  0.00    -0.014 A 
BRANCH  31  32
ATOM     32  C   UNL A   1      40.524  27.991  28.825  1.00  0.00     0.031 A 
ATOM     33  C   UNL A   1      41.892  28.185  29.408  1.00  0.00     0.074 A 
ATOM     34  C   UNL A   1      39.617  28.984  28.853  1.00  0.00     0.049 A 
ATOM     35  N   UNL A   1      42.352  29.184  30.114  1.00  0.00    -0.248 NA
ATOM     36  C   UNL A   1      42.870  27.111  29.171  1.00  0.00     0.031 C 
ATOM     37  C   UNL A   1      38.280  28.928  28.254  1.00  0.00     0.029 A 
ATOM     38  N   UNL A   1      39.681  30.237  29.403  1.00  0.00    -0.354 N 
ATOM     39  C   UNL A   1      43.659  28.843  30.441  1.00  0.00     0.074 A 
ATOM     40  C   UNL A   1      43.915  27.541  29.864  1.00  0.00     0.031 C 
ATOM     41  C   UNL A   1      37.657  30.097  28.459  1.00  0.00     0.029 A 
ATOM     42  C   UNL A   1      38.516  30.952  29.269  1.00  0.00     0.049 A 
ATOM     43  H   UNL A   1      40.484  30.592  29.850  1.00  0.00     0.167 HD
ATOM     44  C   UNL A   1      44.556  29.555  31.161  1.00  0.00     0.031 A 
ATOM     45  C   UNL A   1      38.160  32.143  29.786  1.00  0.00     0.031 A 
ATOM     46  C   UNL A   1      44.283  30.854  31.720  1.00  0.00     0.049 A 
ATOM     47  C   UNL A   1      39.145  32.872  30.654  1.00  0.00     0.074 A 
ATOM     48  C   UNL A   1      45.125  31.671  32.453  1.00  0.00     0.029 A 
ATOM     49  N   UNL A   1      43.072  31.521  31.608  1.00  0.00    -0.354 N 
ATOM     50  N   UNL A   1      40.375  32.539  30.965  1.00  0.00    -0.248 NA
ATOM     51  C   UNL A   1      38.689  34.133  31.254  1.00  0.00     0.031 C 
ATOM     52  C   UNL A   1      44.402  32.803  32.842  1.00  0.00     0.029 A 
ATOM     53  C   UNL A   1      43.130  32.722  32.294  1.00  0.00     0.049 A 
ATOM     54  H   UNL A   1      42.288  31.190  31.114  1.00  0.00     0.167 HD
ATOM     55  C   UNL A   1      40.845  33.553  31.787  1.00  0.00     0.074 A 
ATOM     56  C   UNL A   1      39.777  34.527  31.901  1.00  0.00     0.031 C 
ATOM     57  C   UNL A   1      42.048  33.667  32.402  1.00  0.00     0.031 A 
BRANCH  44  58
ATOM     58  C   UNL A   1      45.893  28.922  31.434  1.00  0.00    -0.014 A 
ATOM     59  C   UNL A   1      46.107  28.102  32.554  1.00  0.00     0.009 A 
ATOM     60  C   UNL A   1      46.950  29.128  30.533  1.00  0.00     0.009 A 
ATOM     61  C   UNL A   1      47.362  27.529  32.779  1.00  0.00     0.001 A 
ATOM     62  C   UNL A   1      48.193  28.531  30.745  1.00  0.00     0.001 A 
ATOM     63  C   UNL A   1      48.401  27.739  31.873  1.00  0.00     0.000 A 
ENDBRANCH  44  58
BRANCH  45  64
ATOM     64  C   UNL A   1      36.794  32.680  29.552  1.00  0.00    -0.014 A 
ATOM     65  C   UNL A   1      35.719  32.292  30.364  1.00  0.00     0.009 A 
ATOM     66  C   UNL A   1      36.557  33.590  28.506  1.00  0.00     0.009 A 
ATOM     67  C   UNL A   1      34.434  32.786  30.121  1.00  0.00     0.001 A 
ATOM     68  C   UNL A   1      35.281  34.109  28.288  1.00  0.00     0.001 A 
ATOM     69  C   UNL A   1      34.217  33.698  29.088  1.00  0.00     0.000 A 
ENDBRANCH  45  64
BRANCH  57  70
ATOM     70  C   UNL A   1      42.270  34.896  33.237  1.00  0.00    -0.014 A 
ATOM     71  C   UNL A   1      41.813  34.963  34.563  1.00  0.00     0.009 A 
ATOM     72  C   UNL A   1      42.977  35.984  32.702  1.00  0.00     0.009 A 
ATOM     73  C   UNL A   1      42.032  36.112  35.325  1.00  0.00     0.001 A 
ATOM     74  C   UNL A   1      43.222  37.117  33.478  1.00  0.00     0.001 A 
ATOM     75  C   UNL A   1      42.741  37.184  34.785  1.00  0.00     0.000 A 
ENDBRANCH  57  70
ENDBRANCH  31  32
ENDBRANCH  24  26
ENDBRANCH  23  24
ENDBRANCH  22  23
ENDBRANCH   1  22
TORSDOF 15
ENDMDL
MODEL 2
REMARK VINA RESULT:      -9.8      4.867     11.622
REMARK SMILES O=C(CCc1cccnc1)Nc1ccsc1C(=O)OCCOC(=O)c1ccc(-c2c3nc(c(-c4ccccc4)c4ccc([nH]4)c(-c4ccccc4)c4nc(c(-c5ccccc5)c5ccc2[nH]5)C=C4)C=C3)cc1
REMARK SMILES IDX 20 1 19 2 17 3 18 4 16 5 12 6 13 7 14 8 15 9 11 10 1 11 2 12
REMARK SMILES IDX 3 14 4 15 5 16 6 17 10 18 7 19 9 20 8 21 21 22 22 23 23 24
REMARK SMILES IDX 24 25 25 26 26 27 72 28 27 29 71 30 28 31 29 32 30 33 65 34
REMARK SMILES IDX 31 35 70 36 64 37 66 38 32 39 69 40 63 41 62 42 33 44 55 45
REMARK SMILES IDX 40 46 54 47 41 48 44 49 53 50 67 51 42 52 43 53 52 55 68 56
REMARK SMILES IDX 45 57 34 58 35 59 39 60 36 61 38 62 37 63 56 64 57 65 61 66
REMARK SMILES IDX 58 67 60 68 59 69 46 70 47 71 51 72 48 73 50 74 49 75
REMARK H PARENT 11 13 66 43 44 54
REMARK Flexibility Score: inf
ROOT
ATOM      1  C   UNL A   1      33.833  33.979  28.272  1.00  0.00     0.275 C 
ENDROOT
BRANCH   1   2
ATOM      2  O   UNL A   1      33.155  34.230  29.525  1.00  0.00    -0.458 OA
BRANCH   2   3
ATOM      3  C   UNL A   1      32.907  35.540  29.836  1.00  0.00     0.350 C 
ATOM      4  O   UNL A   1      32.322  36.318  29.088  1.00  0.00    -0.245 OA
BRANCH   3   5
ATOM      5  C   UNL A   1      33.376  35.852  31.181  1.00  0.00     0.136 A 
ATOM      6  C   UNL A   1      33.890  35.046  32.190  1.00  0.00     0.066 A 
ATOM      7  C   UNL A   1      34.107  35.790  33.394  1.00  0.00     0.039 A 
ATOM      8  C   UNL A   1      33.827  37.128  33.257  1.00  0.00     0.068 A 
ATOM      9  S   UNL A   1      33.400  37.514  31.658  1.00  0.00    -0.135 S 
BRANCH   6  10
ATOM     10  N   UNL A   1      34.205  33.706  31.974  1.00  0.00    -0.325 N 
ATOM     11  O   UNL A   1      34.912  33.079  34.088  1.00  0.00    -0.275 OA
ATOM     12  C   UNL A   1      34.866  32.898  32.871  1.00  0.00     0.224 C 
ATOM     13  H   UNL A   1      33.935  33.307  31.116  1.00  0.00     0.169 HD
BRANCH  12  14
ATOM     14  C   UNL A   1      35.746  31.816  32.251  1.00  0.00     0.105 C 
BRANCH  14  15
ATOM     15  C   UNL A   1      37.263  31.951  32.357  1.00  0.00     0.047 C 
BRANCH  15  16
ATOM     16  C   UNL A   1      37.988  32.860  31.388  1.00  0.00    -0.029 A 
ATOM     17  C   UNL A   1      39.068  33.687  31.710  1.00  0.00     0.007 A 
ATOM     18  C   UNL A   1      37.527  32.921  30.072  1.00  0.00     0.114 A 
ATOM     19  C   UNL A   1      39.575  34.576  30.764  1.00  0.00     0.020 A 
ATOM     20  N   UNL A   1      38.011  33.762  29.128  1.00  0.00    -0.264 NA
ATOM     21  C   UNL A   1      39.017  34.580  29.499  1.00  0.00     0.111 A 
ENDBRANCH  15  16
ENDBRANCH  14  15
ENDBRANCH  12  14
ENDBRANCH   6  10
ENDBRANCH   3   5
ENDBRANCH   2   3
ENDBRANCH   1   2
BRANCH   1  22
ATOM     22  C   UNL A   1      33.744  32.516  27.839  1.00  0.00     0.275 C 
BRANCH  22  23
ATOM     23  O   UNL A   1      34.509  31.672  28.709  1.00  0.00    -0.458 OA
BRANCH  23  24
ATOM     24  C   UNL A   1      34.666  30.407  28.261  1.00  0.00     0.338 C 
ATOM     25  O   UNL A   1      33.885  29.745  27.603  1.00  0.00    -0.246 OA
BRANCH  24  26
ATOM     26  C   UNL A   1      36.045  29.993  28.524  1.00  0.00     0.060 A 
ATOM     27  C   UNL A   1      36.956  30.147  27.483  1.00  0.00     0.016 A 
ATOM     28  C   UNL A   1      36.429  29.413  29.729  1.00  0.00     0.016 A 
ATOM     29  C   UNL A   1      38.259  29.700  27.615  1.00  0.00     0.010 A 
ATOM     30  C   UNL A   1      37.754  28.993  29.879  1.00  0.00     0.010 A 
ATOM     31  C   UNL A   1      38.672  29.127  28.821  1.00  0.00    -0.014 A 
BRANCH  31  32
ATOM     32  C   UNL A   1      40.067  28.651  28.951  1.00  0.00     0.031 A 
ATOM     33  C   UNL A   1      41.136  29.596  29.410  1.00  0.00     0.074 A 
ATOM     34  C   UNL A   1      40.355  27.366  28.677  1.00  0.00     0.049 A 
ATOM     35  N   UNL A   1      42.430  29.412  29.469  1.00  0.00    -0.248 NA
ATOM     36  C   UNL A   1      40.695  30.927  29.857  1.00  0.00     0.031 C 
ATOM     37  C   UNL A   1      39.380  26.342  28.289  1.00  0.00     0.029 A 
ATOM     38  N   UNL A   1      41.551  26.697  28.686  1.00  0.00    -0.354 N 
ATOM     39  C   UNL A   1      42.961  30.613  29.920  1.00  0.00     0.074 A 
ATOM     40  C   UNL A   1      41.852  31.523  30.110  1.00  0.00     0.031 C 
ATOM     41  C   UNL A   1      40.015  25.176  28.110  1.00  0.00     0.029 A 
ATOM     42  C   UNL A   1      41.446  25.386  28.291  1.00  0.00     0.049 A 
ATOM     43  H   UNL A   1      42.403  27.115  28.950  1.00  0.00     0.167 HD
ATOM     44  C   UNL A   1      44.258  30.923  30.147  1.00  0.00     0.031 A 
ATOM     45  C   UNL A   1      42.402  24.469  28.051  1.00  0.00     0.031 A 
ATOM     46  C   UNL A   1      45.347  30.000  29.958  1.00  0.00     0.049 A 
ATOM     47  C   UNL A   1      43.839  24.867  28.227  1.00  0.00     0.074 A 
ATOM     48  C   UNL A   1      46.698  30.203  30.174  1.00  0.00     0.029 A 
ATOM     49  N   UNL A   1      45.204  28.696  29.505  1.00  0.00    -0.354 N 
ATOM     50  N   UNL A   1      44.334  26.008  28.645  1.00  0.00    -0.248 NA
ATOM     51  C   UNL A   1      44.850  23.858  27.886  1.00  0.00     0.031 C 
ATOM     52  C   UNL A   1      47.379  29.046  29.787  1.00  0.00     0.029 A 
ATOM     53  C   UNL A   1      46.447  28.097  29.395  1.00  0.00     0.049 A 
ATOM     54  H   UNL A   1      44.347  28.262  29.294  1.00  0.00     0.167 HD
ATOM     55  C   UNL A   1      45.712  25.851  28.629  1.00  0.00     0.074 A 
ATOM     56  C   UNL A   1      45.972  24.494  28.188  1.00  0.00     0.031 C 
ATOM     57  C   UNL A   1      46.679  26.749  28.941  1.00  0.00     0.031 A 
BRANCH  44  58
ATOM     58  C   UNL A   1      44.576  32.332  30.568  1.00  0.00    -0.014 A 
ATOM     59  C   UNL A   1      44.824  33.346  29.629  1.00  0.00     0.009 A 
ATOM     60  C   UNL A   1      44.598  32.654  31.935  1.00  0.00     0.009 A 
ATOM     61  C   UNL A   1      45.117  34.645  30.054  1.00  0.00     0.001 A 
ATOM     62  C   UNL A   1      44.862  33.958  32.355  1.00  0.00     0.001 A 
ATOM     63  C   UNL A   1      45.131  34.951  31.414  1.00  0.00     0.000 A 
ENDBRANCH  44  58
BRANCH  45  64
ATOM     64  C   UNL A   1      42.032  23.118  27.554  1.00  0.00    -0.014 A 
ATOM     65  C   UNL A   1      42.088  22.812  26.187  1.00  0.00     0.009 A 
ATOM     66  C   UNL A   1      41.617  22.119  28.453  1.00  0.00     0.009 A 
ATOM     67  C   UNL A   1      41.716  21.546  25.729  1.00  0.00     0.001 A 
ATOM     68  C   UNL A   1      41.281  20.844  27.997  1.00  0.00     0.001 A 
ATOM     69  C   UNL A   1      41.320  20.561  26.634  1.00  0.00     0.000 A 
ENDBRANCH  45  64
BRANCH  57  70
ATOM     70  C   UNL A   1      48.102  26.281  28.828  1.00  0.00    -0.014 A 
ATOM     71  C   UNL A   1      48.745  25.649  29.905  1.00  0.00     0.009 A 
ATOM     72  C   UNL A   1      48.794  26.442  27.618  1.00  0.00     0.009 A 
ATOM     73  C   UNL A   1      50.066  25.218  29.780  1.00  0.00     0.001 A 
ATOM     74  C   UNL A   1      50.104  25.979  27.488  1.00  0.00     0.001 A 
ATOM     75  C   UNL A   1      50.741  25.377  28.571  1.00  0.00     0.000 A 
ENDBRANCH  57  70
ENDBRANCH  31  32
ENDBRANCH  24  26
ENDBRANCH  23  24
ENDBRANCH  22  23
ENDBRANCH   1  22
TORSDOF 15
ENDMDL
MODEL 3
REMARK VINA RESULT:      -9.5      1.921      6.297
REMARK SMILES O=C(CCc1cccnc1)Nc1ccsc1C(=O)OCCOC(=O)c1ccc(-c2c3nc(c(-c4ccccc4)c4ccc([nH]4)c(-c4ccccc4)c4nc(c(-c5ccccc5)c5ccc2[nH]5)C=C4)C=C3)cc1
REMARK SMILES IDX 20 1 19 2 17 3 18 4 16 5 12 6 13 7 14 8 15 9 11 10 1 11 2 12
REMARK SMILES IDX 3 14 4 15 5 16 6 17 10 18 7 19 9 20 8 21 21 22 22 23 23 24
REMARK SMILES IDX 24 25 25 26 26 27 72 28 27 29 71 30 28 31 29 32 30 33 65 34
REMARK SMILES IDX 31 35 70 36 64 37 66 38 32 39 69 40 63 41 62 42 33 44 55 45
REMARK SMILES IDX 40 46 54 47 41 48 44 49 53 50 67 51 42 52 43 53 52 55 68 56
REMARK SMILES IDX 45 57 34 58 35 59 39 60 36 61 38 62 37 63 56 64 57 65 61 66
REMARK SMILES IDX 58 67 60 68 59 69 46 70 47 71 51 72 48 73 50 74 49 75
REMARK H PARENT 11 13 66 43 44 54
REMARK Flexibility Score: inf
ROOT
ATOM      1  C   UNL A   1      40.838  19.419  26.107  1.00  0.00     0.275 C 
ENDROOT
BRANCH   1   2
ATOM      2  O   UNL A   1      42.066  19.439  25.344  1.00  0.00    -0.458 OA
BRANCH   2   3
ATOM      3  C   UNL A   1      43.118  18.727  25.856  1.00  0.00     0.350 C 
ATOM      4  O   UNL A   1      42.989  17.686  26.493  1.00  0.00    -0.245 OA
BRANCH   3   5
ATOM      5  C   UNL A   1      44.389  19.343  25.489  1.00  0.00     0.136 A 
ATOM      6  C   UNL A   1      44.738  20.666  25.250  1.00  0.00     0.066 A 
ATOM      7  C   UNL A   1      46.093  20.776  24.800  1.00  0.00     0.039 A 
ATOM      8  C   UNL A   1      46.751  19.569  24.777  1.00  0.00     0.068 A 
ATOM      9  S   UNL A   1      45.777  18.317  25.389  1.00  0.00    -0.135 S 
BRANCH   6  10
ATOM     10  N   UNL A   1      43.862  21.718  25.505  1.00  0.00    -0.325 N 
ATOM     11  O   UNL A   1      43.865  22.796  23.456  1.00  0.00    -0.275 OA
ATOM     12  C   UNL A   1      43.653  22.792  24.668  1.00  0.00     0.224 C 
ATOM     13  H   UNL A   1      43.352  21.693  26.347  1.00  0.00     0.169 HD
BRANCH  12  14
ATOM     14  C   UNL A   1      43.312  24.106  25.363  1.00  0.00     0.105 C 
BRANCH  14  15
ATOM     15  C   UNL A   1      44.136  25.348  25.035  1.00  0.00     0.047 C 
BRANCH  15  16
ATOM     16  C   UNL A   1      45.559  25.439  25.540  1.00  0.00    -0.029 A 
ATOM     17  C   UNL A   1      46.474  26.442  25.202  1.00  0.00     0.007 A 
ATOM     18  C   UNL A   1      46.027  24.426  26.379  1.00  0.00     0.114 A 
ATOM     19  C   UNL A   1      47.798  26.353  25.628  1.00  0.00     0.020 A 
ATOM     20  N   UNL A   1      47.301  24.324  26.822  1.00  0.00    -0.264 NA
ATOM     21  C   UNL A   1      48.163  25.284  26.427  1.00  0.00     0.111 A 
ENDBRANCH  15  16
ENDBRANCH  14  15
ENDBRANCH  12  14
ENDBRANCH   6  10
ENDBRANCH   3   5
ENDBRANCH   2   3
ENDBRANCH   1   2
BRANCH   1  22
ATOM     22  C   UNL A   1      40.773  20.538  27.147  1.00  0.00     0.275 C 
BRANCH  22  23
ATOM     23  O   UNL A   1      41.007  21.817  26.544  1.00  0.00    -0.458 OA
BRANCH  23  24
ATOM     24  C   UNL A   1      39.926  22.626  26.521  1.00  0.00     0.338 C 
ATOM     25  O   UNL A   1      38.783  22.339  26.215  1.00  0.00    -0.246 OA
BRANCH  24  26
ATOM     26  C   UNL A   1      40.296  23.908  27.125  1.00  0.00     0.060 A 
ATOM     27  C   UNL A   1      39.946  25.058  26.423  1.00  0.00     0.016 A 
ATOM     28  C   UNL A   1      41.020  23.988  28.310  1.00  0.00     0.016 A 
ATOM     29  C   UNL A   1      40.334  26.306  26.877  1.00  0.00     0.010 A 
ATOM     30  C   UNL A   1      41.384  25.249  28.791  1.00  0.00     0.010 A 
ATOM     31  C   UNL A   1      41.050  26.413  28.072  1.00  0.00    -0.014 A 
BRANCH  31  32
ATOM     32  C   UNL A   1      41.461  27.752  28.548  1.00  0.00     0.031 A 
ATOM     33  C   UNL A   1      40.424  28.724  29.025  1.00  0.00     0.074 A 
ATOM     34  C   UNL A   1      42.768  28.073  28.568  1.00  0.00     0.049 A 
ATOM     35  N   UNL A   1      40.565  29.980  29.359  1.00  0.00    -0.248 NA
ATOM     36  C   UNL A   1      39.046  28.220  29.134  1.00  0.00     0.031 C 
ATOM     37  C   UNL A   1      43.867  27.179  28.192  1.00  0.00     0.029 A 
ATOM     38  N   UNL A   1      43.396  29.238  28.923  1.00  0.00    -0.354 N 
ATOM     39  C   UNL A   1      39.290  30.429  29.680  1.00  0.00     0.074 A 
ATOM     40  C   UNL A   1      38.388  29.314  29.491  1.00  0.00     0.031 C 
ATOM     41  C   UNL A   1      45.031  27.824  28.348  1.00  0.00     0.029 A 
ATOM     42  C   UNL A   1      44.759  29.196  28.756  1.00  0.00     0.049 A 
ATOM     43  H   UNL A   1      42.917  30.029  29.264  1.00  0.00     0.167 HD
ATOM     44  C   UNL A   1      38.914  31.662  30.090  1.00  0.00     0.031 A 
ATOM     45  C   UNL A   1      45.680  30.171  28.870  1.00  0.00     0.031 A 
ATOM     46  C   UNL A   1      39.830  32.757  30.279  1.00  0.00     0.049 A 
ATOM     47  C   UNL A   1      45.223  31.552  29.241  1.00  0.00     0.074 A 
ATOM     48  C   UNL A   1      39.559  34.044  30.707  1.00  0.00     0.029 A 
ATOM     49  N   UNL A   1      41.196  32.689  30.048  1.00  0.00    -0.354 N 
ATOM     50  N   UNL A   1      44.015  31.970  29.535  1.00  0.00    -0.248 NA
ATOM     51  C   UNL A   1      46.253  32.598  29.284  1.00  0.00     0.031 C 
ATOM     52  C   UNL A   1      40.751  34.774  30.670  1.00  0.00     0.029 A 
ATOM     53  C   UNL A   1      41.776  33.924  30.284  1.00  0.00     0.049 A 
ATOM     54  H   UNL A   1      41.681  31.883  29.760  1.00  0.00     0.167 HD
ATOM     55  C   UNL A   1      44.139  33.325  29.808  1.00  0.00     0.074 A 
ATOM     56  C   UNL A   1      45.546  33.649  29.675  1.00  0.00     0.031 C 
ATOM     57  C   UNL A   1      43.177  34.223  30.132  1.00  0.00     0.031 A 
BRANCH  44  58
ATOM     58  C   UNL A   1      37.446  31.909  30.305  1.00  0.00    -0.014 A 
ATOM     59  C   UNL A   1      36.844  31.741  31.562  1.00  0.00     0.009 A 
ATOM     60  C   UNL A   1      36.657  32.348  29.229  1.00  0.00     0.009 A 
ATOM     61  C   UNL A   1      35.476  31.979  31.727  1.00  0.00     0.001 A 
ATOM     62  C   UNL A   1      35.298  32.613  29.404  1.00  0.00     0.001 A 
ATOM     63  C   UNL A   1      34.706  32.419  30.651  1.00  0.00     0.000 A 
ENDBRANCH  44  58
BRANCH  45  64
ATOM     64  C   UNL A   1      47.107  29.888  28.562  1.00  0.00    -0.014 A 
ATOM     65  C   UNL A   1      47.588  29.960  27.247  1.00  0.00     0.009 A 
ATOM     66  C   UNL A   1      48.000  29.540  29.591  1.00  0.00     0.009 A 
ATOM     67  C   UNL A   1      48.926  29.670  26.967  1.00  0.00     0.001 A 
ATOM     68  C   UNL A   1      49.344  29.286  29.313  1.00  0.00     0.001 A 
ATOM     69  C   UNL A   1      49.803  29.340  27.999  1.00  0.00     0.000 A 
ENDBRANCH  45  64
BRANCH  57  70
ATOM     70  C   UNL A   1      43.623  35.637  30.376  1.00  0.00    -0.014 A 
ATOM     71  C   UNL A   1      44.029  36.058  31.653  1.00  0.00     0.009 A 
ATOM     72  C   UNL A   1      43.674  36.546  29.308  1.00  0.00     0.009 A 
ATOM     73  C   UNL A   1      44.445  37.374  31.860  1.00  0.00     0.001 A 
ATOM     74  C   UNL A   1      44.121  37.852  29.514  1.00  0.00     0.001 A 
ATOM     75  C   UNL A   1      44.496  38.267  30.791  1.00  0.00     0.000 A 
ENDBRANCH  57  70
ENDBRANCH  31  32
ENDBRANCH  24  26
ENDBRANCH  23  24
ENDBRANCH  22  23
ENDBRANCH   1  22
TORSDOF 15
ENDMDL
