MODEL 1
REMARK VINA RESULT:     -12.5      0.000      0.000
REMARK SMILES Cc1cccc(CC(=O)N2CCC3(CCC(=O)N([C@H](C)C(=O)OCCOC(=O)c4ccc(-c5c6nc(c(-c7ccccc7)c7ccc([nH]7)c(-c7ccccc7)c7nc(c(-c8ccccc8)c8ccc5[nH]8)C=C7)C=C6)cc4)C3)CC2)c1
REMARK SMILES IDX 24 1 23 2 21 3 22 4 19 5 20 6 18 7 8 8 9 9 10 10 11 11 79 12
REMARK SMILES IDX 12 13 78 14 13 15 14 16 77 17 15 18 16 19 17 20 7 21 6 22
REMARK SMILES IDX 1 23 2 24 3 25 80 26 4 27 5 28 25 29 26 30 27 31 28 32 29 33
REMARK SMILES IDX 30 34 76 35 31 36 75 37 32 38 33 39 34 40 69 41 35 42 74 43
REMARK SMILES IDX 68 44 70 45 36 46 73 47 67 48 66 49 37 51 59 52 44 53 58 54
REMARK SMILES IDX 45 55 48 56 57 57 71 58 46 59 47 60 56 62 72 63 49 64 38 65
REMARK SMILES IDX 39 66 43 67 40 68 42 69 41 70 60 71 61 72 65 73 62 74 64 75
REMARK SMILES IDX 63 76 50 77 51 78 55 79 52 80 54 81 53 82
REMARK H PARENT 70 50 48 61
REMARK Flexibility Score: inf
ROOT
ATOM      1  C   UNL A   1      33.080  30.152  26.992  1.00  0.00     0.274 C 
ENDROOT
BRANCH   1   2
ATOM      2  O   UNL A   1      32.892  30.164  25.577  1.00  0.00    -0.461 OA
BRANCH   2   3
ATOM      3  C   UNL A   1      33.369  29.060  24.920  1.00  0.00     0.328 C 
ATOM      4  O   UNL A   1      34.114  28.245  25.414  1.00  0.00    -0.250 OA
BRANCH   3   5
ATOM      5  C   UNL A   1      32.671  28.917  23.550  1.00  0.00     0.192 C 
ATOM      6  C   UNL A   1      33.649  29.013  22.382  1.00  0.00     0.044 C 
BRANCH   5   7
ATOM      7  N   UNL A   1      31.828  27.712  23.472  1.00  0.00    -0.329 N 
ATOM      8  C   UNL A   1      32.802  22.302  26.897  1.00  0.00     0.226 C 
ATOM      9  O   UNL A   1      32.557  22.525  28.088  1.00  0.00    -0.275 OA
ATOM     10  N   UNL A   1      32.350  23.159  25.896  1.00  0.00    -0.342 N 
ATOM     11  C   UNL A   1      31.795  24.435  26.320  1.00  0.00     0.120 C 
ATOM     12  C   UNL A   1      32.099  22.807  24.495  1.00  0.00     0.120 C 
ATOM     13  C   UNL A   1      32.272  25.537  25.392  1.00  0.00     0.030 C 
ATOM     14  C   UNL A   1      32.496  23.919  23.512  1.00  0.00     0.030 C 
ATOM     15  C   UNL A   1      31.889  25.281  23.912  1.00  0.00    -0.008 C 
ATOM     16  C   UNL A   1      30.373  25.268  23.631  1.00  0.00     0.019 C 
ATOM     17  C   UNL A   1      32.438  26.439  23.066  1.00  0.00     0.127 C 
ATOM     18  C   UNL A   1      29.701  26.562  24.042  1.00  0.00     0.101 C 
ATOM     19  C   UNL A   1      30.488  27.831  23.804  1.00  0.00     0.223 C 
ATOM     20  O   UNL A   1      29.957  28.920  24.025  1.00  0.00    -0.275 OA
BRANCH   8  21
ATOM     21  C   UNL A   1      33.765  21.176  26.554  1.00  0.00     0.135 C 
BRANCH  21  22
ATOM     22  C   UNL A   1      35.117  21.582  26.034  1.00  0.00    -0.038 A 
ATOM     23  C   UNL A   1      38.214  19.807  24.712  1.00  0.00     0.044 C 
ATOM     24  C   UNL A   1      37.284  20.894  25.161  1.00  0.00    -0.051 A 
ATOM     25  C   UNL A   1      37.744  22.204  25.322  1.00  0.00     0.003 A 
ATOM     26  C   UNL A   1      35.956  20.601  25.477  1.00  0.00     0.007 A 
ATOM     27  C   UNL A   1      36.893  23.202  25.804  1.00  0.00     0.001 A 
ATOM     28  C   UNL A   1      35.583  22.892  26.165  1.00  0.00     0.004 A 
ENDBRANCH  21  22
ENDBRANCH   8  21
ENDBRANCH   5   7
ENDBRANCH   3   5
ENDBRANCH   2   3
ENDBRANCH   1   2
BRANCH   1  29
ATOM     29  C   UNL A   1      34.431  30.776  27.367  1.00  0.00     0.275 C 
BRANCH  29  30
ATOM     30  O   UNL A   1      35.283  30.072  28.329  1.00  0.00    -0.458 OA
BRANCH  30  31
ATOM     31  C   UNL A   1      36.502  30.357  28.856  1.00  0.00     0.338 C 
ATOM     32  O   UNL A   1      36.672  31.302  29.620  1.00  0.00    -0.246 OA
BRANCH  31  33
ATOM     33  C   UNL A   1      37.636  29.466  28.562  1.00  0.00     0.060 A 
ATOM     34  C   UNL A   1      38.377  29.611  27.375  1.00  0.00     0.016 A 
ATOM     35  C   UNL A   1      38.012  28.531  29.505  1.00  0.00     0.016 A 
ATOM     36  C   UNL A   1      39.589  28.927  27.222  1.00  0.00     0.010 A 
ATOM     37  C   UNL A   1      39.279  28.017  29.450  1.00  0.00     0.010 A 
ATOM     38  C   UNL A   1      40.061  28.176  28.299  1.00  0.00    -0.014 A 
BRANCH  38  39
ATOM     39  C   UNL A   1      41.201  27.268  28.255  1.00  0.00     0.031 A 
ATOM     40  C   UNL A   1      41.044  25.817  28.085  1.00  0.00     0.074 A 
ATOM     41  C   UNL A   1      42.396  27.897  28.321  1.00  0.00     0.049 A 
ATOM     42  N   UNL A   1      41.546  24.916  28.863  1.00  0.00    -0.248 NA
ATOM     43  C   UNL A   1      40.262  25.260  26.982  1.00  0.00     0.031 C 
ATOM     44  C   UNL A   1      43.747  27.396  28.196  1.00  0.00     0.029 A 
ATOM     45  N   UNL A   1      42.577  29.238  28.686  1.00  0.00    -0.354 N 
ATOM     46  C   UNL A   1      41.456  23.731  28.154  1.00  0.00     0.074 A 
ATOM     47  C   UNL A   1      40.470  23.946  27.123  1.00  0.00     0.031 C 
ATOM     48  C   UNL A   1      44.573  28.274  28.805  1.00  0.00     0.029 A 
ATOM     49  C   UNL A   1      43.759  29.329  29.407  1.00  0.00     0.049 A 
ATOM     50  H   UNL A   1      41.973  29.983  28.471  1.00  0.00     0.167 HD
ATOM     51  C   UNL A   1      42.444  22.791  28.216  1.00  0.00     0.031 A 
ATOM     52  C   UNL A   1      43.699  29.706  30.719  1.00  0.00     0.031 A 
ATOM     53  C   UNL A   1      43.593  23.312  28.944  1.00  0.00     0.049 A 
ATOM     54  C   UNL A   1      43.989  28.510  31.595  1.00  0.00     0.074 A 
ATOM     55  C   UNL A   1      44.743  23.935  28.486  1.00  0.00     0.029 A 
ATOM     56  N   UNL A   1      43.483  23.622  30.291  1.00  0.00    -0.354 N 
ATOM     57  N   UNL A   1      43.901  27.274  31.184  1.00  0.00    -0.248 NA
ATOM     58  C   UNL A   1      44.405  28.609  32.990  1.00  0.00     0.031 C 
ATOM     59  C   UNL A   1      45.253  24.732  29.542  1.00  0.00     0.029 A 
ATOM     60  C   UNL A   1      44.429  24.570  30.640  1.00  0.00     0.049 A 
ATOM     61  H   UNL A   1      42.827  23.226  30.909  1.00  0.00     0.167 HD
ATOM     62  C   UNL A   1      44.332  26.437  32.171  1.00  0.00     0.074 A 
ATOM     63  C   UNL A   1      44.607  27.316  33.295  1.00  0.00     0.031 C 
ATOM     64  C   UNL A   1      44.470  25.092  31.995  1.00  0.00     0.031 A 
BRANCH  51  65
ATOM     65  C   UNL A   1      42.509  21.631  27.252  1.00  0.00    -0.014 A 
ATOM     66  C   UNL A   1      41.596  20.564  27.356  1.00  0.00     0.009 A 
ATOM     67  C   UNL A   1      43.458  21.546  26.217  1.00  0.00     0.009 A 
ATOM     68  C   UNL A   1      41.667  19.441  26.521  1.00  0.00     0.001 A 
ATOM     69  C   UNL A   1      43.543  20.416  25.387  1.00  0.00     0.001 A 
ATOM     70  C   UNL A   1      42.651  19.360  25.545  1.00  0.00     0.000 A 
ENDBRANCH  51  65
BRANCH  52  71
ATOM     71  C   UNL A   1      42.664  30.767  30.991  1.00  0.00    -0.014 A 
ATOM     72  C   UNL A   1      42.936  32.067  30.502  1.00  0.00     0.009 A 
ATOM     73  C   UNL A   1      41.334  30.458  31.318  1.00  0.00     0.009 A 
ATOM     74  C   UNL A   1      41.904  32.967  30.206  1.00  0.00     0.001 A 
ATOM     75  C   UNL A   1      40.305  31.379  31.048  1.00  0.00     0.001 A 
ATOM     76  C   UNL A   1      40.584  32.610  30.453  1.00  0.00     0.000 A 
ENDBRANCH  52  71
BRANCH  64  77
ATOM     77  C   UNL A   1      44.772  24.133  33.101  1.00  0.00    -0.014 A 
ATOM     78  C   UNL A   1      46.044  24.000  33.667  1.00  0.00     0.009 A 
ATOM     79  C   UNL A   1      43.706  23.432  33.704  1.00  0.00     0.009 A 
ATOM     80  C   UNL A   1      46.256  23.144  34.750  1.00  0.00     0.001 A 
ATOM     81  C   UNL A   1      43.906  22.619  34.816  1.00  0.00     0.001 A 
ATOM     82  C   UNL A   1      45.188  22.459  35.327  1.00  0.00     0.000 A 
ENDBRANCH  64  77
ENDBRANCH  38  39
ENDBRANCH  31  33
ENDBRANCH  30  31
ENDBRANCH  29  30
ENDBRANCH   1  29
TORSDOF 14
ENDMDL
MODEL 2
REMARK VINA RESULT:     -12.5      1.604      2.280
REMARK SMILES Cc1cccc(CC(=O)N2CCC3(CCC(=O)N([C@H](C)C(=O)OCCOC(=O)c4ccc(-c5c6nc(c(-c7ccccc7)c7ccc([nH]7)c(-c7ccccc7)c7nc(c(-c8ccccc8)c8ccc5[nH]8)C=C7)C=C6)cc4)C3)CC2)c1
REMARK SMILES IDX 24 1 23 2 21 3 22 4 19 5 20 6 18 7 8 8 9 9 10 10 11 11 79 12
REMARK SMILES IDX 12 13 78 14 13 15 14 16 77 17 15 18 16 19 17 20 7 21 6 22
REMARK SMILES IDX 1 23 2 24 3 25 80 26 4 27 5 28 25 29 26 30 27 31 28 32 29 33
REMARK SMILES IDX 30 34 76 35 31 36 75 37 32 38 33 39 34 40 69 41 35 42 74 43
REMARK SMILES IDX 68 44 70 45 36 46 73 47 67 48 66 49 37 51 59 52 44 53 58 54
REMARK SMILES IDX 45 55 48 56 57 57 71 58 46 59 47 60 56 62 72 63 49 64 38 65
REMARK SMILES IDX 39 66 43 67 40 68 42 69 41 70 60 71 61 72 65 73 62 74 64 75
REMARK SMILES IDX 63 76 50 77 51 78 55 79 52 80 54 81 53 82
REMARK H PARENT 70 50 48 61
REMARK Flexibility Score: inf
ROOT
ATOM      1  C   UNL A   1      33.430  28.584  27.577  1.00  0.00     0.274 C 
ENDROOT
BRANCH   1   2
ATOM      2  O   UNL A   1      32.276  28.860  26.783  1.00  0.00    -0.461 OA
BRANCH   2   3
ATOM      3  C   UNL A   1      31.615  27.753  26.318  1.00  0.00     0.328 C 
ATOM      4  O   UNL A   1      31.239  26.842  27.020  1.00  0.00    -0.250 OA
BRANCH   3   5
ATOM      5  C   UNL A   1      31.260  27.936  24.827  1.00  0.00     0.192 C 
ATOM      6  C   UNL A   1      32.057  29.061  24.169  1.00  0.00     0.044 C 
BRANCH   5   7
ATOM      7  N   UNL A   1      31.348  26.677  24.069  1.00  0.00    -0.329 N 
ATOM      8  C   UNL A   1      35.457  21.852  25.403  1.00  0.00     0.226 C 
ATOM      9  O   UNL A   1      35.121  21.314  26.465  1.00  0.00    -0.275 OA
ATOM     10  N   UNL A   1      34.575  22.668  24.700  1.00  0.00    -0.342 N 
ATOM     11  C   UNL A   1      33.345  23.051  25.377  1.00  0.00     0.120 C 
ATOM     12  C   UNL A   1      34.602  22.944  23.260  1.00  0.00     0.120 C 
ATOM     13  C   UNL A   1      33.039  24.511  25.100  1.00  0.00     0.030 C 
ATOM     14  C   UNL A   1      34.227  24.393  22.915  1.00  0.00     0.030 C 
ATOM     15  C   UNL A   1      32.903  24.817  23.588  1.00  0.00    -0.008 C 
ATOM     16  C   UNL A   1      31.725  24.112  22.889  1.00  0.00     0.019 C 
ATOM     17  C   UNL A   1      32.618  26.318  23.424  1.00  0.00     0.127 C 
ATOM     18  C   UNL A   1      30.393  24.448  23.527  1.00  0.00     0.101 C 
ATOM     19  C   UNL A   1      30.222  25.871  24.012  1.00  0.00     0.223 C 
ATOM     20  O   UNL A   1      29.129  26.232  24.449  1.00  0.00    -0.275 OA
BRANCH   8  21
ATOM     21  C   UNL A   1      36.913  21.758  24.972  1.00  0.00     0.135 C 
BRANCH  21  22
ATOM     22  C   UNL A   1      37.904  22.558  25.773  1.00  0.00    -0.038 A 
ATOM     23  C   UNL A   1      41.129  21.856  27.667  1.00  0.00     0.044 C 
ATOM     24  C   UNL A   1      39.945  22.580  27.100  1.00  0.00    -0.051 A 
ATOM     25  C   UNL A   1      39.647  23.884  27.504  1.00  0.00     0.003 A 
ATOM     26  C   UNL A   1      39.092  21.940  26.198  1.00  0.00     0.007 A 
ATOM     27  C   UNL A   1      38.506  24.533  27.025  1.00  0.00     0.001 A 
ATOM     28  C   UNL A   1      37.632  23.871  26.164  1.00  0.00     0.004 A 
ENDBRANCH  21  22
ENDBRANCH   8  21
ENDBRANCH   5   7
ENDBRANCH   3   5
ENDBRANCH   2   3
ENDBRANCH   1   2
BRANCH   1  29
ATOM     29  C   UNL A   1      34.693  29.154  26.917  1.00  0.00     0.275 C 
BRANCH  29  30
ATOM     30  O   UNL A   1      35.592  29.980  27.727  1.00  0.00    -0.458 OA
BRANCH  30  31
ATOM     31  C   UNL A   1      36.353  29.709  28.819  1.00  0.00     0.338 C 
ATOM     32  O   UNL A   1      35.918  29.838  29.959  1.00  0.00    -0.246 OA
BRANCH  31  33
ATOM     33  C   UNL A   1      37.711  29.175  28.631  1.00  0.00     0.060 A 
ATOM     34  C   UNL A   1      38.475  29.531  27.504  1.00  0.00     0.016 A 
ATOM     35  C   UNL A   1      38.258  28.379  29.616  1.00  0.00     0.016 A 
ATOM     36  C   UNL A   1      39.838  29.217  27.458  1.00  0.00     0.010 A 
ATOM     37  C   UNL A   1      39.619  28.243  29.670  1.00  0.00     0.010 A 
ATOM     38  C   UNL A   1      40.414  28.623  28.582  1.00  0.00    -0.014 A 
BRANCH  38  39
ATOM     39  C   UNL A   1      41.764  28.073  28.643  1.00  0.00     0.031 A 
ATOM     40  C   UNL A   1      42.121  26.796  28.012  1.00  0.00     0.074 A 
ATOM     41  C   UNL A   1      42.647  28.879  29.275  1.00  0.00     0.049 A 
ATOM     42  N   UNL A   1      42.695  25.804  28.608  1.00  0.00    -0.248 NA
ATOM     43  C   UNL A   1      41.830  26.536  26.603  1.00  0.00     0.031 C 
ATOM     44  C   UNL A   1      44.079  28.773  29.452  1.00  0.00     0.029 A 
ATOM     45  N   UNL A   1      42.303  29.989  30.058  1.00  0.00    -0.354 N 
ATOM     46  C   UNL A   1      43.153  24.983  27.592  1.00  0.00     0.074 A 
ATOM     47  C   UNL A   1      42.409  25.346  26.410  1.00  0.00     0.031 C 
ATOM     48  C   UNL A   1      44.421  29.518  30.526  1.00  0.00     0.029 A 
ATOM     49  C   UNL A   1      43.198  30.062  31.114  1.00  0.00     0.049 A 
ATOM     50  H   UNL A   1      41.557  30.608  29.888  1.00  0.00     0.167 HD
ATOM     51  C   UNL A   1      44.348  24.332  27.690  1.00  0.00     0.031 A 
ATOM     52  C   UNL A   1      42.726  29.896  32.386  1.00  0.00     0.031 A 
ATOM     53  C   UNL A   1      45.074  24.781  28.870  1.00  0.00     0.049 A 
ATOM     54  C   UNL A   1      43.176  28.555  32.915  1.00  0.00     0.074 A 
ATOM     55  C   UNL A   1      46.036  25.768  29.014  1.00  0.00     0.029 A 
ATOM     56  N   UNL A   1      44.569  24.531  30.137  1.00  0.00    -0.354 N 
ATOM     57  N   UNL A   1      43.584  27.577  32.152  1.00  0.00    -0.248 NA
ATOM     58  C   UNL A   1      43.212  28.214  34.332  1.00  0.00     0.031 C 
ATOM     59  C   UNL A   1      46.012  26.202  30.363  1.00  0.00     0.029 A 
ATOM     60  C   UNL A   1      45.057  25.463  31.037  1.00  0.00     0.049 A 
ATOM     61  H   UNL A   1      43.952  23.799  30.363  1.00  0.00     0.167 HD
ATOM     62  C   UNL A   1      44.024  26.548  32.932  1.00  0.00     0.074 A 
ATOM     63  C   UNL A   1      43.742  26.979  34.291  1.00  0.00     0.031 C 
ATOM     64  C   UNL A   1      44.621  25.434  32.422  1.00  0.00     0.031 A 
BRANCH  51  65
ATOM     65  C   UNL A   1      44.996  23.662  26.502  1.00  0.00    -0.014 A 
ATOM     66  C   UNL A   1      44.695  22.325  26.183  1.00  0.00     0.009 A 
ATOM     67  C   UNL A   1      45.915  24.316  25.661  1.00  0.00     0.009 A 
ATOM     68  C   UNL A   1      45.325  21.652  25.128  1.00  0.00     0.001 A 
ATOM     69  C   UNL A   1      46.562  23.642  24.612  1.00  0.00     0.001 A 
ATOM     70  C   UNL A   1      46.272  22.307  24.351  1.00  0.00     0.000 A 
ENDBRANCH  51  65
BRANCH  52  71
ATOM     71  C   UNL A   1      41.373  30.521  32.609  1.00  0.00    -0.014 A 
ATOM     72  C   UNL A   1      41.139  31.777  31.998  1.00  0.00     0.009 A 
ATOM     73  C   UNL A   1      40.255  29.777  33.017  1.00  0.00     0.009 A 
ATOM     74  C   UNL A   1      39.844  32.200  31.670  1.00  0.00     0.001 A 
ATOM     75  C   UNL A   1      38.955  30.223  32.713  1.00  0.00     0.001 A 
ATOM     76  C   UNL A   1      38.753  31.407  32.001  1.00  0.00     0.000 A 
ENDBRANCH  52  71
BRANCH  64  77
ATOM     77  C   UNL A   1      44.956  24.223  33.231  1.00  0.00    -0.014 A 
ATOM     78  C   UNL A   1      46.197  24.038  33.848  1.00  0.00     0.009 A 
ATOM     79  C   UNL A   1      43.937  23.288  33.511  1.00  0.00     0.009 A 
ATOM     80  C   UNL A   1      46.433  22.924  34.656  1.00  0.00     0.001 A 
ATOM     81  C   UNL A   1      44.154  22.206  34.358  1.00  0.00     0.001 A 
ATOM     82  C   UNL A   1      45.411  22.013  34.915  1.00  0.00     0.000 A 
ENDBRANCH  64  77
ENDBRANCH  38  39
ENDBRANCH  31  33
ENDBRANCH  30  31
ENDBRANCH  29  30
ENDBRANCH   1  29
TORSDOF 14
ENDMDL
MODEL 3
REMARK VINA RESULT:     -12.3      2.873      9.136
REMARK SMILES Cc1cccc(CC(=O)N2CCC3(CCC(=O)N([C@H](C)C(=O)OCCOC(=O)c4ccc(-c5c6nc(c(-c7ccccc7)c7ccc([nH]7)c(-c7ccccc7)c7nc(c(-c8ccccc8)c8ccc5[nH]8)C=C7)C=C6)cc4)C3)CC2)c1
REMARK SMILES IDX 24 1 23 2 21 3 22 4 19 5 20 6 18 7 8 8 9 9 10 10 11 11 79 12
REMARK SMILES IDX 12 13 78 14 13 15 14 16 77 17 15 18 16 19 17 20 7 21 6 22
REMARK SMILES IDX 1 23 2 24 3 25 80 26 4 27 5 28 25 29 26 30 27 31 28 32 29 33
REMARK SMILES IDX 30 34 76 35 31 36 75 37 32 38 33 39 34 40 69 41 35 42 74 43
REMARK SMILES IDX 68 44 70 45 36 46 73 47 67 48 66 49 37 51 59 52 44 53 58 54
REMARK SMILES IDX 45 55 48 56 57 57 71 58 46 59 47 60 56 62 72 63 49 64 38 65
REMARK SMILES IDX 39 66 43 67 40 68 42 69 41 70 60 71 61 72 65 73 62 74 64 75
REMARK SMILES IDX 63 76 50 77 51 78 55 79 52 80 54 81 53 82
REMARK H PARENT 70 50 48 61
REMARK Flexibility Score: inf
ROOT
ATOM      1  C   UNL A   1      38.160  21.997  25.375  1.00  0.00     0.274 C 
ENDROOT
BRANCH   1   2
ATOM      2  O   UNL A   1      36.989  21.474  26.001  1.00  0.00    -0.461 OA
BRANCH   2   3
ATOM      3  C   UNL A   1      35.971  22.376  26.170  1.00  0.00     0.328 C 
ATOM      4  O   UNL A   1      36.075  23.564  25.966  1.00  0.00    -0.250 OA
BRANCH   3   5
ATOM      5  C   UNL A   1      34.650  21.634  26.467  1.00  0.00     0.192 C 
ATOM      6  C   UNL A   1      34.176  21.833  27.905  1.00  0.00     0.044 C 
BRANCH   5   7
ATOM      7  N   UNL A   1      33.597  21.945  25.486  1.00  0.00    -0.329 N 
ATOM      8  C   UNL A   1      32.982  27.612  22.413  1.00  0.00     0.226 C 
ATOM      9  O   UNL A   1      33.914  27.744  21.612  1.00  0.00    -0.275 OA
ATOM     10  N   UNL A   1      32.661  26.366  22.947  1.00  0.00    -0.342 N 
ATOM     11  C   UNL A   1      33.605  25.285  22.713  1.00  0.00     0.120 C 
ATOM     12  C   UNL A   1      31.352  25.948  23.459  1.00  0.00     0.120 C 
ATOM     13  C   UNL A   1      33.758  24.455  23.974  1.00  0.00     0.030 C 
ATOM     14  C   UNL A   1      31.449  25.042  24.695  1.00  0.00     0.030 C 
ATOM     15  C   UNL A   1      32.414  23.860  24.465  1.00  0.00    -0.008 C 
ATOM     16  C   UNL A   1      31.765  22.848  23.501  1.00  0.00     0.019 C 
ATOM     17  C   UNL A   1      32.682  23.064  25.751  1.00  0.00     0.127 C 
ATOM     18  C   UNL A   1      32.677  21.679  23.194  1.00  0.00     0.101 C 
ATOM     19  C   UNL A   1      33.525  21.171  24.339  1.00  0.00     0.223 C 
ATOM     20  O   UNL A   1      34.213  20.162  24.179  1.00  0.00    -0.275 OA
BRANCH   8  21
ATOM     21  C   UNL A   1      32.307  28.865  22.953  1.00  0.00     0.135 C 
BRANCH  21  22
ATOM     22  C   UNL A   1      32.561  29.196  24.398  1.00  0.00    -0.038 A 
ATOM     23  C   UNL A   1      31.316  31.783  26.897  1.00  0.00     0.044 C 
ATOM     24  C   UNL A   1      32.082  30.642  26.298  1.00  0.00    -0.051 A 
ATOM     25  C   UNL A   1      33.162  30.073  26.980  1.00  0.00     0.003 A 
ATOM     26  C   UNL A   1      31.760  30.167  25.025  1.00  0.00     0.007 A 
ATOM     27  C   UNL A   1      33.916  29.054  26.392  1.00  0.00     0.001 A 
ATOM     28  C   UNL A   1      33.621  28.619  25.101  1.00  0.00     0.004 A 
ENDBRANCH  21  22
ENDBRANCH   8  21
ENDBRANCH   5   7
ENDBRANCH   3   5
ENDBRANCH   2   3
ENDBRANCH   1   2
BRANCH   1  29
ATOM     29  C   UNL A   1      39.217  22.370  26.422  1.00  0.00     0.275 C 
BRANCH  29  30
ATOM     30  O   UNL A   1      39.147  23.695  27.045  1.00  0.00    -0.458 OA
BRANCH  30  31
ATOM     31  C   UNL A   1      40.017  24.737  27.085  1.00  0.00     0.338 C 
ATOM     32  O   UNL A   1      41.087  24.709  26.486  1.00  0.00    -0.246 OA
BRANCH  31  33
ATOM     33  C   UNL A   1      39.635  25.962  27.805  1.00  0.00     0.060 A 
ATOM     34  C   UNL A   1      39.055  25.894  29.086  1.00  0.00     0.016 A 
ATOM     35  C   UNL A   1      39.923  27.187  27.239  1.00  0.00     0.016 A 
ATOM     36  C   UNL A   1      38.923  27.055  29.854  1.00  0.00     0.010 A 
ATOM     37  C   UNL A   1      39.980  28.287  28.050  1.00  0.00     0.010 A 
ATOM     38  C   UNL A   1      39.448  28.244  29.345  1.00  0.00    -0.014 A 
BRANCH  38  39
ATOM     39  C   UNL A   1      39.246  29.568  29.922  1.00  0.00     0.031 A 
ATOM     40  C   UNL A   1      38.221  30.494  29.423  1.00  0.00     0.074 A 
ATOM     41  C   UNL A   1      40.042  29.820  30.986  1.00  0.00     0.049 A 
ATOM     42  N   UNL A   1      38.435  31.714  29.052  1.00  0.00    -0.248 NA
ATOM     43  C   UNL A   1      36.825  30.085  29.290  1.00  0.00     0.031 C 
ATOM     44  C   UNL A   1      40.084  30.938  31.903  1.00  0.00     0.029 A 
ATOM     45  N   UNL A   1      41.156  29.054  31.354  1.00  0.00    -0.354 N 
ATOM     46  C   UNL A   1      37.185  32.305  29.002  1.00  0.00     0.074 A 
ATOM     47  C   UNL A   1      36.228  31.227  28.930  1.00  0.00     0.031 C 
ATOM     48  C   UNL A   1      41.314  30.972  32.460  1.00  0.00     0.029 A 
ATOM     49  C   UNL A   1      42.122  29.915  31.853  1.00  0.00     0.049 A 
ATOM     50  H   UNL A   1      41.239  28.077  31.273  1.00  0.00     0.167 HD
ATOM     51  C   UNL A   1      36.995  33.598  29.395  1.00  0.00     0.031 A 
ATOM     52  C   UNL A   1      43.304  30.037  31.177  1.00  0.00     0.031 A 
ATOM     53  C   UNL A   1      38.207  34.124  30.007  1.00  0.00     0.049 A 
ATOM     54  C   UNL A   1      43.351  31.383  30.494  1.00  0.00     0.074 A 
ATOM     55  C   UNL A   1      38.594  34.181  31.336  1.00  0.00     0.029 A 
ATOM     56  N   UNL A   1      39.360  34.278  29.251  1.00  0.00    -0.354 N 
ATOM     57  N   UNL A   1      42.294  32.111  30.257  1.00  0.00    -0.248 NA
ATOM     58  C   UNL A   1      44.583  32.015  30.035  1.00  0.00     0.031 C 
ATOM     59  C   UNL A   1      40.010  34.239  31.373  1.00  0.00     0.029 A 
ATOM     60  C   UNL A   1      40.475  34.243  30.071  1.00  0.00     0.049 A 
ATOM     61  H   UNL A   1      39.382  34.393  28.274  1.00  0.00     0.167 HD
ATOM     62  C   UNL A   1      42.679  33.311  29.733  1.00  0.00     0.074 A 
ATOM     63  C   UNL A   1      44.119  33.193  29.582  1.00  0.00     0.031 C 
ATOM     64  C   UNL A   1      41.805  34.330  29.493  1.00  0.00     0.031 A 
BRANCH  51  65
ATOM     65  C   UNL A   1      35.617  34.175  29.614  1.00  0.00    -0.014 A 
ATOM     66  C   UNL A   1      34.854  34.636  28.526  1.00  0.00     0.009 A 
ATOM     67  C   UNL A   1      35.026  34.285  30.887  1.00  0.00     0.009 A 
ATOM     68  C   UNL A   1      33.600  35.236  28.698  1.00  0.00     0.001 A 
ATOM     69  C   UNL A   1      33.776  34.900  31.067  1.00  0.00     0.001 A 
ATOM     70  C   UNL A   1      33.067  35.383  29.972  1.00  0.00     0.000 A 
ENDBRANCH  51  65
BRANCH  52  71
ATOM     71  C   UNL A   1      43.798  28.737  30.597  1.00  0.00    -0.014 A 
ATOM     72  C   UNL A   1      44.098  27.700  31.513  1.00  0.00     0.009 A 
ATOM     73  C   UNL A   1      43.591  28.381  29.255  1.00  0.00     0.009 A 
ATOM     74  C   UNL A   1      44.041  26.352  31.136  1.00  0.00     0.001 A 
ATOM     75  C   UNL A   1      43.567  27.026  28.875  1.00  0.00     0.001 A 
ATOM     76  C   UNL A   1      43.746  26.015  29.821  1.00  0.00     0.000 A 
ENDBRANCH  52  71
BRANCH  64  77
ATOM     77  C   UNL A   1      42.166  35.584  28.765  1.00  0.00    -0.014 A 
ATOM     78  C   UNL A   1      42.838  36.650  29.373  1.00  0.00     0.009 A 
ATOM     79  C   UNL A   1      41.956  35.647  27.372  1.00  0.00     0.009 A 
ATOM     80  C   UNL A   1      43.219  37.769  28.628  1.00  0.00     0.001 A 
ATOM     81  C   UNL A   1      42.383  36.737  26.619  1.00  0.00     0.001 A 
ATOM     82  C   UNL A   1      42.997  37.809  27.253  1.00  0.00     0.000 A 
ENDBRANCH  64  77
ENDBRANCH  38  39
ENDBRANCH  31  33
ENDBRANCH  30  31
ENDBRANCH  29  30
ENDBRANCH   1  29
TORSDOF 14
ENDMDL
