MODEL 1
REMARK VINA RESULT:      -9.3      0.000      0.000
REMARK SMILES O=C(CC[C@H](O)c1cncn1C1CC1)OCCOC(=O)c1ccc(-c2c3nc(c(-c4ccccc4)c4ccc([nH]4)c(-c4ccccc4)c4nc(c(-c5ccccc5)c5ccc2[nH]5)C=C4)C=C3)cc1
REMARK SMILES IDX 16 1 15 2 2 3 1 4 3 5 4 6 5 7 7 8 8 9 11 10 9 11 10 12 12 13
REMARK SMILES IDX 13 14 14 15 6 16 17 18 18 19 19 20 20 21 21 22 22 23 68 24
REMARK SMILES IDX 23 25 67 26 24 27 25 28 26 29 61 30 27 31 66 32 60 33 62 34
REMARK SMILES IDX 28 35 65 36 59 37 58 38 29 40 51 41 36 42 50 43 37 44 40 45
REMARK SMILES IDX 49 46 63 47 38 48 39 49 48 51 64 52 41 53 30 54 31 55 35 56
REMARK SMILES IDX 32 57 34 58 33 59 52 60 53 61 57 62 54 63 56 64 55 65 42 66
REMARK SMILES IDX 43 67 47 68 44 69 46 70 45 71
REMARK H PARENT 6 17 62 39 40 50
REMARK Flexibility Score: inf
ROOT
ATOM      1  C   UNL A   1      33.973  36.694  32.632  1.00  0.00     0.274 C 
ENDROOT
BRANCH   1   2
ATOM      2  O   UNL A   1      34.408  35.586  33.471  1.00  0.00    -0.462 OA
BRANCH   2   3
ATOM      3  C   UNL A   1      35.589  34.923  33.496  1.00  0.00     0.306 C 
ATOM      4  O   UNL A   1      36.515  35.298  32.779  1.00  0.00    -0.252 OA
BRANCH   3   5
ATOM      5  C   UNL A   1      35.805  33.761  34.443  1.00  0.00     0.126 C 
BRANCH   5   6
ATOM      6  C   UNL A   1      37.026  33.851  35.348  1.00  0.00     0.050 C 
BRANCH   6   7
ATOM      7  C   UNL A   1      36.786  33.257  36.733  1.00  0.00     0.163 C 
BRANCH   7   8
ATOM      8  C   UNL A   1      37.806  33.577  37.738  1.00  0.00     0.066 A 
ATOM      9  C   UNL A   1      38.797  34.538  37.619  1.00  0.00     0.137 A 
ATOM     10  N   UNL A   1      38.067  32.960  38.941  1.00  0.00    -0.329 N 
ATOM     11  N   UNL A   1      39.640  34.528  38.689  1.00  0.00    -0.245 NA
ATOM     12  C   UNL A   1      39.187  33.564  39.456  1.00  0.00     0.199 A 
BRANCH  10  13
ATOM     13  C   UNL A   1      37.418  31.884  39.683  1.00  0.00     0.088 C 
ATOM     14  C   UNL A   1      37.373  31.670  41.179  1.00  0.00     0.027 C 
ATOM     15  C   UNL A   1      36.123  32.041  40.458  1.00  0.00     0.027 C 
ENDBRANCH  10  13
ENDBRANCH   7   8
BRANCH   7  16
ATOM     16  O   UNL A   1      35.565  33.574  37.351  1.00  0.00    -0.387 OA
ATOM     17  H   UNL A   1      35.624  34.457  37.747  1.00  0.00     0.211 HD
ENDBRANCH   7  16
ENDBRANCH   6   7
ENDBRANCH   5   6
ENDBRANCH   3   5
ENDBRANCH   2   3
ENDBRANCH   1   2
BRANCH   1  18
ATOM     18  C   UNL A   1      32.968  36.318  31.566  1.00  0.00     0.275 C 
BRANCH  18  19
ATOM     19  O   UNL A   1      33.323  35.049  31.055  1.00  0.00    -0.458 OA
BRANCH  19  20
ATOM     20  C   UNL A   1      33.520  34.997  29.713  1.00  0.00     0.338 C 
ATOM     21  O   UNL A   1      33.179  35.802  28.883  1.00  0.00    -0.246 OA
BRANCH  20  22
ATOM     22  C   UNL A   1      34.117  33.677  29.440  1.00  0.00     0.060 A 
ATOM     23  C   UNL A   1      34.443  32.970  30.591  1.00  0.00     0.016 A 
ATOM     24  C   UNL A   1      34.812  33.527  28.231  1.00  0.00     0.016 A 
ATOM     25  C   UNL A   1      35.714  32.461  30.654  1.00  0.00     0.010 A 
ATOM     26  C   UNL A   1      36.101  33.096  28.318  1.00  0.00     0.010 A 
ATOM     27  C   UNL A   1      36.558  32.667  29.558  1.00  0.00    -0.014 A 
BRANCH  27  28
ATOM     28  C   UNL A   1      37.928  32.243  29.650  1.00  0.00     0.031 A 
ATOM     29  C   UNL A   1      38.021  30.818  29.290  1.00  0.00     0.074 A 
ATOM     30  C   UNL A   1      38.946  33.081  29.905  1.00  0.00     0.049 A 
ATOM     31  N   UNL A   1      37.983  29.825  30.113  1.00  0.00    -0.248 NA
ATOM     32  C   UNL A   1      37.788  30.446  27.881  1.00  0.00     0.031 C 
ATOM     33  C   UNL A   1      38.948  34.543  29.984  1.00  0.00     0.029 A 
ATOM     34  N   UNL A   1      40.256  32.772  30.061  1.00  0.00    -0.354 N 
ATOM     35  C   UNL A   1      38.026  28.706  29.298  1.00  0.00     0.074 A 
ATOM     36  C   UNL A   1      37.552  29.139  28.011  1.00  0.00     0.031 C 
ATOM     37  C   UNL A   1      40.229  34.988  29.929  1.00  0.00     0.029 A 
ATOM     38  C   UNL A   1      41.128  33.845  29.941  1.00  0.00     0.049 A 
ATOM     39  H   UNL A   1      40.565  31.855  30.245  1.00  0.00     0.167 HD
ATOM     40  C   UNL A   1      38.873  27.684  29.601  1.00  0.00     0.031 A 
ATOM     41  C   UNL A   1      42.475  33.757  29.792  1.00  0.00     0.031 A 
ATOM     42  C   UNL A   1      39.307  27.765  30.980  1.00  0.00     0.049 A 
ATOM     43  C   UNL A   1      42.878  32.391  30.220  1.00  0.00     0.074 A 
ATOM     44  C   UNL A   1      38.665  27.839  32.202  1.00  0.00     0.029 A 
ATOM     45  N   UNL A   1      40.585  28.229  31.194  1.00  0.00    -0.354 N 
ATOM     46  N   UNL A   1      42.814  31.985  31.456  1.00  0.00    -0.248 NA
ATOM     47  C   UNL A   1      42.871  31.336  29.217  1.00  0.00     0.031 C 
ATOM     48  C   UNL A   1      39.442  28.750  32.978  1.00  0.00     0.029 A 
ATOM     49  C   UNL A   1      40.564  29.118  32.235  1.00  0.00     0.049 A 
ATOM     50  H   UNL A   1      41.384  27.965  30.683  1.00  0.00     0.167 HD
ATOM     51  C   UNL A   1      42.291  30.702  31.376  1.00  0.00     0.074 A 
ATOM     52  C   UNL A   1      42.435  30.320  29.969  1.00  0.00     0.031 C 
ATOM     53  C   UNL A   1      41.509  30.204  32.381  1.00  0.00     0.031 A 
BRANCH  40  54
ATOM     54  C   UNL A   1      39.706  26.994  28.539  1.00  0.00    -0.014 A 
ATOM     55  C   UNL A   1      40.633  27.771  27.827  1.00  0.00     0.009 A 
ATOM     56  C   UNL A   1      39.426  25.717  28.010  1.00  0.00     0.009 A 
ATOM     57  C   UNL A   1      41.155  27.339  26.602  1.00  0.00     0.001 A 
ATOM     58  C   UNL A   1      39.973  25.265  26.809  1.00  0.00     0.001 A 
ATOM     59  C   UNL A   1      40.813  26.093  26.087  1.00  0.00     0.000 A 
ENDBRANCH  40  54
BRANCH  41  60
ATOM     60  C   UNL A   1      43.395  34.625  29.019  1.00  0.00    -0.014 A 
ATOM     61  C   UNL A   1      44.606  35.067  29.582  1.00  0.00     0.009 A 
ATOM     62  C   UNL A   1      43.229  34.782  27.632  1.00  0.00     0.009 A 
ATOM     63  C   UNL A   1      45.625  35.602  28.780  1.00  0.00     0.001 A 
ATOM     64  C   UNL A   1      44.245  35.319  26.832  1.00  0.00     0.001 A 
ATOM     65  C   UNL A   1      45.450  35.714  27.404  1.00  0.00     0.000 A 
ENDBRANCH  41  60
BRANCH  53  66
ATOM     66  C   UNL A   1      41.464  30.964  33.685  1.00  0.00    -0.014 A 
ATOM     67  C   UNL A   1      40.485  31.925  33.999  1.00  0.00     0.009 A 
ATOM     68  C   UNL A   1      42.372  30.590  34.684  1.00  0.00     0.009 A 
ATOM     69  C   UNL A   1      40.444  32.513  35.270  1.00  0.00     0.001 A 
ATOM     70  C   UNL A   1      42.318  31.160  35.956  1.00  0.00     0.001 A 
ATOM     71  C   UNL A   1      41.359  32.127  36.248  1.00  0.00     0.000 A 
ENDBRANCH  53  66
ENDBRANCH  27  28
ENDBRANCH  20  22
ENDBRANCH  19  20
ENDBRANCH  18  19
ENDBRANCH   1  18
TORSDOF 16
ENDMDL
MODEL 2
REMARK VINA RESULT:      -9.3      3.569      8.998
REMARK SMILES O=C(CC[C@H](O)c1cncn1C1CC1)OCCOC(=O)c1ccc(-c2c3nc(c(-c4ccccc4)c4ccc([nH]4)c(-c4ccccc4)c4nc(c(-c5ccccc5)c5ccc2[nH]5)C=C4)C=C3)cc1
REMARK SMILES IDX 16 1 15 2 2 3 1 4 3 5 4 6 5 7 7 8 8 9 11 10 9 11 10 12 12 13
REMARK SMILES IDX 13 14 14 15 6 16 17 18 18 19 19 20 20 21 21 22 22 23 68 24
REMARK SMILES IDX 23 25 67 26 24 27 25 28 26 29 61 30 27 31 66 32 60 33 62 34
REMARK SMILES IDX 28 35 65 36 59 37 58 38 29 40 51 41 36 42 50 43 37 44 40 45
REMARK SMILES IDX 49 46 63 47 38 48 39 49 48 51 64 52 41 53 30 54 31 55 35 56
REMARK SMILES IDX 32 57 34 58 33 59 52 60 53 61 57 62 54 63 56 64 55 65 42 66
REMARK SMILES IDX 43 67 47 68 44 69 46 70 45 71
REMARK H PARENT 6 17 62 39 40 50
REMARK Flexibility Score: inf
ROOT
ATOM      1  C   UNL A   1      33.887  34.314  28.725  1.00  0.00     0.274 C 
ENDROOT
BRANCH   1   2
ATOM      2  O   UNL A   1      33.223  33.281  27.943  1.00  0.00    -0.462 OA
BRANCH   2   3
ATOM      3  C   UNL A   1      33.664  32.061  27.556  1.00  0.00     0.306 C 
ATOM      4  O   UNL A   1      34.860  31.890  27.324  1.00  0.00    -0.252 OA
BRANCH   3   5
ATOM      5  C   UNL A   1      32.714  30.885  27.468  1.00  0.00     0.126 C 
BRANCH   5   6
ATOM      6  C   UNL A   1      32.063  30.648  26.112  1.00  0.00     0.050 C 
BRANCH   6   7
ATOM      7  C   UNL A   1      32.614  29.420  25.393  1.00  0.00     0.163 C 
BRANCH   7   8
ATOM      8  C   UNL A   1      31.634  28.364  25.115  1.00  0.00     0.066 A 
ATOM      9  C   UNL A   1      31.572  27.123  25.728  1.00  0.00     0.137 A 
ATOM     10  N   UNL A   1      30.650  28.321  24.152  1.00  0.00    -0.329 N 
ATOM     11  N   UNL A   1      30.602  26.338  25.182  1.00  0.00    -0.245 NA
ATOM     12  C   UNL A   1      30.077  27.076  24.233  1.00  0.00     0.199 A 
BRANCH  10  13
ATOM     13  C   UNL A   1      30.165  29.280  23.165  1.00  0.00     0.088 C 
ATOM     14  C   UNL A   1      28.761  29.445  22.628  1.00  0.00     0.027 C 
ATOM     15  C   UNL A   1      29.336  30.507  23.500  1.00  0.00     0.027 C 
ENDBRANCH  10  13
ENDBRANCH   7   8
BRANCH   7  16
ATOM     16  O   UNL A   1      33.254  29.645  24.162  1.00  0.00    -0.387 OA
ATOM     17  H   UNL A   1      33.968  30.290  24.284  1.00  0.00     0.211 HD
ENDBRANCH   7  16
ENDBRANCH   6   7
ENDBRANCH   5   6
ENDBRANCH   3   5
ENDBRANCH   2   3
ENDBRANCH   1   2
BRANCH   1  18
ATOM     18  C   UNL A   1      32.995  35.017  29.724  1.00  0.00     0.275 C 
BRANCH  18  19
ATOM     19  O   UNL A   1      33.770  35.319  30.868  1.00  0.00    -0.458 OA
BRANCH  19  20
ATOM     20  C   UNL A   1      33.131  35.177  32.057  1.00  0.00     0.338 C 
ATOM     21  O   UNL A   1      32.035  35.576  32.361  1.00  0.00    -0.246 OA
BRANCH  20  22
ATOM     22  C   UNL A   1      34.105  34.554  32.971  1.00  0.00     0.060 A 
ATOM     23  C   UNL A   1      35.231  35.338  33.196  1.00  0.00     0.016 A 
ATOM     24  C   UNL A   1      34.131  33.152  33.019  1.00  0.00     0.016 A 
ATOM     25  C   UNL A   1      36.444  34.724  33.029  1.00  0.00     0.010 A 
ATOM     26  C   UNL A   1      35.330  32.555  32.772  1.00  0.00     0.010 A 
ATOM     27  C   UNL A   1      36.452  33.370  32.678  1.00  0.00    -0.014 A 
BRANCH  27  28
ATOM     28  C   UNL A   1      37.709  32.738  32.387  1.00  0.00     0.031 A 
ATOM     29  C   UNL A   1      38.505  32.645  33.622  1.00  0.00     0.074 A 
ATOM     30  C   UNL A   1      38.013  32.214  31.188  1.00  0.00     0.049 A 
ATOM     31  N   UNL A   1      39.383  33.502  34.023  1.00  0.00    -0.248 NA
ATOM     32  C   UNL A   1      38.048  31.713  34.670  1.00  0.00     0.031 C 
ATOM     33  C   UNL A   1      37.158  32.020  30.016  1.00  0.00     0.029 A 
ATOM     34  N   UNL A   1      39.181  31.647  30.802  1.00  0.00    -0.354 N 
ATOM     35  C   UNL A   1      39.792  33.020  35.255  1.00  0.00     0.074 A 
ATOM     36  C   UNL A   1      38.721  32.181  35.722  1.00  0.00     0.031 C 
ATOM     37  C   UNL A   1      37.771  31.168  29.156  1.00  0.00     0.029 A 
ATOM     38  C   UNL A   1      39.102  30.865  29.658  1.00  0.00     0.049 A 
ATOM     39  H   UNL A   1      40.023  31.780  31.296  1.00  0.00     0.167 HD
ATOM     40  C   UNL A   1      41.119  32.959  35.548  1.00  0.00     0.031 A 
ATOM     41  C   UNL A   1      40.050  29.993  29.228  1.00  0.00     0.031 A 
ATOM     42  C   UNL A   1      41.885  33.805  34.655  1.00  0.00     0.049 A 
ATOM     43  C   UNL A   1      41.320  30.347  29.917  1.00  0.00     0.074 A 
ATOM     44  C   UNL A   1      41.838  35.139  34.296  1.00  0.00     0.029 A 
ATOM     45  N   UNL A   1      42.584  33.167  33.656  1.00  0.00    -0.354 N 
ATOM     46  N   UNL A   1      41.976  31.447  29.679  1.00  0.00    -0.248 NA
ATOM     47  C   UNL A   1      41.585  29.731  31.210  1.00  0.00     0.031 C 
ATOM     48  C   UNL A   1      42.119  35.159  32.897  1.00  0.00     0.029 A 
ATOM     49  C   UNL A   1      42.413  33.859  32.487  1.00  0.00     0.049 A 
ATOM     50  H   UNL A   1      43.118  32.348  33.764  1.00  0.00     0.167 HD
ATOM     51  C   UNL A   1      42.355  31.906  30.933  1.00  0.00     0.074 A 
ATOM     52  C   UNL A   1      42.170  30.762  31.828  1.00  0.00     0.031 C 
ATOM     53  C   UNL A   1      42.475  33.246  31.178  1.00  0.00     0.031 A 
BRANCH  40  54
ATOM     54  C   UNL A   1      41.735  31.754  36.231  1.00  0.00    -0.014 A 
ATOM     55  C   UNL A   1      42.750  31.984  37.173  1.00  0.00     0.009 A 
ATOM     56  C   UNL A   1      41.581  30.423  35.792  1.00  0.00     0.009 A 
ATOM     57  C   UNL A   1      43.627  30.963  37.559  1.00  0.00     0.001 A 
ATOM     58  C   UNL A   1      42.427  29.393  36.203  1.00  0.00     0.001 A 
ATOM     59  C   UNL A   1      43.474  29.673  37.063  1.00  0.00     0.000 A 
ENDBRANCH  40  54
BRANCH  41  60
ATOM     60  C   UNL A   1      39.888  28.696  28.530  1.00  0.00    -0.014 A 
ATOM     61  C   UNL A   1      40.525  28.460  27.298  1.00  0.00     0.009 A 
ATOM     62  C   UNL A   1      39.350  27.586  29.204  1.00  0.00     0.009 A 
ATOM     63  C   UNL A   1      40.657  27.161  26.787  1.00  0.00     0.001 A 
ATOM     64  C   UNL A   1      39.479  26.289  28.693  1.00  0.00     0.001 A 
ATOM     65  C   UNL A   1      40.147  26.074  27.492  1.00  0.00     0.000 A 
ENDBRANCH  41  60
BRANCH  53  66
ATOM     66  C   UNL A   1      42.463  34.184  29.995  1.00  0.00    -0.014 A 
ATOM     67  C   UNL A   1      41.292  34.736  29.443  1.00  0.00     0.009 A 
ATOM     68  C   UNL A   1      43.700  34.632  29.510  1.00  0.00     0.009 A 
ATOM     69  C   UNL A   1      41.365  35.683  28.413  1.00  0.00     0.001 A 
ATOM     70  C   UNL A   1      43.772  35.591  28.499  1.00  0.00     0.001 A 
ATOM     71  C   UNL A   1      42.605  36.111  27.945  1.00  0.00     0.000 A 
ENDBRANCH  53  66
ENDBRANCH  27  28
ENDBRANCH  20  22
ENDBRANCH  19  20
ENDBRANCH  18  19
ENDBRANCH   1  18
TORSDOF 16
ENDMDL
MODEL 3
REMARK VINA RESULT:      -9.0      3.406      7.881
REMARK SMILES O=C(CC[C@H](O)c1cncn1C1CC1)OCCOC(=O)c1ccc(-c2c3nc(c(-c4ccccc4)c4ccc([nH]4)c(-c4ccccc4)c4nc(c(-c5ccccc5)c5ccc2[nH]5)C=C4)C=C3)cc1
REMARK SMILES IDX 16 1 15 2 2 3 1 4 3 5 4 6 5 7 7 8 8 9 11 10 9 11 10 12 12 13
REMARK SMILES IDX 13 14 14 15 6 16 17 18 18 19 19 20 20 21 21 22 22 23 68 24
REMARK SMILES IDX 23 25 67 26 24 27 25 28 26 29 61 30 27 31 66 32 60 33 62 34
REMARK SMILES IDX 28 35 65 36 59 37 58 38 29 40 51 41 36 42 50 43 37 44 40 45
REMARK SMILES IDX 49 46 63 47 38 48 39 49 48 51 64 52 41 53 30 54 31 55 35 56
REMARK SMILES IDX 32 57 34 58 33 59 52 60 53 61 57 62 54 63 56 64 55 65 42 66
REMARK SMILES IDX 43 67 47 68 44 69 46 70 45 71
REMARK H PARENT 6 17 62 39 40 50
REMARK Flexibility Score: inf
ROOT
ATOM      1  C   UNL A   1      38.087  31.584  33.697  1.00  0.00     0.274 C 
ENDROOT
BRANCH   1   2
ATOM      2  O   UNL A   1      37.554  31.835  35.028  1.00  0.00    -0.462 OA
BRANCH   2   3
ATOM      3  C   UNL A   1      37.022  32.963  35.555  1.00  0.00     0.306 C 
ATOM      4  O   UNL A   1      36.741  33.004  36.752  1.00  0.00    -0.252 OA
BRANCH   3   5
ATOM      5  C   UNL A   1      36.827  34.200  34.703  1.00  0.00     0.126 C 
BRANCH   5   6
ATOM      6  C   UNL A   1      35.400  34.488  34.254  1.00  0.00     0.050 C 
BRANCH   6   7
ATOM      7  C   UNL A   1      35.287  34.734  32.752  1.00  0.00     0.163 C 
BRANCH   7   8
ATOM      8  C   UNL A   1      34.359  35.800  32.360  1.00  0.00     0.066 A 
ATOM      9  C   UNL A   1      34.036  36.920  33.110  1.00  0.00     0.137 A 
ATOM     10  N   UNL A   1      33.551  35.887  31.247  1.00  0.00    -0.329 N 
ATOM     11  N   UNL A   1      33.075  37.673  32.504  1.00  0.00    -0.245 NA
ATOM     12  C   UNL A   1      32.795  37.022  31.400  1.00  0.00     0.199 A 
BRANCH  10  13
ATOM     13  C   UNL A   1      33.384  35.058  30.058  1.00  0.00     0.088 C 
ATOM     14  C   UNL A   1      33.177  35.502  28.627  1.00  0.00     0.027 C 
ATOM     15  C   UNL A   1      34.459  34.845  29.008  1.00  0.00     0.027 C 
ENDBRANCH  10  13
ENDBRANCH   7   8
BRANCH   7  16
ATOM     16  O   UNL A   1      36.480  35.032  32.071  1.00  0.00    -0.387 OA
ATOM     17  H   UNL A   1      36.934  35.762  32.520  1.00  0.00     0.211 HD
ENDBRANCH   7  16
ENDBRANCH   6   7
ENDBRANCH   5   6
ENDBRANCH   3   5
ENDBRANCH   2   3
ENDBRANCH   1   2
BRANCH   1  18
ATOM     18  C   UNL A   1      37.051  31.188  32.669  1.00  0.00     0.275 C 
BRANCH  18  19
ATOM     19  O   UNL A   1      37.183  32.050  31.556  1.00  0.00    -0.458 OA
BRANCH  19  20
ATOM     20  C   UNL A   1      36.367  31.774  30.507  1.00  0.00     0.338 C 
ATOM     21  O   UNL A   1      35.167  31.876  30.456  1.00  0.00    -0.246 OA
BRANCH  20  22
ATOM     22  C   UNL A   1      37.227  31.181  29.467  1.00  0.00     0.060 A 
ATOM     23  C   UNL A   1      36.867  29.882  29.128  1.00  0.00     0.016 A 
ATOM     24  C   UNL A   1      38.544  31.654  29.380  1.00  0.00     0.016 A 
ATOM     25  C   UNL A   1      37.873  28.951  29.133  1.00  0.00     0.010 A 
ATOM     26  C   UNL A   1      39.534  30.723  29.465  1.00  0.00     0.010 A 
ATOM     27  C   UNL A   1      39.166  29.383  29.444  1.00  0.00    -0.014 A 
BRANCH  27  28
ATOM     28  C   UNL A   1      40.211  28.405  29.566  1.00  0.00     0.031 A 
ATOM     29  C   UNL A   1      40.616  28.298  30.978  1.00  0.00     0.074 A 
ATOM     30  C   UNL A   1      40.632  27.642  28.544  1.00  0.00     0.049 A 
ATOM     31  N   UNL A   1      41.581  28.945  31.539  1.00  0.00    -0.248 NA
ATOM     32  C   UNL A   1      39.661  27.692  31.925  1.00  0.00     0.031 C 
ATOM     33  C   UNL A   1      40.073  27.501  27.198  1.00  0.00     0.029 A 
ATOM     34  N   UNL A   1      41.638  26.735  28.545  1.00  0.00    -0.354 N 
ATOM     35  C   UNL A   1      41.513  28.568  32.870  1.00  0.00     0.074 A 
ATOM     36  C   UNL A   1      40.163  28.123  33.084  1.00  0.00     0.031 C 
ATOM     37  C   UNL A   1      40.599  26.396  26.613  1.00  0.00     0.029 A 
ATOM     38  C   UNL A   1      41.615  25.835  27.489  1.00  0.00     0.049 A 
ATOM     39  H   UNL A   1      42.333  26.716  29.243  1.00  0.00     0.167 HD
ATOM     40  C   UNL A   1      42.649  28.206  33.527  1.00  0.00     0.031 A 
ATOM     41  C   UNL A   1      42.340  24.688  27.410  1.00  0.00     0.031 A 
ATOM     42  C   UNL A   1      43.825  28.672  32.820  1.00  0.00     0.049 A 
ATOM     43  C   UNL A   1      43.447  24.797  28.396  1.00  0.00     0.074 A 
ATOM     44  C   UNL A   1      44.263  29.899  32.359  1.00  0.00     0.029 A 
ATOM     45  N   UNL A   1      44.528  27.727  32.109  1.00  0.00    -0.354 N 
ATOM     46  N   UNL A   1      44.435  25.635  28.266  1.00  0.00    -0.248 NA
ATOM     47  C   UNL A   1      43.192  24.340  29.756  1.00  0.00     0.031 C 
ATOM     48  C   UNL A   1      44.872  29.629  31.097  1.00  0.00     0.029 A 
ATOM     49  C   UNL A   1      44.861  28.250  30.889  1.00  0.00     0.049 A 
ATOM     50  H   UNL A   1      44.753  26.822  32.425  1.00  0.00     0.167 HD
ATOM     51  C   UNL A   1      44.613  26.166  29.537  1.00  0.00     0.074 A 
ATOM     52  C   UNL A   1      43.885  25.263  30.431  1.00  0.00     0.031 C 
ATOM     53  C   UNL A   1      45.059  27.448  29.700  1.00  0.00     0.031 A 
BRANCH  40  54
ATOM     54  C   UNL A   1      42.694  27.001  34.446  1.00  0.00    -0.014 A 
ATOM     55  C   UNL A   1      43.568  25.955  34.110  1.00  0.00     0.009 A 
ATOM     56  C   UNL A   1      41.732  26.717  35.437  1.00  0.00     0.009 A 
ATOM     57  C   UNL A   1      43.408  24.674  34.650  1.00  0.00     0.001 A 
ATOM     58  C   UNL A   1      41.593  25.452  36.008  1.00  0.00     0.001 A 
ATOM     59  C   UNL A   1      42.412  24.420  35.588  1.00  0.00     0.000 A 
ENDBRANCH  40  54
BRANCH  41  60
ATOM     60  C   UNL A   1      41.979  23.388  26.797  1.00  0.00    -0.014 A 
ATOM     61  C   UNL A   1      42.920  22.665  26.043  1.00  0.00     0.009 A 
ATOM     62  C   UNL A   1      40.809  22.715  27.190  1.00  0.00     0.009 A 
ATOM     63  C   UNL A   1      42.718  21.311  25.736  1.00  0.00     0.001 A 
ATOM     64  C   UNL A   1      40.605  21.364  26.882  1.00  0.00     0.001 A 
ATOM     65  C   UNL A   1      41.568  20.658  26.168  1.00  0.00     0.000 A 
ENDBRANCH  41  60
BRANCH  53  66
ATOM     66  C   UNL A   1      45.615  28.163  28.492  1.00  0.00    -0.014 A 
ATOM     67  C   UNL A   1      44.832  28.914  27.595  1.00  0.00     0.009 A 
ATOM     68  C   UNL A   1      47.008  28.186  28.336  1.00  0.00     0.009 A 
ATOM     69  C   UNL A   1      45.432  29.637  26.557  1.00  0.00     0.001 A 
ATOM     70  C   UNL A   1      47.606  28.924  27.315  1.00  0.00     0.001 A 
ATOM     71  C   UNL A   1      46.819  29.644  26.420  1.00  0.00     0.000 A 
ENDBRANCH  53  66
ENDBRANCH  27  28
ENDBRANCH  20  22
ENDBRANCH  19  20
ENDBRANCH  18  19
ENDBRANCH   1  18
TORSDOF 16
ENDMDL
