MODEL 1
REMARK VINA RESULT:      -8.9      0.000      0.000
REMARK SMILES Cc1ccc(S(=O)(=O)Nc2ccc(C(=O)CCC(=O)OCCOC(=O)c3ccc(-c4c5nc(c(-c6ccccc6)c6ccc([nH]6)c(-c6ccccc6)c6nc(c(-c7ccccc7)c7ccc4[nH]7)C=C6)C=C5)cc3)cc2)c(C)c1
REMARK SMILES IDX 18 1 19 2 17 3 16 4 14 5 15 6 13 7 10 8 11 9 75 10 12 11
REMARK SMILES IDX 74 12 9 13 6 15 7 16 8 17 5 18 1 19 2 20 3 21 78 22 4 23
REMARK SMILES IDX 76 24 77 25 20 26 21 27 22 28 23 29 24 30 25 31 26 32 27 33
REMARK SMILES IDX 73 34 28 35 72 36 29 37 30 38 31 39 66 40 32 41 71 42 65 43
REMARK SMILES IDX 67 44 33 45 70 46 64 47 63 48 34 50 56 51 41 52 55 53 42 54
REMARK SMILES IDX 45 55 54 56 68 57 43 58 44 59 53 61 69 62 46 63 35 64 36 65
REMARK SMILES IDX 40 66 37 67 39 68 38 69 57 70 58 71 62 72 59 73 61 74 60 75
REMARK SMILES IDX 47 76 48 77 52 78 49 79 51 80 50 81
REMARK H PARENT 9 14 67 49 45 60
REMARK Flexibility Score: inf
ROOT
ATOM      1  C   UNL A   1      46.078  20.448  24.702  1.00  0.00     0.306 C 
ATOM      2  O   UNL A   1      47.032  19.706  24.898  1.00  0.00    -0.252 OA
ENDROOT
BRANCH   1   3
ATOM      3  C   UNL A   1      46.224  21.886  24.253  1.00  0.00     0.131 C 
BRANCH   3   4
ATOM      4  C   UNL A   1      46.146  22.941  25.361  1.00  0.00     0.093 C 
BRANCH   4   5
ATOM      5  C   UNL A   1      46.644  24.293  24.876  1.00  0.00     0.163 C 
ATOM      6  O   UNL A   1      47.272  24.399  23.824  1.00  0.00    -0.294 OA
BRANCH   5   7
ATOM      7  C   UNL A   1      46.526  25.483  25.766  1.00  0.00     0.018 A 
ATOM      8  C   UNL A   1      46.305  28.014  26.962  1.00  0.00     0.049 A 
ATOM      9  C   UNL A   1      45.190  27.405  26.383  1.00  0.00     0.027 A 
ATOM     10  C   UNL A   1      47.470  27.266  27.119  1.00  0.00     0.027 A 
ATOM     11  C   UNL A   1      45.299  26.150  25.779  1.00  0.00     0.014 A 
ATOM     12  C   UNL A   1      47.592  26.004  26.503  1.00  0.00     0.014 A 
BRANCH   8  13
ATOM     13  N   UNL A   1      46.136  29.348  27.421  1.00  0.00    -0.280 N 
ATOM     14  H   UNL A   1      45.794  29.461  28.337  1.00  0.00     0.180 HD
BRANCH  13  15
ATOM     15  S   UNL A   1      46.462  30.750  26.560  1.00  0.00     0.262 S 
ATOM     16  O   UNL A   1      46.240  30.478  25.154  1.00  0.00    -0.201 OA
ATOM     17  O   UNL A   1      47.750  31.196  27.046  1.00  0.00    -0.201 OA
BRANCH  15  18
ATOM     18  C   UNL A   1      45.283  32.030  27.020  1.00  0.00     0.090 A 
ATOM     19  C   UNL A   1      43.136  34.788  29.527  1.00  0.00     0.044 C 
ATOM     20  C   UNL A   1      43.798  33.878  28.529  1.00  0.00    -0.051 A 
ATOM     21  C   UNL A   1      44.920  34.296  27.808  1.00  0.00     0.005 A 
ATOM     22  C   UNL A   1      43.314  32.584  28.326  1.00  0.00     0.008 A 
ATOM     23  C   UNL A   1      45.664  33.375  27.051  1.00  0.00     0.023 A 
ATOM     24  C   UNL A   1      44.037  31.648  27.565  1.00  0.00    -0.030 A 
ATOM     25  C   UNL A   1      43.376  30.320  27.305  1.00  0.00     0.046 C 
ENDBRANCH  15  18
ENDBRANCH  13  15
ENDBRANCH   8  13
ENDBRANCH   5   7
ENDBRANCH   4   5
ENDBRANCH   3   4
ENDBRANCH   1   3
BRANCH   1  26
ATOM     26  O   UNL A   1      44.783  20.093  24.841  1.00  0.00    -0.462 OA
BRANCH  26  27
ATOM     27  C   UNL A   1      44.508  18.807  25.413  1.00  0.00     0.274 C 
BRANCH  27  28
ATOM     28  C   UNL A   1      43.050  18.680  25.845  1.00  0.00     0.275 C 
BRANCH  28  29
ATOM     29  O   UNL A   1      42.302  19.723  25.230  1.00  0.00    -0.458 OA
BRANCH  29  30
ATOM     30  C   UNL A   1      41.252  20.142  25.967  1.00  0.00     0.338 C 
ATOM     31  O   UNL A   1      40.200  19.580  26.217  1.00  0.00    -0.246 OA
BRANCH  30  32
ATOM     32  C   UNL A   1      41.730  21.347  26.618  1.00  0.00     0.060 A 
ATOM     33  C   UNL A   1      41.686  21.424  28.014  1.00  0.00     0.016 A 
ATOM     34  C   UNL A   1      42.270  22.355  25.824  1.00  0.00     0.016 A 
ATOM     35  C   UNL A   1      42.134  22.577  28.631  1.00  0.00     0.010 A 
ATOM     36  C   UNL A   1      42.733  23.499  26.441  1.00  0.00     0.010 A 
ATOM     37  C   UNL A   1      42.620  23.622  27.835  1.00  0.00    -0.014 A 
BRANCH  37  38
ATOM     38  C   UNL A   1      42.871  24.938  28.427  1.00  0.00     0.031 A 
ATOM     39  C   UNL A   1      44.218  25.179  29.031  1.00  0.00     0.074 A 
ATOM     40  C   UNL A   1      41.880  25.838  28.463  1.00  0.00     0.049 A 
ATOM     41  N   UNL A   1      44.639  26.195  29.731  1.00  0.00    -0.248 NA
ATOM     42  C   UNL A   1      45.221  24.113  28.843  1.00  0.00     0.031 C 
ATOM     43  C   UNL A   1      40.548  25.651  27.883  1.00  0.00     0.029 A 
ATOM     44  N   UNL A   1      41.837  27.077  29.031  1.00  0.00    -0.354 N 
ATOM     45  C   UNL A   1      45.944  25.882  30.086  1.00  0.00     0.074 A 
ATOM     46  C   UNL A   1      46.234  24.567  29.562  1.00  0.00     0.031 C 
ATOM     47  C   UNL A   1      39.809  26.742  28.139  1.00  0.00     0.029 A 
ATOM     48  C   UNL A   1      40.608  27.674  28.930  1.00  0.00     0.049 A 
ATOM     49  H   UNL A   1      42.610  27.500  29.470  1.00  0.00     0.167 HD
ATOM     50  C   UNL A   1      46.819  26.637  30.789  1.00  0.00     0.031 A 
ATOM     51  C   UNL A   1      40.180  28.836  29.450  1.00  0.00     0.031 A 
ATOM     52  C   UNL A   1      46.478  27.931  31.316  1.00  0.00     0.049 A 
ATOM     53  C   UNL A   1      41.161  29.654  30.240  1.00  0.00     0.074 A 
ATOM     54  C   UNL A   1      47.261  28.809  32.038  1.00  0.00     0.029 A 
ATOM     55  N   UNL A   1      45.230  28.525  31.169  1.00  0.00    -0.354 N 
ATOM     56  N   UNL A   1      42.403  29.369  30.558  1.00  0.00    -0.248 NA
ATOM     57  C   UNL A   1      40.692  30.954  30.727  1.00  0.00     0.031 C 
ATOM     58  C   UNL A   1      46.470  29.916  32.367  1.00  0.00     0.029 A 
ATOM     59  C   UNL A   1      45.214  29.755  31.800  1.00  0.00     0.049 A 
ATOM     60  H   UNL A   1      44.468  28.128  30.688  1.00  0.00     0.167 HD
ATOM     61  C   UNL A   1      42.877  30.463  31.266  1.00  0.00     0.074 A 
ATOM     62  C   UNL A   1      41.787  31.422  31.312  1.00  0.00     0.031 C 
ATOM     63  C   UNL A   1      44.094  30.665  31.828  1.00  0.00     0.031 A 
BRANCH  50  64
ATOM     64  C   UNL A   1      48.179  26.048  31.045  1.00  0.00    -0.014 A 
ATOM     65  C   UNL A   1      49.176  26.047  30.054  1.00  0.00     0.009 A 
ATOM     66  C   UNL A   1      48.457  25.446  32.281  1.00  0.00     0.009 A 
ATOM     67  C   UNL A   1      50.399  25.410  30.277  1.00  0.00     0.001 A 
ATOM     68  C   UNL A   1      49.694  24.838  32.513  1.00  0.00     0.001 A 
ATOM     69  C   UNL A   1      50.658  24.808  31.507  1.00  0.00     0.000 A 
ENDBRANCH  50  64
BRANCH  51  70
ATOM     70  C   UNL A   1      38.780  29.268  29.218  1.00  0.00    -0.014 A 
ATOM     71  C   UNL A   1      38.387  29.781  27.975  1.00  0.00     0.009 A 
ATOM     72  C   UNL A   1      37.809  29.096  30.219  1.00  0.00     0.009 A 
ATOM     73  C   UNL A   1      37.052  30.124  27.740  1.00  0.00     0.001 A 
ATOM     74  C   UNL A   1      36.471  29.415  29.973  1.00  0.00     0.001 A 
ATOM     75  C   UNL A   1      36.095  29.933  28.736  1.00  0.00     0.000 A 
ENDBRANCH  51  70
BRANCH  63  76
ATOM     76  C   UNL A   1      44.301  31.985  32.512  1.00  0.00    -0.014 A 
ATOM     77  C   UNL A   1      43.836  32.209  33.815  1.00  0.00     0.009 A 
ATOM     78  C   UNL A   1      45.003  33.003  31.847  1.00  0.00     0.009 A 
ATOM     79  C   UNL A   1      44.035  33.448  34.427  1.00  0.00     0.001 A 
ATOM     80  C   UNL A   1      45.228  34.227  32.474  1.00  0.00     0.001 A 
ATOM     81  C   UNL A   1      44.734  34.452  33.758  1.00  0.00     0.000 A 
ENDBRANCH  63  76
ENDBRANCH  37  38
ENDBRANCH  30  32
ENDBRANCH  29  30
ENDBRANCH  28  29
ENDBRANCH  27  28
ENDBRANCH  26  27
ENDBRANCH   1  26
TORSDOF 17
ENDMDL
MODEL 2
REMARK VINA RESULT:      -8.7      6.382     12.451
REMARK SMILES Cc1ccc(S(=O)(=O)Nc2ccc(C(=O)CCC(=O)OCCOC(=O)c3ccc(-c4c5nc(c(-c6ccccc6)c6ccc([nH]6)c(-c6ccccc6)c6nc(c(-c7ccccc7)c7ccc4[nH]7)C=C6)C=C5)cc3)cc2)c(C)c1
REMARK SMILES IDX 18 1 19 2 17 3 16 4 14 5 15 6 13 7 10 8 11 9 75 10 12 11
REMARK SMILES IDX 74 12 9 13 6 15 7 16 8 17 5 18 1 19 2 20 3 21 78 22 4 23
REMARK SMILES IDX 76 24 77 25 20 26 21 27 22 28 23 29 24 30 25 31 26 32 27 33
REMARK SMILES IDX 73 34 28 35 72 36 29 37 30 38 31 39 66 40 32 41 71 42 65 43
REMARK SMILES IDX 67 44 33 45 70 46 64 47 63 48 34 50 56 51 41 52 55 53 42 54
REMARK SMILES IDX 45 55 54 56 68 57 43 58 44 59 53 61 69 62 46 63 35 64 36 65
REMARK SMILES IDX 40 66 37 67 39 68 38 69 57 70 58 71 62 72 59 73 61 74 60 75
REMARK SMILES IDX 47 76 48 77 52 78 49 79 51 80 50 81
REMARK H PARENT 9 14 67 49 45 60
REMARK Flexibility Score: inf
ROOT
ATOM      1  C   UNL A   1      35.044  33.552  28.385  1.00  0.00     0.306 C 
ATOM      2  O   UNL A   1      36.003  33.440  27.632  1.00  0.00    -0.252 OA
ENDROOT
BRANCH   1   3
ATOM      3  C   UNL A   1      34.177  32.384  28.803  1.00  0.00     0.131 C 
BRANCH   3   4
ATOM      4  C   UNL A   1      33.629  31.519  27.663  1.00  0.00     0.093 C 
BRANCH   4   5
ATOM      5  C   UNL A   1      34.339  30.177  27.594  1.00  0.00     0.163 C 
ATOM      6  O   UNL A   1      35.560  30.097  27.713  1.00  0.00    -0.294 OA
BRANCH   5   7
ATOM      7  C   UNL A   1      33.574  28.959  27.204  1.00  0.00     0.018 A 
ATOM      8  C   UNL A   1      32.077  26.923  25.977  1.00  0.00     0.049 A 
ATOM      9  C   UNL A   1      33.437  27.070  25.697  1.00  0.00     0.027 A 
ATOM     10  C   UNL A   1      31.526  27.665  27.020  1.00  0.00     0.027 A 
ATOM     11  C   UNL A   1      34.183  28.086  26.299  1.00  0.00     0.014 A 
ATOM     12  C   UNL A   1      32.268  28.701  27.625  1.00  0.00     0.014 A 
BRANCH   8  13
ATOM     13  N   UNL A   1      31.368  25.959  25.212  1.00  0.00    -0.280 N 
ATOM     14  H   UNL A   1      30.823  26.300  24.467  1.00  0.00     0.180 HD
BRANCH  13  15
ATOM     15  S   UNL A   1      31.365  24.299  25.452  1.00  0.00     0.262 S 
ATOM     16  O   UNL A   1      30.651  23.686  24.350  1.00  0.00    -0.201 OA
ATOM     17  O   UNL A   1      30.931  24.120  26.821  1.00  0.00    -0.201 OA
BRANCH  15  18
ATOM     18  C   UNL A   1      33.050  23.673  25.375  1.00  0.00     0.090 A 
ATOM     19  C   UNL A   1      37.341  23.669  25.669  1.00  0.00     0.044 C 
ATOM     20  C   UNL A   1      35.853  23.518  25.519  1.00  0.00    -0.051 A 
ATOM     21  C   UNL A   1      35.065  23.057  26.578  1.00  0.00     0.005 A 
ATOM     22  C   UNL A   1      35.227  23.863  24.319  1.00  0.00     0.008 A 
ATOM     23  C   UNL A   1      33.664  23.132  26.509  1.00  0.00     0.023 A 
ATOM     24  C   UNL A   1      33.825  23.936  24.224  1.00  0.00    -0.030 A 
ATOM     25  C   UNL A   1      33.244  24.200  22.860  1.00  0.00     0.046 C 
ENDBRANCH  15  18
ENDBRANCH  13  15
ENDBRANCH   8  13
ENDBRANCH   5   7
ENDBRANCH   4   5
ENDBRANCH   3   4
ENDBRANCH   1   3
BRANCH   1  26
ATOM     26  O   UNL A   1      34.638  34.708  28.952  1.00  0.00    -0.462 OA
BRANCH  26  27
ATOM     27  C   UNL A   1      33.226  34.940  29.040  1.00  0.00     0.274 C 
BRANCH  27  28
ATOM     28  C   UNL A   1      32.900  36.080  30.001  1.00  0.00     0.275 C 
BRANCH  28  29
ATOM     29  O   UNL A   1      32.359  35.526  31.195  1.00  0.00    -0.458 OA
BRANCH  29  30
ATOM     30  C   UNL A   1      32.991  35.932  32.315  1.00  0.00     0.338 C 
ATOM     31  O   UNL A   1      32.650  36.751  33.151  1.00  0.00    -0.246 OA
BRANCH  30  32
ATOM     32  C   UNL A   1      34.095  35.002  32.460  1.00  0.00     0.060 A 
ATOM     33  C   UNL A   1      33.820  33.674  32.799  1.00  0.00     0.016 A 
ATOM     34  C   UNL A   1      35.383  35.463  32.198  1.00  0.00     0.016 A 
ATOM     35  C   UNL A   1      34.875  32.793  32.945  1.00  0.00     0.010 A 
ATOM     36  C   UNL A   1      36.434  34.579  32.326  1.00  0.00     0.010 A 
ATOM     37  C   UNL A   1      36.179  33.263  32.745  1.00  0.00    -0.014 A 
BRANCH  37  38
ATOM     38  C   UNL A   1      37.324  32.433  33.126  1.00  0.00     0.031 A 
ATOM     39  C   UNL A   1      37.999  32.740  34.424  1.00  0.00     0.074 A 
ATOM     40  C   UNL A   1      37.755  31.488  32.280  1.00  0.00     0.049 A 
ATOM     41  N   UNL A   1      39.103  32.250  34.917  1.00  0.00    -0.248 NA
ATOM     42  C   UNL A   1      37.356  33.761  35.272  1.00  0.00     0.031 C 
ATOM     43  C   UNL A   1      37.127  31.147  31.003  1.00  0.00     0.029 A 
ATOM     44  N   UNL A   1      38.837  30.661  32.363  1.00  0.00    -0.354 N 
ATOM     45  C   UNL A   1      39.299  32.919  36.117  1.00  0.00     0.074 A 
ATOM     46  C   UNL A   1      38.226  33.876  36.262  1.00  0.00     0.031 C 
ATOM     47  C   UNL A   1      37.848  30.182  30.411  1.00  0.00     0.029 A 
ATOM     48  C   UNL A   1      39.000  29.875  31.252  1.00  0.00     0.049 A 
ATOM     49  H   UNL A   1      39.439  30.632  33.141  1.00  0.00     0.167 HD
ATOM     50  C   UNL A   1      40.293  32.739  37.017  1.00  0.00     0.031 A 
ATOM     51  C   UNL A   1      39.994  29.024  30.950  1.00  0.00     0.031 A 
ATOM     52  C   UNL A   1      41.357  31.792  36.819  1.00  0.00     0.049 A 
ATOM     53  C   UNL A   1      41.096  28.849  31.954  1.00  0.00     0.074 A 
ATOM     54  C   UNL A   1      42.423  31.498  37.645  1.00  0.00     0.029 A 
ATOM     55  N   UNL A   1      41.478  30.984  35.694  1.00  0.00    -0.354 N 
ATOM     56  N   UNL A   1      41.271  29.465  33.101  1.00  0.00    -0.248 NA
ATOM     57  C   UNL A   1      42.125  27.855  31.635  1.00  0.00     0.031 C 
ATOM     58  C   UNL A   1      43.215  30.542  36.997  1.00  0.00     0.029 A 
ATOM     59  C   UNL A   1      42.611  30.199  35.795  1.00  0.00     0.049 A 
ATOM     60  H   UNL A   1      40.850  30.974  34.936  1.00  0.00     0.167 HD
ATOM     61  C   UNL A   1      42.419  28.920  33.656  1.00  0.00     0.074 A 
ATOM     62  C   UNL A   1      42.885  27.911  32.721  1.00  0.00     0.031 C 
ATOM     63  C   UNL A   1      43.038  29.219  34.826  1.00  0.00     0.031 A 
BRANCH  50  64
ATOM     64  C   UNL A   1      40.273  33.612  38.242  1.00  0.00    -0.014 A 
ATOM     65  C   UNL A   1      41.001  34.814  38.298  1.00  0.00     0.009 A 
ATOM     66  C   UNL A   1      39.552  33.208  39.375  1.00  0.00     0.009 A 
ATOM     67  C   UNL A   1      41.049  35.561  39.477  1.00  0.00     0.001 A 
ATOM     68  C   UNL A   1      39.574  33.976  40.543  1.00  0.00     0.001 A 
ATOM     69  C   UNL A   1      40.335  35.143  40.597  1.00  0.00     0.000 A 
ENDBRANCH  50  64
BRANCH  51  70
ATOM     70  C   UNL A   1      39.961  28.292  29.660  1.00  0.00    -0.014 A 
ATOM     71  C   UNL A   1      40.580  28.824  28.521  1.00  0.00     0.009 A 
ATOM     72  C   UNL A   1      39.374  27.018  29.580  1.00  0.00     0.009 A 
ATOM     73  C   UNL A   1      40.604  28.101  27.325  1.00  0.00     0.001 A 
ATOM     74  C   UNL A   1      39.422  26.286  28.391  1.00  0.00     0.001 A 
ATOM     75  C   UNL A   1      40.032  26.831  27.264  1.00  0.00     0.000 A 
ENDBRANCH  51  70
BRANCH  63  76
ATOM     76  C   UNL A   1      44.264  28.420  35.154  1.00  0.00    -0.014 A 
ATOM     77  C   UNL A   1      44.178  27.207  35.852  1.00  0.00     0.009 A 
ATOM     78  C   UNL A   1      45.521  28.878  34.726  1.00  0.00     0.009 A 
ATOM     79  C   UNL A   1      45.335  26.486  36.152  1.00  0.00     0.001 A 
ATOM     80  C   UNL A   1      46.670  28.139  34.999  1.00  0.00     0.001 A 
ATOM     81  C   UNL A   1      46.577  26.950  35.721  1.00  0.00     0.000 A 
ENDBRANCH  63  76
ENDBRANCH  37  38
ENDBRANCH  30  32
ENDBRANCH  29  30
ENDBRANCH  28  29
ENDBRANCH  27  28
ENDBRANCH  26  27
ENDBRANCH   1  26
TORSDOF 17
ENDMDL
MODEL 3
REMARK VINA RESULT:      -8.6      2.299      3.640
REMARK SMILES Cc1ccc(S(=O)(=O)Nc2ccc(C(=O)CCC(=O)OCCOC(=O)c3ccc(-c4c5nc(c(-c6ccccc6)c6ccc([nH]6)c(-c6ccccc6)c6nc(c(-c7ccccc7)c7ccc4[nH]7)C=C6)C=C5)cc3)cc2)c(C)c1
REMARK SMILES IDX 18 1 19 2 17 3 16 4 14 5 15 6 13 7 10 8 11 9 75 10 12 11
REMARK SMILES IDX 74 12 9 13 6 15 7 16 8 17 5 18 1 19 2 20 3 21 78 22 4 23
REMARK SMILES IDX 76 24 77 25 20 26 21 27 22 28 23 29 24 30 25 31 26 32 27 33
REMARK SMILES IDX 73 34 28 35 72 36 29 37 30 38 31 39 66 40 32 41 71 42 65 43
REMARK SMILES IDX 67 44 33 45 70 46 64 47 63 48 34 50 56 51 41 52 55 53 42 54
REMARK SMILES IDX 45 55 54 56 68 57 43 58 44 59 53 61 69 62 46 63 35 64 36 65
REMARK SMILES IDX 40 66 37 67 39 68 38 69 57 70 58 71 62 72 59 73 61 74 60 75
REMARK SMILES IDX 47 76 48 77 52 78 49 79 51 80 50 81
REMARK H PARENT 9 14 67 49 45 60
REMARK Flexibility Score: inf
ROOT
ATOM      1  C   UNL A   1      44.096  22.880  24.307  1.00  0.00     0.306 C 
ATOM      2  O   UNL A   1      44.406  22.267  23.294  1.00  0.00    -0.252 OA
ENDROOT
BRANCH   1   3
ATOM      3  C   UNL A   1      45.011  23.877  24.986  1.00  0.00     0.131 C 
BRANCH   3   4
ATOM      4  C   UNL A   1      44.355  25.187  25.434  1.00  0.00     0.093 C 
BRANCH   4   5
ATOM      5  C   UNL A   1      45.292  26.369  25.248  1.00  0.00     0.163 C 
ATOM      6  O   UNL A   1      46.323  26.264  24.585  1.00  0.00    -0.294 OA
BRANCH   5   7
ATOM      7  C   UNL A   1      45.056  27.623  26.016  1.00  0.00     0.018 A 
ATOM      8  C   UNL A   1      44.572  30.224  26.960  1.00  0.00     0.049 A 
ATOM      9  C   UNL A   1      43.524  29.440  26.475  1.00  0.00     0.027 A 
ATOM     10  C   UNL A   1      45.816  29.628  27.158  1.00  0.00     0.027 A 
ATOM     11  C   UNL A   1      43.762  28.149  25.997  1.00  0.00     0.014 A 
ATOM     12  C   UNL A   1      46.069  28.330  26.669  1.00  0.00     0.014 A 
BRANCH   8  13
ATOM     13  N   UNL A   1      44.263  31.571  27.288  1.00  0.00    -0.280 N 
ATOM     14  H   UNL A   1      43.745  31.718  28.112  1.00  0.00     0.180 HD
BRANCH  13  15
ATOM     15  S   UNL A   1      44.691  32.937  26.413  1.00  0.00     0.262 S 
ATOM     16  O   UNL A   1      44.293  32.732  25.035  1.00  0.00    -0.201 OA
ATOM     17  O   UNL A   1      46.071  33.190  26.767  1.00  0.00    -0.201 OA
BRANCH  15  18
ATOM     18  C   UNL A   1      43.754  34.354  27.006  1.00  0.00     0.090 A 
ATOM     19  C   UNL A   1      42.876  38.444  28.008  1.00  0.00     0.044 C 
ATOM     20  C   UNL A   1      43.036  36.978  27.710  1.00  0.00    -0.051 A 
ATOM     21  C   UNL A   1      42.648  36.447  26.476  1.00  0.00     0.005 A 
ATOM     22  C   UNL A   1      43.603  36.125  28.659  1.00  0.00     0.008 A 
ATOM     23  C   UNL A   1      43.004  35.136  26.122  1.00  0.00     0.023 A 
ATOM     24  C   UNL A   1      43.959  34.804  28.329  1.00  0.00    -0.030 A 
ATOM     25  C   UNL A   1      44.452  33.927  29.450  1.00  0.00     0.046 C 
ENDBRANCH  15  18
ENDBRANCH  13  15
ENDBRANCH   8  13
ENDBRANCH   5   7
ENDBRANCH   4   5
ENDBRANCH   3   4
ENDBRANCH   1   3
BRANCH   1  26
ATOM     26  O   UNL A   1      42.910  22.771  24.944  1.00  0.00    -0.462 OA
BRANCH  26  27
ATOM     27  C   UNL A   1      42.777  21.725  25.916  1.00  0.00     0.274 C 
BRANCH  27  28
ATOM     28  C   UNL A   1      41.319  21.320  26.114  1.00  0.00     0.275 C 
BRANCH  28  29
ATOM     29  O   UNL A   1      40.721  22.218  27.041  1.00  0.00    -0.458 OA
BRANCH  29  30
ATOM     30  C   UNL A   1      39.655  22.879  26.543  1.00  0.00     0.338 C 
ATOM     31  O   UNL A   1      38.669  22.451  25.966  1.00  0.00    -0.246 OA
BRANCH  30  32
ATOM     32  C   UNL A   1      39.804  24.231  27.048  1.00  0.00     0.060 A 
ATOM     33  C   UNL A   1      40.460  25.180  26.258  1.00  0.00     0.016 A 
ATOM     34  C   UNL A   1      39.231  24.540  28.280  1.00  0.00     0.016 A 
ATOM     35  C   UNL A   1      40.608  26.464  26.747  1.00  0.00     0.010 A 
ATOM     36  C   UNL A   1      39.364  25.826  28.759  1.00  0.00     0.010 A 
ATOM     37  C   UNL A   1      40.091  26.768  28.013  1.00  0.00    -0.014 A 
BRANCH  37  38
ATOM     38  C   UNL A   1      40.438  28.034  28.662  1.00  0.00     0.031 A 
ATOM     39  C   UNL A   1      41.785  28.136  29.304  1.00  0.00     0.074 A 
ATOM     40  C   UNL A   1      39.526  29.014  28.710  1.00  0.00     0.049 A 
ATOM     41  N   UNL A   1      42.273  29.086  30.053  1.00  0.00    -0.248 NA
ATOM     42  C   UNL A   1      42.697  26.995  29.097  1.00  0.00     0.031 C 
ATOM     43  C   UNL A   1      38.199  28.964  28.094  1.00  0.00     0.029 A 
ATOM     44  N   UNL A   1      39.575  30.230  29.326  1.00  0.00    -0.354 N 
ATOM     45  C   UNL A   1      43.536  28.648  30.425  1.00  0.00     0.074 A 
ATOM     46  C   UNL A   1      43.726  27.334  29.856  1.00  0.00     0.031 C 
ATOM     47  C   UNL A   1      37.549  30.104  28.376  1.00  0.00     0.029 A 
ATOM     48  C   UNL A   1      38.403  30.934  29.221  1.00  0.00     0.049 A 
ATOM     49  H   UNL A   1      40.369  30.568  29.798  1.00  0.00     0.167 HD
ATOM     50  C   UNL A   1      44.453  29.298  31.176  1.00  0.00     0.031 A 
ATOM     51  C   UNL A   1      38.063  32.108  29.776  1.00  0.00     0.031 A 
ATOM     52  C   UNL A   1      44.211  30.597  31.746  1.00  0.00     0.049 A 
ATOM     53  C   UNL A   1      39.089  32.809  30.619  1.00  0.00     0.074 A 
ATOM     54  C   UNL A   1      45.047  31.376  32.519  1.00  0.00     0.029 A 
ATOM     55  N   UNL A   1      43.022  31.301  31.595  1.00  0.00    -0.354 N 
ATOM     56  N   UNL A   1      40.293  32.406  30.954  1.00  0.00    -0.248 NA
ATOM     57  C   UNL A   1      38.719  34.125  31.146  1.00  0.00     0.031 C 
ATOM     58  C   UNL A   1      44.345  32.535  32.874  1.00  0.00     0.029 A 
ATOM     59  C   UNL A   1      43.094  32.503  32.273  1.00  0.00     0.049 A 
ATOM     60  H   UNL A   1      42.242  30.989  31.081  1.00  0.00     0.167 HD
ATOM     61  C   UNL A   1      40.840  33.428  31.715  1.00  0.00     0.074 A 
ATOM     62  C   UNL A   1      39.835  34.475  31.774  1.00  0.00     0.031 C 
ATOM     63  C   UNL A   1      42.056  33.505  32.312  1.00  0.00     0.031 A 
BRANCH  50  64
ATOM     64  C   UNL A   1      45.752  28.586  31.440  1.00  0.00    -0.014 A 
ATOM     65  C   UNL A   1      45.921  27.762  32.566  1.00  0.00     0.009 A 
ATOM     66  C   UNL A   1      46.839  28.775  30.573  1.00  0.00     0.009 A 
ATOM     67  C   UNL A   1      47.163  27.187  32.846  1.00  0.00     0.001 A 
ATOM     68  C   UNL A   1      48.072  28.171  30.838  1.00  0.00     0.001 A 
ATOM     69  C   UNL A   1      48.236  27.391  31.981  1.00  0.00     0.000 A 
ENDBRANCH  50  64
BRANCH  51  70
ATOM     70  C   UNL A   1      36.710  32.667  29.530  1.00  0.00    -0.014 A 
ATOM     71  C   UNL A   1      35.691  32.514  30.481  1.00  0.00     0.009 A 
ATOM     72  C   UNL A   1      36.452  33.422  28.374  1.00  0.00     0.009 A 
ATOM     73  C   UNL A   1      34.439  33.099  30.275  1.00  0.00     0.001 A 
ATOM     74  C   UNL A   1      35.207  34.027  28.183  1.00  0.00     0.001 A 
ATOM     75  C   UNL A   1      34.201  33.861  29.132  1.00  0.00     0.000 A 
ENDBRANCH  51  70
BRANCH  63  76
ATOM     76  C   UNL A   1      42.356  34.775  33.052  1.00  0.00    -0.014 A 
ATOM     77  C   UNL A   1      41.894  34.982  34.359  1.00  0.00     0.009 A 
ATOM     78  C   UNL A   1      43.144  35.761  32.436  1.00  0.00     0.009 A 
ATOM     79  C   UNL A   1      42.181  36.176  35.023  1.00  0.00     0.001 A 
ATOM     80  C   UNL A   1      43.455  36.938  33.115  1.00  0.00     0.001 A 
ATOM     81  C   UNL A   1      42.964  37.149  34.402  1.00  0.00     0.000 A 
ENDBRANCH  63  76
ENDBRANCH  37  38
ENDBRANCH  30  32
ENDBRANCH  29  30
ENDBRANCH  28  29
ENDBRANCH  27  28
ENDBRANCH  26  27
ENDBRANCH   1  26
TORSDOF 17
ENDMDL
