MODEL 1
REMARK VINA RESULT:     -12.1      0.000      0.000
REMARK SMILES C[C@H]1OCC[C@@H]1C(=O)Nc1sc2c(c1C(=O)OCCOC(=O)c1ccc(-c3c4nc(c(-c5ccccc5)c5ccc([nH]5)c(-c5ccccc5)c5nc(c(-c6ccccc6)c6ccc3[nH]6)C=C5)C=C4)cc1)CCC2
REMARK SMILES IDX 18 1 17 2 15 3 16 4 14 5 10 6 11 7 12 8 13 9 73 10 71 11
REMARK SMILES IDX 72 12 9 13 7 14 8 15 6 17 1 18 2 19 3 20 4 21 5 22 19 23
REMARK SMILES IDX 20 24 21 25 22 26 23 27 24 28 70 29 25 30 69 31 26 32 27 33
REMARK SMILES IDX 28 34 63 35 29 36 68 37 62 38 64 39 30 40 67 41 61 42 60 43
REMARK SMILES IDX 31 45 53 46 38 47 52 48 39 49 42 50 51 51 65 52 40 53 41 54
REMARK SMILES IDX 50 56 66 57 43 58 32 59 33 60 37 61 34 62 36 63 35 64 54 65
REMARK SMILES IDX 55 66 59 67 56 68 58 69 57 70 44 71 45 72 49 73 46 74 48 75
REMARK SMILES IDX 47 76
REMARK H PARENT 9 16 64 44 42 55
REMARK Flexibility Score: inf
ROOT
ATOM      1  C   UNL A   1      34.016  28.868  26.448  1.00  0.00     0.275 C 
ENDROOT
BRANCH   1   2
ATOM      2  O   UNL A   1      33.426  27.592  26.771  1.00  0.00    -0.458 OA
BRANCH   2   3
ATOM      3  C   UNL A   1      32.063  27.584  26.899  1.00  0.00     0.341 C 
ATOM      4  O   UNL A   1      31.474  27.803  27.938  1.00  0.00    -0.246 OA
BRANCH   3   5
ATOM      5  C   UNL A   1      31.382  27.320  25.630  1.00  0.00     0.098 A 
ATOM      6  C   UNL A   1      30.832  26.082  25.318  1.00  0.00     0.110 A 
ATOM      7  S   UNL A   1      30.344  25.917  23.685  1.00  0.00    -0.122 S 
ATOM      8  C   UNL A   1      30.392  27.576  23.535  1.00  0.00     0.011 A 
ATOM      9  C   UNL A   1      30.940  28.223  24.614  1.00  0.00    -0.017 A 
ATOM     10  C   UNL A   1      29.795  28.469  22.518  1.00  0.00     0.047 C 
ATOM     11  C   UNL A   1      30.766  29.695  24.469  1.00  0.00     0.038 C 
ATOM     12  C   UNL A   1      29.666  29.774  23.356  1.00  0.00     0.010 C 
BRANCH   6  13
ATOM     13  N   UNL A   1      30.520  24.997  26.101  1.00  0.00    -0.317 N 
ATOM     14  C   UNL A   1      31.489  24.102  26.489  1.00  0.00     0.230 C 
ATOM     15  O   UNL A   1      31.391  23.655  27.640  1.00  0.00    -0.274 OA
ATOM     16  H   UNL A   1      29.589  24.858  26.389  1.00  0.00     0.170 HD
BRANCH  14  17
ATOM     17  C   UNL A   1      32.580  23.530  25.572  1.00  0.00     0.110 C 
ATOM     18  C   UNL A   1      32.090  21.114  24.957  1.00  0.00     0.039 C 
ATOM     19  C   UNL A   1      32.909  22.057  25.829  1.00  0.00     0.127 C 
ATOM     20  O   UNL A   1      34.299  21.870  25.453  1.00  0.00    -0.378 OA
ATOM     21  C   UNL A   1      34.705  23.033  24.723  1.00  0.00     0.161 C 
ATOM     22  C   UNL A   1      33.945  24.137  25.403  1.00  0.00     0.044 C 
ENDBRANCH  14  17
ENDBRANCH   6  13
ENDBRANCH   3   5
ENDBRANCH   2   3
ENDBRANCH   1   2
BRANCH   1  23
ATOM     23  C   UNL A   1      34.632  29.517  27.679  1.00  0.00     0.275 C 
BRANCH  23  24
ATOM     24  O   UNL A   1      36.038  29.244  27.781  1.00  0.00    -0.458 OA
BRANCH  24  25
ATOM     25  C   UNL A   1      36.681  30.311  28.299  1.00  0.00     0.338 C 
ATOM     26  O   UNL A   1      36.455  31.486  28.032  1.00  0.00    -0.246 OA
BRANCH  25  27
ATOM     27  C   UNL A   1      37.705  29.981  29.299  1.00  0.00     0.060 A 
ATOM     28  C   UNL A   1      38.888  30.718  29.278  1.00  0.00     0.016 A 
ATOM     29  C   UNL A   1      37.704  28.632  29.656  1.00  0.00     0.016 A 
ATOM     30  C   UNL A   1      40.096  30.028  29.260  1.00  0.00     0.010 A 
ATOM     31  C   UNL A   1      38.905  27.957  29.686  1.00  0.00     0.010 A 
ATOM     32  C   UNL A   1      40.088  28.633  29.353  1.00  0.00    -0.014 A 
BRANCH  32  33
ATOM     33  C   UNL A   1      41.340  27.864  29.256  1.00  0.00     0.031 A 
ATOM     34  C   UNL A   1      42.134  27.795  30.520  1.00  0.00     0.074 A 
ATOM     35  C   UNL A   1      41.543  27.049  28.192  1.00  0.00     0.049 A 
ATOM     36  N   UNL A   1      43.408  27.623  30.683  1.00  0.00    -0.248 NA
ATOM     37  C   UNL A   1      41.391  27.983  31.786  1.00  0.00     0.031 C 
ATOM     38  C   UNL A   1      40.675  26.942  27.008  1.00  0.00     0.029 A 
ATOM     39  N   UNL A   1      42.414  26.000  28.027  1.00  0.00    -0.354 N 
ATOM     40  C   UNL A   1      43.590  27.504  32.061  1.00  0.00     0.074 A 
ATOM     41  C   UNL A   1      42.353  27.870  32.693  1.00  0.00     0.031 C 
ATOM     42  C   UNL A   1      40.868  25.742  26.426  1.00  0.00     0.029 A 
ATOM     43  C   UNL A   1      41.915  25.037  27.144  1.00  0.00     0.049 A 
ATOM     44  H   UNL A   1      43.288  25.934  28.477  1.00  0.00     0.167 HD
ATOM     45  C   UNL A   1      44.631  26.824  32.606  1.00  0.00     0.031 A 
ATOM     46  C   UNL A   1      42.222  23.717  27.081  1.00  0.00     0.031 A 
ATOM     47  C   UNL A   1      45.788  26.796  31.765  1.00  0.00     0.049 A 
ATOM     48  C   UNL A   1      43.450  23.481  27.863  1.00  0.00     0.074 A 
ATOM     49  C   UNL A   1      46.616  27.752  31.215  1.00  0.00     0.029 A 
ATOM     50  N   UNL A   1      46.088  25.617  31.136  1.00  0.00    -0.354 N 
ATOM     51  N   UNL A   1      44.642  23.838  27.490  1.00  0.00    -0.248 NA
ATOM     52  C   UNL A   1      43.325  23.087  29.258  1.00  0.00     0.031 C 
ATOM     53  C   UNL A   1      47.093  27.187  30.001  1.00  0.00     0.029 A 
ATOM     54  C   UNL A   1      46.537  25.913  29.878  1.00  0.00     0.049 A 
ATOM     55  H   UNL A   1      45.997  24.715  31.522  1.00  0.00     0.167 HD
ATOM     56  C   UNL A   1      45.303  24.131  28.672  1.00  0.00     0.074 A 
ATOM     57  C   UNL A   1      44.507  23.500  29.718  1.00  0.00     0.031 C 
ATOM     58  C   UNL A   1      46.258  25.105  28.713  1.00  0.00     0.031 A 
BRANCH  45  59
ATOM     59  C   UNL A   1      44.398  25.818  33.710  1.00  0.00    -0.014 A 
ATOM     60  C   UNL A   1      43.956  24.527  33.383  1.00  0.00     0.009 A 
ATOM     61  C   UNL A   1      44.321  26.190  35.069  1.00  0.00     0.009 A 
ATOM     62  C   UNL A   1      43.419  23.678  34.360  1.00  0.00     0.001 A 
ATOM     63  C   UNL A   1      43.831  25.330  36.053  1.00  0.00     0.001 A 
ATOM     64  C   UNL A   1      43.355  24.081  35.691  1.00  0.00     0.000 A 
ENDBRANCH  45  59
BRANCH  46  65
ATOM     65  C   UNL A   1      41.395  22.587  26.590  1.00  0.00    -0.014 A 
ATOM     66  C   UNL A   1      41.948  21.303  26.452  1.00  0.00     0.009 A 
ATOM     67  C   UNL A   1      39.998  22.707  26.463  1.00  0.00     0.009 A 
ATOM     68  C   UNL A   1      41.134  20.186  26.215  1.00  0.00     0.001 A 
ATOM     69  C   UNL A   1      39.186  21.596  26.210  1.00  0.00     0.001 A 
ATOM     70  C   UNL A   1      39.754  20.332  26.100  1.00  0.00     0.000 A 
ENDBRANCH  46  65
BRANCH  58  71
ATOM     71  C   UNL A   1      46.823  25.590  27.403  1.00  0.00    -0.014 A 
ATOM     72  C   UNL A   1      48.054  25.144  26.892  1.00  0.00     0.009 A 
ATOM     73  C   UNL A   1      46.025  26.417  26.597  1.00  0.00     0.009 A 
ATOM     74  C   UNL A   1      48.494  25.550  25.630  1.00  0.00     0.001 A 
ATOM     75  C   UNL A   1      46.453  26.800  25.324  1.00  0.00     0.001 A 
ATOM     76  C   UNL A   1      47.690  26.372  24.844  1.00  0.00     0.000 A 
ENDBRANCH  58  71
ENDBRANCH  32  33
ENDBRANCH  25  27
ENDBRANCH  24  25
ENDBRANCH  23  24
ENDBRANCH   1  23
TORSDOF 13
ENDMDL
MODEL 2
REMARK VINA RESULT:     -11.9      4.077      9.254
REMARK SMILES C[C@H]1OCC[C@@H]1C(=O)Nc1sc2c(c1C(=O)OCCOC(=O)c1ccc(-c3c4nc(c(-c5ccccc5)c5ccc([nH]5)c(-c5ccccc5)c5nc(c(-c6ccccc6)c6ccc3[nH]6)C=C5)C=C4)cc1)CCC2
REMARK SMILES IDX 18 1 17 2 15 3 16 4 14 5 10 6 11 7 12 8 13 9 73 10 71 11
REMARK SMILES IDX 72 12 9 13 7 14 8 15 6 17 1 18 2 19 3 20 4 21 5 22 19 23
REMARK SMILES IDX 20 24 21 25 22 26 23 27 24 28 70 29 25 30 69 31 26 32 27 33
REMARK SMILES IDX 28 34 63 35 29 36 68 37 62 38 64 39 30 40 67 41 61 42 60 43
REMARK SMILES IDX 31 45 53 46 38 47 52 48 39 49 42 50 51 51 65 52 40 53 41 54
REMARK SMILES IDX 50 56 66 57 43 58 32 59 33 60 37 61 34 62 36 63 35 64 54 65
REMARK SMILES IDX 55 66 59 67 56 68 58 69 57 70 44 71 45 72 49 73 46 74 48 75
REMARK SMILES IDX 47 76
REMARK H PARENT 9 16 64 44 42 55
REMARK Flexibility Score: inf
ROOT
ATOM      1  C   UNL A   1      37.295  23.656  25.504  1.00  0.00     0.275 C 
ENDROOT
BRANCH   1   2
ATOM      2  O   UNL A   1      36.949  22.515  24.693  1.00  0.00    -0.458 OA
BRANCH   2   3
ATOM      3  C   UNL A   1      36.055  22.754  23.683  1.00  0.00     0.341 C 
ATOM      4  O   UNL A   1      36.346  23.268  22.622  1.00  0.00    -0.246 OA
BRANCH   3   5
ATOM      5  C   UNL A   1      34.706  22.286  24.005  1.00  0.00     0.098 A 
ATOM      6  C   UNL A   1      33.561  22.960  23.595  1.00  0.00     0.110 A 
ATOM      7  S   UNL A   1      32.114  22.399  24.319  1.00  0.00    -0.122 S 
ATOM      8  C   UNL A   1      32.911  21.004  24.761  1.00  0.00     0.011 A 
ATOM      9  C   UNL A   1      34.266  21.038  24.544  1.00  0.00    -0.017 A 
ATOM     10  C   UNL A   1      32.387  19.689  25.187  1.00  0.00     0.047 C 
ATOM     11  C   UNL A   1      34.855  19.692  24.789  1.00  0.00     0.038 C 
ATOM     12  C   UNL A   1      33.580  18.781  24.770  1.00  0.00     0.010 C 
BRANCH   6  13
ATOM     13  N   UNL A   1      33.363  23.931  22.643  1.00  0.00    -0.317 N 
ATOM     14  C   UNL A   1      33.598  25.256  22.923  1.00  0.00     0.230 C 
ATOM     15  O   UNL A   1      34.105  25.925  22.013  1.00  0.00    -0.274 OA
ATOM     16  H   UNL A   1      33.049  23.673  21.746  1.00  0.00     0.170 HD
BRANCH  14  17
ATOM     17  C   UNL A   1      33.163  25.975  24.208  1.00  0.00     0.110 C 
ATOM     18  C   UNL A   1      31.350  27.690  23.732  1.00  0.00     0.039 C 
ATOM     19  C   UNL A   1      32.828  27.457  24.016  1.00  0.00     0.127 C 
ATOM     20  O   UNL A   1      33.118  28.116  25.277  1.00  0.00    -0.378 OA
ATOM     21  C   UNL A   1      33.304  27.094  26.262  1.00  0.00     0.161 C 
ATOM     22  C   UNL A   1      33.966  25.993  25.480  1.00  0.00     0.044 C 
ENDBRANCH  14  17
ENDBRANCH   6  13
ENDBRANCH   3   5
ENDBRANCH   2   3
ENDBRANCH   1   2
BRANCH   1  23
ATOM     23  C   UNL A   1      38.630  23.449  26.205  1.00  0.00     0.275 C 
BRANCH  23  24
ATOM     24  O   UNL A   1      38.966  24.557  27.055  1.00  0.00    -0.458 OA
BRANCH  24  25
ATOM     25  C   UNL A   1      40.230  24.426  27.509  1.00  0.00     0.338 C 
ATOM     26  O   UNL A   1      40.778  23.374  27.816  1.00  0.00    -0.246 OA
BRANCH  25  27
ATOM     27  C   UNL A   1      40.985  25.683  27.584  1.00  0.00     0.060 A 
ATOM     28  C   UNL A   1      41.719  25.926  28.745  1.00  0.00     0.016 A 
ATOM     29  C   UNL A   1      40.377  26.727  26.885  1.00  0.00     0.016 A 
ATOM     30  C   UNL A   1      41.543  27.144  29.394  1.00  0.00     0.010 A 
ATOM     31  C   UNL A   1      40.244  27.949  27.509  1.00  0.00     0.010 A 
ATOM     32  C   UNL A   1      40.712  28.111  28.821  1.00  0.00    -0.014 A 
BRANCH  32  33
ATOM     33  C   UNL A   1      40.437  29.378  29.519  1.00  0.00     0.031 A 
ATOM     34  C   UNL A   1      41.557  30.366  29.490  1.00  0.00     0.074 A 
ATOM     35  C   UNL A   1      39.162  29.693  29.858  1.00  0.00     0.049 A 
ATOM     36  N   UNL A   1      41.837  31.318  30.324  1.00  0.00    -0.248 NA
ATOM     37  C   UNL A   1      42.528  30.243  28.380  1.00  0.00     0.031 C 
ATOM     38  C   UNL A   1      37.990  28.814  29.718  1.00  0.00     0.029 A 
ATOM     39  N   UNL A   1      38.599  30.904  30.180  1.00  0.00    -0.354 N 
ATOM     40  C   UNL A   1      42.901  32.013  29.748  1.00  0.00     0.074 A 
ATOM     41  C   UNL A   1      43.372  31.234  28.636  1.00  0.00     0.031 C 
ATOM     42  C   UNL A   1      36.876  29.570  29.657  1.00  0.00     0.029 A 
ATOM     43  C   UNL A   1      37.248  30.964  29.828  1.00  0.00     0.049 A 
ATOM     44  H   UNL A   1      39.090  31.642  30.609  1.00  0.00     0.167 HD
ATOM     45  C   UNL A   1      43.147  33.322  30.007  1.00  0.00     0.031 A 
ATOM     46  C   UNL A   1      36.500  32.062  29.554  1.00  0.00     0.031 A 
ATOM     47  C   UNL A   1      42.688  33.736  31.297  1.00  0.00     0.049 A 
ATOM     48  C   UNL A   1      37.226  33.256  30.025  1.00  0.00     0.074 A 
ATOM     49  C   UNL A   1      42.960  33.360  32.596  1.00  0.00     0.029 A 
ATOM     50  N   UNL A   1      41.569  34.526  31.350  1.00  0.00    -0.354 N 
ATOM     51  N   UNL A   1      37.367  33.589  31.273  1.00  0.00    -0.248 NA
ATOM     52  C   UNL A   1      38.085  33.966  29.089  1.00  0.00     0.031 C 
ATOM     53  C   UNL A   1      41.763  33.608  33.321  1.00  0.00     0.029 A 
ATOM     54  C   UNL A   1      40.825  34.131  32.429  1.00  0.00     0.049 A 
ATOM     55  H   UNL A   1      41.342  35.249  30.722  1.00  0.00     0.167 HD
ATOM     56  C   UNL A   1      38.603  34.210  31.329  1.00  0.00     0.074 A 
ATOM     57  C   UNL A   1      38.918  34.555  29.949  1.00  0.00     0.031 C 
ATOM     58  C   UNL A   1      39.381  34.112  32.447  1.00  0.00     0.031 A 
BRANCH  45  59
ATOM     59  C   UNL A   1      43.402  34.294  28.879  1.00  0.00    -0.014 A 
ATOM     60  C   UNL A   1      42.371  35.146  28.457  1.00  0.00     0.009 A 
ATOM     61  C   UNL A   1      44.528  34.193  28.033  1.00  0.00     0.009 A 
ATOM     62  C   UNL A   1      42.445  35.819  27.231  1.00  0.00     0.001 A 
ATOM     63  C   UNL A   1      44.627  34.898  26.833  1.00  0.00     0.001 A 
ATOM     64  C   UNL A   1      43.569  35.692  26.419  1.00  0.00     0.000 A 
ENDBRANCH  45  59
BRANCH  46  65
ATOM     65  C   UNL A   1      35.300  32.184  28.689  1.00  0.00    -0.014 A 
ATOM     66  C   UNL A   1      34.809  31.072  27.984  1.00  0.00     0.009 A 
ATOM     67  C   UNL A   1      34.494  33.338  28.719  1.00  0.00     0.009 A 
ATOM     68  C   UNL A   1      33.557  31.109  27.354  1.00  0.00     0.001 A 
ATOM     69  C   UNL A   1      33.252  33.382  28.076  1.00  0.00     0.001 A 
ATOM     70  C   UNL A   1      32.777  32.261  27.405  1.00  0.00     0.000 A 
ENDBRANCH  46  65
BRANCH  58  71
ATOM     71  C   UNL A   1      38.728  33.635  33.718  1.00  0.00    -0.014 A 
ATOM     72  C   UNL A   1      38.456  32.279  33.973  1.00  0.00     0.009 A 
ATOM     73  C   UNL A   1      38.504  34.565  34.745  1.00  0.00     0.009 A 
ATOM     74  C   UNL A   1      37.936  31.872  35.204  1.00  0.00     0.001 A 
ATOM     75  C   UNL A   1      38.011  34.154  35.985  1.00  0.00     0.001 A 
ATOM     76  C   UNL A   1      37.720  32.810  36.210  1.00  0.00     0.000 A 
ENDBRANCH  58  71
ENDBRANCH  32  33
ENDBRANCH  25  27
ENDBRANCH  24  25
ENDBRANCH  23  24
ENDBRANCH   1  23
TORSDOF 13
ENDMDL
MODEL 3
REMARK VINA RESULT:     -11.8      1.211      2.968
REMARK SMILES C[C@H]1OCC[C@@H]1C(=O)Nc1sc2c(c1C(=O)OCCOC(=O)c1ccc(-c3c4nc(c(-c5ccccc5)c5ccc([nH]5)c(-c5ccccc5)c5nc(c(-c6ccccc6)c6ccc3[nH]6)C=C5)C=C4)cc1)CCC2
REMARK SMILES IDX 18 1 17 2 15 3 16 4 14 5 10 6 11 7 12 8 13 9 73 10 71 11
REMARK SMILES IDX 72 12 9 13 7 14 8 15 6 17 1 18 2 19 3 20 4 21 5 22 19 23
REMARK SMILES IDX 20 24 21 25 22 26 23 27 24 28 70 29 25 30 69 31 26 32 27 33
REMARK SMILES IDX 28 34 63 35 29 36 68 37 62 38 64 39 30 40 67 41 61 42 60 43
REMARK SMILES IDX 31 45 53 46 38 47 52 48 39 49 42 50 51 51 65 52 40 53 41 54
REMARK SMILES IDX 50 56 66 57 43 58 32 59 33 60 37 61 34 62 36 63 35 64 54 65
REMARK SMILES IDX 55 66 59 67 56 68 58 69 57 70 44 71 45 72 49 73 46 74 48 75
REMARK SMILES IDX 47 76
REMARK H PARENT 9 16 64 44 42 55
REMARK Flexibility Score: inf
ROOT
ATOM      1  C   UNL A   1      33.570  28.846  27.238  1.00  0.00     0.275 C 
ENDROOT
BRANCH   1   2
ATOM      2  O   UNL A   1      33.431  27.532  26.659  1.00  0.00    -0.458 OA
BRANCH   2   3
ATOM      3  C   UNL A   1      32.204  26.943  26.812  1.00  0.00     0.341 C 
ATOM      4  O   UNL A   1      31.278  27.443  27.418  1.00  0.00    -0.246 OA
BRANCH   3   5
ATOM      5  C   UNL A   1      32.113  25.652  26.129  1.00  0.00     0.098 A 
ATOM      6  C   UNL A   1      30.907  25.122  25.685  1.00  0.00     0.110 A 
ATOM      7  S   UNL A   1      30.997  23.489  25.177  1.00  0.00    -0.122 S 
ATOM      8  C   UNL A   1      32.652  23.644  25.073  1.00  0.00     0.011 A 
ATOM      9  C   UNL A   1      33.141  24.819  25.587  1.00  0.00    -0.017 A 
ATOM     10  C   UNL A   1      33.657  22.811  24.377  1.00  0.00     0.047 C 
ATOM     11  C   UNL A   1      34.592  24.946  25.279  1.00  0.00     0.038 C 
ATOM     12  C   UNL A   1      34.771  23.873  24.151  1.00  0.00     0.010 C 
BRANCH   6  13
ATOM     13  N   UNL A   1      29.674  25.695  25.488  1.00  0.00    -0.317 N 
ATOM     14  C   UNL A   1      29.413  26.445  24.365  1.00  0.00     0.230 C 
ATOM     15  O   UNL A   1      28.284  26.317  23.873  1.00  0.00    -0.274 OA
ATOM     16  H   UNL A   1      28.966  25.567  26.160  1.00  0.00     0.170 HD
BRANCH  14  17
ATOM     17  C   UNL A   1      30.355  27.503  23.773  1.00  0.00     0.110 C 
ATOM     18  C   UNL A   1      29.173  29.735  23.498  1.00  0.00     0.039 C 
ATOM     19  C   UNL A   1      29.678  28.476  22.804  1.00  0.00     0.127 C 
ATOM     20  O   UNL A   1      30.697  28.901  21.861  1.00  0.00    -0.378 OA
ATOM     21  C   UNL A   1      31.964  28.490  22.386  1.00  0.00     0.161 C 
ATOM     22  C   UNL A   1      31.640  27.186  23.059  1.00  0.00     0.044 C 
ENDBRANCH  14  17
ENDBRANCH   6  13
ENDBRANCH   3   5
ENDBRANCH   2   3
ENDBRANCH   1   2
BRANCH   1  23
ATOM     23  C   UNL A   1      34.944  29.433  26.948  1.00  0.00     0.275 C 
BRANCH  23  24
ATOM     24  O   UNL A   1      35.886  29.129  27.988  1.00  0.00    -0.458 OA
BRANCH  24  25
ATOM     25  C   UNL A   1      36.281  30.265  28.602  1.00  0.00     0.338 C 
ATOM     26  O   UNL A   1      35.739  31.360  28.506  1.00  0.00    -0.246 OA
BRANCH  25  27
ATOM     27  C   UNL A   1      37.444  30.109  29.484  1.00  0.00     0.060 A 
ATOM     28  C   UNL A   1      38.620  30.769  29.123  1.00  0.00     0.016 A 
ATOM     29  C   UNL A   1      37.483  28.869  30.124  1.00  0.00     0.016 A 
ATOM     30  C   UNL A   1      39.801  30.034  29.077  1.00  0.00     0.010 A 
ATOM     31  C   UNL A   1      38.665  28.161  30.120  1.00  0.00     0.010 A 
ATOM     32  C   UNL A   1      39.789  28.694  29.473  1.00  0.00    -0.014 A 
BRANCH  32  33
ATOM     33  C   UNL A   1      41.000  27.864  29.360  1.00  0.00     0.031 A 
ATOM     34  C   UNL A   1      41.840  27.808  30.594  1.00  0.00     0.074 A 
ATOM     35  C   UNL A   1      41.123  26.999  28.323  1.00  0.00     0.049 A 
ATOM     36  N   UNL A   1      43.111  27.584  30.716  1.00  0.00    -0.248 NA
ATOM     37  C   UNL A   1      41.159  28.081  31.879  1.00  0.00     0.031 C 
ATOM     38  C   UNL A   1      40.205  26.885  27.180  1.00  0.00     0.029 A 
ATOM     39  N   UNL A   1      41.940  25.905  28.169  1.00  0.00    -0.354 N 
ATOM     40  C   UNL A   1      43.344  27.512  32.089  1.00  0.00     0.074 A 
ATOM     41  C   UNL A   1      42.150  27.959  32.752  1.00  0.00     0.031 C 
ATOM     42  C   UNL A   1      40.320  25.656  26.641  1.00  0.00     0.029 A 
ATOM     43  C   UNL A   1      41.363  24.932  27.347  1.00  0.00     0.049 A 
ATOM     44  H   UNL A   1      42.827  25.817  28.587  1.00  0.00     0.167 HD
ATOM     45  C   UNL A   1      44.374  26.806  32.622  1.00  0.00     0.031 A 
ATOM     46  C   UNL A   1      41.607  23.598  27.327  1.00  0.00     0.031 A 
ATOM     47  C   UNL A   1      45.493  26.691  31.739  1.00  0.00     0.049 A 
ATOM     48  C   UNL A   1      42.854  23.335  28.070  1.00  0.00     0.074 A 
ATOM     49  C   UNL A   1      46.341  27.585  31.118  1.00  0.00     0.029 A 
ATOM     50  N   UNL A   1      45.715  25.475  31.148  1.00  0.00    -0.354 N 
ATOM     51  N   UNL A   1      44.044  23.622  27.637  1.00  0.00    -0.248 NA
ATOM     52  C   UNL A   1      42.767  23.003  29.484  1.00  0.00     0.031 C 
ATOM     53  C   UNL A   1      46.742  26.950  29.910  1.00  0.00     0.029 A 
ATOM     54  C   UNL A   1      46.125  25.699  29.862  1.00  0.00     0.049 A 
ATOM     55  H   UNL A   1      45.598  24.595  31.575  1.00  0.00     0.167 HD
ATOM     56  C   UNL A   1      44.764  23.930  28.780  1.00  0.00     0.074 A 
ATOM     57  C   UNL A   1      43.984  23.379  29.880  1.00  0.00     0.031 C 
ATOM     58  C   UNL A   1      45.763  24.859  28.743  1.00  0.00     0.031 A 
BRANCH  45  59
ATOM     59  C   UNL A   1      44.140  25.856  33.774  1.00  0.00    -0.014 A 
ATOM     60  C   UNL A   1      44.571  26.215  35.060  1.00  0.00     0.009 A 
ATOM     61  C   UNL A   1      43.774  24.507  33.580  1.00  0.00     0.009 A 
ATOM     62  C   UNL A   1      44.676  25.260  36.080  1.00  0.00     0.001 A 
ATOM     63  C   UNL A   1      43.832  23.562  34.606  1.00  0.00     0.001 A 
ATOM     64  C   UNL A   1      44.310  23.936  35.851  1.00  0.00     0.000 A 
ENDBRANCH  45  59
BRANCH  46  65
ATOM     65  C   UNL A   1      40.711  22.489  26.916  1.00  0.00    -0.014 A 
ATOM     66  C   UNL A   1      39.395  22.750  26.496  1.00  0.00     0.009 A 
ATOM     67  C   UNL A   1      41.205  21.186  26.720  1.00  0.00     0.009 A 
ATOM     68  C   UNL A   1      38.617  21.753  25.889  1.00  0.00     0.001 A 
ATOM     69  C   UNL A   1      40.424  20.186  26.129  1.00  0.00     0.001 A 
ATOM     70  C   UNL A   1      39.134  20.474  25.701  1.00  0.00     0.000 A 
ENDBRANCH  46  65
BRANCH  58  71
ATOM     71  C   UNL A   1      46.296  25.266  27.394  1.00  0.00    -0.014 A 
ATOM     72  C   UNL A   1      45.648  26.201  26.568  1.00  0.00     0.009 A 
ATOM     73  C   UNL A   1      47.559  24.793  27.004  1.00  0.00     0.009 A 
ATOM     74  C   UNL A   1      46.228  26.618  25.368  1.00  0.00     0.001 A 
ATOM     75  C   UNL A   1      48.150  25.232  25.818  1.00  0.00     0.001 A 
ATOM     76  C   UNL A   1      47.481  26.137  24.997  1.00  0.00     0.000 A 
ENDBRANCH  58  71
ENDBRANCH  32  33
ENDBRANCH  25  27
ENDBRANCH  24  25
ENDBRANCH  23  24
ENDBRANCH   1  23
TORSDOF 13
ENDMDL
