MODEL 1
REMARK VINA RESULT:     -10.8      0.000      0.000
REMARK SMILES O=C(C[C@H]1C[C@H]2CC[C@@H](C1)N2C(=O)c1c[nH]c(=O)[nH]1)OCCOC(=O)c1ccc(-c2c3nc(c(-c4ccccc4)c4ccc([nH]4)c(-c4ccccc4)c4nc(c(-c5ccccc5)c5ccc2[nH]5)C=C4)C=C3)cc1
REMARK SMILES IDX 21 1 20 2 2 3 1 4 3 5 4 6 5 7 10 8 6 9 9 10 7 11 11 12 8 13
REMARK SMILES IDX 12 14 13 15 14 16 15 17 19 18 16 19 17 20 18 23 22 24 23 25
REMARK SMILES IDX 24 26 25 27 26 28 27 29 73 30 28 31 72 32 29 33 30 34 31 35
REMARK SMILES IDX 66 36 32 37 71 38 65 39 67 40 33 41 70 42 64 43 63 44 34 46
REMARK SMILES IDX 56 47 41 48 55 49 42 50 45 51 54 52 68 53 43 54 44 55 53 57
REMARK SMILES IDX 69 58 46 59 35 60 36 61 40 62 37 63 39 64 38 65 57 66 58 67
REMARK SMILES IDX 62 68 59 69 61 70 60 71 47 72 48 73 52 74 49 75 51 76 50 77
REMARK H PARENT 19 21 16 22 67 45 45 56
REMARK Flexibility Score: inf
ROOT
ATOM      1  C   UNL A   1      32.428  30.067  25.769  1.00  0.00     0.274 C 
ENDROOT
BRANCH   1   2
ATOM      2  O   UNL A   1      31.521  28.975  26.032  1.00  0.00    -0.462 OA
BRANCH   2   3
ATOM      3  C   UNL A   1      31.785  27.936  26.859  1.00  0.00     0.306 C 
ATOM      4  O   UNL A   1      31.133  27.791  27.890  1.00  0.00    -0.252 OA
BRANCH   3   5
ATOM      5  C   UNL A   1      32.854  26.936  26.474  1.00  0.00     0.126 C 
BRANCH   5   6
ATOM      6  C   UNL A   1      32.477  25.826  25.476  1.00  0.00     0.004 C 
ATOM      7  C   UNL A   1      33.448  25.672  24.266  1.00  0.00     0.029 C 
ATOM      8  C   UNL A   1      32.089  24.481  26.124  1.00  0.00     0.029 C 
ATOM      9  C   UNL A   1      34.317  24.398  24.286  1.00  0.00     0.086 C 
ATOM     10  C   UNL A   1      33.152  23.382  26.020  1.00  0.00     0.086 C 
ATOM     11  C   UNL A   1      35.282  24.429  25.474  1.00  0.00     0.027 C 
ATOM     12  N   UNL A   1      33.465  23.267  24.610  1.00  0.00    -0.331 N 
ATOM     13  C   UNL A   1      34.534  23.682  26.592  1.00  0.00     0.027 C 
BRANCH  12  14
ATOM     14  C   UNL A   1      33.165  22.223  23.771  1.00  0.00     0.272 C 
ATOM     15  O   UNL A   1      32.878  22.344  22.586  1.00  0.00    -0.267 OA
BRANCH  14  16
ATOM     16  C   UNL A   1      33.275  20.886  24.400  1.00  0.00     0.125 A 
ATOM     17  C   UNL A   1      34.402  20.236  24.725  1.00  0.00     0.119 A 
ATOM     18  N   UNL A   1      32.208  20.033  24.553  1.00  0.00    -0.302 N 
ATOM     19  N   UNL A   1      34.072  18.949  25.072  1.00  0.00    -0.312 N 
ATOM     20  C   UNL A   1      32.682  18.786  24.966  1.00  0.00     0.323 A 
ATOM     21  H   UNL A   1      31.263  20.263  24.396  1.00  0.00     0.172 HD
ATOM     22  H   UNL A   1      34.707  18.252  25.351  1.00  0.00     0.171 HD
ATOM     23  O   UNL A   1      32.042  17.766  25.155  1.00  0.00    -0.248 OA
ENDBRANCH  14  16
ENDBRANCH  12  14
ENDBRANCH   5   6
ENDBRANCH   3   5
ENDBRANCH   2   3
ENDBRANCH   1   2
BRANCH   1  24
ATOM     24  C   UNL A   1      32.883  30.744  27.063  1.00  0.00     0.275 C 
BRANCH  24  25
ATOM     25  O   UNL A   1      34.150  30.209  27.481  1.00  0.00    -0.458 OA
BRANCH  25  26
ATOM     26  C   UNL A   1      34.835  30.948  28.395  1.00  0.00     0.338 C 
ATOM     27  O   UNL A   1      34.392  31.852  29.083  1.00  0.00    -0.246 OA
BRANCH  26  28
ATOM     28  C   UNL A   1      36.170  30.335  28.579  1.00  0.00     0.060 A 
ATOM     29  C   UNL A   1      36.456  29.702  29.796  1.00  0.00     0.016 A 
ATOM     30  C   UNL A   1      37.109  30.322  27.544  1.00  0.00     0.016 A 
ATOM     31  C   UNL A   1      37.675  29.043  29.977  1.00  0.00     0.010 A 
ATOM     32  C   UNL A   1      38.340  29.690  27.737  1.00  0.00     0.010 A 
ATOM     33  C   UNL A   1      38.634  29.058  28.957  1.00  0.00    -0.014 A 
BRANCH  33  34
ATOM     34  C   UNL A   1      40.011  28.577  29.215  1.00  0.00     0.031 A 
ATOM     35  C   UNL A   1      40.981  29.520  29.868  1.00  0.00     0.074 A 
ATOM     36  C   UNL A   1      40.407  27.343  28.855  1.00  0.00     0.049 A 
ATOM     37  N   UNL A   1      42.252  29.354  30.126  1.00  0.00    -0.248 NA
ATOM     38  C   UNL A   1      40.445  30.828  30.282  1.00  0.00     0.031 C 
ATOM     39  C   UNL A   1      39.558  26.315  28.255  1.00  0.00     0.029 A 
ATOM     40  N   UNL A   1      41.645  26.752  28.936  1.00  0.00    -0.354 N 
ATOM     41  C   UNL A   1      42.668  30.533  30.732  1.00  0.00     0.074 A 
ATOM     42  C   UNL A   1      41.522  31.415  30.782  1.00  0.00     0.031 C 
ATOM     43  C   UNL A   1      40.308  25.226  28.003  1.00  0.00     0.029 A 
ATOM     44  C   UNL A   1      41.692  25.491  28.394  1.00  0.00     0.049 A 
ATOM     45  H   UNL A   1      42.426  27.192  29.344  1.00  0.00     0.167 HD
ATOM     46  C   UNL A   1      43.894  30.854  31.206  1.00  0.00     0.031 A 
ATOM     47  C   UNL A   1      42.738  24.660  28.213  1.00  0.00     0.031 A 
ATOM     48  C   UNL A   1      45.043  29.995  31.136  1.00  0.00     0.049 A 
ATOM     49  C   UNL A   1      44.115  25.087  28.659  1.00  0.00     0.074 A 
ATOM     50  C   UNL A   1      46.323  30.233  31.606  1.00  0.00     0.029 A 
ATOM     51  N   UNL A   1      45.057  28.743  30.545  1.00  0.00    -0.354 N 
ATOM     52  N   UNL A   1      44.486  26.184  29.275  1.00  0.00    -0.248 NA
ATOM     53  C   UNL A   1      45.221  24.155  28.384  1.00  0.00     0.031 C 
ATOM     54  C   UNL A   1      47.128  29.151  31.240  1.00  0.00     0.029 A 
ATOM     55  C   UNL A   1      46.335  28.213  30.602  1.00  0.00     0.049 A 
ATOM     56  H   UNL A   1      44.276  28.297  30.144  1.00  0.00     0.167 HD
ATOM     57  C   UNL A   1      45.855  26.058  29.486  1.00  0.00     0.074 A 
ATOM     58  C   UNL A   1      46.247  24.773  28.951  1.00  0.00     0.031 C 
ATOM     59  C   UNL A   1      46.713  26.931  30.068  1.00  0.00     0.031 A 
BRANCH  46  60
ATOM     60  C   UNL A   1      44.064  32.217  31.811  1.00  0.00    -0.014 A 
ATOM     61  C   UNL A   1      43.884  32.429  33.187  1.00  0.00     0.009 A 
ATOM     62  C   UNL A   1      44.464  33.289  31.001  1.00  0.00     0.009 A 
ATOM     63  C   UNL A   1      44.081  33.697  33.735  1.00  0.00     0.001 A 
ATOM     64  C   UNL A   1      44.686  34.550  31.556  1.00  0.00     0.001 A 
ATOM     65  C   UNL A   1      44.489  34.754  32.921  1.00  0.00     0.000 A 
ENDBRANCH  46  60
BRANCH  47  66
ATOM     66  C   UNL A   1      42.555  23.346  27.537  1.00  0.00    -0.014 A 
ATOM     67  C   UNL A   1      42.763  23.215  26.154  1.00  0.00     0.009 A 
ATOM     68  C   UNL A   1      42.097  22.233  28.259  1.00  0.00     0.009 A 
ATOM     69  C   UNL A   1      42.474  22.012  25.506  1.00  0.00     0.001 A 
ATOM     70  C   UNL A   1      41.841  21.022  27.613  1.00  0.00     0.001 A 
ATOM     71  C   UNL A   1      42.016  20.916  26.234  1.00  0.00     0.000 A 
ENDBRANCH  47  66
BRANCH  59  72
ATOM     72  C   UNL A   1      48.155  26.517  30.190  1.00  0.00    -0.014 A 
ATOM     73  C   UNL A   1      49.102  26.876  29.220  1.00  0.00     0.009 A 
ATOM     74  C   UNL A   1      48.579  25.800  31.321  1.00  0.00     0.009 A 
ATOM     75  C   UNL A   1      50.439  26.501  29.364  1.00  0.00     0.001 A 
ATOM     76  C   UNL A   1      49.921  25.452  31.478  1.00  0.00     0.001 A 
ATOM     77  C   UNL A   1      50.849  25.795  30.495  1.00  0.00     0.000 A 
ENDBRANCH  59  72
ENDBRANCH  33  34
ENDBRANCH  26  28
ENDBRANCH  25  26
ENDBRANCH  24  25
ENDBRANCH   1  24
TORSDOF 14
ENDMDL
MODEL 2
REMARK VINA RESULT:     -10.7      2.558      3.386
REMARK SMILES O=C(C[C@H]1C[C@H]2CC[C@@H](C1)N2C(=O)c1c[nH]c(=O)[nH]1)OCCOC(=O)c1ccc(-c2c3nc(c(-c4ccccc4)c4ccc([nH]4)c(-c4ccccc4)c4nc(c(-c5ccccc5)c5ccc2[nH]5)C=C4)C=C3)cc1
REMARK SMILES IDX 21 1 20 2 2 3 1 4 3 5 4 6 5 7 10 8 6 9 9 10 7 11 11 12 8 13
REMARK SMILES IDX 12 14 13 15 14 16 15 17 19 18 16 19 17 20 18 23 22 24 23 25
REMARK SMILES IDX 24 26 25 27 26 28 27 29 73 30 28 31 72 32 29 33 30 34 31 35
REMARK SMILES IDX 66 36 32 37 71 38 65 39 67 40 33 41 70 42 64 43 63 44 34 46
REMARK SMILES IDX 56 47 41 48 55 49 42 50 45 51 54 52 68 53 43 54 44 55 53 57
REMARK SMILES IDX 69 58 46 59 35 60 36 61 40 62 37 63 39 64 38 65 57 66 58 67
REMARK SMILES IDX 62 68 59 69 61 70 60 71 47 72 48 73 52 74 49 75 51 76 50 77
REMARK H PARENT 19 21 16 22 67 45 45 56
REMARK Flexibility Score: inf
ROOT
ATOM      1  C   UNL A   1      33.294  34.176  28.635  1.00  0.00     0.274 C 
ENDROOT
BRANCH   1   2
ATOM      2  O   UNL A   1      33.573  32.976  27.881  1.00  0.00    -0.462 OA
BRANCH   2   3
ATOM      3  C   UNL A   1      32.638  32.232  27.244  1.00  0.00     0.306 C 
ATOM      4  O   UNL A   1      31.573  32.743  26.906  1.00  0.00    -0.252 OA
BRANCH   3   5
ATOM      5  C   UNL A   1      32.941  30.787  26.913  1.00  0.00     0.126 C 
BRANCH   5   6
ATOM      6  C   UNL A   1      31.764  29.875  26.521  1.00  0.00     0.004 C 
ATOM      7  C   UNL A   1      31.561  29.686  24.986  1.00  0.00     0.029 C 
ATOM      8  C   UNL A   1      31.676  28.557  27.316  1.00  0.00     0.029 C 
ATOM      9  C   UNL A   1      31.918  28.284  24.450  1.00  0.00     0.086 C 
ATOM     10  C   UNL A   1      32.115  27.306  26.548  1.00  0.00     0.086 C 
ATOM     11  C   UNL A   1      33.416  28.016  24.614  1.00  0.00     0.027 C 
ATOM     12  N   UNL A   1      31.328  27.292  25.332  1.00  0.00    -0.331 N 
ATOM     13  C   UNL A   1      33.528  27.295  25.969  1.00  0.00     0.027 C 
BRANCH  12  14
ATOM     14  C   UNL A   1      30.327  26.415  24.996  1.00  0.00     0.272 C 
ATOM     15  O   UNL A   1      29.437  26.652  24.189  1.00  0.00    -0.267 OA
BRANCH  14  16
ATOM     16  C   UNL A   1      30.434  25.091  25.652  1.00  0.00     0.125 A 
ATOM     17  C   UNL A   1      31.111  24.021  25.208  1.00  0.00     0.119 A 
ATOM     18  N   UNL A   1      29.667  24.717  26.729  1.00  0.00    -0.302 N 
ATOM     19  N   UNL A   1      30.770  22.943  25.986  1.00  0.00    -0.312 N 
ATOM     20  C   UNL A   1      29.846  23.352  26.960  1.00  0.00     0.323 A 
ATOM     21  H   UNL A   1      29.085  25.315  27.253  1.00  0.00     0.172 HD
ATOM     22  H   UNL A   1      31.117  22.028  25.879  1.00  0.00     0.171 HD
ATOM     23  O   UNL A   1      29.296  22.654  27.794  1.00  0.00    -0.248 OA
ENDBRANCH  14  16
ENDBRANCH  12  14
ENDBRANCH   5   6
ENDBRANCH   3   5
ENDBRANCH   2   3
ENDBRANCH   1   2
BRANCH   1  24
ATOM     24  C   UNL A   1      34.031  34.182  29.975  1.00  0.00     0.275 C 
BRANCH  24  25
ATOM     25  O   UNL A   1      35.243  33.414  29.876  1.00  0.00    -0.458 OA
BRANCH  25  26
ATOM     26  C   UNL A   1      35.441  32.490  30.854  1.00  0.00     0.338 C 
ATOM     27  O   UNL A   1      34.674  32.208  31.759  1.00  0.00    -0.246 OA
BRANCH  26  28
ATOM     28  C   UNL A   1      36.660  31.719  30.521  1.00  0.00     0.060 A 
ATOM     29  C   UNL A   1      37.406  31.159  31.567  1.00  0.00     0.016 A 
ATOM     30  C   UNL A   1      37.033  31.492  29.194  1.00  0.00     0.016 A 
ATOM     31  C   UNL A   1      38.517  30.358  31.288  1.00  0.00     0.010 A 
ATOM     32  C   UNL A   1      38.162  30.716  28.917  1.00  0.00     0.010 A 
ATOM     33  C   UNL A   1      38.916  30.156  29.962  1.00  0.00    -0.014 A 
BRANCH  33  34
ATOM     34  C   UNL A   1      40.216  29.515  29.658  1.00  0.00     0.031 A 
ATOM     35  C   UNL A   1      41.452  30.370  29.690  1.00  0.00     0.074 A 
ATOM     36  C   UNL A   1      40.304  28.213  29.335  1.00  0.00     0.049 A 
ATOM     37  N   UNL A   1      42.685  30.055  29.389  1.00  0.00    -0.248 NA
ATOM     38  C   UNL A   1      41.270  31.768  30.112  1.00  0.00     0.031 C 
ATOM     39  C   UNL A   1      39.193  27.263  29.308  1.00  0.00     0.029 A 
ATOM     40  N   UNL A   1      41.393  27.468  28.949  1.00  0.00    -0.354 N 
ATOM     41  C   UNL A   1      43.425  31.213  29.588  1.00  0.00     0.074 A 
ATOM     42  C   UNL A   1      42.502  32.244  30.009  1.00  0.00     0.031 C 
ATOM     43  C   UNL A   1      39.656  26.065  28.907  1.00  0.00     0.029 A 
ATOM     44  C   UNL A   1      41.085  26.171  28.618  1.00  0.00     0.049 A 
ATOM     45  H   UNL A   1      42.307  27.831  28.912  1.00  0.00     0.167 HD
ATOM     46  C   UNL A   1      44.756  31.404  29.433  1.00  0.00     0.031 A 
ATOM     47  C   UNL A   1      41.866  25.193  28.116  1.00  0.00     0.031 A 
ATOM     48  C   UNL A   1      45.676  30.393  28.988  1.00  0.00     0.049 A 
ATOM     49  C   UNL A   1      43.328  25.465  27.856  1.00  0.00     0.074 A 
ATOM     50  C   UNL A   1      47.046  30.494  28.818  1.00  0.00     0.029 A 
ATOM     51  N   UNL A   1      45.318  29.105  28.627  1.00  0.00    -0.354 N 
ATOM     52  N   UNL A   1      44.026  26.550  28.094  1.00  0.00    -0.248 NA
ATOM     53  C   UNL A   1      44.110  24.371  27.258  1.00  0.00     0.031 C 
ATOM     54  C   UNL A   1      47.508  29.285  28.290  1.00  0.00     0.029 A 
ATOM     55  C   UNL A   1      46.437  28.413  28.195  1.00  0.00     0.049 A 
ATOM     56  H   UNL A   1      44.406  28.737  28.670  1.00  0.00     0.167 HD
ATOM     57  C   UNL A   1      45.328  26.257  27.704  1.00  0.00     0.074 A 
ATOM     58  C   UNL A   1      45.330  24.889  27.232  1.00  0.00     0.031 C 
ATOM     59  C   UNL A   1      46.426  27.051  27.731  1.00  0.00     0.031 A 
BRANCH  46  60
ATOM     60  C   UNL A   1      45.294  32.777  29.712  1.00  0.00    -0.014 A 
ATOM     61  C   UNL A   1      45.336  33.758  28.710  1.00  0.00     0.009 A 
ATOM     62  C   UNL A   1      45.712  33.106  31.010  1.00  0.00     0.009 A 
ATOM     63  C   UNL A   1      45.808  35.040  28.999  1.00  0.00     0.001 A 
ATOM     64  C   UNL A   1      46.158  34.395  31.302  1.00  0.00     0.001 A 
ATOM     65  C   UNL A   1      46.212  35.359  30.296  1.00  0.00     0.000 A 
ENDBRANCH  46  60
BRANCH  47  66
ATOM     66  C   UNL A   1      41.290  23.864  27.772  1.00  0.00    -0.014 A 
ATOM     67  C   UNL A   1      41.670  22.712  28.480  1.00  0.00     0.009 A 
ATOM     68  C   UNL A   1      40.416  23.729  26.682  1.00  0.00     0.009 A 
ATOM     69  C   UNL A   1      41.220  21.452  28.077  1.00  0.00     0.001 A 
ATOM     70  C   UNL A   1      39.942  22.471  26.301  1.00  0.00     0.001 A 
ATOM     71  C   UNL A   1      40.356  21.332  26.990  1.00  0.00     0.000 A 
ENDBRANCH  47  66
BRANCH  59  72
ATOM     72  C   UNL A   1      47.730  26.456  27.269  1.00  0.00    -0.014 A 
ATOM     73  C   UNL A   1      48.174  26.609  25.947  1.00  0.00     0.009 A 
ATOM     74  C   UNL A   1      48.548  25.778  28.187  1.00  0.00     0.009 A 
ATOM     75  C   UNL A   1      49.398  26.068  25.546  1.00  0.00     0.001 A 
ATOM     76  C   UNL A   1      49.783  25.265  27.791  1.00  0.00     0.001 A 
ATOM     77  C   UNL A   1      50.204  25.402  26.469  1.00  0.00     0.000 A 
ENDBRANCH  59  72
ENDBRANCH  33  34
ENDBRANCH  26  28
ENDBRANCH  25  26
ENDBRANCH  24  25
ENDBRANCH   1  24
TORSDOF 14
ENDMDL
MODEL 3
REMARK VINA RESULT:     -10.7      1.491      2.230
REMARK SMILES O=C(C[C@H]1C[C@H]2CC[C@@H](C1)N2C(=O)c1c[nH]c(=O)[nH]1)OCCOC(=O)c1ccc(-c2c3nc(c(-c4ccccc4)c4ccc([nH]4)c(-c4ccccc4)c4nc(c(-c5ccccc5)c5ccc2[nH]5)C=C4)C=C3)cc1
REMARK SMILES IDX 21 1 20 2 2 3 1 4 3 5 4 6 5 7 10 8 6 9 9 10 7 11 11 12 8 13
REMARK SMILES IDX 12 14 13 15 14 16 15 17 19 18 16 19 17 20 18 23 22 24 23 25
REMARK SMILES IDX 24 26 25 27 26 28 27 29 73 30 28 31 72 32 29 33 30 34 31 35
REMARK SMILES IDX 66 36 32 37 71 38 65 39 67 40 33 41 70 42 64 43 63 44 34 46
REMARK SMILES IDX 56 47 41 48 55 49 42 50 45 51 54 52 68 53 43 54 44 55 53 57
REMARK SMILES IDX 69 58 46 59 35 60 36 61 40 62 37 63 39 64 38 65 57 66 58 67
REMARK SMILES IDX 62 68 59 69 61 70 60 71 47 72 48 73 52 74 49 75 51 76 50 77
REMARK H PARENT 19 21 16 22 67 45 45 56
REMARK Flexibility Score: inf
ROOT
ATOM      1  C   UNL A   1      31.838  29.386  26.080  1.00  0.00     0.274 C 
ENDROOT
BRANCH   1   2
ATOM      2  O   UNL A   1      31.171  29.761  24.856  1.00  0.00    -0.462 OA
BRANCH   2   3
ATOM      3  C   UNL A   1      30.807  28.895  23.881  1.00  0.00     0.306 C 
ATOM      4  O   UNL A   1      30.614  29.304  22.738  1.00  0.00    -0.252 OA
BRANCH   3   5
ATOM      5  C   UNL A   1      30.686  27.422  24.205  1.00  0.00     0.126 C 
BRANCH   5   6
ATOM      6  C   UNL A   1      31.620  26.443  23.470  1.00  0.00     0.004 C 
ATOM      7  C   UNL A   1      33.131  26.829  23.499  1.00  0.00     0.029 C 
ATOM      8  C   UNL A   1      31.364  24.954  23.775  1.00  0.00     0.029 C 
ATOM      9  C   UNL A   1      34.018  25.924  24.379  1.00  0.00     0.086 C 
ATOM     10  C   UNL A   1      32.392  24.296  24.701  1.00  0.00     0.086 C 
ATOM     11  C   UNL A   1      33.621  26.057  25.851  1.00  0.00     0.027 C 
ATOM     12  N   UNL A   1      33.684  24.539  24.093  1.00  0.00    -0.331 N 
ATOM     13  C   UNL A   1      32.605  24.924  26.076  1.00  0.00     0.027 C 
BRANCH  12  14
ATOM     14  C   UNL A   1      34.516  23.619  23.505  1.00  0.00     0.272 C 
ATOM     15  O   UNL A   1      34.524  23.353  22.310  1.00  0.00    -0.267 OA
BRANCH  14  16
ATOM     16  C   UNL A   1      35.482  22.991  24.437  1.00  0.00     0.125 A 
ATOM     17  C   UNL A   1      35.210  22.104  25.406  1.00  0.00     0.119 A 
ATOM     18  N   UNL A   1      36.788  23.399  24.561  1.00  0.00    -0.302 N 
ATOM     19  N   UNL A   1      36.336  21.949  26.176  1.00  0.00    -0.312 N 
ATOM     20  C   UNL A   1      37.357  22.766  25.668  1.00  0.00     0.323 A 
ATOM     21  H   UNL A   1      37.248  24.036  23.966  1.00  0.00     0.172 HD
ATOM     22  H   UNL A   1      36.415  21.359  26.959  1.00  0.00     0.171 HD
ATOM     23  O   UNL A   1      38.478  22.915  26.121  1.00  0.00    -0.248 OA
ENDBRANCH  14  16
ENDBRANCH  12  14
ENDBRANCH   5   6
ENDBRANCH   3   5
ENDBRANCH   2   3
ENDBRANCH   1   2
BRANCH   1  24
ATOM     24  C   UNL A   1      33.324  29.747  26.045  1.00  0.00     0.275 C 
BRANCH  24  25
ATOM     25  O   UNL A   1      33.936  29.442  27.310  1.00  0.00    -0.458 OA
BRANCH  25  26
ATOM     26  C   UNL A   1      34.554  30.479  27.936  1.00  0.00     0.338 C 
ATOM     27  O   UNL A   1      34.038  31.517  28.312  1.00  0.00    -0.246 OA
BRANCH  26  28
ATOM     28  C   UNL A   1      35.930  30.056  28.283  1.00  0.00     0.060 A 
ATOM     29  C   UNL A   1      36.924  30.127  27.298  1.00  0.00     0.016 A 
ATOM     30  C   UNL A   1      36.257  29.656  29.582  1.00  0.00     0.016 A 
ATOM     31  C   UNL A   1      38.249  29.813  27.610  1.00  0.00     0.010 A 
ATOM     32  C   UNL A   1      37.577  29.313  29.886  1.00  0.00     0.010 A 
ATOM     33  C   UNL A   1      38.576  29.378  28.900  1.00  0.00    -0.014 A 
BRANCH  33  34
ATOM     34  C   UNL A   1      39.917  28.817  29.185  1.00  0.00     0.031 A 
ATOM     35  C   UNL A   1      40.931  29.703  29.852  1.00  0.00     0.074 A 
ATOM     36  C   UNL A   1      40.245  27.559  28.837  1.00  0.00     0.049 A 
ATOM     37  N   UNL A   1      42.185  29.462  30.133  1.00  0.00    -0.248 NA
ATOM     38  C   UNL A   1      40.466  31.042  30.250  1.00  0.00     0.031 C 
ATOM     39  C   UNL A   1      39.347  26.581  28.225  1.00  0.00     0.029 A 
ATOM     40  N   UNL A   1      41.444  26.896  28.942  1.00  0.00    -0.354 N 
ATOM     41  C   UNL A   1      42.659  30.617  30.742  1.00  0.00     0.074 A 
ATOM     42  C   UNL A   1      41.568  31.566  30.768  1.00  0.00     0.031 C 
ATOM     43  C   UNL A   1      40.034  25.448  27.990  1.00  0.00     0.029 A 
ATOM     44  C   UNL A   1      41.424  25.632  28.406  1.00  0.00     0.049 A 
ATOM     45  H   UNL A   1      42.242  27.290  29.362  1.00  0.00     0.167 HD
ATOM     46  C   UNL A   1      43.894  30.867  31.237  1.00  0.00     0.031 A 
ATOM     47  C   UNL A   1      42.421  24.738  28.247  1.00  0.00     0.031 A 
ATOM     48  C   UNL A   1      44.991  29.940  31.190  1.00  0.00     0.049 A 
ATOM     49  C   UNL A   1      43.814  25.084  28.716  1.00  0.00     0.074 A 
ATOM     50  C   UNL A   1      46.274  30.103  31.683  1.00  0.00     0.029 A 
ATOM     51  N   UNL A   1      44.940  28.687  30.604  1.00  0.00    -0.354 N 
ATOM     52  N   UNL A   1      44.239  26.160  29.335  1.00  0.00    -0.248 NA
ATOM     53  C   UNL A   1      44.866  24.086  28.464  1.00  0.00     0.031 C 
ATOM     54  C   UNL A   1      47.019  28.973  31.336  1.00  0.00     0.029 A 
ATOM     55  C   UNL A   1      46.183  28.081  30.687  1.00  0.00     0.049 A 
ATOM     56  H   UNL A   1      44.141  28.286  30.192  1.00  0.00     0.167 HD
ATOM     57  C   UNL A   1      45.594  25.954  29.570  1.00  0.00     0.074 A 
ATOM     58  C   UNL A   1      45.918  24.644  29.047  1.00  0.00     0.031 C 
ATOM     59  C   UNL A   1      46.492  26.776  30.165  1.00  0.00     0.031 A 
BRANCH  46  60
ATOM     60  C   UNL A   1      44.135  32.220  31.840  1.00  0.00    -0.014 A 
ATOM     61  C   UNL A   1      44.557  33.302  31.053  1.00  0.00     0.009 A 
ATOM     62  C   UNL A   1      43.881  32.425  33.204  1.00  0.00     0.009 A 
ATOM     63  C   UNL A   1      44.743  34.560  31.627  1.00  0.00     0.001 A 
ATOM     64  C   UNL A   1      44.042  33.690  33.770  1.00  0.00     0.001 A 
ATOM     65  C   UNL A   1      44.478  34.754  32.983  1.00  0.00     0.000 A 
ENDBRANCH  46  60
BRANCH  47  66
ATOM     66  C   UNL A   1      42.173  23.435  27.573  1.00  0.00    -0.014 A 
ATOM     67  C   UNL A   1      41.716  22.324  28.301  1.00  0.00     0.009 A 
ATOM     68  C   UNL A   1      42.466  23.274  26.209  1.00  0.00     0.009 A 
ATOM     69  C   UNL A   1      41.601  21.074  27.689  1.00  0.00     0.001 A 
ATOM     70  C   UNL A   1      42.318  22.029  25.592  1.00  0.00     0.001 A 
ATOM     71  C   UNL A   1      41.899  20.928  26.335  1.00  0.00     0.000 A 
ENDBRANCH  47  66
BRANCH  59  72
ATOM     72  C   UNL A   1      47.904  26.277  30.314  1.00  0.00    -0.014 A 
ATOM     73  C   UNL A   1      48.358  25.720  31.519  1.00  0.00     0.009 A 
ATOM     74  C   UNL A   1      48.775  26.319  29.214  1.00  0.00     0.009 A 
ATOM     75  C   UNL A   1      49.666  25.243  31.628  1.00  0.00     0.001 A 
ATOM     76  C   UNL A   1      50.072  25.814  29.316  1.00  0.00     0.001 A 
ATOM     77  C   UNL A   1      50.520  25.284  30.526  1.00  0.00     0.000 A 
ENDBRANCH  59  72
ENDBRANCH  33  34
ENDBRANCH  26  28
ENDBRANCH  25  26
ENDBRANCH  24  25
ENDBRANCH   1  24
TORSDOF 14
ENDMDL
