MODEL 1
REMARK VINA RESULT:     -12.5      0.000      0.000
REMARK SMILES Cc1cc(C(=O)OCCOC(=O)c2ccc(-c3c4nc(c(-c5ccccc5)c5ccc([nH]5)c(-c5ccccc5)c5nc(c(-c6ccccc6)c6ccc3[nH]6)C=C5)C=C4)cc2)ccc1NC(=O)N1C[C@@H](C)[C@H](C)C1
REMARK SMILES IDX 9 1 8 2 7 3 5 4 6 5 4 6 1 7 2 8 3 9 63 10 62 11 61 12 64 13
REMARK SMILES IDX 65 14 66 16 67 17 68 18 73 19 69 20 71 21 70 22 72 23 10 24
REMARK SMILES IDX 11 25 12 26 13 27 14 28 60 29 15 30 59 31 16 32 17 33 18 34
REMARK SMILES IDX 53 35 19 36 58 37 52 38 54 39 20 40 57 41 51 42 50 43 21 45
REMARK SMILES IDX 43 46 28 47 42 48 29 49 32 50 41 51 55 52 30 53 31 54 40 56
REMARK SMILES IDX 56 57 33 58 22 59 23 60 27 61 24 62 26 63 25 64 44 65 45 66
REMARK SMILES IDX 49 67 46 68 48 69 47 70 34 71 35 72 39 73 36 74 38 75 37 76
REMARK H PARENT 64 15 54 44 32 55
REMARK Flexibility Score: inf
ROOT
ATOM      1  C   UNL A   1      32.319  33.323  26.888  1.00  0.00     0.275 C 
ENDROOT
BRANCH   1   2
ATOM      2  C   UNL A   1      31.669  31.938  26.993  1.00  0.00     0.275 C 
BRANCH   2   3
ATOM      3  O   UNL A   1      32.623  30.883  27.160  1.00  0.00    -0.458 OA
BRANCH   3   4
ATOM      4  C   UNL A   1      32.135  29.679  26.781  1.00  0.00     0.338 C 
ATOM      5  O   UNL A   1      31.928  28.709  27.498  1.00  0.00    -0.246 OA
BRANCH   4   6
ATOM      6  C   UNL A   1      32.061  29.545  25.327  1.00  0.00     0.060 A 
ATOM      7  C   UNL A   1      29.550  28.505  22.671  1.00  0.00     0.046 C 
ATOM      8  C   UNL A   1      30.871  28.712  23.361  1.00  0.00    -0.027 A 
ATOM      9  C   UNL A   1      30.866  29.327  24.629  1.00  0.00     0.021 A 
ATOM     10  C   UNL A   1      32.102  28.260  22.873  1.00  0.00     0.045 A 
ATOM     11  C   UNL A   1      33.286  28.717  23.473  1.00  0.00     0.027 A 
ATOM     12  C   UNL A   1      33.279  29.321  24.714  1.00  0.00     0.018 A 
BRANCH  10  13
ATOM     13  N   UNL A   1      32.181  27.307  21.836  1.00  0.00    -0.308 N 
ATOM     14  C   UNL A   1      32.796  26.080  21.894  1.00  0.00     0.321 C 
ATOM     15  H   UNL A   1      31.751  27.545  20.983  1.00  0.00     0.171 HD
ATOM     16  O   UNL A   1      33.279  25.584  20.878  1.00  0.00    -0.248 OA
ATOM     17  N   UNL A   1      32.845  25.454  23.118  1.00  0.00    -0.324 N 
ATOM     18  C   UNL A   1      34.029  24.764  23.578  1.00  0.00     0.125 C 
ATOM     19  C   UNL A   1      31.674  25.140  23.927  1.00  0.00     0.125 C 
ATOM     20  C   UNL A   1      33.559  23.798  24.659  1.00  0.00     0.010 C 
ATOM     21  C   UNL A   1      32.210  24.372  25.139  1.00  0.00     0.010 C 
ATOM     22  C   UNL A   1      34.569  23.670  25.793  1.00  0.00     0.010 C 
ATOM     23  C   UNL A   1      31.257  23.281  25.622  1.00  0.00     0.010 C 
ENDBRANCH  10  13
ENDBRANCH   4   6
ENDBRANCH   3   4
ENDBRANCH   2   3
ENDBRANCH   1   2
BRANCH   1  24
ATOM     24  O   UNL A   1      32.153  34.278  27.978  1.00  0.00    -0.458 OA
BRANCH  24  25
ATOM     25  C   UNL A   1      33.090  34.797  28.803  1.00  0.00     0.338 C 
ATOM     26  O   UNL A   1      32.939  35.877  29.373  1.00  0.00    -0.246 OA
BRANCH  25  27
ATOM     27  C   UNL A   1      34.302  34.006  29.029  1.00  0.00     0.060 A 
ATOM     28  C   UNL A   1      34.241  32.918  29.911  1.00  0.00     0.016 A 
ATOM     29  C   UNL A   1      35.451  34.283  28.298  1.00  0.00     0.016 A 
ATOM     30  C   UNL A   1      35.296  32.023  29.982  1.00  0.00     0.010 A 
ATOM     31  C   UNL A   1      36.440  33.337  28.255  1.00  0.00     0.010 A 
ATOM     32  C   UNL A   1      36.382  32.251  29.144  1.00  0.00    -0.014 A 
BRANCH  32  33
ATOM     33  C   UNL A   1      37.697  31.720  29.435  1.00  0.00     0.031 A 
ATOM     34  C   UNL A   1      38.120  30.415  28.921  1.00  0.00     0.074 A 
ATOM     35  C   UNL A   1      38.439  32.671  30.046  1.00  0.00     0.049 A 
ATOM     36  N   UNL A   1      39.096  29.741  29.412  1.00  0.00    -0.248 NA
ATOM     37  C   UNL A   1      37.440  29.703  27.837  1.00  0.00     0.031 C 
ATOM     38  C   UNL A   1      39.861  32.838  30.250  1.00  0.00     0.029 A 
ATOM     39  N   UNL A   1      37.884  33.734  30.772  1.00  0.00    -0.354 N 
ATOM     40  C   UNL A   1      39.410  28.763  28.491  1.00  0.00     0.074 A 
ATOM     41  C   UNL A   1      38.254  28.658  27.640  1.00  0.00     0.031 C 
ATOM     42  C   UNL A   1      40.045  33.721  31.258  1.00  0.00     0.029 A 
ATOM     43  C   UNL A   1      38.732  34.039  31.821  1.00  0.00     0.049 A 
ATOM     44  H   UNL A   1      37.033  34.187  30.569  1.00  0.00     0.167 HD
ATOM     45  C   UNL A   1      40.703  28.332  28.430  1.00  0.00     0.031 A 
ATOM     46  C   UNL A   1      38.293  33.691  33.070  1.00  0.00     0.031 A 
ATOM     47  C   UNL A   1      41.482  28.999  29.474  1.00  0.00     0.049 A 
ATOM     48  C   UNL A   1      39.107  32.521  33.570  1.00  0.00     0.074 A 
ATOM     49  C   UNL A   1      42.266  30.141  29.439  1.00  0.00     0.029 A 
ATOM     50  N   UNL A   1      41.153  28.779  30.806  1.00  0.00    -0.354 N 
ATOM     51  N   UNL A   1      39.561  31.553  32.814  1.00  0.00    -0.248 NA
ATOM     52  C   UNL A   1      39.581  32.446  34.946  1.00  0.00     0.031 C 
ATOM     53  C   UNL A   1      42.298  30.675  30.758  1.00  0.00     0.029 A 
ATOM     54  C   UNL A   1      41.541  29.856  31.582  1.00  0.00     0.049 A 
ATOM     55  H   UNL A   1      40.706  27.971  31.148  1.00  0.00     0.167 HD
ATOM     56  C   UNL A   1      40.473  30.827  33.534  1.00  0.00     0.074 A 
ATOM     57  C   UNL A   1      40.415  31.397  34.873  1.00  0.00     0.031 C 
ATOM     58  C   UNL A   1      41.275  29.854  33.012  1.00  0.00     0.031 A 
BRANCH  45  59
ATOM     59  C   UNL A   1      41.344  27.601  27.273  1.00  0.00    -0.014 A 
ATOM     60  C   UNL A   1      41.308  26.190  27.262  1.00  0.00     0.009 A 
ATOM     61  C   UNL A   1      42.029  28.202  26.203  1.00  0.00     0.009 A 
ATOM     62  C   UNL A   1      41.952  25.427  26.280  1.00  0.00     0.001 A 
ATOM     63  C   UNL A   1      42.685  27.442  25.218  1.00  0.00     0.001 A 
ATOM     64  C   UNL A   1      42.651  26.055  25.260  1.00  0.00     0.000 A 
ENDBRANCH  45  59
BRANCH  46  65
ATOM     65  C   UNL A   1      36.819  33.910  33.308  1.00  0.00    -0.014 A 
ATOM     66  C   UNL A   1      36.262  35.164  32.957  1.00  0.00     0.009 A 
ATOM     67  C   UNL A   1      35.923  32.879  33.626  1.00  0.00     0.009 A 
ATOM     68  C   UNL A   1      34.880  35.351  32.821  1.00  0.00     0.001 A 
ATOM     69  C   UNL A   1      34.531  33.077  33.521  1.00  0.00     0.001 A 
ATOM     70  C   UNL A   1      34.013  34.299  33.091  1.00  0.00     0.000 A 
ENDBRANCH  46  65
BRANCH  58  71
ATOM     71  C   UNL A   1      41.968  28.808  33.844  1.00  0.00    -0.014 A 
ATOM     72  C   UNL A   1      41.335  27.643  34.289  1.00  0.00     0.009 A 
ATOM     73  C   UNL A   1      43.364  28.894  34.038  1.00  0.00     0.009 A 
ATOM     74  C   UNL A   1      42.046  26.643  34.956  1.00  0.00     0.001 A 
ATOM     75  C   UNL A   1      44.089  27.865  34.636  1.00  0.00     0.001 A 
ATOM     76  C   UNL A   1      43.424  26.747  35.115  1.00  0.00     0.000 A 
ENDBRANCH  58  71
ENDBRANCH  32  33
ENDBRANCH  25  27
ENDBRANCH  24  25
ENDBRANCH   1  24
TORSDOF 12
ENDMDL
MODEL 2
REMARK VINA RESULT:     -12.1      4.096     10.146
REMARK SMILES Cc1cc(C(=O)OCCOC(=O)c2ccc(-c3c4nc(c(-c5ccccc5)c5ccc([nH]5)c(-c5ccccc5)c5nc(c(-c6ccccc6)c6ccc3[nH]6)C=C5)C=C4)cc2)ccc1NC(=O)N1C[C@@H](C)[C@H](C)C1
REMARK SMILES IDX 9 1 8 2 7 3 5 4 6 5 4 6 1 7 2 8 3 9 63 10 62 11 61 12 64 13
REMARK SMILES IDX 65 14 66 16 67 17 68 18 73 19 69 20 71 21 70 22 72 23 10 24
REMARK SMILES IDX 11 25 12 26 13 27 14 28 60 29 15 30 59 31 16 32 17 33 18 34
REMARK SMILES IDX 53 35 19 36 58 37 52 38 54 39 20 40 57 41 51 42 50 43 21 45
REMARK SMILES IDX 43 46 28 47 42 48 29 49 32 50 41 51 55 52 30 53 31 54 40 56
REMARK SMILES IDX 56 57 33 58 22 59 23 60 27 61 24 62 26 63 25 64 44 65 45 66
REMARK SMILES IDX 49 67 46 68 48 69 47 70 34 71 35 72 39 73 36 74 38 75 37 76
REMARK H PARENT 64 15 54 44 32 55
REMARK Flexibility Score: inf
ROOT
ATOM      1  C   UNL A   1      39.268  19.190  25.708  1.00  0.00     0.275 C 
ENDROOT
BRANCH   1   2
ATOM      2  C   UNL A   1      38.333  20.092  24.894  1.00  0.00     0.275 C 
BRANCH   2   3
ATOM      3  O   UNL A   1      37.962  21.288  25.590  1.00  0.00    -0.458 OA
BRANCH   3   4
ATOM      4  C   UNL A   1      36.958  21.955  24.974  1.00  0.00     0.338 C 
ATOM      5  O   UNL A   1      37.053  22.969  24.298  1.00  0.00    -0.246 OA
BRANCH   4   6
ATOM      6  C   UNL A   1      35.641  21.459  25.372  1.00  0.00     0.060 A 
ATOM      7  C   UNL A   1      32.328  20.526  23.762  1.00  0.00     0.046 C 
ATOM      8  C   UNL A   1      33.307  21.024  24.789  1.00  0.00    -0.027 A 
ATOM      9  C   UNL A   1      34.678  21.005  24.461  1.00  0.00     0.021 A 
ATOM     10  C   UNL A   1      32.950  21.587  26.020  1.00  0.00     0.045 A 
ATOM     11  C   UNL A   1      33.942  21.792  26.992  1.00  0.00     0.027 A 
ATOM     12  C   UNL A   1      35.284  21.771  26.669  1.00  0.00     0.018 A 
BRANCH  10  13
ATOM     13  N   UNL A   1      31.632  22.014  26.283  1.00  0.00    -0.308 N 
ATOM     14  C   UNL A   1      31.214  23.306  26.494  1.00  0.00     0.321 C 
ATOM     15  H   UNL A   1      30.940  21.315  26.319  1.00  0.00     0.171 HD
ATOM     16  O   UNL A   1      30.245  23.529  27.215  1.00  0.00    -0.248 OA
ATOM     17  N   UNL A   1      31.923  24.310  25.875  1.00  0.00    -0.324 N 
ATOM     18  C   UNL A   1      32.249  25.545  26.552  1.00  0.00     0.125 C 
ATOM     19  C   UNL A   1      32.143  24.393  24.437  1.00  0.00     0.125 C 
ATOM     20  C   UNL A   1      32.540  26.560  25.453  1.00  0.00     0.010 C 
ATOM     21  C   UNL A   1      32.890  25.710  24.214  1.00  0.00     0.010 C 
ATOM     22  C   UNL A   1      33.663  27.515  25.837  1.00  0.00     0.010 C 
ATOM     23  C   UNL A   1      32.502  26.403  22.910  1.00  0.00     0.010 C 
ENDBRANCH  10  13
ENDBRANCH   4   6
ENDBRANCH   3   4
ENDBRANCH   2   3
ENDBRANCH   1   2
BRANCH   1  24
ATOM     24  O   UNL A   1      40.693  19.167  25.398  1.00  0.00    -0.458 OA
BRANCH  24  25
ATOM     25  C   UNL A   1      41.740  19.484  26.192  1.00  0.00     0.338 C 
ATOM     26  O   UNL A   1      42.614  18.669  26.485  1.00  0.00    -0.246 OA
BRANCH  25  27
ATOM     27  C   UNL A   1      41.823  20.862  26.681  1.00  0.00     0.060 A 
ATOM     28  C   UNL A   1      41.797  21.909  25.748  1.00  0.00     0.016 A 
ATOM     29  C   UNL A   1      41.826  21.110  28.048  1.00  0.00     0.016 A 
ATOM     30  C   UNL A   1      41.654  23.218  26.178  1.00  0.00     0.010 A 
ATOM     31  C   UNL A   1      41.548  22.379  28.481  1.00  0.00     0.010 A 
ATOM     32  C   UNL A   1      41.527  23.428  27.547  1.00  0.00    -0.014 A 
BRANCH  32  33
ATOM     33  C   UNL A   1      41.847  24.701  28.158  1.00  0.00     0.031 A 
ATOM     34  C   UNL A   1      40.833  25.746  28.312  1.00  0.00     0.074 A 
ATOM     35  C   UNL A   1      43.094  24.647  28.680  1.00  0.00     0.049 A 
ATOM     36  N   UNL A   1      41.113  26.984  28.507  1.00  0.00    -0.248 NA
ATOM     37  C   UNL A   1      39.393  25.511  28.194  1.00  0.00     0.031 C 
ATOM     38  C   UNL A   1      43.790  25.445  29.664  1.00  0.00     0.029 A 
ATOM     39  N   UNL A   1      44.085  23.766  28.221  1.00  0.00    -0.354 N 
ATOM     40  C   UNL A   1      39.950  27.594  28.932  1.00  0.00     0.074 A 
ATOM     41  C   UNL A   1      38.889  26.703  28.541  1.00  0.00     0.031 C 
ATOM     42  C   UNL A   1      45.119  25.231  29.521  1.00  0.00     0.029 A 
ATOM     43  C   UNL A   1      45.314  24.389  28.341  1.00  0.00     0.049 A 
ATOM     44  H   UNL A   1      43.930  22.858  27.873  1.00  0.00     0.167 HD
ATOM     45  C   UNL A   1      40.059  28.667  29.766  1.00  0.00     0.031 A 
ATOM     46  C   UNL A   1      45.907  24.779  27.170  1.00  0.00     0.031 A 
ATOM     47  C   UNL A   1      41.474  28.982  29.964  1.00  0.00     0.049 A 
ATOM     48  C   UNL A   1      45.852  26.286  27.068  1.00  0.00     0.074 A 
ATOM     49  C   UNL A   1      42.362  28.607  30.959  1.00  0.00     0.029 A 
ATOM     50  N   UNL A   1      42.238  29.371  28.870  1.00  0.00    -0.354 N 
ATOM     51  N   UNL A   1      44.863  27.025  27.503  1.00  0.00    -0.248 NA
ATOM     52  C   UNL A   1      46.985  27.065  26.589  1.00  0.00     0.031 C 
ATOM     53  C   UNL A   1      43.671  28.658  30.402  1.00  0.00     0.029 A 
ATOM     54  C   UNL A   1      43.570  29.065  29.081  1.00  0.00     0.049 A 
ATOM     55  H   UNL A   1      41.881  29.803  28.060  1.00  0.00     0.167 HD
ATOM     56  C   UNL A   1      45.262  28.335  27.500  1.00  0.00     0.074 A 
ATOM     57  C   UNL A   1      46.579  28.312  26.878  1.00  0.00     0.031 C 
ATOM     58  C   UNL A   1      44.555  29.364  28.053  1.00  0.00     0.031 A 
BRANCH  45  59
ATOM     59  C   UNL A   1      38.967  29.218  30.655  1.00  0.00    -0.014 A 
ATOM     60  C   UNL A   1      38.822  28.686  31.954  1.00  0.00     0.009 A 
ATOM     61  C   UNL A   1      38.033  30.202  30.290  1.00  0.00     0.009 A 
ATOM     62  C   UNL A   1      37.785  29.071  32.814  1.00  0.00     0.001 A 
ATOM     63  C   UNL A   1      36.984  30.586  31.145  1.00  0.00     0.001 A 
ATOM     64  C   UNL A   1      36.857  30.017  32.405  1.00  0.00     0.000 A 
ENDBRANCH  45  59
BRANCH  46  65
ATOM     65  C   UNL A   1      45.750  23.808  26.025  1.00  0.00    -0.014 A 
ATOM     66  C   UNL A   1      46.064  22.446  26.253  1.00  0.00     0.009 A 
ATOM     67  C   UNL A   1      45.087  24.119  24.829  1.00  0.00     0.009 A 
ATOM     68  C   UNL A   1      45.642  21.431  25.386  1.00  0.00     0.001 A 
ATOM     69  C   UNL A   1      44.690  23.100  23.940  1.00  0.00     0.001 A 
ATOM     70  C   UNL A   1      44.940  21.758  24.232  1.00  0.00     0.000 A 
ENDBRANCH  46  65
BRANCH  58  71
ATOM     71  C   UNL A   1      44.783  30.812  27.712  1.00  0.00    -0.014 A 
ATOM     72  C   UNL A   1      44.150  31.454  26.642  1.00  0.00     0.009 A 
ATOM     73  C   UNL A   1      45.517  31.624  28.604  1.00  0.00     0.009 A 
ATOM     74  C   UNL A   1      44.297  32.827  26.434  1.00  0.00     0.001 A 
ATOM     75  C   UNL A   1      45.604  33.005  28.442  1.00  0.00     0.001 A 
ATOM     76  C   UNL A   1      45.010  33.604  27.342  1.00  0.00     0.000 A 
ENDBRANCH  58  71
ENDBRANCH  32  33
ENDBRANCH  25  27
ENDBRANCH  24  25
ENDBRANCH   1  24
TORSDOF 12
ENDMDL
MODEL 3
REMARK VINA RESULT:     -11.7      3.932      9.874
REMARK SMILES Cc1cc(C(=O)OCCOC(=O)c2ccc(-c3c4nc(c(-c5ccccc5)c5ccc([nH]5)c(-c5ccccc5)c5nc(c(-c6ccccc6)c6ccc3[nH]6)C=C5)C=C4)cc2)ccc1NC(=O)N1C[C@@H](C)[C@H](C)C1
REMARK SMILES IDX 9 1 8 2 7 3 5 4 6 5 4 6 1 7 2 8 3 9 63 10 62 11 61 12 64 13
REMARK SMILES IDX 65 14 66 16 67 17 68 18 73 19 69 20 71 21 70 22 72 23 10 24
REMARK SMILES IDX 11 25 12 26 13 27 14 28 60 29 15 30 59 31 16 32 17 33 18 34
REMARK SMILES IDX 53 35 19 36 58 37 52 38 54 39 20 40 57 41 51 42 50 43 21 45
REMARK SMILES IDX 43 46 28 47 42 48 29 49 32 50 41 51 55 52 30 53 31 54 40 56
REMARK SMILES IDX 56 57 33 58 22 59 23 60 27 61 24 62 26 63 25 64 44 65 45 66
REMARK SMILES IDX 49 67 46 68 48 69 47 70 34 71 35 72 39 73 36 74 38 75 37 76
REMARK H PARENT 64 15 54 44 32 55
REMARK Flexibility Score: inf
ROOT
ATOM      1  C   UNL A   1      38.857  20.231  25.081  1.00  0.00     0.275 C 
ENDROOT
BRANCH   1   2
ATOM      2  C   UNL A   1      38.072  21.387  25.713  1.00  0.00     0.275 C 
BRANCH   2   3
ATOM      3  O   UNL A   1      36.668  21.327  25.439  1.00  0.00    -0.458 OA
BRANCH   3   4
ATOM      4  C   UNL A   1      36.031  22.481  25.744  1.00  0.00     0.338 C 
ATOM      5  O   UNL A   1      36.528  23.496  26.214  1.00  0.00    -0.246 OA
BRANCH   4   6
ATOM      6  C   UNL A   1      34.577  22.350  25.658  1.00  0.00     0.060 A 
ATOM      7  C   UNL A   1      31.823  22.659  23.058  1.00  0.00     0.046 C 
ATOM      8  C   UNL A   1      32.517  22.705  24.392  1.00  0.00    -0.027 A 
ATOM      9  C   UNL A   1      33.872  22.325  24.447  1.00  0.00     0.021 A 
ATOM     10  C   UNL A   1      31.935  23.181  25.574  1.00  0.00     0.045 A 
ATOM     11  C   UNL A   1      32.586  22.953  26.797  1.00  0.00     0.027 A 
ATOM     12  C   UNL A   1      33.914  22.579  26.848  1.00  0.00     0.018 A 
BRANCH  10  13
ATOM     13  N   UNL A   1      30.747  23.940  25.559  1.00  0.00    -0.308 N 
ATOM     14  C   UNL A   1      30.608  25.255  25.932  1.00  0.00     0.321 C 
ATOM     15  H   UNL A   1      29.933  23.481  25.249  1.00  0.00     0.171 HD
ATOM     16  O   UNL A   1      29.542  25.654  26.395  1.00  0.00    -0.248 OA
ATOM     17  N   UNL A   1      31.698  26.078  25.768  1.00  0.00    -0.324 N 
ATOM     18  C   UNL A   1      32.077  27.054  26.765  1.00  0.00     0.125 C 
ATOM     19  C   UNL A   1      32.382  26.292  24.499  1.00  0.00     0.125 C 
ATOM     20  C   UNL A   1      32.942  28.079  26.041  1.00  0.00     0.010 C 
ATOM     21  C   UNL A   1      33.456  27.344  24.786  1.00  0.00     0.010 C 
ATOM     22  C   UNL A   1      34.077  28.593  26.917  1.00  0.00     0.010 C 
ATOM     23  C   UNL A   1      33.687  28.296  23.614  1.00  0.00     0.010 C 
ENDBRANCH  10  13
ENDBRANCH   4   6
ENDBRANCH   3   4
ENDBRANCH   2   3
ENDBRANCH   1   2
BRANCH   1  24
ATOM     24  O   UNL A   1      39.966  19.631  25.812  1.00  0.00    -0.458 OA
BRANCH  24  25
ATOM     25  C   UNL A   1      41.254  20.036  25.884  1.00  0.00     0.338 C 
ATOM     26  O   UNL A   1      42.176  19.386  25.392  1.00  0.00    -0.246 OA
BRANCH  25  27
ATOM     27  C   UNL A   1      41.525  21.311  26.551  1.00  0.00     0.060 A 
ATOM     28  C   UNL A   1      41.545  21.346  27.953  1.00  0.00     0.016 A 
ATOM     29  C   UNL A   1      41.851  22.430  25.794  1.00  0.00     0.016 A 
ATOM     30  C   UNL A   1      42.007  22.473  28.613  1.00  0.00     0.010 A 
ATOM     31  C   UNL A   1      42.438  23.495  26.424  1.00  0.00     0.010 A 
ATOM     32  C   UNL A   1      42.452  23.532  27.828  1.00  0.00    -0.014 A 
BRANCH  32  33
ATOM     33  C   UNL A   1      42.500  24.888  28.332  1.00  0.00     0.031 A 
ATOM     34  C   UNL A   1      41.311  25.743  28.330  1.00  0.00     0.074 A 
ATOM     35  C   UNL A   1      43.698  25.104  28.923  1.00  0.00     0.049 A 
ATOM     36  N   UNL A   1      41.355  27.022  28.422  1.00  0.00    -0.248 NA
ATOM     37  C   UNL A   1      39.946  25.243  28.157  1.00  0.00     0.031 C 
ATOM     38  C   UNL A   1      44.172  26.094  29.864  1.00  0.00     0.029 A 
ATOM     39  N   UNL A   1      44.856  24.381  28.605  1.00  0.00    -0.354 N 
ATOM     40  C   UNL A   1      40.077  27.446  28.723  1.00  0.00     0.074 A 
ATOM     41  C   UNL A   1      39.218  26.349  28.361  1.00  0.00     0.031 C 
ATOM     42  C   UNL A   1      45.525  26.112  29.815  1.00  0.00     0.029 A 
ATOM     43  C   UNL A   1      45.946  25.224  28.732  1.00  0.00     0.049 A 
ATOM     44  H   UNL A   1      44.888  23.434  28.337  1.00  0.00     0.167 HD
ATOM     45  C   UNL A   1      39.938  28.588  29.456  1.00  0.00     0.031 A 
ATOM     46  C   UNL A   1      46.543  25.614  27.563  1.00  0.00     0.031 A 
ATOM     47  C   UNL A   1      41.258  29.168  29.700  1.00  0.00     0.049 A 
ATOM     48  C   UNL A   1      46.233  27.072  27.316  1.00  0.00     0.074 A 
ATOM     49  C   UNL A   1      42.126  29.044  30.773  1.00  0.00     0.029 A 
ATOM     50  N   UNL A   1      42.018  29.595  28.617  1.00  0.00    -0.354 N 
ATOM     51  N   UNL A   1      45.102  27.655  27.624  1.00  0.00    -0.248 NA
ATOM     52  C   UNL A   1      47.244  28.001  26.827  1.00  0.00     0.031 C 
ATOM     53  C   UNL A   1      43.442  29.283  30.286  1.00  0.00     0.029 A 
ATOM     54  C   UNL A   1      43.365  29.553  28.928  1.00  0.00     0.049 A 
ATOM     55  H   UNL A   1      41.649  29.886  27.752  1.00  0.00     0.167 HD
ATOM     56  C   UNL A   1      45.266  29.011  27.518  1.00  0.00     0.074 A 
ATOM     57  C   UNL A   1      46.607  29.173  26.974  1.00  0.00     0.031 C 
ATOM     58  C   UNL A   1      44.352  29.938  27.931  1.00  0.00     0.031 A 
BRANCH  45  59
ATOM     59  C   UNL A   1      38.707  29.005  30.228  1.00  0.00    -0.014 A 
ATOM     60  C   UNL A   1      37.703  29.735  29.554  1.00  0.00     0.009 A 
ATOM     61  C   UNL A   1      38.478  28.771  31.594  1.00  0.00     0.009 A 
ATOM     62  C   UNL A   1      36.572  30.241  30.209  1.00  0.00     0.001 A 
ATOM     63  C   UNL A   1      37.349  29.283  32.259  1.00  0.00     0.001 A 
ATOM     64  C   UNL A   1      36.399  30.022  31.567  1.00  0.00     0.000 A 
ENDBRANCH  45  59
BRANCH  46  65
ATOM     65  C   UNL A   1      46.639  24.539  26.509  1.00  0.00    -0.014 A 
ATOM     66  C   UNL A   1      46.054  23.278  26.782  1.00  0.00     0.009 A 
ATOM     67  C   UNL A   1      47.055  24.778  25.191  1.00  0.00     0.009 A 
ATOM     68  C   UNL A   1      45.793  22.345  25.769  1.00  0.00     0.001 A 
ATOM     69  C   UNL A   1      46.821  23.826  24.179  1.00  0.00     0.001 A 
ATOM     70  C   UNL A   1      46.166  22.627  24.461  1.00  0.00     0.000 A 
ENDBRANCH  46  65
BRANCH  58  71
ATOM     71  C   UNL A   1      44.347  31.369  27.468  1.00  0.00    -0.014 A 
ATOM     72  C   UNL A   1      44.206  31.737  26.125  1.00  0.00     0.009 A 
ATOM     73  C   UNL A   1      44.295  32.406  28.426  1.00  0.00     0.009 A 
ATOM     74  C   UNL A   1      44.085  33.078  25.752  1.00  0.00     0.001 A 
ATOM     75  C   UNL A   1      44.101  33.736  28.062  1.00  0.00     0.001 A 
ATOM     76  C   UNL A   1      44.017  34.074  26.720  1.00  0.00     0.000 A 
ENDBRANCH  58  71
ENDBRANCH  32  33
ENDBRANCH  25  27
ENDBRANCH  24  25
ENDBRANCH   1  24
TORSDOF 12
ENDMDL
