MODEL 1
REMARK VINA RESULT:     -12.2      0.000      0.000
REMARK SMILES CN1C(=O)C[C@H](C(=O)Nc2ccc(C(=O)OCCOC(=O)c3ccc(-c4c5nc(c(-c6ccccc6)c6ccc([nH]6)c(-c6ccccc6)c6nc(c(-c7ccccc7)c7ccc4[nH]7)C=C6)C=C5)cc3)cc2)S/C1=[NH+]\c1cccc(C(F)(F)F)c1
REMARK SMILES IDX 17 1 16 2 14 3 15 4 13 5 10 6 11 7 71 8 12 9 70 10 9 11 7 12
REMARK SMILES IDX 8 13 6 15 1 16 2 17 3 18 73 19 4 20 5 21 72 22 74 23 75 25
REMARK SMILES IDX 76 26 84 27 77 28 79 29 78 30 80 31 81 32 82 33 83 34 18 35
REMARK SMILES IDX 19 36 20 37 21 38 22 39 23 40 69 41 24 42 68 43 25 44 26 45
REMARK SMILES IDX 27 46 62 47 28 48 67 49 61 50 63 51 29 52 66 53 60 54 59 55
REMARK SMILES IDX 30 57 52 58 37 59 51 60 38 61 41 62 50 63 64 64 39 65 40 66
REMARK SMILES IDX 49 68 65 69 42 70 31 71 32 72 36 73 33 74 35 75 34 76 53 77
REMARK SMILES IDX 54 78 58 79 55 80 57 81 56 82 43 83 44 84 48 85 45 86 47 87
REMARK SMILES IDX 46 88
REMARK H PARENT 9 14 74 24 63 56 41 67
REMARK Flexibility Score: inf
ROOT
ATOM      1  C   UNL A   1      43.715  21.044  25.802  1.00  0.00     0.275 C 
ENDROOT
BRANCH   1   2
ATOM      2  O   UNL A   1      42.707  21.345  26.786  1.00  0.00    -0.458 OA
BRANCH   2   3
ATOM      3  C   UNL A   1      41.810  20.358  27.026  1.00  0.00     0.338 C 
ATOM      4  O   UNL A   1      42.006  19.335  27.652  1.00  0.00    -0.246 OA
BRANCH   3   5
ATOM      5  C   UNL A   1      40.476  20.717  26.483  1.00  0.00     0.060 A 
ATOM      6  C   UNL A   1      38.110  21.359  25.168  1.00  0.00     0.041 A 
ATOM      7  C   UNL A   1      38.548  20.042  25.162  1.00  0.00     0.027 A 
ATOM      8  C   UNL A   1      38.764  22.323  25.942  1.00  0.00     0.027 A 
ATOM      9  C   UNL A   1      39.765  19.743  25.763  1.00  0.00     0.018 A 
ATOM     10  C   UNL A   1      39.948  22.003  26.608  1.00  0.00     0.018 A 
BRANCH   6  11
ATOM     11  N   UNL A   1      37.124  21.698  24.238  1.00  0.00    -0.325 N 
ATOM     12  C   UNL A   1      35.830  22.062  24.553  1.00  0.00     0.238 C 
ATOM     13  O   UNL A   1      35.145  22.567  23.663  1.00  0.00    -0.273 OA
ATOM     14  H   UNL A   1      37.369  21.676  23.285  1.00  0.00     0.169 HD
BRANCH  12  15
ATOM     15  C   UNL A   1      35.347  21.937  26.003  1.00  0.00     0.160 C 
ATOM     16  C   UNL A   1      31.209  23.390  25.745  1.00  0.00     0.301 C 
ATOM     17  N   UNL A   1      32.545  22.833  25.881  1.00  0.00    -0.194 N 
ATOM     18  C   UNL A   1      33.539  23.744  26.221  1.00  0.00     0.311 C 
ATOM     19  C   UNL A   1      32.744  21.517  25.475  1.00  0.00     0.319 C 
ATOM     20  O   UNL A   1      33.334  24.963  26.246  1.00  0.00    -0.247 OA
ATOM     21  C   UNL A   1      34.908  23.246  26.610  1.00  0.00     0.153 C 
ATOM     22  S   UNL A   1      34.091  20.695  26.222  1.00  0.00    -0.024 SA
ATOM     23  N   UNL A   1      31.917  20.964  24.642  1.00  0.00    -0.235 N 
ATOM     24  H   UNL A   1      31.081  21.424  24.401  1.00  0.00     0.313 HD
BRANCH  23  25
ATOM     25  C   UNL A   1      32.211  19.710  24.086  1.00  0.00     0.126 A 
ATOM     26  C   UNL A   1      32.272  19.592  22.693  1.00  0.00     0.052 A 
ATOM     27  C   UNL A   1      32.491  18.594  24.877  1.00  0.00     0.064 A 
ATOM     28  C   UNL A   1      32.655  18.392  22.097  1.00  0.00     0.005 A 
ATOM     29  C   UNL A   1      32.942  17.400  24.294  1.00  0.00     0.060 A 
ATOM     30  C   UNL A   1      33.003  17.304  22.895  1.00  0.00     0.013 A 
BRANCH  29  31
ATOM     31  C   UNL A   1      33.390  16.251  25.157  1.00  0.00     0.416 C 
ATOM     32  F   UNL A   1      33.035  16.404  26.461  1.00  0.00    -0.166 F 
ATOM     33  F   UNL A   1      32.855  15.061  24.760  1.00  0.00    -0.166 F 
ATOM     34  F   UNL A   1      34.741  16.062  25.154  1.00  0.00    -0.166 F 
ENDBRANCH  29  31
ENDBRANCH  23  25
ENDBRANCH  12  15
ENDBRANCH   6  11
ENDBRANCH   3   5
ENDBRANCH   2   3
ENDBRANCH   1   2
BRANCH   1  35
ATOM     35  C   UNL A   1      43.611  21.999  24.613  1.00  0.00     0.275 C 
BRANCH  35  36
ATOM     36  O   UNL A   1      42.885  23.192  24.970  1.00  0.00    -0.458 OA
BRANCH  36  37
ATOM     37  C   UNL A   1      43.651  24.281  25.203  1.00  0.00     0.338 C 
ATOM     38  O   UNL A   1      44.713  24.573  24.679  1.00  0.00    -0.246 OA
BRANCH  37  39
ATOM     39  C   UNL A   1      42.978  25.182  26.148  1.00  0.00     0.060 A 
ATOM     40  C   UNL A   1      43.243  26.543  26.048  1.00  0.00     0.016 A 
ATOM     41  C   UNL A   1      42.261  24.693  27.234  1.00  0.00     0.016 A 
ATOM     42  C   UNL A   1      42.918  27.405  27.087  1.00  0.00     0.010 A 
ATOM     43  C   UNL A   1      41.814  25.587  28.218  1.00  0.00     0.010 A 
ATOM     44  C   UNL A   1      42.173  26.949  28.180  1.00  0.00    -0.014 A 
BRANCH  44  45
ATOM     45  C   UNL A   1      41.792  27.886  29.277  1.00  0.00     0.031 A 
ATOM     46  C   UNL A   1      42.597  27.935  30.552  1.00  0.00     0.074 A 
ATOM     47  C   UNL A   1      40.730  28.707  29.137  1.00  0.00     0.049 A 
ATOM     48  N   UNL A   1      42.318  28.529  31.686  1.00  0.00    -0.248 NA
ATOM     49  C   UNL A   1      43.878  27.209  30.558  1.00  0.00     0.031 C 
ATOM     50  C   UNL A   1      39.892  28.825  27.941  1.00  0.00     0.029 A 
ATOM     51  N   UNL A   1      40.173  29.609  30.013  1.00  0.00    -0.354 N 
ATOM     52  C   UNL A   1      43.355  28.201  32.553  1.00  0.00     0.074 A 
ATOM     53  C   UNL A   1      44.264  27.347  31.818  1.00  0.00     0.031 C 
ATOM     54  C   UNL A   1      38.964  29.771  28.140  1.00  0.00     0.029 A 
ATOM     55  C   UNL A   1      39.063  30.248  29.512  1.00  0.00     0.049 A 
ATOM     56  H   UNL A   1      40.534  29.781  30.913  1.00  0.00     0.167 HD
ATOM     57  C   UNL A   1      43.532  28.574  33.844  1.00  0.00     0.031 A 
ATOM     58  C   UNL A   1      38.183  31.081  30.099  1.00  0.00     0.031 A 
ATOM     59  C   UNL A   1      42.642  29.448  34.563  1.00  0.00     0.049 A 
ATOM     60  C   UNL A   1      38.355  31.413  31.552  1.00  0.00     0.074 A 
ATOM     61  C   UNL A   1      42.733  29.887  35.872  1.00  0.00     0.029 A 
ATOM     62  N   UNL A   1      41.501  30.028  34.027  1.00  0.00    -0.354 N 
ATOM     63  N   UNL A   1      39.308  31.050  32.376  1.00  0.00    -0.248 NA
ATOM     64  C   UNL A   1      37.318  32.257  32.163  1.00  0.00     0.031 C 
ATOM     65  C   UNL A   1      41.621  30.691  36.144  1.00  0.00     0.029 A 
ATOM     66  C   UNL A   1      40.871  30.804  34.986  1.00  0.00     0.049 A 
ATOM     67  H   UNL A   1      41.187  29.906  33.103  1.00  0.00     0.167 HD
ATOM     68  C   UNL A   1      39.000  31.641  33.594  1.00  0.00     0.074 A 
ATOM     69  C   UNL A   1      37.783  32.401  33.395  1.00  0.00     0.031 C 
ATOM     70  C   UNL A   1      39.665  31.559  34.771  1.00  0.00     0.031 A 
BRANCH  57  71
ATOM     71  C   UNL A   1      44.714  28.003  34.581  1.00  0.00    -0.014 A 
ATOM     72  C   UNL A   1      44.640  26.774  35.257  1.00  0.00     0.009 A 
ATOM     73  C   UNL A   1      45.938  28.692  34.564  1.00  0.00     0.009 A 
ATOM     74  C   UNL A   1      45.756  26.269  35.930  1.00  0.00     0.001 A 
ATOM     75  C   UNL A   1      47.059  28.169  35.211  1.00  0.00     0.001 A 
ATOM     76  C   UNL A   1      46.965  26.963  35.903  1.00  0.00     0.000 A 
ENDBRANCH  57  71
BRANCH  58  77
ATOM     77  C   UNL A   1      37.022  31.607  29.331  1.00  0.00    -0.014 A 
ATOM     78  C   UNL A   1      37.077  32.875  28.733  1.00  0.00     0.009 A 
ATOM     79  C   UNL A   1      35.848  30.847  29.198  1.00  0.00     0.009 A 
ATOM     80  C   UNL A   1      35.973  33.379  28.040  1.00  0.00     0.001 A 
ATOM     81  C   UNL A   1      34.761  31.338  28.473  1.00  0.00     0.001 A 
ATOM     82  C   UNL A   1      34.820  32.608  27.905  1.00  0.00     0.000 A 
ENDBRANCH  58  77
BRANCH  70  83
ATOM     83  C   UNL A   1      39.117  32.356  35.922  1.00  0.00    -0.014 A 
ATOM     84  C   UNL A   1      39.494  33.691  36.134  1.00  0.00     0.009 A 
ATOM     85  C   UNL A   1      38.187  31.764  36.790  1.00  0.00     0.009 A 
ATOM     86  C   UNL A   1      38.973  34.406  37.214  1.00  0.00     0.001 A 
ATOM     87  C   UNL A   1      37.645  32.491  37.850  1.00  0.00     0.001 A 
ATOM     88  C   UNL A   1      38.046  33.808  38.067  1.00  0.00     0.000 A 
ENDBRANCH  70  83
ENDBRANCH  44  45
ENDBRANCH  37  39
ENDBRANCH  36  37
ENDBRANCH  35  36
ENDBRANCH   1  35
TORSDOF 15
ENDMDL
MODEL 2
REMARK VINA RESULT:     -12.1      0.671      5.674
REMARK SMILES CN1C(=O)C[C@H](C(=O)Nc2ccc(C(=O)OCCOC(=O)c3ccc(-c4c5nc(c(-c6ccccc6)c6ccc([nH]6)c(-c6ccccc6)c6nc(c(-c7ccccc7)c7ccc4[nH]7)C=C6)C=C5)cc3)cc2)S/C1=[NH+]\c1cccc(C(F)(F)F)c1
REMARK SMILES IDX 17 1 16 2 14 3 15 4 13 5 10 6 11 7 71 8 12 9 70 10 9 11 7 12
REMARK SMILES IDX 8 13 6 15 1 16 2 17 3 18 73 19 4 20 5 21 72 22 74 23 75 25
REMARK SMILES IDX 76 26 84 27 77 28 79 29 78 30 80 31 81 32 82 33 83 34 18 35
REMARK SMILES IDX 19 36 20 37 21 38 22 39 23 40 69 41 24 42 68 43 25 44 26 45
REMARK SMILES IDX 27 46 62 47 28 48 67 49 61 50 63 51 29 52 66 53 60 54 59 55
REMARK SMILES IDX 30 57 52 58 37 59 51 60 38 61 41 62 50 63 64 64 39 65 40 66
REMARK SMILES IDX 49 68 65 69 42 70 31 71 32 72 36 73 33 74 35 75 34 76 53 77
REMARK SMILES IDX 54 78 58 79 55 80 57 81 56 82 43 83 44 84 48 85 45 86 47 87
REMARK SMILES IDX 46 88
REMARK H PARENT 9 14 74 24 63 56 41 67
REMARK Flexibility Score: inf
ROOT
ATOM      1  C   UNL A   1      43.632  21.521  25.835  1.00  0.00     0.275 C 
ENDROOT
BRANCH   1   2
ATOM      2  O   UNL A   1      42.599  21.698  26.823  1.00  0.00    -0.458 OA
BRANCH   2   3
ATOM      3  C   UNL A   1      41.758  20.647  26.985  1.00  0.00     0.338 C 
ATOM      4  O   UNL A   1      42.009  19.594  27.538  1.00  0.00    -0.246 OA
BRANCH   3   5
ATOM      5  C   UNL A   1      40.408  20.970  26.458  1.00  0.00     0.060 A 
ATOM      6  C   UNL A   1      38.009  21.544  25.172  1.00  0.00     0.041 A 
ATOM      7  C   UNL A   1      38.481  20.239  25.165  1.00  0.00     0.027 A 
ATOM      8  C   UNL A   1      38.648  22.528  25.933  1.00  0.00     0.027 A 
ATOM      9  C   UNL A   1      39.713  19.974  25.751  1.00  0.00     0.018 A 
ATOM     10  C   UNL A   1      39.849  22.241  26.585  1.00  0.00     0.018 A 
BRANCH   6  11
ATOM     11  N   UNL A   1      37.002  21.854  24.253  1.00  0.00    -0.325 N 
ATOM     12  C   UNL A   1      35.691  22.134  24.582  1.00  0.00     0.238 C 
ATOM     13  O   UNL A   1      34.976  22.625  23.707  1.00  0.00    -0.273 OA
ATOM     14  H   UNL A   1      37.246  21.872  23.300  1.00  0.00     0.169 HD
BRANCH  12  15
ATOM     15  C   UNL A   1      35.220  21.940  26.028  1.00  0.00     0.160 C 
ATOM     16  C   UNL A   1      31.036  23.263  25.842  1.00  0.00     0.301 C 
ATOM     17  N   UNL A   1      32.390  22.746  25.951  1.00  0.00    -0.194 N 
ATOM     18  C   UNL A   1      33.355  23.677  26.320  1.00  0.00     0.311 C 
ATOM     19  C   UNL A   1      32.631  21.454  25.497  1.00  0.00     0.319 C 
ATOM     20  O   UNL A   1      33.110  24.887  26.390  1.00  0.00    -0.247 OA
ATOM     21  C   UNL A   1      34.742  23.211  26.684  1.00  0.00     0.153 C 
ATOM     22  S   UNL A   1      34.008  20.650  26.206  1.00  0.00    -0.024 SA
ATOM     23  N   UNL A   1      31.817  20.904  24.647  1.00  0.00    -0.235 N 
ATOM     24  H   UNL A   1      30.965  21.344  24.427  1.00  0.00     0.313 HD
BRANCH  23  25
ATOM     25  C   UNL A   1      32.149  19.681  24.044  1.00  0.00     0.126 A 
ATOM     26  C   UNL A   1      32.153  19.603  22.648  1.00  0.00     0.052 A 
ATOM     27  C   UNL A   1      32.522  18.562  24.791  1.00  0.00     0.064 A 
ATOM     28  C   UNL A   1      32.569  18.440  22.002  1.00  0.00     0.005 A 
ATOM     29  C   UNL A   1      33.007  17.409  24.156  1.00  0.00     0.060 A 
ATOM     30  C   UNL A   1      33.009  17.351  22.753  1.00  0.00     0.013 A 
BRANCH  29  31
ATOM     31  C   UNL A   1      33.553  16.263  24.966  1.00  0.00     0.416 C 
ATOM     32  F   UNL A   1      32.738  15.173  24.948  1.00  0.00    -0.166 F 
ATOM     33  F   UNL A   1      34.765  15.834  24.511  1.00  0.00    -0.166 F 
ATOM     34  F   UNL A   1      33.744  16.569  26.281  1.00  0.00    -0.166 F 
ENDBRANCH  29  31
ENDBRANCH  23  25
ENDBRANCH  12  15
ENDBRANCH   6  11
ENDBRANCH   3   5
ENDBRANCH   2   3
ENDBRANCH   1   2
BRANCH   1  35
ATOM     35  C   UNL A   1      43.598  22.654  24.809  1.00  0.00     0.275 C 
BRANCH  35  36
ATOM     36  O   UNL A   1      42.774  23.743  25.269  1.00  0.00    -0.458 OA
BRANCH  36  37
ATOM     37  C   UNL A   1      43.428  24.905  25.486  1.00  0.00     0.338 C 
ATOM     38  O   UNL A   1      44.420  25.323  24.911  1.00  0.00    -0.246 OA
BRANCH  37  39
ATOM     39  C   UNL A   1      42.717  25.708  26.490  1.00  0.00     0.060 A 
ATOM     40  C   UNL A   1      43.108  27.030  26.659  1.00  0.00     0.016 A 
ATOM     41  C   UNL A   1      41.825  25.129  27.386  1.00  0.00     0.016 A 
ATOM     42  C   UNL A   1      42.726  27.743  27.788  1.00  0.00     0.010 A 
ATOM     43  C   UNL A   1      41.331  25.894  28.452  1.00  0.00     0.010 A 
ATOM     44  C   UNL A   1      41.808  27.198  28.693  1.00  0.00    -0.014 A 
BRANCH  44  45
ATOM     45  C   UNL A   1      41.368  27.980  29.886  1.00  0.00     0.031 A 
ATOM     46  C   UNL A   1      40.168  28.890  29.800  1.00  0.00     0.074 A 
ATOM     47  C   UNL A   1      42.031  27.871  31.056  1.00  0.00     0.049 A 
ATOM     48  N   UNL A   1      39.749  29.790  30.655  1.00  0.00    -0.248 NA
ATOM     49  C   UNL A   1      39.339  28.785  28.589  1.00  0.00     0.031 C 
ATOM     50  C   UNL A   1      43.168  26.984  31.317  1.00  0.00     0.029 A 
ATOM     51  N   UNL A   1      41.839  28.513  32.257  1.00  0.00    -0.354 N 
ATOM     52  C   UNL A   1      38.648  30.397  30.060  1.00  0.00     0.074 A 
ATOM     53  C   UNL A   1      38.468  29.768  28.768  1.00  0.00     0.031 C 
ATOM     54  C   UNL A   1      43.540  27.103  32.599  1.00  0.00     0.029 A 
ATOM     55  C   UNL A   1      42.749  28.154  33.224  1.00  0.00     0.049 A 
ATOM     56  H   UNL A   1      41.120  29.167  32.411  1.00  0.00     0.167 HD
ATOM     57  C   UNL A   1      37.859  31.387  30.544  1.00  0.00     0.031 A 
ATOM     58  C   UNL A   1      42.969  28.648  34.457  1.00  0.00     0.031 A 
ATOM     59  C   UNL A   1      38.021  31.988  31.843  1.00  0.00     0.049 A 
ATOM     60  C   UNL A   1      42.135  29.800  34.938  1.00  0.00     0.074 A 
ATOM     61  C   UNL A   1      37.275  32.997  32.427  1.00  0.00     0.029 A 
ATOM     62  N   UNL A   1      38.991  31.626  32.765  1.00  0.00    -0.354 N 
ATOM     63  N   UNL A   1      41.134  30.400  34.343  1.00  0.00    -0.248 NA
ATOM     64  C   UNL A   1      42.475  30.353  36.257  1.00  0.00     0.031 C 
ATOM     65  C   UNL A   1      37.825  33.280  33.681  1.00  0.00     0.029 A 
ATOM     66  C   UNL A   1      38.874  32.405  33.904  1.00  0.00     0.049 A 
ATOM     67  H   UNL A   1      39.664  30.920  32.630  1.00  0.00     0.167 HD
ATOM     68  C   UNL A   1      40.708  31.386  35.223  1.00  0.00     0.074 A 
ATOM     69  C   UNL A   1      41.547  31.288  36.400  1.00  0.00     0.031 C 
ATOM     70  C   UNL A   1      39.712  32.291  35.069  1.00  0.00     0.031 A 
BRANCH  57  71
ATOM     71  C   UNL A   1      36.772  31.916  29.648  1.00  0.00    -0.014 A 
ATOM     72  C   UNL A   1      36.973  33.035  28.824  1.00  0.00     0.009 A 
ATOM     73  C   UNL A   1      35.533  31.255  29.599  1.00  0.00     0.009 A 
ATOM     74  C   UNL A   1      35.944  33.501  28.000  1.00  0.00     0.001 A 
ATOM     75  C   UNL A   1      34.518  31.704  28.752  1.00  0.00     0.001 A 
ATOM     76  C   UNL A   1      34.721  32.834  27.961  1.00  0.00     0.000 A 
ENDBRANCH  57  71
BRANCH  58  77
ATOM     77  C   UNL A   1      44.066  28.099  35.300  1.00  0.00    -0.014 A 
ATOM     78  C   UNL A   1      43.828  27.032  36.178  1.00  0.00     0.009 A 
ATOM     79  C   UNL A   1      45.359  28.647  35.236  1.00  0.00     0.009 A 
ATOM     80  C   UNL A   1      44.853  26.541  36.989  1.00  0.00     0.001 A 
ATOM     81  C   UNL A   1      46.390  28.130  36.021  1.00  0.00     0.001 A 
ATOM     82  C   UNL A   1      46.134  27.085  36.906  1.00  0.00     0.000 A 
ENDBRANCH  58  77
BRANCH  70  83
ATOM     83  C   UNL A   1      39.442  33.214  36.224  1.00  0.00    -0.014 A 
ATOM     84  C   UNL A   1      38.582  32.845  37.270  1.00  0.00     0.009 A 
ATOM     85  C   UNL A   1      40.085  34.461  36.277  1.00  0.00     0.009 A 
ATOM     86  C   UNL A   1      38.346  33.725  38.329  1.00  0.00     0.001 A 
ATOM     87  C   UNL A   1      39.870  35.323  37.352  1.00  0.00     0.001 A 
ATOM     88  C   UNL A   1      38.993  34.958  38.372  1.00  0.00     0.000 A 
ENDBRANCH  70  83
ENDBRANCH  44  45
ENDBRANCH  37  39
ENDBRANCH  36  37
ENDBRANCH  35  36
ENDBRANCH   1  35
TORSDOF 15
ENDMDL
MODEL 3
REMARK VINA RESULT:     -12.0      3.007      4.294
REMARK SMILES CN1C(=O)C[C@H](C(=O)Nc2ccc(C(=O)OCCOC(=O)c3ccc(-c4c5nc(c(-c6ccccc6)c6ccc([nH]6)c(-c6ccccc6)c6nc(c(-c7ccccc7)c7ccc4[nH]7)C=C6)C=C5)cc3)cc2)S/C1=[NH+]\c1cccc(C(F)(F)F)c1
REMARK SMILES IDX 17 1 16 2 14 3 15 4 13 5 10 6 11 7 71 8 12 9 70 10 9 11 7 12
REMARK SMILES IDX 8 13 6 15 1 16 2 17 3 18 73 19 4 20 5 21 72 22 74 23 75 25
REMARK SMILES IDX 76 26 84 27 77 28 79 29 78 30 80 31 81 32 82 33 83 34 18 35
REMARK SMILES IDX 19 36 20 37 21 38 22 39 23 40 69 41 24 42 68 43 25 44 26 45
REMARK SMILES IDX 27 46 62 47 28 48 67 49 61 50 63 51 29 52 66 53 60 54 59 55
REMARK SMILES IDX 30 57 52 58 37 59 51 60 38 61 41 62 50 63 64 64 39 65 40 66
REMARK SMILES IDX 49 68 65 69 42 70 31 71 32 72 36 73 33 74 35 75 34 76 53 77
REMARK SMILES IDX 54 78 58 79 55 80 57 81 56 82 43 83 44 84 48 85 45 86 47 87
REMARK SMILES IDX 46 88
REMARK H PARENT 9 14 74 24 63 56 41 67
REMARK Flexibility Score: inf
ROOT
ATOM      1  C   UNL A   1      42.854  21.031  25.957  1.00  0.00     0.275 C 
ENDROOT
BRANCH   1   2
ATOM      2  O   UNL A   1      41.569  21.590  26.292  1.00  0.00    -0.458 OA
BRANCH   2   3
ATOM      3  C   UNL A   1      40.502  20.792  26.046  1.00  0.00     0.338 C 
ATOM      4  O   UNL A   1      40.503  19.580  25.969  1.00  0.00    -0.246 OA
BRANCH   3   5
ATOM      5  C   UNL A   1      39.256  21.596  25.956  1.00  0.00     0.060 A 
ATOM      6  C   UNL A   1      36.912  23.086  26.114  1.00  0.00     0.041 A 
ATOM      7  C   UNL A   1      38.111  23.674  26.495  1.00  0.00     0.027 A 
ATOM      8  C   UNL A   1      36.897  21.818  25.523  1.00  0.00     0.027 A 
ATOM      9  C   UNL A   1      39.265  22.900  26.477  1.00  0.00     0.018 A 
ATOM     10  C   UNL A   1      38.073  21.071  25.437  1.00  0.00     0.018 A 
BRANCH   6  11
ATOM     11  N   UNL A   1      35.739  23.732  26.515  1.00  0.00    -0.325 N 
ATOM     12  C   UNL A   1      34.676  24.026  25.686  1.00  0.00     0.238 C 
ATOM     13  O   UNL A   1      33.618  24.372  26.215  1.00  0.00    -0.273 OA
ATOM     14  H   UNL A   1      35.667  23.998  27.459  1.00  0.00     0.169 HD
BRANCH  12  15
ATOM     15  C   UNL A   1      34.814  23.799  24.176  1.00  0.00     0.160 C 
ATOM     16  C   UNL A   1      30.727  22.685  23.013  1.00  0.00     0.301 C 
ATOM     17  N   UNL A   1      32.080  23.116  23.323  1.00  0.00    -0.194 N 
ATOM     18  C   UNL A   1      32.975  22.096  23.626  1.00  0.00     0.311 C 
ATOM     19  C   UNL A   1      32.307  24.479  23.483  1.00  0.00     0.319 C 
ATOM     20  O   UNL A   1      32.611  20.925  23.781  1.00  0.00    -0.247 OA
ATOM     21  C   UNL A   1      34.447  22.403  23.738  1.00  0.00     0.153 C 
ATOM     22  S   UNL A   1      33.947  25.008  23.200  1.00  0.00    -0.024 SA
ATOM     23  N   UNL A   1      31.318  25.272  23.762  1.00  0.00    -0.235 N 
ATOM     24  H   UNL A   1      30.394  24.936  23.730  1.00  0.00     0.313 HD
BRANCH  23  25
ATOM     25  C   UNL A   1      31.564  26.610  24.108  1.00  0.00     0.126 A 
ATOM     26  C   UNL A   1      31.532  27.579  23.099  1.00  0.00     0.052 A 
ATOM     27  C   UNL A   1      31.789  27.007  25.427  1.00  0.00     0.064 A 
ATOM     28  C   UNL A   1      31.674  28.931  23.408  1.00  0.00     0.005 A 
ATOM     29  C   UNL A   1      31.866  28.367  25.761  1.00  0.00     0.060 A 
ATOM     30  C   UNL A   1      31.827  29.325  24.735  1.00  0.00     0.013 A 
BRANCH  29  31
ATOM     31  C   UNL A   1      31.954  28.796  27.201  1.00  0.00     0.416 C 
ATOM     32  F   UNL A   1      33.161  28.512  27.761  1.00  0.00    -0.166 F 
ATOM     33  F   UNL A   1      31.775  30.139  27.357  1.00  0.00    -0.166 F 
ATOM     34  F   UNL A   1      31.019  28.209  28.002  1.00  0.00    -0.166 F 
ENDBRANCH  29  31
ENDBRANCH  23  25
ENDBRANCH  12  15
ENDBRANCH   6  11
ENDBRANCH   3   5
ENDBRANCH   2   3
ENDBRANCH   1   2
BRANCH   1  35
ATOM     35  C   UNL A   1      43.586  21.923  24.953  1.00  0.00     0.275 C 
BRANCH  35  36
ATOM     36  O   UNL A   1      42.923  23.195  24.814  1.00  0.00    -0.458 OA
BRANCH  36  37
ATOM     37  C   UNL A   1      43.684  24.274  25.106  1.00  0.00     0.338 C 
ATOM     38  O   UNL A   1      44.763  24.578  24.625  1.00  0.00    -0.246 OA
BRANCH  37  39
ATOM     39  C   UNL A   1      42.984  25.146  26.058  1.00  0.00     0.060 A 
ATOM     40  C   UNL A   1      43.278  26.504  26.032  1.00  0.00     0.016 A 
ATOM     41  C   UNL A   1      42.207  24.625  27.087  1.00  0.00     0.016 A 
ATOM     42  C   UNL A   1      42.921  27.327  27.092  1.00  0.00     0.010 A 
ATOM     43  C   UNL A   1      41.730  25.483  28.088  1.00  0.00     0.010 A 
ATOM     44  C   UNL A   1      42.117  26.838  28.127  1.00  0.00    -0.014 A 
BRANCH  44  45
ATOM     45  C   UNL A   1      41.701  27.734  29.247  1.00  0.00     0.031 A 
ATOM     46  C   UNL A   1      42.457  27.723  30.553  1.00  0.00     0.074 A 
ATOM     47  C   UNL A   1      40.653  28.571  29.099  1.00  0.00     0.049 A 
ATOM     48  N   UNL A   1      42.140  28.274  31.698  1.00  0.00    -0.248 NA
ATOM     49  C   UNL A   1      43.730  26.984  30.578  1.00  0.00     0.031 C 
ATOM     50  C   UNL A   1      39.863  28.747  27.877  1.00  0.00     0.029 A 
ATOM     51  N   UNL A   1      40.070  29.443  29.990  1.00  0.00    -0.354 N 
ATOM     52  C   UNL A   1      43.138  27.899  32.590  1.00  0.00     0.074 A 
ATOM     53  C   UNL A   1      44.068  27.067  31.856  1.00  0.00     0.031 C 
ATOM     54  C   UNL A   1      38.936  29.694  28.079  1.00  0.00     0.029 A 
ATOM     55  C   UNL A   1      38.986  30.113  29.473  1.00  0.00     0.049 A 
ATOM     56  H   UNL A   1      40.397  29.574  30.909  1.00  0.00     0.167 HD
ATOM     57  C   UNL A   1      43.269  28.218  33.901  1.00  0.00     0.031 A 
ATOM     58  C   UNL A   1      38.092  30.930  30.059  1.00  0.00     0.031 A 
ATOM     59  C   UNL A   1      42.359  29.072  34.621  1.00  0.00     0.049 A 
ATOM     60  C   UNL A   1      38.210  31.202  31.530  1.00  0.00     0.074 A 
ATOM     61  C   UNL A   1      42.403  29.457  35.949  1.00  0.00     0.029 A 
ATOM     62  N   UNL A   1      41.246  29.685  34.066  1.00  0.00    -0.354 N 
ATOM     63  N   UNL A   1      39.127  30.796  32.374  1.00  0.00    -0.248 NA
ATOM     64  C   UNL A   1      37.158  32.032  32.134  1.00  0.00     0.031 C 
ATOM     65  C   UNL A   1      41.289  30.260  36.211  1.00  0.00     0.029 A 
ATOM     66  C   UNL A   1      40.585  30.428  35.030  1.00  0.00     0.049 A 
ATOM     67  H   UNL A   1      40.966  29.604  33.125  1.00  0.00     0.167 HD
ATOM     68  C   UNL A   1      38.777  31.340  33.603  1.00  0.00     0.074 A 
ATOM     69  C   UNL A   1      37.576  32.121  33.389  1.00  0.00     0.031 C 
ATOM     70  C   UNL A   1      39.395  31.204  34.800  1.00  0.00     0.031 A 
BRANCH  57  71
ATOM     71  C   UNL A   1      44.416  27.605  34.659  1.00  0.00    -0.014 A 
ATOM     72  C   UNL A   1      45.663  28.241  34.755  1.00  0.00     0.009 A 
ATOM     73  C   UNL A   1      44.229  26.381  35.324  1.00  0.00     0.009 A 
ATOM     74  C   UNL A   1      46.708  27.647  35.469  1.00  0.00     0.001 A 
ATOM     75  C   UNL A   1      45.265  25.805  36.062  1.00  0.00     0.001 A 
ATOM     76  C   UNL A   1      46.507  26.433  36.125  1.00  0.00     0.000 A 
ENDBRANCH  57  71
BRANCH  58  77
ATOM     77  C   UNL A   1      36.967  31.500  29.269  1.00  0.00    -0.014 A 
ATOM     78  C   UNL A   1      37.046  32.800  28.748  1.00  0.00     0.009 A 
ATOM     79  C   UNL A   1      35.802  30.749  29.039  1.00  0.00     0.009 A 
ATOM     80  C   UNL A   1      35.974  33.342  28.034  1.00  0.00     0.001 A 
ATOM     81  C   UNL A   1      34.748  31.280  28.293  1.00  0.00     0.001 A 
ATOM     82  C   UNL A   1      34.831  32.580  27.801  1.00  0.00     0.000 A 
ENDBRANCH  58  77
BRANCH  70  83
ATOM     83  C   UNL A   1      38.810  31.959  35.961  1.00  0.00    -0.014 A 
ATOM     84  C   UNL A   1      37.954  31.337  36.882  1.00  0.00     0.009 A 
ATOM     85  C   UNL A   1      39.149  33.308  36.147  1.00  0.00     0.009 A 
ATOM     86  C   UNL A   1      37.422  32.063  37.949  1.00  0.00     0.001 A 
ATOM     87  C   UNL A   1      38.639  34.022  37.232  1.00  0.00     0.001 A 
ATOM     88  C   UNL A   1      37.769  33.402  38.126  1.00  0.00     0.000 A 
ENDBRANCH  70  83
ENDBRANCH  44  45
ENDBRANCH  37  39
ENDBRANCH  36  37
ENDBRANCH  35  36
ENDBRANCH   1  35
TORSDOF 15
ENDMDL
