MODEL 1
REMARK VINA RESULT:     -10.7      0.000      0.000
REMARK SMILES C[C@@](NC(=O)CSCc1ccccc1)(C(=O)OCCOC(=O)c1ccc(-c2c3nc(c(-c4ccccc4)c4ccc([nH]4)c(-c4ccccc4)c4nc(c(-c5ccccc5)c5ccc2[nH]5)C=C4)C=C3)cc1)C1CC1
REMARK SMILES IDX 17 1 15 2 16 3 2 4 1 5 3 6 4 7 5 9 6 10 7 11 8 12 9 13 10 14
REMARK SMILES IDX 14 15 11 16 13 17 12 18 71 19 72 20 73 21 18 22 19 23 20 24
REMARK SMILES IDX 21 25 22 26 23 27 24 28 70 29 25 30 69 31 26 32 27 33 28 34
REMARK SMILES IDX 63 35 29 36 68 37 62 38 64 39 30 40 67 41 61 42 60 43 31 45
REMARK SMILES IDX 53 46 38 47 52 48 39 49 42 50 51 51 65 52 40 53 41 54 50 56
REMARK SMILES IDX 66 57 43 58 32 59 33 60 37 61 34 62 36 63 35 64 54 65 55 66
REMARK SMILES IDX 59 67 56 68 58 69 57 70 44 71 45 72 49 73 46 74 48 75 47 76
REMARK H PARENT 3 8 64 44 42 55
REMARK Flexibility Score: inf
ROOT
ATOM      1  O   UNL A   1      32.631  28.159  25.900  1.00  0.00    -0.460 OA
ENDROOT
BRANCH   1   2
ATOM      2  C   UNL A   1      31.762  27.225  26.387  1.00  0.00     0.331 C 
ATOM      3  O   UNL A   1      31.007  27.425  27.336  1.00  0.00    -0.249 OA
BRANCH   2   4
ATOM      4  C   UNL A   1      31.866  25.837  25.650  1.00  0.00     0.138 C 
ATOM      5  C   UNL A   1      32.857  25.843  24.472  1.00  0.00     0.048 C 
BRANCH   4   6
ATOM      6  N   UNL A   1      32.206  24.733  26.586  1.00  0.00    -0.340 N 
ATOM      7  C   UNL A   1      31.868  23.417  26.627  1.00  0.00     0.230 C 
ATOM      8  H   UNL A   1      32.795  25.011  27.324  1.00  0.00     0.164 HD
ATOM      9  O   UNL A   1      31.940  22.845  27.719  1.00  0.00    -0.274 OA
BRANCH   7  10
ATOM     10  C   UNL A   1      31.494  22.647  25.380  1.00  0.00     0.169 C 
BRANCH  10  11
ATOM     11  S   UNL A   1      32.968  22.112  24.468  1.00  0.00    -0.147 SA
BRANCH  11  12
ATOM     12  C   UNL A   1      33.398  20.618  25.405  1.00  0.00     0.105 C 
BRANCH  12  13
ATOM     13  C   UNL A   1      33.469  19.437  24.477  1.00  0.00    -0.038 A 
ATOM     14  C   UNL A   1      32.479  19.233  23.508  1.00  0.00     0.004 A 
ATOM     15  C   UNL A   1      34.474  18.472  24.643  1.00  0.00     0.004 A 
ATOM     16  C   UNL A   1      32.479  18.071  22.738  1.00  0.00     0.000 A 
ATOM     17  C   UNL A   1      34.477  17.316  23.868  1.00  0.00     0.000 A 
ATOM     18  C   UNL A   1      33.475  17.113  22.921  1.00  0.00     0.000 A 
ENDBRANCH  12  13
ENDBRANCH  11  12
ENDBRANCH  10  11
ENDBRANCH   7  10
ENDBRANCH   4   6
BRANCH   4  19
ATOM     19  C   UNL A   1      30.474  25.529  25.045  1.00  0.00     0.026 C 
ATOM     20  C   UNL A   1      29.604  26.497  24.265  1.00  0.00     0.007 C 
ATOM     21  C   UNL A   1      30.287  25.365  23.550  1.00  0.00     0.007 C 
ENDBRANCH   4  19
ENDBRANCH   2   4
ENDBRANCH   1   2
BRANCH   1  22
ATOM     22  C   UNL A   1      32.082  29.210  25.068  1.00  0.00     0.274 C 
BRANCH  22  23
ATOM     23  C   UNL A   1      31.740  30.463  25.871  1.00  0.00     0.275 C 
BRANCH  23  24
ATOM     24  O   UNL A   1      32.525  30.490  27.070  1.00  0.00    -0.458 OA
BRANCH  24  25
ATOM     25  C   UNL A   1      33.160  31.661  27.278  1.00  0.00     0.338 C 
ATOM     26  O   UNL A   1      32.679  32.777  27.364  1.00  0.00    -0.246 OA
BRANCH  25  27
ATOM     27  C   UNL A   1      34.545  31.373  27.647  1.00  0.00     0.060 A 
ATOM     28  C   UNL A   1      34.855  30.030  27.851  1.00  0.00     0.016 A 
ATOM     29  C   UNL A   1      35.469  32.374  27.924  1.00  0.00     0.016 A 
ATOM     30  C   UNL A   1      36.053  29.669  28.439  1.00  0.00     0.010 A 
ATOM     31  C   UNL A   1      36.699  32.009  28.477  1.00  0.00     0.010 A 
ATOM     32  C   UNL A   1      36.970  30.662  28.785  1.00  0.00    -0.014 A 
BRANCH  32  33
ATOM     33  C   UNL A   1      38.122  30.297  29.635  1.00  0.00     0.031 A 
ATOM     34  C   UNL A   1      39.233  29.494  29.024  1.00  0.00     0.074 A 
ATOM     35  C   UNL A   1      38.217  30.747  30.898  1.00  0.00     0.049 A 
ATOM     36  N   UNL A   1      40.243  28.903  29.603  1.00  0.00    -0.248 NA
ATOM     37  C   UNL A   1      39.195  29.330  27.560  1.00  0.00     0.031 C 
ATOM     38  C   UNL A   1      37.266  31.645  31.556  1.00  0.00     0.029 A 
ATOM     39  N   UNL A   1      39.176  30.517  31.848  1.00  0.00    -0.354 N 
ATOM     40  C   UNL A   1      40.916  28.236  28.587  1.00  0.00     0.074 A 
ATOM     41  C   UNL A   1      40.213  28.510  27.354  1.00  0.00     0.031 C 
ATOM     42  C   UNL A   1      37.704  31.907  32.799  1.00  0.00     0.029 A 
ATOM     43  C   UNL A   1      38.917  31.135  33.046  1.00  0.00     0.049 A 
ATOM     44  H   UNL A   1      39.973  29.963  31.688  1.00  0.00     0.167 HD
ATOM     45  C   UNL A   1      42.012  27.448  28.685  1.00  0.00     0.031 A 
ATOM     46  C   UNL A   1      39.565  31.047  34.221  1.00  0.00     0.031 A 
ATOM     47  C   UNL A   1      42.721  27.223  29.914  1.00  0.00     0.049 A 
ATOM     48  C   UNL A   1      40.754  30.133  34.320  1.00  0.00     0.074 A 
ATOM     49  C   UNL A   1      43.826  26.426  30.145  1.00  0.00     0.029 A 
ATOM     50  N   UNL A   1      42.398  27.827  31.121  1.00  0.00    -0.354 N 
ATOM     51  N   UNL A   1      41.320  29.411  33.382  1.00  0.00    -0.248 NA
ATOM     52  C   UNL A   1      41.376  30.002  35.643  1.00  0.00     0.031 C 
ATOM     53  C   UNL A   1      44.156  26.526  31.502  1.00  0.00     0.029 A 
ATOM     54  C   UNL A   1      43.280  27.417  32.104  1.00  0.00     0.049 A 
ATOM     55  H   UNL A   1      41.652  28.454  31.257  1.00  0.00     0.167 HD
ATOM     56  C   UNL A   1      42.370  28.745  34.000  1.00  0.00     0.074 A 
ATOM     57  C   UNL A   1      42.373  29.168  35.387  1.00  0.00     0.031 C 
ATOM     58  C   UNL A   1      43.252  27.860  33.474  1.00  0.00     0.031 A 
BRANCH  45  59
ATOM     59  C   UNL A   1      42.448  26.727  27.444  1.00  0.00    -0.014 A 
ATOM     60  C   UNL A   1      43.466  27.224  26.616  1.00  0.00     0.009 A 
ATOM     61  C   UNL A   1      41.805  25.531  27.088  1.00  0.00     0.009 A 
ATOM     62  C   UNL A   1      43.804  26.555  25.437  1.00  0.00     0.001 A 
ATOM     63  C   UNL A   1      42.161  24.852  25.921  1.00  0.00     0.001 A 
ATOM     64  C   UNL A   1      43.154  25.370  25.092  1.00  0.00     0.000 A 
ENDBRANCH  45  59
BRANCH  46  65
ATOM     65  C   UNL A   1      39.071  31.798  35.402  1.00  0.00    -0.014 A 
ATOM     66  C   UNL A   1      38.197  31.194  36.317  1.00  0.00     0.009 A 
ATOM     67  C   UNL A   1      39.481  33.122  35.628  1.00  0.00     0.009 A 
ATOM     68  C   UNL A   1      37.734  31.904  37.427  1.00  0.00     0.001 A 
ATOM     69  C   UNL A   1      39.037  33.821  36.752  1.00  0.00     0.001 A 
ATOM     70  C   UNL A   1      38.159  33.214  37.647  1.00  0.00     0.000 A 
ENDBRANCH  46  65
BRANCH  58  71
ATOM     71  C   UNL A   1      44.301  27.324  34.400  1.00  0.00    -0.014 A 
ATOM     72  C   UNL A   1      45.520  27.996  34.577  1.00  0.00     0.009 A 
ATOM     73  C   UNL A   1      44.053  26.148  35.122  1.00  0.00     0.009 A 
ATOM     74  C   UNL A   1      46.486  27.480  35.441  1.00  0.00     0.001 A 
ATOM     75  C   UNL A   1      45.012  25.647  36.001  1.00  0.00     0.001 A 
ATOM     76  C   UNL A   1      46.230  26.308  36.154  1.00  0.00     0.000 A 
ENDBRANCH  58  71
ENDBRANCH  32  33
ENDBRANCH  25  27
ENDBRANCH  24  25
ENDBRANCH  23  24
ENDBRANCH  22  23
ENDBRANCH   1  22
TORSDOF 17
ENDMDL
MODEL 2
REMARK VINA RESULT:     -10.6      1.863      2.622
REMARK SMILES C[C@@](NC(=O)CSCc1ccccc1)(C(=O)OCCOC(=O)c1ccc(-c2c3nc(c(-c4ccccc4)c4ccc([nH]4)c(-c4ccccc4)c4nc(c(-c5ccccc5)c5ccc2[nH]5)C=C4)C=C3)cc1)C1CC1
REMARK SMILES IDX 17 1 15 2 16 3 2 4 1 5 3 6 4 7 5 9 6 10 7 11 8 12 9 13 10 14
REMARK SMILES IDX 14 15 11 16 13 17 12 18 71 19 72 20 73 21 18 22 19 23 20 24
REMARK SMILES IDX 21 25 22 26 23 27 24 28 70 29 25 30 69 31 26 32 27 33 28 34
REMARK SMILES IDX 63 35 29 36 68 37 62 38 64 39 30 40 67 41 61 42 60 43 31 45
REMARK SMILES IDX 53 46 38 47 52 48 39 49 42 50 51 51 65 52 40 53 41 54 50 56
REMARK SMILES IDX 66 57 43 58 32 59 33 60 37 61 34 62 36 63 35 64 54 65 55 66
REMARK SMILES IDX 59 67 56 68 58 69 57 70 44 71 45 72 49 73 46 74 48 75 47 76
REMARK H PARENT 3 8 64 44 42 55
REMARK Flexibility Score: inf
ROOT
ATOM      1  O   UNL A   1      32.275  27.505  25.237  1.00  0.00    -0.460 OA
ENDROOT
BRANCH   1   2
ATOM      2  C   UNL A   1      31.497  26.959  24.256  1.00  0.00     0.331 C 
ATOM      3  O   UNL A   1      30.810  25.952  24.413  1.00  0.00    -0.249 OA
BRANCH   2   4
ATOM      4  C   UNL A   1      31.616  27.714  22.878  1.00  0.00     0.138 C 
ATOM      5  C   UNL A   1      32.686  28.819  22.877  1.00  0.00     0.048 C 
BRANCH   4   6
ATOM      6  N   UNL A   1      31.859  26.777  21.750  1.00  0.00    -0.340 N 
ATOM      7  C   UNL A   1      32.850  25.886  21.484  1.00  0.00     0.230 C 
ATOM      8  H   UNL A   1      31.162  26.809  21.056  1.00  0.00     0.164 HD
ATOM      9  O   UNL A   1      33.019  25.558  20.305  1.00  0.00    -0.274 OA
BRANCH   7  10
ATOM     10  C   UNL A   1      33.669  25.248  22.583  1.00  0.00     0.169 C 
BRANCH  10  11
ATOM     11  S   UNL A   1      33.520  23.440  22.555  1.00  0.00    -0.147 SA
BRANCH  11  12
ATOM     12  C   UNL A   1      33.681  23.079  24.327  1.00  0.00     0.105 C 
BRANCH  12  13
ATOM     13  C   UNL A   1      35.135  23.010  24.703  1.00  0.00    -0.038 A 
ATOM     14  C   UNL A   1      35.927  21.933  24.286  1.00  0.00     0.004 A 
ATOM     15  C   UNL A   1      35.685  23.973  25.562  1.00  0.00     0.004 A 
ATOM     16  C   UNL A   1      37.238  21.809  24.743  1.00  0.00     0.000 A 
ATOM     17  C   UNL A   1      36.996  23.851  26.012  1.00  0.00     0.000 A 
ATOM     18  C   UNL A   1      37.770  22.765  25.607  1.00  0.00     0.000 A 
ENDBRANCH  12  13
ENDBRANCH  11  12
ENDBRANCH  10  11
ENDBRANCH   7  10
ENDBRANCH   4   6
BRANCH   4  19
ATOM     19  C   UNL A   1      30.261  28.420  22.620  1.00  0.00     0.026 C 
ATOM     20  C   UNL A   1      29.696  29.586  23.409  1.00  0.00     0.007 C 
ATOM     21  C   UNL A   1      30.203  29.806  22.011  1.00  0.00     0.007 C 
ENDBRANCH   4  19
ENDBRANCH   2   4
ENDBRANCH   1   2
BRANCH   1  22
ATOM     22  C   UNL A   1      31.674  27.684  26.543  1.00  0.00     0.274 C 
BRANCH  22  23
ATOM     23  C   UNL A   1      31.743  29.134  27.015  1.00  0.00     0.275 C 
BRANCH  23  24
ATOM     24  O   UNL A   1      32.864  29.784  26.402  1.00  0.00    -0.458 OA
BRANCH  24  25
ATOM     25  C   UNL A   1      33.236  30.925  27.016  1.00  0.00     0.338 C 
ATOM     26  O   UNL A   1      32.533  31.851  27.380  1.00  0.00    -0.246 OA
BRANCH  25  27
ATOM     27  C   UNL A   1      34.632  30.790  27.428  1.00  0.00     0.060 A 
ATOM     28  C   UNL A   1      35.116  29.488  27.527  1.00  0.00     0.016 A 
ATOM     29  C   UNL A   1      35.398  31.875  27.840  1.00  0.00     0.016 A 
ATOM     30  C   UNL A   1      36.329  29.236  28.140  1.00  0.00     0.010 A 
ATOM     31  C   UNL A   1      36.644  31.627  28.420  1.00  0.00     0.010 A 
ATOM     32  C   UNL A   1      37.087  30.305  28.619  1.00  0.00    -0.014 A 
BRANCH  32  33
ATOM     33  C   UNL A   1      38.244  30.018  29.491  1.00  0.00     0.031 A 
ATOM     34  C   UNL A   1      39.394  29.244  28.917  1.00  0.00     0.074 A 
ATOM     35  C   UNL A   1      38.307  30.513  30.739  1.00  0.00     0.049 A 
ATOM     36  N   UNL A   1      40.423  28.716  29.524  1.00  0.00    -0.248 NA
ATOM     37  C   UNL A   1      39.378  29.030  27.459  1.00  0.00     0.031 C 
ATOM     38  C   UNL A   1      37.313  31.391  31.359  1.00  0.00     0.029 A 
ATOM     39  N   UNL A   1      39.266  30.356  31.705  1.00  0.00    -0.354 N 
ATOM     40  C   UNL A   1      41.134  28.045  28.537  1.00  0.00     0.074 A 
ATOM     41  C   UNL A   1      40.432  28.248  27.289  1.00  0.00     0.031 C 
ATOM     42  C   UNL A   1      37.727  31.712  32.596  1.00  0.00     0.029 A 
ATOM     43  C   UNL A   1      38.969  31.001  32.879  1.00  0.00     0.049 A 
ATOM     44  H   UNL A   1      40.088  29.831  31.570  1.00  0.00     0.167 HD
ATOM     45  C   UNL A   1      42.261  27.309  28.670  1.00  0.00     0.031 A 
ATOM     46  C   UNL A   1      39.608  30.980  34.062  1.00  0.00     0.031 A 
ATOM     47  C   UNL A   1      42.967  27.155  29.912  1.00  0.00     0.049 A 
ATOM     48  C   UNL A   1      40.834  30.121  34.201  1.00  0.00     0.074 A 
ATOM     49  C   UNL A   1      44.103  26.414  30.179  1.00  0.00     0.029 A 
ATOM     50  N   UNL A   1      42.606  27.784  31.096  1.00  0.00    -0.354 N 
ATOM     51  N   UNL A   1      41.440  29.393  33.293  1.00  0.00    -0.248 NA
ATOM     52  C   UNL A   1      41.448  30.061  35.534  1.00  0.00     0.031 C 
ATOM     53  C   UNL A   1      44.415  26.573  31.535  1.00  0.00     0.029 A 
ATOM     54  C   UNL A   1      43.495  27.444  32.099  1.00  0.00     0.049 A 
ATOM     55  H   UNL A   1      41.833  28.383  31.204  1.00  0.00     0.167 HD
ATOM     56  C   UNL A   1      42.511  28.795  33.942  1.00  0.00     0.074 A 
ATOM     57  C   UNL A   1      42.483  29.262  35.314  1.00  0.00     0.031 C 
ATOM     58  C   UNL A   1      43.435  27.931  33.453  1.00  0.00     0.031 A 
BRANCH  45  59
ATOM     59  C   UNL A   1      42.740  26.567  27.457  1.00  0.00    -0.014 A 
ATOM     60  C   UNL A   1      43.670  27.122  26.566  1.00  0.00     0.009 A 
ATOM     61  C   UNL A   1      42.227  25.286  27.194  1.00  0.00     0.009 A 
ATOM     62  C   UNL A   1      44.048  26.425  25.416  1.00  0.00     0.001 A 
ATOM     63  C   UNL A   1      42.624  24.582  26.056  1.00  0.00     0.001 A 
ATOM     64  C   UNL A   1      43.527  25.156  25.163  1.00  0.00     0.000 A 
ENDBRANCH  45  59
BRANCH  46  65
ATOM     65  C   UNL A   1      39.071  31.748  35.213  1.00  0.00    -0.014 A 
ATOM     66  C   UNL A   1      38.281  31.116  36.185  1.00  0.00     0.009 A 
ATOM     67  C   UNL A   1      39.355  33.116  35.353  1.00  0.00     0.009 A 
ATOM     68  C   UNL A   1      37.778  31.843  37.267  1.00  0.00     0.001 A 
ATOM     69  C   UNL A   1      38.872  33.832  36.449  1.00  0.00     0.001 A 
ATOM     70  C   UNL A   1      38.078  33.197  37.401  1.00  0.00     0.000 A 
ENDBRANCH  46  65
BRANCH  58  71
ATOM     71  C   UNL A   1      44.496  27.471  34.405  1.00  0.00    -0.014 A 
ATOM     72  C   UNL A   1      44.331  26.302  35.162  1.00  0.00     0.009 A 
ATOM     73  C   UNL A   1      45.686  28.204  34.522  1.00  0.00     0.009 A 
ATOM     74  C   UNL A   1      45.330  25.892  36.046  1.00  0.00     0.001 A 
ATOM     75  C   UNL A   1      46.691  27.780  35.391  1.00  0.00     0.001 A 
ATOM     76  C   UNL A   1      46.509  26.630  36.159  1.00  0.00     0.000 A 
ENDBRANCH  58  71
ENDBRANCH  32  33
ENDBRANCH  25  27
ENDBRANCH  24  25
ENDBRANCH  23  24
ENDBRANCH  22  23
ENDBRANCH   1  22
TORSDOF 17
ENDMDL
MODEL 3
REMARK VINA RESULT:     -10.6      3.812      9.154
REMARK SMILES C[C@@](NC(=O)CSCc1ccccc1)(C(=O)OCCOC(=O)c1ccc(-c2c3nc(c(-c4ccccc4)c4ccc([nH]4)c(-c4ccccc4)c4nc(c(-c5ccccc5)c5ccc2[nH]5)C=C4)C=C3)cc1)C1CC1
REMARK SMILES IDX 17 1 15 2 16 3 2 4 1 5 3 6 4 7 5 9 6 10 7 11 8 12 9 13 10 14
REMARK SMILES IDX 14 15 11 16 13 17 12 18 71 19 72 20 73 21 18 22 19 23 20 24
REMARK SMILES IDX 21 25 22 26 23 27 24 28 70 29 25 30 69 31 26 32 27 33 28 34
REMARK SMILES IDX 63 35 29 36 68 37 62 38 64 39 30 40 67 41 61 42 60 43 31 45
REMARK SMILES IDX 53 46 38 47 52 48 39 49 42 50 51 51 65 52 40 53 41 54 50 56
REMARK SMILES IDX 66 57 43 58 32 59 33 60 37 61 34 62 36 63 35 64 54 65 55 66
REMARK SMILES IDX 59 67 56 68 58 69 57 70 44 71 45 72 49 73 46 74 48 75 47 76
REMARK H PARENT 3 8 64 44 42 55
REMARK Flexibility Score: inf
ROOT
ATOM      1  O   UNL A   1      34.798  22.649  25.018  1.00  0.00    -0.460 OA
ENDROOT
BRANCH   1   2
ATOM      2  C   UNL A   1      33.504  22.371  24.681  1.00  0.00     0.331 C 
ATOM      3  O   UNL A   1      32.946  22.825  23.685  1.00  0.00    -0.249 OA
BRANCH   2   4
ATOM      4  C   UNL A   1      32.770  21.458  25.736  1.00  0.00     0.138 C 
ATOM      5  C   UNL A   1      33.632  21.134  26.968  1.00  0.00     0.048 C 
BRANCH   4   6
ATOM      6  N   UNL A   1      31.473  22.039  26.169  1.00  0.00    -0.340 N 
ATOM      7  C   UNL A   1      31.136  23.218  26.756  1.00  0.00     0.230 C 
ATOM      8  H   UNL A   1      30.702  21.452  25.996  1.00  0.00     0.164 HD
ATOM      9  O   UNL A   1      30.069  23.261  27.376  1.00  0.00    -0.274 OA
BRANCH   7  10
ATOM     10  C   UNL A   1      31.982  24.462  26.597  1.00  0.00     0.169 C 
BRANCH  10  11
ATOM     11  S   UNL A   1      30.990  25.867  26.023  1.00  0.00    -0.147 SA
BRANCH  11  12
ATOM     12  C   UNL A   1      32.234  26.760  25.048  1.00  0.00     0.105 C 
BRANCH  12  13
ATOM     13  C   UNL A   1      32.641  28.016  25.768  1.00  0.00    -0.038 A 
ATOM     14  C   UNL A   1      33.847  28.070  26.477  1.00  0.00     0.004 A 
ATOM     15  C   UNL A   1      31.764  29.110  25.823  1.00  0.00     0.004 A 
ATOM     16  C   UNL A   1      34.158  29.190  27.248  1.00  0.00     0.000 A 
ATOM     17  C   UNL A   1      32.080  30.230  26.587  1.00  0.00     0.000 A 
ATOM     18  C   UNL A   1      33.273  30.266  27.304  1.00  0.00     0.000 A 
ENDBRANCH  12  13
ENDBRANCH  11  12
ENDBRANCH  10  11
ENDBRANCH   7  10
ENDBRANCH   4   6
BRANCH   4  19
ATOM     19  C   UNL A   1      32.472  20.104  25.046  1.00  0.00     0.026 C 
ATOM     20  C   UNL A   1      33.489  19.199  24.374  1.00  0.00     0.007 C 
ATOM     21  C   UNL A   1      32.876  18.792  25.685  1.00  0.00     0.007 C 
ENDBRANCH   4  19
ENDBRANCH   2   4
ENDBRANCH   1   2
BRANCH   1  22
ATOM     22  C   UNL A   1      35.840  22.018  24.235  1.00  0.00     0.274 C 
BRANCH  22  23
ATOM     23  C   UNL A   1      36.839  21.262  25.108  1.00  0.00     0.275 C 
BRANCH  23  24
ATOM     24  O   UNL A   1      38.133  21.867  24.987  1.00  0.00    -0.458 OA
BRANCH  24  25
ATOM     25  C   UNL A   1      39.017  21.454  25.917  1.00  0.00     0.338 C 
ATOM     26  O   UNL A   1      39.524  20.353  26.041  1.00  0.00    -0.246 OA
BRANCH  25  27
ATOM     27  C   UNL A   1      39.497  22.626  26.646  1.00  0.00     0.060 A 
ATOM     28  C   UNL A   1      38.955  23.850  26.260  1.00  0.00     0.016 A 
ATOM     29  C   UNL A   1      40.536  22.560  27.567  1.00  0.00     0.016 A 
ATOM     30  C   UNL A   1      39.512  25.034  26.704  1.00  0.00     0.010 A 
ATOM     31  C   UNL A   1      41.073  23.754  28.052  1.00  0.00     0.010 A 
ATOM     32  C   UNL A   1      40.596  24.993  27.579  1.00  0.00    -0.014 A 
BRANCH  32  33
ATOM     33  C   UNL A   1      41.342  26.241  27.844  1.00  0.00     0.031 A 
ATOM     34  C   UNL A   1      40.735  27.249  28.776  1.00  0.00     0.074 A 
ATOM     35  C   UNL A   1      42.571  26.432  27.335  1.00  0.00     0.049 A 
ATOM     36  N   UNL A   1      41.101  28.479  29.017  1.00  0.00    -0.248 NA
ATOM     37  C   UNL A   1      39.550  26.810  29.534  1.00  0.00     0.031 C 
ATOM     38  C   UNL A   1      43.318  25.466  26.528  1.00  0.00     0.029 A 
ATOM     39  N   UNL A   1      43.414  27.506  27.441  1.00  0.00    -0.354 N 
ATOM     40  C   UNL A   1      40.149  28.985  29.894  1.00  0.00     0.074 A 
ATOM     41  C   UNL A   1      39.202  27.925  30.158  1.00  0.00     0.031 C 
ATOM     42  C   UNL A   1      44.520  25.986  26.229  1.00  0.00     0.029 A 
ATOM     43  C   UNL A   1      44.592  27.344  26.756  1.00  0.00     0.049 A 
ATOM     44  H   UNL A   1      43.196  28.315  27.957  1.00  0.00     0.167 HD
ATOM     45  C   UNL A   1      40.067  30.231  30.413  1.00  0.00     0.031 A 
ATOM     46  C   UNL A   1      45.594  28.216  26.544  1.00  0.00     0.031 A 
ATOM     47  C   UNL A   1      41.043  31.258  30.172  1.00  0.00     0.049 A 
ATOM     48  C   UNL A   1      45.463  29.609  27.092  1.00  0.00     0.074 A 
ATOM     49  C   UNL A   1      41.055  32.566  30.618  1.00  0.00     0.029 A 
ATOM     50  N   UNL A   1      42.200  31.073  29.429  1.00  0.00    -0.354 N 
ATOM     51  N   UNL A   1      44.504  30.121  27.826  1.00  0.00    -0.248 NA
ATOM     52  C   UNL A   1      46.540  30.551  26.760  1.00  0.00     0.031 C 
ATOM     53  C   UNL A   1      42.210  33.182  30.121  1.00  0.00     0.029 A 
ATOM     54  C   UNL A   1      42.934  32.244  29.399  1.00  0.00     0.049 A 
ATOM     55  H   UNL A   1      42.460  30.232  28.988  1.00  0.00     0.167 HD
ATOM     56  C   UNL A   1      44.864  31.443  28.051  1.00  0.00     0.074 A 
ATOM     57  C   UNL A   1      46.140  31.645  27.393  1.00  0.00     0.031 C 
ATOM     58  C   UNL A   1      44.201  32.407  28.735  1.00  0.00     0.031 A 
BRANCH  45  59
ATOM     59  C   UNL A   1      38.847  30.556  31.224  1.00  0.00    -0.014 A 
ATOM     60  C   UNL A   1      37.657  31.001  30.628  1.00  0.00     0.009 A 
ATOM     61  C   UNL A   1      38.902  30.430  32.621  1.00  0.00     0.009 A 
ATOM     62  C   UNL A   1      36.560  31.350  31.419  1.00  0.00     0.001 A 
ATOM     63  C   UNL A   1      37.796  30.757  33.408  1.00  0.00     0.001 A 
ATOM     64  C   UNL A   1      36.630  31.225  32.807  1.00  0.00     0.000 A 
ENDBRANCH  45  59
BRANCH  46  65
ATOM     65  C   UNL A   1      46.771  27.815  25.733  1.00  0.00    -0.014 A 
ATOM     66  C   UNL A   1      47.932  27.328  26.354  1.00  0.00     0.009 A 
ATOM     67  C   UNL A   1      46.738  27.905  24.333  1.00  0.00     0.009 A 
ATOM     68  C   UNL A   1      49.037  26.952  25.587  1.00  0.00     0.001 A 
ATOM     69  C   UNL A   1      47.834  27.505  23.569  1.00  0.00     0.001 A 
ATOM     70  C   UNL A   1      48.986  27.035  24.196  1.00  0.00     0.000 A 
ENDBRANCH  46  65
BRANCH  58  71
ATOM     71  C   UNL A   1      44.866  33.747  28.824  1.00  0.00    -0.014 A 
ATOM     72  C   UNL A   1      44.610  34.746  27.873  1.00  0.00     0.009 A 
ATOM     73  C   UNL A   1      45.737  34.018  29.889  1.00  0.00     0.009 A 
ATOM     74  C   UNL A   1      45.242  35.986  27.971  1.00  0.00     0.001 A 
ATOM     75  C   UNL A   1      46.350  35.266  29.997  1.00  0.00     0.001 A 
ATOM     76  C   UNL A   1      46.109  36.246  29.033  1.00  0.00     0.000 A 
ENDBRANCH  58  71
ENDBRANCH  32  33
ENDBRANCH  25  27
ENDBRANCH  24  25
ENDBRANCH  23  24
ENDBRANCH  22  23
ENDBRANCH   1  22
TORSDOF 17
ENDMDL
