MODEL 1
REMARK VINA RESULT:     -10.4      0.000      0.000
REMARK SMILES Nc1c(CC(=O)OCCOC(=O)c2ccc(-c3c4nc(c(-c5ccccc5)c5ccc([nH]5)c(-c5ccccc5)c5nc(c(-c6ccccc6)c6ccc3[nH]6)C=C5)C=C4)cc2)cccc1C(=O)c1ccc(Br)cc1
REMARK SMILES IDX 8 1 7 2 5 3 6 4 4 5 3 6 2 7 64 8 61 9 63 10 62 11 1 12 65 15
REMARK SMILES IDX 66 16 67 17 68 18 73 19 69 20 72 21 70 22 71 23 9 24 10 25
REMARK SMILES IDX 11 26 12 27 13 28 14 29 60 30 15 31 59 32 16 33 17 34 18 35
REMARK SMILES IDX 53 36 19 37 58 38 52 39 54 40 20 41 57 42 51 43 50 44 21 46
REMARK SMILES IDX 43 47 28 48 42 49 29 50 32 51 41 52 55 53 30 54 31 55 40 57
REMARK SMILES IDX 56 58 33 59 22 60 23 61 27 62 24 63 26 64 25 65 44 66 45 67
REMARK SMILES IDX 49 68 46 69 48 70 47 71 34 72 35 73 39 74 36 75 38 76 37 77
REMARK H PARENT 1 13 1 14 54 45 32 56
REMARK Flexibility Score: inf
ROOT
ATOM      1  C   UNL A   1      42.645  18.890  26.554  1.00  0.00     0.274 C 
ENDROOT
BRANCH   1   2
ATOM      2  O   UNL A   1      41.651  19.591  25.782  1.00  0.00    -0.462 OA
BRANCH   2   3
ATOM      3  C   UNL A   1      41.507  20.913  26.049  1.00  0.00     0.310 C 
ATOM      4  O   UNL A   1      42.156  21.808  25.514  1.00  0.00    -0.252 OA
BRANCH   3   5
ATOM      5  C   UNL A   1      40.421  21.224  27.049  1.00  0.00     0.160 C 
BRANCH   5   6
ATOM      6  C   UNL A   1      39.405  22.273  26.658  1.00  0.00    -0.013 A 
ATOM      7  C   UNL A   1      38.323  21.972  25.804  1.00  0.00     0.047 A 
ATOM      8  C   UNL A   1      37.304  22.945  25.661  1.00  0.00     0.046 A 
ATOM      9  C   UNL A   1      39.563  23.575  27.169  1.00  0.00     0.006 A 
ATOM     10  C   UNL A   1      37.477  24.238  26.183  1.00  0.00     0.014 A 
ATOM     11  C   UNL A   1      38.617  24.559  26.911  1.00  0.00     0.001 A 
BRANCH   7  12
ATOM     12  N   UNL A   1      38.248  20.705  25.223  1.00  0.00    -0.398 N 
ATOM     13  H   UNL A   1      39.069  20.255  24.918  1.00  0.00     0.156 HD
ATOM     14  H   UNL A   1      37.374  20.262  25.118  1.00  0.00     0.156 HD
ENDBRANCH   7  12
BRANCH   8  15
ATOM     15  C   UNL A   1      36.007  22.701  24.960  1.00  0.00     0.195 C 
ATOM     16  O   UNL A   1      35.848  21.691  24.279  1.00  0.00    -0.289 OA
BRANCH  15  17
ATOM     17  C   UNL A   1      34.881  23.654  25.073  1.00  0.00     0.023 A 
ATOM     18  C   UNL A   1      34.080  23.587  26.219  1.00  0.00     0.013 A 
ATOM     19  C   UNL A   1      34.674  24.660  24.121  1.00  0.00     0.013 A 
ATOM     20  C   UNL A   1      33.118  24.571  26.449  1.00  0.00     0.016 A 
ATOM     21  C   UNL A   1      33.706  25.640  24.352  1.00  0.00     0.016 A 
ATOM     22  C   UNL A   1      32.946  25.600  25.522  1.00  0.00     0.018 A 
ATOM     23  Br  UNL A   1      31.691  26.971  25.870  1.00  0.00    -0.051 Br
ENDBRANCH  15  17
ENDBRANCH   8  15
ENDBRANCH   5   6
ENDBRANCH   3   5
ENDBRANCH   2   3
ENDBRANCH   1   2
BRANCH   1  24
ATOM     24  C   UNL A   1      43.706  18.304  25.627  1.00  0.00     0.275 C 
BRANCH  24  25
ATOM     25  O   UNL A   1      43.858  19.143  24.466  1.00  0.00    -0.458 OA
BRANCH  25  26
ATOM     26  C   UNL A   1      45.128  19.491  24.164  1.00  0.00     0.338 C 
ATOM     27  O   UNL A   1      46.012  18.791  23.703  1.00  0.00    -0.246 OA
BRANCH  26  28
ATOM     28  C   UNL A   1      45.340  20.907  24.496  1.00  0.00     0.060 A 
ATOM     29  C   UNL A   1      45.744  21.282  25.779  1.00  0.00     0.016 A 
ATOM     30  C   UNL A   1      45.026  21.872  23.541  1.00  0.00     0.016 A 
ATOM     31  C   UNL A   1      45.779  22.630  26.132  1.00  0.00     0.010 A 
ATOM     32  C   UNL A   1      45.137  23.222  23.873  1.00  0.00     0.010 A 
ATOM     33  C   UNL A   1      45.492  23.614  25.176  1.00  0.00    -0.014 A 
BRANCH  33  34
ATOM     34  C   UNL A   1      45.547  25.060  25.504  1.00  0.00     0.031 A 
ATOM     35  C   UNL A   1      46.866  25.777  25.475  1.00  0.00     0.074 A 
ATOM     36  C   UNL A   1      44.437  25.708  25.901  1.00  0.00     0.049 A 
ATOM     37  N   UNL A   1      47.193  26.930  26.000  1.00  0.00    -0.248 NA
ATOM     38  C   UNL A   1      47.968  25.098  24.774  1.00  0.00     0.031 C 
ATOM     39  C   UNL A   1      43.082  25.153  25.917  1.00  0.00     0.029 A 
ATOM     40  N   UNL A   1      44.282  26.978  26.399  1.00  0.00    -0.354 N 
ATOM     41  C   UNL A   1      48.548  27.091  25.740  1.00  0.00     0.074 A 
ATOM     42  C   UNL A   1      48.982  25.922  25.005  1.00  0.00     0.031 C 
ATOM     43  C   UNL A   1      42.237  26.074  26.405  1.00  0.00     0.029 A 
ATOM     44  C   UNL A   1      43.000  27.248  26.812  1.00  0.00     0.049 A 
ATOM     45  H   UNL A   1      45.018  27.631  26.455  1.00  0.00     0.167 HD
ATOM     46  C   UNL A   1      49.357  28.116  26.095  1.00  0.00     0.031 A 
ATOM     47  C   UNL A   1      42.504  28.294  27.499  1.00  0.00     0.031 A 
ATOM     48  C   UNL A   1      48.915  29.283  26.812  1.00  0.00     0.049 A 
ATOM     49  C   UNL A   1      43.431  29.387  27.942  1.00  0.00     0.074 A 
ATOM     50  C   UNL A   1      49.655  30.378  27.221  1.00  0.00     0.029 A 
ATOM     51  N   UNL A   1      47.608  29.508  27.214  1.00  0.00    -0.354 N 
ATOM     52  N   UNL A   1      44.720  29.507  27.742  1.00  0.00    -0.248 NA
ATOM     53  C   UNL A   1      42.837  30.483  28.723  1.00  0.00     0.031 C 
ATOM     54  C   UNL A   1      48.801  31.252  27.902  1.00  0.00     0.029 A 
ATOM     55  C   UNL A   1      47.522  30.719  27.877  1.00  0.00     0.049 A 
ATOM     56  H   UNL A   1      46.854  28.897  27.054  1.00  0.00     0.167 HD
ATOM     57  C   UNL A   1      45.088  30.701  28.349  1.00  0.00     0.074 A 
ATOM     58  C   UNL A   1      43.885  31.269  28.922  1.00  0.00     0.031 C 
ATOM     59  C   UNL A   1      46.313  31.273  28.425  1.00  0.00     0.031 A 
BRANCH  46  60
ATOM     60  C   UNL A   1      50.815  28.000  25.754  1.00  0.00    -0.014 A 
ATOM     61  C   UNL A   1      51.349  28.613  24.611  1.00  0.00     0.009 A 
ATOM     62  C   UNL A   1      51.672  27.297  26.614  1.00  0.00     0.009 A 
ATOM     63  C   UNL A   1      52.710  28.497  24.320  1.00  0.00     0.001 A 
ATOM     64  C   UNL A   1      53.037  27.202  26.333  1.00  0.00     0.001 A 
ATOM     65  C   UNL A   1      53.553  27.795  25.183  1.00  0.00     0.000 A 
ENDBRANCH  46  60
BRANCH  47  66
ATOM     66  C   UNL A   1      41.063  28.324  27.856  1.00  0.00    -0.014 A 
ATOM     67  C   UNL A   1      40.597  27.634  28.984  1.00  0.00     0.009 A 
ATOM     68  C   UNL A   1      40.150  29.054  27.080  1.00  0.00     0.009 A 
ATOM     69  C   UNL A   1      39.242  27.663  29.320  1.00  0.00     0.001 A 
ATOM     70  C   UNL A   1      38.800  29.103  27.433  1.00  0.00     0.001 A 
ATOM     71  C   UNL A   1      38.346  28.402  28.548  1.00  0.00     0.000 A 
ENDBRANCH  47  66
BRANCH  59  72
ATOM     72  C   UNL A   1      46.404  32.609  29.100  1.00  0.00    -0.014 A 
ATOM     73  C   UNL A   1      46.701  32.713  30.466  1.00  0.00     0.009 A 
ATOM     74  C   UNL A   1      46.248  33.779  28.340  1.00  0.00     0.009 A 
ATOM     75  C   UNL A   1      46.822  33.969  31.064  1.00  0.00     0.001 A 
ATOM     76  C   UNL A   1      46.388  35.032  28.936  1.00  0.00     0.001 A 
ATOM     77  C   UNL A   1      46.671  35.126  30.298  1.00  0.00     0.000 A 
ENDBRANCH  59  72
ENDBRANCH  33  34
ENDBRANCH  26  28
ENDBRANCH  25  26
ENDBRANCH  24  25
ENDBRANCH   1  24
TORSDOF 15
ENDMDL
MODEL 2
REMARK VINA RESULT:     -10.3      3.695      8.815
REMARK SMILES Nc1c(CC(=O)OCCOC(=O)c2ccc(-c3c4nc(c(-c5ccccc5)c5ccc([nH]5)c(-c5ccccc5)c5nc(c(-c6ccccc6)c6ccc3[nH]6)C=C5)C=C4)cc2)cccc1C(=O)c1ccc(Br)cc1
REMARK SMILES IDX 8 1 7 2 5 3 6 4 4 5 3 6 2 7 64 8 61 9 63 10 62 11 1 12 65 15
REMARK SMILES IDX 66 16 67 17 68 18 73 19 69 20 72 21 70 22 71 23 9 24 10 25
REMARK SMILES IDX 11 26 12 27 13 28 14 29 60 30 15 31 59 32 16 33 17 34 18 35
REMARK SMILES IDX 53 36 19 37 58 38 52 39 54 40 20 41 57 42 51 43 50 44 21 46
REMARK SMILES IDX 43 47 28 48 42 49 29 50 32 51 41 52 55 53 30 54 31 55 40 57
REMARK SMILES IDX 56 58 33 59 22 60 23 61 27 62 24 63 26 64 25 65 44 66 45 67
REMARK SMILES IDX 49 68 46 69 48 70 47 71 34 72 35 73 39 74 36 75 38 76 37 77
REMARK H PARENT 1 13 1 14 54 45 32 56
REMARK Flexibility Score: inf
ROOT
ATOM      1  C   UNL A   1      32.144  29.959  26.922  1.00  0.00     0.274 C 
ENDROOT
BRANCH   1   2
ATOM      2  O   UNL A   1      31.706  30.171  25.566  1.00  0.00    -0.462 OA
BRANCH   2   3
ATOM      3  C   UNL A   1      32.330  29.434  24.613  1.00  0.00     0.310 C 
ATOM      4  O   UNL A   1      33.525  29.154  24.617  1.00  0.00    -0.252 OA
BRANCH   3   5
ATOM      5  C   UNL A   1      31.410  28.923  23.532  1.00  0.00     0.160 C 
BRANCH   5   6
ATOM      6  C   UNL A   1      31.282  27.424  23.388  1.00  0.00    -0.013 A 
ATOM      7  C   UNL A   1      32.295  26.650  22.781  1.00  0.00     0.047 A 
ATOM      8  C   UNL A   1      32.197  25.241  22.879  1.00  0.00     0.046 A 
ATOM      9  C   UNL A   1      30.116  26.805  23.878  1.00  0.00     0.006 A 
ATOM     10  C   UNL A   1      31.027  24.641  23.375  1.00  0.00     0.014 A 
ATOM     11  C   UNL A   1      29.979  25.423  23.848  1.00  0.00     0.001 A 
BRANCH   7  12
ATOM     12  N   UNL A   1      33.390  27.296  22.206  1.00  0.00    -0.398 N 
ATOM     13  H   UNL A   1      33.249  28.066  21.608  1.00  0.00     0.156 HD
ATOM     14  H   UNL A   1      34.304  26.982  22.398  1.00  0.00     0.156 HD
ENDBRANCH   7  12
BRANCH   8  15
ATOM     15  C   UNL A   1      33.281  24.297  22.469  1.00  0.00     0.195 C 
ATOM     16  O   UNL A   1      33.304  23.832  21.332  1.00  0.00    -0.289 OA
BRANCH  15  17
ATOM     17  C   UNL A   1      34.356  23.906  23.408  1.00  0.00     0.023 A 
ATOM     18  C   UNL A   1      35.350  23.039  22.939  1.00  0.00     0.013 A 
ATOM     19  C   UNL A   1      34.442  24.457  24.692  1.00  0.00     0.013 A 
ATOM     20  C   UNL A   1      36.470  22.781  23.730  1.00  0.00     0.016 A 
ATOM     21  C   UNL A   1      35.563  24.191  25.482  1.00  0.00     0.016 A 
ATOM     22  C   UNL A   1      36.578  23.369  24.990  1.00  0.00     0.018 A 
ATOM     23  Br  UNL A   1      38.129  23.074  26.030  1.00  0.00    -0.051 Br
ENDBRANCH  15  17
ENDBRANCH   8  15
ENDBRANCH   5   6
ENDBRANCH   3   5
ENDBRANCH   2   3
ENDBRANCH   1   2
BRANCH   1  24
ATOM     24  C   UNL A   1      33.209  30.987  27.292  1.00  0.00     0.275 C 
BRANCH  24  25
ATOM     25  O   UNL A   1      34.449  30.320  27.592  1.00  0.00    -0.458 OA
BRANCH  25  26
ATOM     26  C   UNL A   1      35.144  30.827  28.634  1.00  0.00     0.338 C 
ATOM     27  O   UNL A   1      34.813  31.714  29.399  1.00  0.00    -0.246 OA
BRANCH  26  28
ATOM     28  C   UNL A   1      36.444  30.149  28.732  1.00  0.00     0.060 A 
ATOM     29  C   UNL A   1      36.891  29.643  29.954  1.00  0.00     0.016 A 
ATOM     30  C   UNL A   1      37.268  30.117  27.608  1.00  0.00     0.016 A 
ATOM     31  C   UNL A   1      38.191  29.154  30.073  1.00  0.00     0.010 A 
ATOM     32  C   UNL A   1      38.541  29.556  27.710  1.00  0.00     0.010 A 
ATOM     33  C   UNL A   1      39.022  29.091  28.947  1.00  0.00    -0.014 A 
BRANCH  33  34
ATOM     34  C   UNL A   1      40.402  28.550  29.026  1.00  0.00     0.031 A 
ATOM     35  C   UNL A   1      41.548  29.477  29.313  1.00  0.00     0.074 A 
ATOM     36  C   UNL A   1      40.637  27.251  28.764  1.00  0.00     0.049 A 
ATOM     37  N   UNL A   1      42.830  29.289  29.136  1.00  0.00    -0.248 NA
ATOM     38  C   UNL A   1      41.200  30.800  29.859  1.00  0.00     0.031 C 
ATOM     39  C   UNL A   1      39.617  26.228  28.530  1.00  0.00     0.029 A 
ATOM     40  N   UNL A   1      41.824  26.576  28.620  1.00  0.00    -0.354 N 
ATOM     41  C   UNL A   1      43.439  30.484  29.497  1.00  0.00     0.074 A 
ATOM     42  C   UNL A   1      42.388  31.389  29.910  1.00  0.00     0.031 C 
ATOM     43  C   UNL A   1      40.220  25.058  28.267  1.00  0.00     0.029 A 
ATOM     44  C   UNL A   1      41.663  25.269  28.231  1.00  0.00     0.049 A 
ATOM     45  H   UNL A   1      42.704  26.989  28.779  1.00  0.00     0.167 HD
ATOM     46  C   UNL A   1      44.756  30.798  29.473  1.00  0.00     0.031 A 
ATOM     47  C   UNL A   1      42.568  24.358  27.829  1.00  0.00     0.031 A 
ATOM     48  C   UNL A   1      45.796  29.887  29.077  1.00  0.00     0.049 A 
ATOM     49  C   UNL A   1      44.015  24.747  27.744  1.00  0.00     0.074 A 
ATOM     50  C   UNL A   1      47.161  30.107  29.016  1.00  0.00     0.029 A 
ATOM     51  N   UNL A   1      45.583  28.575  28.685  1.00  0.00    -0.354 N 
ATOM     52  N   UNL A   1      44.578  25.895  28.033  1.00  0.00    -0.248 NA
ATOM     53  C   UNL A   1      44.950  23.721  27.259  1.00  0.00     0.031 C 
ATOM     54  C   UNL A   1      47.771  28.936  28.555  1.00  0.00     0.029 A 
ATOM     55  C   UNL A   1      46.790  27.976  28.371  1.00  0.00     0.049 A 
ATOM     56  H   UNL A   1      44.704  28.135  28.637  1.00  0.00     0.167 HD
ATOM     57  C   UNL A   1      45.934  25.722  27.790  1.00  0.00     0.074 A 
ATOM     58  C   UNL A   1      46.109  24.359  27.333  1.00  0.00     0.031 C 
ATOM     59  C   UNL A   1      46.943  26.614  27.933  1.00  0.00     0.031 A 
BRANCH  46  60
ATOM     60  C   UNL A   1      45.141  32.201  29.843  1.00  0.00    -0.014 A 
ATOM     61  C   UNL A   1      45.484  32.542  31.159  1.00  0.00     0.009 A 
ATOM     62  C   UNL A   1      45.196  33.189  28.846  1.00  0.00     0.009 A 
ATOM     63  C   UNL A   1      45.847  33.853  31.475  1.00  0.00     0.001 A 
ATOM     64  C   UNL A   1      45.581  34.493  29.161  1.00  0.00     0.001 A 
ATOM     65  C   UNL A   1      45.899  34.826  30.476  1.00  0.00     0.000 A 
ENDBRANCH  46  60
BRANCH  47  66
ATOM     66  C   UNL A   1      42.118  23.003  27.421  1.00  0.00    -0.014 A 
ATOM     67  C   UNL A   1      41.949  22.689  26.064  1.00  0.00     0.009 A 
ATOM     68  C   UNL A   1      41.871  22.012  28.384  1.00  0.00     0.009 A 
ATOM     69  C   UNL A   1      41.526  21.414  25.682  1.00  0.00     0.001 A 
ATOM     70  C   UNL A   1      41.474  20.731  27.998  1.00  0.00     0.001 A 
ATOM     71  C   UNL A   1      41.295  20.435  26.648  1.00  0.00     0.000 A 
ENDBRANCH  47  66
BRANCH  59  72
ATOM     72  C   UNL A   1      48.333  26.128  27.649  1.00  0.00    -0.014 A 
ATOM     73  C   UNL A   1      48.919  26.301  26.387  1.00  0.00     0.009 A 
ATOM     74  C   UNL A   1      49.083  25.541  28.680  1.00  0.00     0.009 A 
ATOM     75  C   UNL A   1      50.230  25.878  26.159  1.00  0.00     0.001 A 
ATOM     76  C   UNL A   1      50.398  25.136  28.454  1.00  0.00     0.001 A 
ATOM     77  C   UNL A   1      50.969  25.301  27.193  1.00  0.00     0.000 A 
ENDBRANCH  59  72
ENDBRANCH  33  34
ENDBRANCH  26  28
ENDBRANCH  25  26
ENDBRANCH  24  25
ENDBRANCH   1  24
TORSDOF 15
ENDMDL
MODEL 3
REMARK VINA RESULT:     -10.2      7.795     12.912
REMARK SMILES Nc1c(CC(=O)OCCOC(=O)c2ccc(-c3c4nc(c(-c5ccccc5)c5ccc([nH]5)c(-c5ccccc5)c5nc(c(-c6ccccc6)c6ccc3[nH]6)C=C5)C=C4)cc2)cccc1C(=O)c1ccc(Br)cc1
REMARK SMILES IDX 8 1 7 2 5 3 6 4 4 5 3 6 2 7 64 8 61 9 63 10 62 11 1 12 65 15
REMARK SMILES IDX 66 16 67 17 68 18 73 19 69 20 72 21 70 22 71 23 9 24 10 25
REMARK SMILES IDX 11 26 12 27 13 28 14 29 60 30 15 31 59 32 16 33 17 34 18 35
REMARK SMILES IDX 53 36 19 37 58 38 52 39 54 40 20 41 57 42 51 43 50 44 21 46
REMARK SMILES IDX 43 47 28 48 42 49 29 50 32 51 41 52 55 53 30 54 31 55 40 57
REMARK SMILES IDX 56 58 33 59 22 60 23 61 27 62 24 63 26 64 25 65 44 66 45 67
REMARK SMILES IDX 49 68 46 69 48 70 47 71 34 72 35 73 39 74 36 75 38 76 37 77
REMARK H PARENT 1 13 1 14 54 45 32 56
REMARK Flexibility Score: inf
ROOT
ATOM      1  C   UNL A   1      33.257  35.575  28.865  1.00  0.00     0.274 C 
ENDROOT
BRANCH   1   2
ATOM      2  O   UNL A   1      34.453  34.806  29.096  1.00  0.00    -0.462 OA
BRANCH   2   3
ATOM      3  C   UNL A   1      34.712  33.818  28.205  1.00  0.00     0.310 C 
ATOM      4  O   UNL A   1      35.732  33.739  27.526  1.00  0.00    -0.252 OA
BRANCH   3   5
ATOM      5  C   UNL A   1      33.643  32.755  28.137  1.00  0.00     0.160 C 
BRANCH   5   6
ATOM      6  C   UNL A   1      34.080  31.362  27.745  1.00  0.00    -0.013 A 
ATOM      7  C   UNL A   1      33.292  30.550  26.902  1.00  0.00     0.047 A 
ATOM      8  C   UNL A   1      33.868  29.352  26.413  1.00  0.00     0.046 A 
ATOM      9  C   UNL A   1      35.306  30.884  28.246  1.00  0.00     0.006 A 
ATOM     10  C   UNL A   1      35.095  28.893  26.920  1.00  0.00     0.014 A 
ATOM     11  C   UNL A   1      35.798  29.645  27.855  1.00  0.00     0.001 A 
BRANCH   7  12
ATOM     12  N   UNL A   1      32.032  31.002  26.508  1.00  0.00    -0.398 N 
ATOM     13  H   UNL A   1      31.872  31.965  26.380  1.00  0.00     0.156 HD
ATOM     14  H   UNL A   1      31.302  30.356  26.358  1.00  0.00     0.156 HD
ENDBRANCH   7  12
BRANCH   8  15
ATOM     15  C   UNL A   1      33.244  28.494  25.361  1.00  0.00     0.195 C 
ATOM     16  O   UNL A   1      32.969  28.960  24.258  1.00  0.00    -0.289 OA
BRANCH  15  17
ATOM     17  C   UNL A   1      32.951  27.064  25.609  1.00  0.00     0.023 A 
ATOM     18  C   UNL A   1      31.827  26.752  26.383  1.00  0.00     0.013 A 
ATOM     19  C   UNL A   1      33.706  26.048  25.012  1.00  0.00     0.013 A 
ATOM     20  C   UNL A   1      31.415  25.424  26.500  1.00  0.00     0.016 A 
ATOM     21  C   UNL A   1      33.294  24.719  25.136  1.00  0.00     0.016 A 
ATOM     22  C   UNL A   1      32.142  24.417  25.864  1.00  0.00     0.018 A 
ATOM     23  Br  UNL A   1      31.542  22.626  25.965  1.00  0.00    -0.051 Br
ENDBRANCH  15  17
ENDBRANCH   8  15
ENDBRANCH   5   6
ENDBRANCH   3   5
ENDBRANCH   2   3
ENDBRANCH   1   2
BRANCH   1  24
ATOM     24  C   UNL A   1      33.080  36.609  29.973  1.00  0.00     0.275 C 
BRANCH  24  25
ATOM     25  O   UNL A   1      32.122  36.133  30.937  1.00  0.00    -0.458 OA
BRANCH  25  26
ATOM     26  C   UNL A   1      32.494  36.252  32.231  1.00  0.00     0.338 C 
ATOM     27  O   UNL A   1      32.060  37.020  33.072  1.00  0.00    -0.246 OA
BRANCH  26  28
ATOM     28  C   UNL A   1      33.570  35.294  32.522  1.00  0.00     0.060 A 
ATOM     29  C   UNL A   1      33.270  33.977  32.877  1.00  0.00     0.016 A 
ATOM     30  C   UNL A   1      34.886  35.751  32.543  1.00  0.00     0.016 A 
ATOM     31  C   UNL A   1      34.283  33.125  33.314  1.00  0.00     0.010 A 
ATOM     32  C   UNL A   1      35.908  34.874  32.905  1.00  0.00     0.010 A 
ATOM     33  C   UNL A   1      35.615  33.561  33.315  1.00  0.00    -0.014 A 
BRANCH  33  34
ATOM     34  C   UNL A   1      36.725  32.676  33.743  1.00  0.00     0.031 A 
ATOM     35  C   UNL A   1      37.429  32.943  35.043  1.00  0.00     0.074 A 
ATOM     36  C   UNL A   1      37.154  31.686  32.938  1.00  0.00     0.049 A 
ATOM     37  N   UNL A   1      38.585  32.501  35.464  1.00  0.00    -0.248 NA
ATOM     38  C   UNL A   1      36.744  33.841  35.988  1.00  0.00     0.031 C 
ATOM     39  C   UNL A   1      36.527  31.277  31.680  1.00  0.00     0.029 A 
ATOM     40  N   UNL A   1      38.246  30.862  33.050  1.00  0.00    -0.354 N 
ATOM     41  C   UNL A   1      38.793  33.107  36.698  1.00  0.00     0.074 A 
ATOM     42  C   UNL A   1      37.640  33.941  36.960  1.00  0.00     0.031 C 
ATOM     43  C   UNL A   1      37.247  30.285  31.133  1.00  0.00     0.029 A 
ATOM     44  C   UNL A   1      38.426  30.047  31.958  1.00  0.00     0.049 A 
ATOM     45  H   UNL A   1      38.841  30.856  33.834  1.00  0.00     0.167 HD
ATOM     46  C   UNL A   1      39.856  32.984  37.527  1.00  0.00     0.031 A 
ATOM     47  C   UNL A   1      39.455  29.245  31.626  1.00  0.00     0.031 A 
ATOM     48  C   UNL A   1      40.990  32.139  37.267  1.00  0.00     0.049 A 
ATOM     49  C   UNL A   1      40.653  29.177  32.526  1.00  0.00     0.074 A 
ATOM     50  C   UNL A   1      42.120  31.945  38.042  1.00  0.00     0.029 A 
ATOM     51  N   UNL A   1      41.130  31.338  36.145  1.00  0.00    -0.354 N 
ATOM     52  N   UNL A   1      40.868  29.793  33.662  1.00  0.00    -0.248 NA
ATOM     53  C   UNL A   1      41.761  28.314  32.089  1.00  0.00     0.031 C 
ATOM     54  C   UNL A   1      42.960  31.050  37.373  1.00  0.00     0.029 A 
ATOM     55  C   UNL A   1      42.332  30.655  36.202  1.00  0.00     0.049 A 
ATOM     56  H   UNL A   1      40.473  31.265  35.416  1.00  0.00     0.167 HD
ATOM     57  C   UNL A   1      42.122  29.376  34.088  1.00  0.00     0.074 A 
ATOM     58  C   UNL A   1      42.619  28.451  33.090  1.00  0.00     0.031 C 
ATOM     59  C   UNL A   1      42.800  29.728  35.207  1.00  0.00     0.031 A 
BRANCH  46  60
ATOM     60  C   UNL A   1      39.861  33.820  38.775  1.00  0.00    -0.014 A 
ATOM     61  C   UNL A   1      39.384  33.318  39.994  1.00  0.00     0.009 A 
ATOM     62  C   UNL A   1      40.391  35.120  38.733  1.00  0.00     0.009 A 
ATOM     63  C   UNL A   1      39.409  34.113  41.142  1.00  0.00     0.001 A 
ATOM     64  C   UNL A   1      40.435  35.904  39.887  1.00  0.00     0.001 A 
ATOM     65  C   UNL A   1      39.937  35.403  41.089  1.00  0.00     0.000 A 
ENDBRANCH  46  60
BRANCH  47  66
ATOM     66  C   UNL A   1      39.415  28.487  30.350  1.00  0.00    -0.014 A 
ATOM     67  C   UNL A   1      38.941  27.167  30.323  1.00  0.00     0.009 A 
ATOM     68  C   UNL A   1      39.836  29.083  29.151  1.00  0.00     0.009 A 
ATOM     69  C   UNL A   1      38.904  26.455  29.122  1.00  0.00     0.001 A 
ATOM     70  C   UNL A   1      39.772  28.378  27.948  1.00  0.00     0.001 A 
ATOM     71  C   UNL A   1      39.313  27.062  27.936  1.00  0.00     0.000 A 
ENDBRANCH  47  66
BRANCH  59  72
ATOM     72  C   UNL A   1      44.126  29.067  35.440  1.00  0.00    -0.014 A 
ATOM     73  C   UNL A   1      45.323  29.680  35.043  1.00  0.00     0.009 A 
ATOM     74  C   UNL A   1      44.175  27.841  36.121  1.00  0.00     0.009 A 
ATOM     75  C   UNL A   1      46.548  29.064  35.309  1.00  0.00     0.001 A 
ATOM     76  C   UNL A   1      45.401  27.238  36.402  1.00  0.00     0.001 A 
ATOM     77  C   UNL A   1      46.585  27.848  35.993  1.00  0.00     0.000 A 
ENDBRANCH  59  72
ENDBRANCH  33  34
ENDBRANCH  26  28
ENDBRANCH  25  26
ENDBRANCH  24  25
ENDBRANCH   1  24
TORSDOF 15
ENDMDL
