MODEL 1
REMARK VINA RESULT:     -11.5      0.000      0.000
REMARK SMILES C[C@H]1CC[C@@](Nc2ccc(C(N)=O)nn2)(C(=O)OCCOC(=O)c2ccc(-c3c4nc(c(-c5ccccc5)c5ccc([nH]5)c(-c5ccccc5)c5nc(c(-c6ccccc6)c6ccc3[nH]6)C=C5)C=C4)cc2)CC1
REMARK SMILES IDX 19 1 18 2 16 3 17 4 5 5 1 6 2 7 73 8 3 9 72 10 4 11 6 12
REMARK SMILES IDX 7 14 8 15 15 16 9 17 14 18 10 19 11 20 12 21 13 22 20 25
REMARK SMILES IDX 21 26 22 27 23 28 24 29 25 30 71 31 26 32 70 33 27 34 28 35
REMARK SMILES IDX 29 36 64 37 30 38 69 39 63 40 65 41 31 42 68 43 62 44 61 45
REMARK SMILES IDX 32 47 54 48 39 49 53 50 40 51 43 52 52 53 66 54 41 55 42 56
REMARK SMILES IDX 51 58 67 59 44 60 33 61 34 62 38 63 35 64 37 65 36 66 55 67
REMARK SMILES IDX 56 68 60 69 57 70 59 71 58 72 45 73 46 74 50 75 47 76 49 77
REMARK SMILES IDX 48 78
REMARK H PARENT 6 13 12 23 12 24 65 46 43 57
REMARK Flexibility Score: inf
ROOT
ATOM      1  C   UNL A   1      36.096  20.197  25.114  1.00  0.00     0.274 C 
ENDROOT
BRANCH   1   2
ATOM      2  O   UNL A   1      35.218  21.089  24.394  1.00  0.00    -0.460 OA
BRANCH   2   3
ATOM      3  C   UNL A   1      34.093  21.458  25.067  1.00  0.00     0.331 C 
ATOM      4  O   UNL A   1      33.992  21.397  26.288  1.00  0.00    -0.249 OA
BRANCH   3   5
ATOM      5  C   UNL A   1      32.897  21.834  24.135  1.00  0.00     0.137 C 
ATOM      6  C   UNL A   1      33.502  26.207  24.370  1.00  0.00     0.007 C 
ATOM      7  C   UNL A   1      32.880  24.865  23.971  1.00  0.00    -0.014 C 
ATOM      8  C   UNL A   1      32.411  24.114  25.214  1.00  0.00     0.006 C 
ATOM      9  C   UNL A   1      33.889  24.022  23.188  1.00  0.00     0.006 C 
ATOM     10  C   UNL A   1      31.887  22.707  24.919  1.00  0.00     0.041 C 
ATOM     11  C   UNL A   1      33.350  22.624  22.880  1.00  0.00     0.041 C 
BRANCH   5  12
ATOM     12  N   UNL A   1      32.162  20.616  23.655  1.00  0.00    -0.353 N 
ATOM     13  H   UNL A   1      31.394  20.724  23.048  1.00  0.00     0.163 HD
BRANCH  12  14
ATOM     14  C   UNL A   1      32.541  19.342  24.047  1.00  0.00     0.149 A 
ATOM     15  C   UNL A   1      33.221  18.462  23.217  1.00  0.00     0.051 A 
ATOM     16  N   UNL A   1      32.150  18.944  25.276  1.00  0.00    -0.132 NA
ATOM     17  C   UNL A   1      33.386  17.134  23.602  1.00  0.00     0.040 A 
ATOM     18  N   UNL A   1      32.321  17.643  25.682  1.00  0.00    -0.143 NA
ATOM     19  C   UNL A   1      32.901  16.758  24.839  1.00  0.00     0.150 A 
BRANCH  19  20
ATOM     20  C   UNL A   1      32.958  15.339  25.289  1.00  0.00     0.269 C 
ATOM     21  N   UNL A   1      31.757  14.773  25.634  1.00  0.00    -0.364 N 
ATOM     22  O   UNL A   1      34.000  14.708  25.338  1.00  0.00    -0.268 OA
ATOM     23  H   UNL A   1      30.929  15.305  25.585  1.00  0.00     0.160 HD
ATOM     24  H   UNL A   1      31.721  13.834  25.931  1.00  0.00     0.160 HD
ENDBRANCH  19  20
ENDBRANCH  12  14
ENDBRANCH   5  12
ENDBRANCH   3   5
ENDBRANCH   2   3
ENDBRANCH   1   2
BRANCH   1  25
ATOM     25  C   UNL A   1      37.571  20.430  24.774  1.00  0.00     0.275 C 
BRANCH  25  26
ATOM     26  O   UNL A   1      38.078  21.578  25.481  1.00  0.00    -0.458 OA
BRANCH  26  27
ATOM     27  C   UNL A   1      39.209  21.390  26.200  1.00  0.00     0.338 C 
ATOM     28  O   UNL A   1      39.817  20.338  26.334  1.00  0.00    -0.246 OA
BRANCH  27  29
ATOM     29  C   UNL A   1      39.697  22.665  26.783  1.00  0.00     0.060 A 
ATOM     30  C   UNL A   1      39.185  23.887  26.360  1.00  0.00     0.016 A 
ATOM     31  C   UNL A   1      40.802  22.660  27.634  1.00  0.00     0.016 A 
ATOM     32  C   UNL A   1      39.874  25.069  26.620  1.00  0.00     0.010 A 
ATOM     33  C   UNL A   1      41.397  23.868  28.029  1.00  0.00     0.010 A 
ATOM     34  C   UNL A   1      40.976  25.093  27.483  1.00  0.00    -0.014 A 
BRANCH  34  35
ATOM     35  C   UNL A   1      41.685  26.379  27.772  1.00  0.00     0.031 A 
ATOM     36  C   UNL A   1      41.105  27.384  28.741  1.00  0.00     0.074 A 
ATOM     37  C   UNL A   1      42.877  26.652  27.200  1.00  0.00     0.049 A 
ATOM     38  N   UNL A   1      41.456  28.631  28.945  1.00  0.00    -0.248 NA
ATOM     39  C   UNL A   1      39.974  26.941  29.573  1.00  0.00     0.031 C 
ATOM     40  C   UNL A   1      43.609  25.776  26.282  1.00  0.00     0.029 A 
ATOM     41  N   UNL A   1      43.704  27.744  27.329  1.00  0.00    -0.354 N 
ATOM     42  C   UNL A   1      40.535  29.143  29.852  1.00  0.00     0.074 A 
ATOM     43  C   UNL A   1      39.623  28.069  30.178  1.00  0.00     0.031 C 
ATOM     44  C   UNL A   1      44.804  26.315  26.009  1.00  0.00     0.029 A 
ATOM     45  C   UNL A   1      44.871  27.638  26.612  1.00  0.00     0.049 A 
ATOM     46  H   UNL A   1      43.481  28.527  27.884  1.00  0.00     0.167 HD
ATOM     47  C   UNL A   1      40.451  30.400  30.355  1.00  0.00     0.031 A 
ATOM     48  C   UNL A   1      45.867  28.519  26.401  1.00  0.00     0.031 A 
ATOM     49  C   UNL A   1      41.400  31.450  30.091  1.00  0.00     0.049 A 
ATOM     50  C   UNL A   1      45.752  29.901  26.962  1.00  0.00     0.074 A 
ATOM     51  C   UNL A   1      41.399  32.754  30.558  1.00  0.00     0.029 A 
ATOM     52  N   UNL A   1      42.539  31.309  29.314  1.00  0.00    -0.354 N 
ATOM     53  N   UNL A   1      44.808  30.408  27.717  1.00  0.00    -0.248 NA
ATOM     54  C   UNL A   1      46.819  30.847  26.608  1.00  0.00     0.031 C 
ATOM     55  C   UNL A   1      42.520  33.411  30.037  1.00  0.00     0.029 A 
ATOM     56  C   UNL A   1      43.243  32.502  29.283  1.00  0.00     0.049 A 
ATOM     57  H   UNL A   1      42.807  30.482  28.852  1.00  0.00     0.167 HD
ATOM     58  C   UNL A   1      45.159  31.735  27.916  1.00  0.00     0.074 A 
ATOM     59  C   UNL A   1      46.423  31.943  27.238  1.00  0.00     0.031 C 
ATOM     60  C   UNL A   1      44.485  32.701  28.585  1.00  0.00     0.031 A 
BRANCH  47  61
ATOM     61  C   UNL A   1      39.254  30.733  31.205  1.00  0.00    -0.014 A 
ATOM     62  C   UNL A   1      39.272  30.600  32.601  1.00  0.00     0.009 A 
ATOM     63  C   UNL A   1      38.100  31.242  30.587  1.00  0.00     0.009 A 
ATOM     64  C   UNL A   1      38.148  30.946  33.357  1.00  0.00     0.001 A 
ATOM     65  C   UNL A   1      36.988  31.612  31.345  1.00  0.00     0.001 A 
ATOM     66  C   UNL A   1      37.011  31.455  32.730  1.00  0.00     0.000 A 
ENDBRANCH  47  61
BRANCH  48  67
ATOM     67  C   UNL A   1      47.019  28.137  25.542  1.00  0.00    -0.014 A 
ATOM     68  C   UNL A   1      48.256  27.802  26.114  1.00  0.00     0.009 A 
ATOM     69  C   UNL A   1      46.877  28.078  24.147  1.00  0.00     0.009 A 
ATOM     70  C   UNL A   1      49.326  27.417  25.302  1.00  0.00     0.001 A 
ATOM     71  C   UNL A   1      47.937  27.660  23.342  1.00  0.00     0.001 A 
ATOM     72  C   UNL A   1      49.162  27.337  23.920  1.00  0.00     0.000 A 
ENDBRANCH  48  67
BRANCH  60  73
ATOM     73  C   UNL A   1      45.117  34.061  28.615  1.00  0.00    -0.014 A 
ATOM     74  C   UNL A   1      44.817  35.017  27.632  1.00  0.00     0.009 A 
ATOM     75  C   UNL A   1      46.034  34.384  29.626  1.00  0.00     0.009 A 
ATOM     76  C   UNL A   1      45.457  36.257  27.638  1.00  0.00     0.001 A 
ATOM     77  C   UNL A   1      46.655  35.633  29.641  1.00  0.00     0.001 A 
ATOM     78  C   UNL A   1      46.375  36.564  28.641  1.00  0.00     0.000 A 
ENDBRANCH  60  73
ENDBRANCH  34  35
ENDBRANCH  27  29
ENDBRANCH  26  27
ENDBRANCH  25  26
ENDBRANCH   1  25
TORSDOF 14
ENDMDL
MODEL 2
REMARK VINA RESULT:     -11.3      1.054      1.651
REMARK SMILES C[C@H]1CC[C@@](Nc2ccc(C(N)=O)nn2)(C(=O)OCCOC(=O)c2ccc(-c3c4nc(c(-c5ccccc5)c5ccc([nH]5)c(-c5ccccc5)c5nc(c(-c6ccccc6)c6ccc3[nH]6)C=C5)C=C4)cc2)CC1
REMARK SMILES IDX 19 1 18 2 16 3 17 4 5 5 1 6 2 7 73 8 3 9 72 10 4 11 6 12
REMARK SMILES IDX 7 14 8 15 15 16 9 17 14 18 10 19 11 20 12 21 13 22 20 25
REMARK SMILES IDX 21 26 22 27 23 28 24 29 25 30 71 31 26 32 70 33 27 34 28 35
REMARK SMILES IDX 29 36 64 37 30 38 69 39 63 40 65 41 31 42 68 43 62 44 61 45
REMARK SMILES IDX 32 47 54 48 39 49 53 50 40 51 43 52 52 53 66 54 41 55 42 56
REMARK SMILES IDX 51 58 67 59 44 60 33 61 34 62 38 63 35 64 37 65 36 66 55 67
REMARK SMILES IDX 56 68 60 69 57 70 59 71 58 72 45 73 46 74 50 75 47 76 49 77
REMARK SMILES IDX 48 78
REMARK H PARENT 6 13 12 23 12 24 65 46 43 57
REMARK Flexibility Score: inf
ROOT
ATOM      1  C   UNL A   1      36.679  22.706  23.444  1.00  0.00     0.274 C 
ENDROOT
BRANCH   1   2
ATOM      2  O   UNL A   1      35.655  23.403  24.185  1.00  0.00    -0.460 OA
BRANCH   2   3
ATOM      3  C   UNL A   1      34.443  23.474  23.568  1.00  0.00     0.331 C 
ATOM      4  O   UNL A   1      34.307  23.422  22.350  1.00  0.00    -0.249 OA
BRANCH   3   5
ATOM      5  C   UNL A   1      33.257  23.767  24.542  1.00  0.00     0.137 C 
ATOM      6  C   UNL A   1      33.178  28.133  23.848  1.00  0.00     0.007 C 
ATOM      7  C   UNL A   1      32.796  26.766  24.423  1.00  0.00    -0.014 C 
ATOM      8  C   UNL A   1      33.987  26.153  25.155  1.00  0.00     0.006 C 
ATOM      9  C   UNL A   1      32.318  25.833  23.308  1.00  0.00     0.006 C 
ATOM     10  C   UNL A   1      33.733  24.731  25.657  1.00  0.00     0.041 C 
ATOM     11  C   UNL A   1      32.047  24.418  23.823  1.00  0.00     0.041 C 
BRANCH   5  12
ATOM     12  N   UNL A   1      32.761  22.517  25.208  1.00  0.00    -0.353 N 
ATOM     13  H   UNL A   1      32.277  22.585  26.062  1.00  0.00     0.163 HD
BRANCH  12  14
ATOM     14  C   UNL A   1      32.972  21.267  24.646  1.00  0.00     0.149 A 
ATOM     15  C   UNL A   1      32.260  20.797  23.552  1.00  0.00     0.051 A 
ATOM     16  N   UNL A   1      33.867  20.467  25.263  1.00  0.00    -0.132 NA
ATOM     17  C   UNL A   1      32.377  19.462  23.171  1.00  0.00     0.040 A 
ATOM     18  N   UNL A   1      34.010  19.153  24.890  1.00  0.00    -0.143 NA
ATOM     19  C   UNL A   1      33.251  18.665  23.882  1.00  0.00     0.150 A 
BRANCH  19  20
ATOM     20  C   UNL A   1      33.369  17.207  23.597  1.00  0.00     0.269 C 
ATOM     21  N   UNL A   1      32.666  16.376  24.432  1.00  0.00    -0.364 N 
ATOM     22  O   UNL A   1      34.035  16.773  22.673  1.00  0.00    -0.268 OA
ATOM     23  H   UNL A   1      32.135  16.754  25.171  1.00  0.00     0.160 HD
ATOM     24  H   UNL A   1      32.692  15.402  24.293  1.00  0.00     0.160 HD
ENDBRANCH  19  20
ENDBRANCH  12  14
ENDBRANCH   5  12
ENDBRANCH   3   5
ENDBRANCH   2   3
ENDBRANCH   1   2
BRANCH   1  25
ATOM     25  C   UNL A   1      37.121  21.413  24.133  1.00  0.00     0.275 C 
BRANCH  25  26
ATOM     26  O   UNL A   1      37.375  21.646  25.532  1.00  0.00    -0.458 OA
BRANCH  26  27
ATOM     27  C   UNL A   1      38.640  21.427  25.958  1.00  0.00     0.338 C 
ATOM     28  O   UNL A   1      39.288  20.400  25.811  1.00  0.00    -0.246 OA
BRANCH  27  29
ATOM     29  C   UNL A   1      39.214  22.639  26.595  1.00  0.00     0.060 A 
ATOM     30  C   UNL A   1      38.715  23.904  26.303  1.00  0.00     0.016 A 
ATOM     31  C   UNL A   1      40.378  22.536  27.357  1.00  0.00     0.016 A 
ATOM     32  C   UNL A   1      39.463  25.042  26.596  1.00  0.00     0.010 A 
ATOM     33  C   UNL A   1      41.042  23.694  27.794  1.00  0.00     0.010 A 
ATOM     34  C   UNL A   1      40.625  24.968  27.372  1.00  0.00    -0.014 A 
BRANCH  34  35
ATOM     35  C   UNL A   1      41.398  26.207  27.700  1.00  0.00     0.031 A 
ATOM     36  C   UNL A   1      40.849  27.230  28.669  1.00  0.00     0.074 A 
ATOM     37  C   UNL A   1      42.619  26.419  27.165  1.00  0.00     0.049 A 
ATOM     38  N   UNL A   1      41.265  28.451  28.902  1.00  0.00    -0.248 NA
ATOM     39  C   UNL A   1      39.672  26.842  29.463  1.00  0.00     0.031 C 
ATOM     40  C   UNL A   1      43.325  25.516  26.253  1.00  0.00     0.029 A 
ATOM     41  N   UNL A   1      43.503  27.460  27.334  1.00  0.00    -0.354 N 
ATOM     42  C   UNL A   1      40.350  29.004  29.792  1.00  0.00     0.074 A 
ATOM     43  C   UNL A   1      39.370  27.979  30.076  1.00  0.00     0.031 C 
ATOM     44  C   UNL A   1      44.556  25.989  26.021  1.00  0.00     0.029 A 
ATOM     45  C   UNL A   1      44.682  27.297  26.647  1.00  0.00     0.049 A 
ATOM     46  H   UNL A   1      43.310  28.247  27.894  1.00  0.00     0.167 HD
ATOM     47  C   UNL A   1      40.324  30.256  30.312  1.00  0.00     0.031 A 
ATOM     48  C   UNL A   1      45.732  28.122  26.476  1.00  0.00     0.031 A 
ATOM     49  C   UNL A   1      41.338  31.253  30.090  1.00  0.00     0.049 A 
ATOM     50  C   UNL A   1      45.680  29.501  27.056  1.00  0.00     0.074 A 
ATOM     51  C   UNL A   1      41.398  32.548  30.577  1.00  0.00     0.029 A 
ATOM     52  N   UNL A   1      42.488  31.058  29.342  1.00  0.00    -0.354 N 
ATOM     53  N   UNL A   1      44.746  30.050  27.793  1.00  0.00    -0.248 NA
ATOM     54  C   UNL A   1      46.809  30.389  26.745  1.00  0.00     0.031 C 
ATOM     55  C   UNL A   1      42.569  33.147  30.097  1.00  0.00     0.029 A 
ATOM     56  C   UNL A   1      43.260  32.209  29.349  1.00  0.00     0.049 A 
ATOM     57  H   UNL A   1      42.722  30.223  28.874  1.00  0.00     0.167 HD
ATOM     58  C   UNL A   1      45.166  31.352  28.022  1.00  0.00     0.074 A 
ATOM     59  C   UNL A   1      46.458  31.497  27.381  1.00  0.00     0.031 C 
ATOM     60  C   UNL A   1      44.530  32.346  28.688  1.00  0.00     0.031 A 
BRANCH  47  61
ATOM     61  C   UNL A   1      39.124  30.645  31.134  1.00  0.00    -0.014 A 
ATOM     62  C   UNL A   1      37.958  31.160  30.549  1.00  0.00     0.009 A 
ATOM     63  C   UNL A   1      39.153  30.438  32.523  1.00  0.00     0.009 A 
ATOM     64  C   UNL A   1      36.855  31.484  31.345  1.00  0.00     0.001 A 
ATOM     65  C   UNL A   1      38.041  30.738  33.311  1.00  0.00     0.001 A 
ATOM     66  C   UNL A   1      36.895  31.269  32.722  1.00  0.00     0.000 A 
ENDBRANCH  47  61
BRANCH  48  67
ATOM     67  C   UNL A   1      46.884  27.687  25.643  1.00  0.00    -0.014 A 
ATOM     68  C   UNL A   1      47.966  27.006  26.220  1.00  0.00     0.009 A 
ATOM     69  C   UNL A   1      46.891  27.926  24.260  1.00  0.00     0.009 A 
ATOM     70  C   UNL A   1      49.032  26.576  25.427  1.00  0.00     0.001 A 
ATOM     71  C   UNL A   1      47.941  27.465  23.465  1.00  0.00     0.001 A 
ATOM     72  C   UNL A   1      49.013  26.796  24.050  1.00  0.00     0.000 A 
ENDBRANCH  48  67
BRANCH  60  73
ATOM     73  C   UNL A   1      45.237  33.667  28.756  1.00  0.00    -0.014 A 
ATOM     74  C   UNL A   1      46.063  33.988  29.845  1.00  0.00     0.009 A 
ATOM     75  C   UNL A   1      45.063  34.607  27.730  1.00  0.00     0.009 A 
ATOM     76  C   UNL A   1      46.668  35.243  29.925  1.00  0.00     0.001 A 
ATOM     77  C   UNL A   1      45.686  35.853  27.802  1.00  0.00     0.001 A 
ATOM     78  C   UNL A   1      46.478  36.174  28.905  1.00  0.00     0.000 A 
ENDBRANCH  60  73
ENDBRANCH  34  35
ENDBRANCH  27  29
ENDBRANCH  26  27
ENDBRANCH  25  26
ENDBRANCH   1  25
TORSDOF 14
ENDMDL
MODEL 3
REMARK VINA RESULT:     -11.3      0.664      6.005
REMARK SMILES C[C@H]1CC[C@@](Nc2ccc(C(N)=O)nn2)(C(=O)OCCOC(=O)c2ccc(-c3c4nc(c(-c5ccccc5)c5ccc([nH]5)c(-c5ccccc5)c5nc(c(-c6ccccc6)c6ccc3[nH]6)C=C5)C=C4)cc2)CC1
REMARK SMILES IDX 19 1 18 2 16 3 17 4 5 5 1 6 2 7 73 8 3 9 72 10 4 11 6 12
REMARK SMILES IDX 7 14 8 15 15 16 9 17 14 18 10 19 11 20 12 21 13 22 20 25
REMARK SMILES IDX 21 26 22 27 23 28 24 29 25 30 71 31 26 32 70 33 27 34 28 35
REMARK SMILES IDX 29 36 64 37 30 38 69 39 63 40 65 41 31 42 68 43 62 44 61 45
REMARK SMILES IDX 32 47 54 48 39 49 53 50 40 51 43 52 52 53 66 54 41 55 42 56
REMARK SMILES IDX 51 58 67 59 44 60 33 61 34 62 38 63 35 64 37 65 36 66 55 67
REMARK SMILES IDX 56 68 60 69 57 70 59 71 58 72 45 73 46 74 50 75 47 76 49 77
REMARK SMILES IDX 48 78
REMARK H PARENT 6 13 12 23 12 24 65 46 43 57
REMARK Flexibility Score: inf
ROOT
ATOM      1  C   UNL A   1      35.971  20.150  25.001  1.00  0.00     0.274 C 
ENDROOT
BRANCH   1   2
ATOM      2  O   UNL A   1      35.096  21.178  24.490  1.00  0.00    -0.460 OA
BRANCH   2   3
ATOM      3  C   UNL A   1      34.001  21.438  25.257  1.00  0.00     0.331 C 
ATOM      4  O   UNL A   1      33.993  21.315  26.478  1.00  0.00    -0.249 OA
BRANCH   3   5
ATOM      5  C   UNL A   1      32.718  21.772  24.430  1.00  0.00     0.137 C 
ATOM      6  C   UNL A   1      32.669  26.085  25.403  1.00  0.00     0.007 C 
ATOM      7  C   UNL A   1      32.238  24.748  24.792  1.00  0.00    -0.014 C 
ATOM      8  C   UNL A   1      31.948  23.736  25.897  1.00  0.00     0.006 C 
ATOM      9  C   UNL A   1      33.323  24.215  23.853  1.00  0.00     0.006 C 
ATOM     10  C   UNL A   1      31.628  22.333  25.375  1.00  0.00     0.041 C 
ATOM     11  C   UNL A   1      32.986  22.822  23.321  1.00  0.00     0.041 C 
BRANCH   5  12
ATOM     12  N   UNL A   1      32.153  20.551  23.763  1.00  0.00    -0.353 N 
ATOM     13  H   UNL A   1      31.494  20.659  23.039  1.00  0.00     0.163 HD
BRANCH  12  14
ATOM     14  C   UNL A   1      32.537  19.276  24.145  1.00  0.00     0.149 A 
ATOM     15  C   UNL A   1      33.213  18.402  23.305  1.00  0.00     0.051 A 
ATOM     16  N   UNL A   1      32.156  18.870  25.375  1.00  0.00    -0.132 NA
ATOM     17  C   UNL A   1      33.383  17.072  23.681  1.00  0.00     0.040 A 
ATOM     18  N   UNL A   1      32.333  17.567  25.771  1.00  0.00    -0.143 NA
ATOM     19  C   UNL A   1      32.908  16.688  24.919  1.00  0.00     0.150 A 
BRANCH  19  20
ATOM     20  C   UNL A   1      32.971  15.266  25.361  1.00  0.00     0.269 C 
ATOM     21  N   UNL A   1      31.778  14.704  25.737  1.00  0.00    -0.364 N 
ATOM     22  O   UNL A   1      34.011  14.631  25.376  1.00  0.00    -0.268 OA
ATOM     23  H   UNL A   1      30.951  15.240  25.715  1.00  0.00     0.160 HD
ATOM     24  H   UNL A   1      31.746  13.765  26.030  1.00  0.00     0.160 HD
ENDBRANCH  19  20
ENDBRANCH  12  14
ENDBRANCH   5  12
ENDBRANCH   3   5
ENDBRANCH   2   3
ENDBRANCH   1   2
BRANCH   1  25
ATOM     25  C   UNL A   1      37.450  20.480  24.786  1.00  0.00     0.275 C 
BRANCH  25  26
ATOM     26  O   UNL A   1      37.883  21.492  25.715  1.00  0.00    -0.458 OA
BRANCH  26  27
ATOM     27  C   UNL A   1      39.155  21.390  26.165  1.00  0.00     0.338 C 
ATOM     28  O   UNL A   1      39.863  20.394  26.120  1.00  0.00    -0.246 OA
BRANCH  27  29
ATOM     29  C   UNL A   1      39.652  22.690  26.682  1.00  0.00     0.060 A 
ATOM     30  C   UNL A   1      39.033  23.884  26.327  1.00  0.00     0.016 A 
ATOM     31  C   UNL A   1      40.854  22.741  27.388  1.00  0.00     0.016 A 
ATOM     32  C   UNL A   1      39.693  25.099  26.499  1.00  0.00     0.010 A 
ATOM     33  C   UNL A   1      41.435  23.979  27.706  1.00  0.00     0.010 A 
ATOM     34  C   UNL A   1      40.892  25.179  27.216  1.00  0.00    -0.014 A 
BRANCH  34  35
ATOM     35  C   UNL A   1      41.569  26.498  27.415  1.00  0.00     0.031 A 
ATOM     36  C   UNL A   1      42.878  26.810  26.725  1.00  0.00     0.074 A 
ATOM     37  C   UNL A   1      41.007  27.453  28.187  1.00  0.00     0.049 A 
ATOM     38  N   UNL A   1      43.713  27.797  26.948  1.00  0.00    -0.248 NA
ATOM     39  C   UNL A   1      43.316  25.889  25.665  1.00  0.00     0.031 C 
ATOM     40  C   UNL A   1      39.724  27.344  28.887  1.00  0.00     0.029 A 
ATOM     41  N   UNL A   1      41.433  28.724  28.495  1.00  0.00    -0.354 N 
ATOM     42  C   UNL A   1      44.810  27.561  26.127  1.00  0.00     0.074 A 
ATOM     43  C   UNL A   1      44.527  26.352  25.384  1.00  0.00     0.031 C 
ATOM     44  C   UNL A   1      39.426  28.519  29.456  1.00  0.00     0.029 A 
ATOM     45  C   UNL A   1      40.555  29.422  29.288  1.00  0.00     0.049 A 
ATOM     46  H   UNL A   1      42.287  29.098  28.176  1.00  0.00     0.167 HD
ATOM     47  C   UNL A   1      45.955  28.279  26.015  1.00  0.00     0.031 A 
ATOM     48  C   UNL A   1      40.656  30.629  29.876  1.00  0.00     0.031 A 
ATOM     49  C   UNL A   1      46.209  29.521  26.698  1.00  0.00     0.049 A 
ATOM     50  C   UNL A   1      41.930  31.403  29.742  1.00  0.00     0.074 A 
ATOM     51  C   UNL A   1      47.338  30.322  26.644  1.00  0.00     0.029 A 
ATOM     52  N   UNL A   1      45.308  30.162  27.534  1.00  0.00    -0.354 N 
ATOM     53  N   UNL A   1      43.008  31.104  29.061  1.00  0.00    -0.248 NA
ATOM     54  C   UNL A   1      42.015  32.663  30.493  1.00  0.00     0.031 C 
ATOM     55  C   UNL A   1      47.132  31.430  27.474  1.00  0.00     0.029 A 
ATOM     56  C   UNL A   1      45.857  31.342  28.007  1.00  0.00     0.049 A 
ATOM     57  H   UNL A   1      44.410  29.826  27.758  1.00  0.00     0.167 HD
ATOM     58  C   UNL A   1      43.907  32.130  29.312  1.00  0.00     0.074 A 
ATOM     59  C   UNL A   1      43.233  33.080  30.175  1.00  0.00     0.031 C 
ATOM     60  C   UNL A   1      45.184  32.265  28.882  1.00  0.00     0.031 A 
BRANCH  47  61
ATOM     61  C   UNL A   1      47.056  27.710  25.161  1.00  0.00    -0.014 A 
ATOM     62  C   UNL A   1      47.149  27.982  23.788  1.00  0.00     0.009 A 
ATOM     63  C   UNL A   1      48.051  26.924  25.765  1.00  0.00     0.009 A 
ATOM     64  C   UNL A   1      48.202  27.456  23.034  1.00  0.00     0.001 A 
ATOM     65  C   UNL A   1      49.116  26.422  25.016  1.00  0.00     0.001 A 
ATOM     66  C   UNL A   1      49.186  26.682  23.648  1.00  0.00     0.000 A 
ENDBRANCH  47  61
BRANCH  48  67
ATOM     67  C   UNL A   1      39.540  31.134  30.719  1.00  0.00    -0.014 A 
ATOM     68  C   UNL A   1      39.489  30.837  32.088  1.00  0.00     0.009 A 
ATOM     69  C   UNL A   1      38.536  31.940  30.160  1.00  0.00     0.009 A 
ATOM     70  C   UNL A   1      38.452  31.338  32.880  1.00  0.00     0.001 A 
ATOM     71  C   UNL A   1      37.521  32.467  30.959  1.00  0.00     0.001 A 
ATOM     72  C   UNL A   1      37.476  32.160  32.317  1.00  0.00     0.000 A 
ENDBRANCH  48  67
BRANCH  60  73
ATOM     73  C   UNL A   1      45.920  33.489  29.339  1.00  0.00    -0.014 A 
ATOM     74  C   UNL A   1      45.870  34.679  28.596  1.00  0.00     0.009 A 
ATOM     75  C   UNL A   1      46.684  33.449  30.514  1.00  0.00     0.009 A 
ATOM     76  C   UNL A   1      46.606  35.794  29.001  1.00  0.00     0.001 A 
ATOM     77  C   UNL A   1      47.401  34.571  30.928  1.00  0.00     0.001 A 
ATOM     78  C   UNL A   1      47.371  35.739  30.165  1.00  0.00     0.000 A 
ENDBRANCH  60  73
ENDBRANCH  34  35
ENDBRANCH  27  29
ENDBRANCH  26  27
ENDBRANCH  25  26
ENDBRANCH   1  25
TORSDOF 14
ENDMDL
