MODEL 1
REMARK VINA RESULT:     -11.7      0.000      0.000
REMARK SMILES C[C@@H](C(=O)OCCOC(=O)c1ccc(-c2c3nc(c(-c4ccccc4)c4ccc([nH]4)c(-c4ccccc4)c4nc(c(-c5ccccc5)c5ccc2[nH]5)C=C4)C=C3)cc1)c1ccc(C[C@H]2CCCC2=O)c(-c2ccc(F)cc2)c1
REMARK SMILES IDX 6 1 5 2 3 3 4 4 2 5 1 6 59 7 60 8 78 9 61 10 70 11 62 12
REMARK SMILES IDX 71 13 72 14 77 15 73 16 76 17 74 18 75 19 63 20 64 21 65 22
REMARK SMILES IDX 68 23 66 24 67 25 69 26 7 27 8 28 9 29 10 30 11 31 12 32
REMARK SMILES IDX 58 33 13 34 57 35 14 36 15 37 16 38 51 39 17 40 56 41 50 42
REMARK SMILES IDX 52 43 18 44 55 45 49 46 48 47 19 49 41 50 26 51 40 52 27 53
REMARK SMILES IDX 30 54 39 55 53 56 28 57 29 58 38 60 54 61 31 62 20 63 21 64
REMARK SMILES IDX 25 65 22 66 24 67 23 68 42 69 43 70 47 71 44 72 46 73 45 74
REMARK SMILES IDX 32 75 33 76 37 77 34 78 36 79 35 80
REMARK H PARENT 52 48 30 59
REMARK Flexibility Score: inf
ROOT
ATOM      1  C   UNL A   1      33.089  29.672  25.510  1.00  0.00     0.274 C 
ENDROOT
BRANCH   1   2
ATOM      2  O   UNL A   1      31.725  29.350  25.132  1.00  0.00    -0.462 OA
BRANCH   2   3
ATOM      3  C   UNL A   1      31.445  28.035  24.872  1.00  0.00     0.313 C 
ATOM      4  O   UNL A   1      30.979  27.260  25.702  1.00  0.00    -0.252 OA
BRANCH   3   5
ATOM      5  C   UNL A   1      31.688  27.638  23.381  1.00  0.00     0.126 C 
ATOM      6  C   UNL A   1      30.416  27.762  22.531  1.00  0.00     0.025 C 
BRANCH   5   7
ATOM      7  C   UNL A   1      32.268  26.230  23.336  1.00  0.00    -0.033 A 
ATOM      8  C   UNL A   1      31.408  25.266  22.856  1.00  0.00     0.005 A 
ATOM      9  C   UNL A   1      33.513  25.799  23.839  1.00  0.00     0.013 A 
ATOM     10  C   UNL A   1      31.642  23.945  23.146  1.00  0.00     0.004 A 
ATOM     11  C   UNL A   1      33.801  24.410  24.014  1.00  0.00    -0.015 A 
ATOM     12  C   UNL A   1      32.768  23.485  23.802  1.00  0.00    -0.039 A 
BRANCH  11  13
ATOM     13  C   UNL A   1      35.137  23.908  24.362  1.00  0.00    -0.018 A 
ATOM     14  C   UNL A   1      35.717  22.878  23.584  1.00  0.00     0.012 A 
ATOM     15  C   UNL A   1      35.787  24.309  25.533  1.00  0.00     0.012 A 
ATOM     16  C   UNL A   1      36.870  22.218  24.007  1.00  0.00     0.040 A 
ATOM     17  C   UNL A   1      36.951  23.656  25.949  1.00  0.00     0.040 A 
ATOM     18  C   UNL A   1      37.470  22.608  25.194  1.00  0.00     0.123 A 
ATOM     19  F   UNL A   1      38.554  21.953  25.630  1.00  0.00    -0.207 F 
ENDBRANCH  11  13
BRANCH  12  20
ATOM     20  C   UNL A   1      32.758  22.013  24.164  1.00  0.00     0.047 C 
BRANCH  20  21
ATOM     21  C   UNL A   1      32.542  21.621  25.638  1.00  0.00     0.060 C 
ATOM     22  C   UNL A   1      33.706  20.863  26.290  1.00  0.00     0.012 C 
ATOM     23  C   UNL A   1      32.256  22.697  26.675  1.00  0.00     0.136 C 
ATOM     24  C   UNL A   1      34.221  21.737  27.430  1.00  0.00     0.009 C 
ATOM     25  C   UNL A   1      33.007  22.474  27.951  1.00  0.00     0.076 C 
ATOM     26  O   UNL A   1      31.430  23.593  26.570  1.00  0.00    -0.299 OA
ENDBRANCH  20  21
ENDBRANCH  12  20
ENDBRANCH   5   7
ENDBRANCH   3   5
ENDBRANCH   2   3
ENDBRANCH   1   2
BRANCH   1  27
ATOM     27  C   UNL A   1      33.118  30.513  26.798  1.00  0.00     0.275 C 
BRANCH  27  28
ATOM     28  O   UNL A   1      34.028  29.934  27.767  1.00  0.00    -0.458 OA
BRANCH  28  29
ATOM     29  C   UNL A   1      34.830  30.795  28.455  1.00  0.00     0.338 C 
ATOM     30  O   UNL A   1      34.497  31.838  28.984  1.00  0.00    -0.246 OA
BRANCH  29  31
ATOM     31  C   UNL A   1      36.179  30.195  28.623  1.00  0.00     0.060 A 
ATOM     32  C   UNL A   1      36.997  30.245  27.514  1.00  0.00     0.016 A 
ATOM     33  C   UNL A   1      36.631  29.483  29.735  1.00  0.00     0.016 A 
ATOM     34  C   UNL A   1      38.279  29.699  27.530  1.00  0.00     0.010 A 
ATOM     35  C   UNL A   1      37.951  28.944  29.758  1.00  0.00     0.010 A 
ATOM     36  C   UNL A   1      38.809  29.094  28.661  1.00  0.00    -0.014 A 
BRANCH  36  37
ATOM     37  C   UNL A   1      40.204  28.577  28.495  1.00  0.00     0.031 A 
ATOM     38  C   UNL A   1      41.331  29.344  29.132  1.00  0.00     0.074 A 
ATOM     39  C   UNL A   1      40.460  27.313  28.082  1.00  0.00     0.049 A 
ATOM     40  N   UNL A   1      42.615  29.093  29.112  1.00  0.00    -0.248 NA
ATOM     41  C   UNL A   1      40.962  30.542  29.904  1.00  0.00     0.031 C 
ATOM     42  C   UNL A   1      39.455  26.355  27.639  1.00  0.00     0.029 A 
ATOM     43  N   UNL A   1      41.634  26.582  28.058  1.00  0.00    -0.354 N 
ATOM     44  C   UNL A   1      43.212  30.167  29.758  1.00  0.00     0.074 A 
ATOM     45  C   UNL A   1      42.148  31.004  30.266  1.00  0.00     0.031 C 
ATOM     46  C   UNL A   1      40.026  25.145  27.494  1.00  0.00     0.029 A 
ATOM     47  C   UNL A   1      41.465  25.251  27.730  1.00  0.00     0.049 A 
ATOM     48  H   UNL A   1      42.513  26.976  28.257  1.00  0.00     0.167 HD
ATOM     49  C   UNL A   1      44.530  30.471  29.825  1.00  0.00     0.031 A 
ATOM     50  C   UNL A   1      42.364  24.245  27.614  1.00  0.00     0.031 A 
ATOM     51  C   UNL A   1      45.576  29.634  29.306  1.00  0.00     0.049 A 
ATOM     52  C   UNL A   1      43.835  24.595  27.684  1.00  0.00     0.074 A 
ATOM     53  C   UNL A   1      46.924  29.914  29.163  1.00  0.00     0.029 A 
ATOM     54  N   UNL A   1      45.388  28.335  28.859  1.00  0.00    -0.354 N 
ATOM     55  N   UNL A   1      44.402  25.715  28.064  1.00  0.00    -0.248 NA
ATOM     56  C   UNL A   1      44.787  23.571  27.224  1.00  0.00     0.031 C 
ATOM     57  C   UNL A   1      47.543  28.798  28.585  1.00  0.00     0.029 A 
ATOM     58  C   UNL A   1      46.592  27.801  28.437  1.00  0.00     0.049 A 
ATOM     59  H   UNL A   1      44.524  27.862  28.845  1.00  0.00     0.167 HD
ATOM     60  C   UNL A   1      45.763  25.550  27.835  1.00  0.00     0.074 A 
ATOM     61  C   UNL A   1      45.950  24.193  27.367  1.00  0.00     0.031 C 
ATOM     62  C   UNL A   1      46.764  26.456  27.953  1.00  0.00     0.031 A 
BRANCH  49  63
ATOM     63  C   UNL A   1      44.865  31.859  30.286  1.00  0.00    -0.014 A 
ATOM     64  C   UNL A   1      45.178  32.165  31.617  1.00  0.00     0.009 A 
ATOM     65  C   UNL A   1      44.800  32.900  29.344  1.00  0.00     0.009 A 
ATOM     66  C   UNL A   1      45.378  33.494  32.001  1.00  0.00     0.001 A 
ATOM     67  C   UNL A   1      45.030  34.220  29.722  1.00  0.00     0.001 A 
ATOM     68  C   UNL A   1      45.305  34.518  31.055  1.00  0.00     0.000 A 
ENDBRANCH  49  63
BRANCH  50  69
ATOM     69  C   UNL A   1      41.958  22.835  27.299  1.00  0.00    -0.014 A 
ATOM     70  C   UNL A   1      41.532  21.959  28.318  1.00  0.00     0.009 A 
ATOM     71  C   UNL A   1      42.067  22.321  25.998  1.00  0.00     0.009 A 
ATOM     72  C   UNL A   1      41.241  20.617  28.040  1.00  0.00     0.001 A 
ATOM     73  C   UNL A   1      41.726  20.994  25.713  1.00  0.00     0.001 A 
ATOM     74  C   UNL A   1      41.325  20.139  26.735  1.00  0.00     0.000 A 
ENDBRANCH  50  69
BRANCH  62  75
ATOM     75  C   UNL A   1      48.147  26.019  27.556  1.00  0.00    -0.014 A 
ATOM     76  C   UNL A   1      48.646  26.276  26.268  1.00  0.00     0.009 A 
ATOM     77  C   UNL A   1      48.978  25.387  28.491  1.00  0.00     0.009 A 
ATOM     78  C   UNL A   1      49.936  25.876  25.916  1.00  0.00     0.001 A 
ATOM     79  C   UNL A   1      50.277  25.012  28.145  1.00  0.00     0.001 A 
ATOM     80  C   UNL A   1      50.752  25.248  26.856  1.00  0.00     0.000 A 
ENDBRANCH  62  75
ENDBRANCH  36  37
ENDBRANCH  29  31
ENDBRANCH  28  29
ENDBRANCH  27  28
ENDBRANCH   1  27
TORSDOF 15
ENDMDL
MODEL 2
REMARK VINA RESULT:     -11.3      2.489      7.740
REMARK SMILES C[C@@H](C(=O)OCCOC(=O)c1ccc(-c2c3nc(c(-c4ccccc4)c4ccc([nH]4)c(-c4ccccc4)c4nc(c(-c5ccccc5)c5ccc2[nH]5)C=C4)C=C3)cc1)c1ccc(C[C@H]2CCCC2=O)c(-c2ccc(F)cc2)c1
REMARK SMILES IDX 6 1 5 2 3 3 4 4 2 5 1 6 59 7 60 8 78 9 61 10 70 11 62 12
REMARK SMILES IDX 71 13 72 14 77 15 73 16 76 17 74 18 75 19 63 20 64 21 65 22
REMARK SMILES IDX 68 23 66 24 67 25 69 26 7 27 8 28 9 29 10 30 11 31 12 32
REMARK SMILES IDX 58 33 13 34 57 35 14 36 15 37 16 38 51 39 17 40 56 41 50 42
REMARK SMILES IDX 52 43 18 44 55 45 49 46 48 47 19 49 41 50 26 51 40 52 27 53
REMARK SMILES IDX 30 54 39 55 53 56 28 57 29 58 38 60 54 61 31 62 20 63 21 64
REMARK SMILES IDX 25 65 22 66 24 67 23 68 42 69 43 70 47 71 44 72 46 73 45 74
REMARK SMILES IDX 32 75 33 76 37 77 34 78 36 79 35 80
REMARK H PARENT 52 48 30 59
REMARK Flexibility Score: inf
ROOT
ATOM      1  C   UNL A   1      37.686  20.430  24.626  1.00  0.00     0.274 C 
ENDROOT
BRANCH   1   2
ATOM      2  O   UNL A   1      36.337  20.397  25.160  1.00  0.00    -0.462 OA
BRANCH   2   3
ATOM      3  C   UNL A   1      35.877  21.540  25.759  1.00  0.00     0.313 C 
ATOM      4  O   UNL A   1      35.157  21.546  26.753  1.00  0.00    -0.252 OA
BRANCH   3   5
ATOM      5  C   UNL A   1      36.437  22.844  25.106  1.00  0.00     0.126 C 
ATOM      6  C   UNL A   1      37.447  23.560  26.013  1.00  0.00     0.025 C 
BRANCH   5   7
ATOM      7  C   UNL A   1      35.268  23.746  24.732  1.00  0.00    -0.033 A 
ATOM      8  C   UNL A   1      34.556  23.339  23.624  1.00  0.00     0.005 A 
ATOM      9  C   UNL A   1      34.925  24.987  25.306  1.00  0.00     0.013 A 
ATOM     10  C   UNL A   1      33.775  24.246  22.950  1.00  0.00     0.004 A 
ATOM     11  C   UNL A   1      34.004  25.871  24.663  1.00  0.00    -0.015 A 
ATOM     12  C   UNL A   1      33.550  25.540  23.379  1.00  0.00    -0.039 A 
BRANCH  11  13
ATOM     13  C   UNL A   1      33.482  27.086  25.304  1.00  0.00    -0.018 A 
ATOM     14  C   UNL A   1      32.634  26.967  26.432  1.00  0.00     0.012 A 
ATOM     15  C   UNL A   1      33.670  28.351  24.739  1.00  0.00     0.012 A 
ATOM     16  C   UNL A   1      31.938  28.067  26.929  1.00  0.00     0.040 A 
ATOM     17  C   UNL A   1      32.982  29.456  25.248  1.00  0.00     0.040 A 
ATOM     18  C   UNL A   1      32.112  29.302  26.323  1.00  0.00     0.123 A 
ATOM     19  F   UNL A   1      31.415  30.357  26.766  1.00  0.00    -0.207 F 
ENDBRANCH  11  13
BRANCH  12  20
ATOM     20  C   UNL A   1      32.788  26.425  22.411  1.00  0.00     0.047 C 
BRANCH  20  21
ATOM     21  C   UNL A   1      31.249  26.350  22.407  1.00  0.00     0.060 C 
ATOM     22  C   UNL A   1      30.635  25.440  23.479  1.00  0.00     0.012 C 
ATOM     23  C   UNL A   1      30.427  27.619  22.573  1.00  0.00     0.136 C 
ATOM     24  C   UNL A   1      29.793  26.331  24.386  1.00  0.00     0.009 C 
ATOM     25  C   UNL A   1      29.260  27.427  23.492  1.00  0.00     0.076 C 
ATOM     26  O   UNL A   1      30.591  28.665  21.961  1.00  0.00    -0.299 OA
ENDBRANCH  20  21
ENDBRANCH  12  20
ENDBRANCH   5   7
ENDBRANCH   3   5
ENDBRANCH   2   3
ENDBRANCH   1   2
BRANCH   1  27
ATOM     27  C   UNL A   1      38.683  19.799  25.614  1.00  0.00     0.275 C 
BRANCH  27  28
ATOM     28  O   UNL A   1      39.955  19.548  24.966  1.00  0.00    -0.458 OA
BRANCH  28  29
ATOM     29  C   UNL A   1      41.034  19.347  25.776  1.00  0.00     0.338 C 
ATOM     30  O   UNL A   1      41.734  18.354  25.827  1.00  0.00    -0.246 OA
BRANCH  29  31
ATOM     31  C   UNL A   1      41.356  20.605  26.498  1.00  0.00     0.060 A 
ATOM     32  C   UNL A   1      41.614  21.701  25.702  1.00  0.00     0.016 A 
ATOM     33  C   UNL A   1      41.545  20.740  27.875  1.00  0.00     0.016 A 
ATOM     34  C   UNL A   1      41.950  22.937  26.252  1.00  0.00     0.010 A 
ATOM     35  C   UNL A   1      41.867  22.010  28.437  1.00  0.00     0.010 A 
ATOM     36  C   UNL A   1      42.025  23.140  27.623  1.00  0.00    -0.014 A 
BRANCH  36  37
ATOM     37  C   UNL A   1      42.387  24.534  28.028  1.00  0.00     0.031 A 
ATOM     38  C   UNL A   1      43.778  25.026  27.733  1.00  0.00     0.074 A 
ATOM     39  C   UNL A   1      41.450  25.457  28.351  1.00  0.00     0.049 A 
ATOM     40  N   UNL A   1      44.316  26.189  28.000  1.00  0.00    -0.248 NA
ATOM     41  C   UNL A   1      44.674  24.093  27.031  1.00  0.00     0.031 C 
ATOM     42  C   UNL A   1      40.020  25.197  28.464  1.00  0.00     0.029 A 
ATOM     43  N   UNL A   1      41.545  26.822  28.548  1.00  0.00    -0.354 N 
ATOM     44  C   UNL A   1      45.644  26.078  27.615  1.00  0.00     0.074 A 
ATOM     45  C   UNL A   1      45.799  24.787  26.982  1.00  0.00     0.031 C 
ATOM     46  C   UNL A   1      39.364  26.365  28.599  1.00  0.00     0.029 A 
ATOM     47  C   UNL A   1      40.328  27.460  28.689  1.00  0.00     0.049 A 
ATOM     48  H   UNL A   1      42.406  27.298  28.585  1.00  0.00     0.167 HD
ATOM     49  C   UNL A   1      46.659  26.939  27.864  1.00  0.00     0.031 A 
ATOM     50  C   UNL A   1      40.029  28.766  28.888  1.00  0.00     0.031 A 
ATOM     51  C   UNL A   1      46.492  28.216  28.504  1.00  0.00     0.049 A 
ATOM     52  C   UNL A   1      41.169  29.721  29.172  1.00  0.00     0.074 A 
ATOM     53  C   UNL A   1      47.460  29.092  28.961  1.00  0.00     0.029 A 
ATOM     54  N   UNL A   1      45.264  28.806  28.760  1.00  0.00    -0.354 N 
ATOM     55  N   UNL A   1      42.460  29.530  29.043  1.00  0.00    -0.248 NA
ATOM     56  C   UNL A   1      40.812  31.043  29.714  1.00  0.00     0.031 C 
ATOM     57  C   UNL A   1      46.814  30.194  29.536  1.00  0.00     0.029 A 
ATOM     58  C   UNL A   1      45.448  30.033  29.371  1.00  0.00     0.049 A 
ATOM     59  H   UNL A   1      44.390  28.410  28.538  1.00  0.00     0.167 HD
ATOM     60  C   UNL A   1      43.066  30.679  29.540  1.00  0.00     0.074 A 
ATOM     61  C   UNL A   1      42.004  31.598  29.891  1.00  0.00     0.031 C 
ATOM     62  C   UNL A   1      44.383  30.931  29.735  1.00  0.00     0.031 A 
BRANCH  49  63
ATOM     63  C   UNL A   1      48.045  26.412  27.635  1.00  0.00    -0.014 A 
ATOM     64  C   UNL A   1      48.739  26.592  26.431  1.00  0.00     0.009 A 
ATOM     65  C   UNL A   1      48.640  25.655  28.659  1.00  0.00     0.009 A 
ATOM     66  C   UNL A   1      49.985  25.986  26.245  1.00  0.00     0.001 A 
ATOM     67  C   UNL A   1      49.895  25.078  28.484  1.00  0.00     0.001 A 
ATOM     68  C   UNL A   1      50.561  25.233  27.270  1.00  0.00     0.000 A 
ENDBRANCH  49  63
BRANCH  50  69
ATOM     69  C   UNL A   1      38.616  29.266  28.957  1.00  0.00    -0.014 A 
ATOM     70  C   UNL A   1      37.980  29.801  27.819  1.00  0.00     0.009 A 
ATOM     71  C   UNL A   1      37.913  29.293  30.172  1.00  0.00     0.009 A 
ATOM     72  C   UNL A   1      36.695  30.352  27.903  1.00  0.00     0.001 A 
ATOM     73  C   UNL A   1      36.609  29.797  30.244  1.00  0.00     0.001 A 
ATOM     74  C   UNL A   1      36.005  30.337  29.112  1.00  0.00     0.000 A 
ENDBRANCH  50  69
BRANCH  62  75
ATOM     75  C   UNL A   1      44.751  32.243  30.371  1.00  0.00    -0.014 A 
ATOM     76  C   UNL A   1      44.942  33.397  29.593  1.00  0.00     0.009 A 
ATOM     77  C   UNL A   1      44.862  32.339  31.766  1.00  0.00     0.009 A 
ATOM     78  C   UNL A   1      45.271  34.612  30.198  1.00  0.00     0.001 A 
ATOM     79  C   UNL A   1      45.165  33.561  32.370  1.00  0.00     0.001 A 
ATOM     80  C   UNL A   1      45.378  34.693  31.586  1.00  0.00     0.000 A 
ENDBRANCH  62  75
ENDBRANCH  36  37
ENDBRANCH  29  31
ENDBRANCH  28  29
ENDBRANCH  27  28
ENDBRANCH   1  27
TORSDOF 15
ENDMDL
MODEL 3
REMARK VINA RESULT:     -11.3      4.523      7.739
REMARK SMILES C[C@@H](C(=O)OCCOC(=O)c1ccc(-c2c3nc(c(-c4ccccc4)c4ccc([nH]4)c(-c4ccccc4)c4nc(c(-c5ccccc5)c5ccc2[nH]5)C=C4)C=C3)cc1)c1ccc(C[C@H]2CCCC2=O)c(-c2ccc(F)cc2)c1
REMARK SMILES IDX 6 1 5 2 3 3 4 4 2 5 1 6 59 7 60 8 78 9 61 10 70 11 62 12
REMARK SMILES IDX 71 13 72 14 77 15 73 16 76 17 74 18 75 19 63 20 64 21 65 22
REMARK SMILES IDX 68 23 66 24 67 25 69 26 7 27 8 28 9 29 10 30 11 31 12 32
REMARK SMILES IDX 58 33 13 34 57 35 14 36 15 37 16 38 51 39 17 40 56 41 50 42
REMARK SMILES IDX 52 43 18 44 55 45 49 46 48 47 19 49 41 50 26 51 40 52 27 53
REMARK SMILES IDX 30 54 39 55 53 56 28 57 29 58 38 60 54 61 31 62 20 63 21 64
REMARK SMILES IDX 25 65 22 66 24 67 23 68 42 69 43 70 47 71 44 72 46 73 45 74
REMARK SMILES IDX 32 75 33 76 37 77 34 78 36 79 35 80
REMARK H PARENT 52 48 30 59
REMARK Flexibility Score: inf
ROOT
ATOM      1  C   UNL A   1      33.324  34.607  29.115  1.00  0.00     0.274 C 
ENDROOT
BRANCH   1   2
ATOM      2  O   UNL A   1      33.897  35.548  30.059  1.00  0.00    -0.462 OA
BRANCH   2   3
ATOM      3  C   UNL A   1      33.083  35.990  31.068  1.00  0.00     0.313 C 
ATOM      4  O   UNL A   1      32.014  36.563  30.881  1.00  0.00    -0.252 OA
BRANCH   3   5
ATOM      5  C   UNL A   1      33.604  35.606  32.490  1.00  0.00     0.126 C 
ATOM      6  C   UNL A   1      34.108  36.826  33.274  1.00  0.00     0.025 C 
BRANCH   5   7
ATOM      7  C   UNL A   1      34.680  34.537  32.347  1.00  0.00    -0.033 A 
ATOM      8  C   UNL A   1      34.275  33.262  32.677  1.00  0.00     0.005 A 
ATOM      9  C   UNL A   1      36.044  34.729  32.043  1.00  0.00     0.013 A 
ATOM     10  C   UNL A   1      35.216  32.313  32.990  1.00  0.00     0.004 A 
ATOM     11  C   UNL A   1      37.001  33.687  32.245  1.00  0.00    -0.015 A 
ATOM     12  C   UNL A   1      36.580  32.511  32.881  1.00  0.00    -0.039 A 
BRANCH  11  13
ATOM     13  C   UNL A   1      38.391  33.778  31.778  1.00  0.00    -0.018 A 
ATOM     14  C   UNL A   1      39.396  34.225  32.669  1.00  0.00     0.012 A 
ATOM     15  C   UNL A   1      38.727  33.584  30.435  1.00  0.00     0.012 A 
ATOM     16  C   UNL A   1      40.674  34.543  32.214  1.00  0.00     0.040 A 
ATOM     17  C   UNL A   1      40.013  33.890  29.981  1.00  0.00     0.040 A 
ATOM     18  C   UNL A   1      40.967  34.381  30.869  1.00  0.00     0.123 A 
ATOM     19  F   UNL A   1      42.179  34.723  30.413  1.00  0.00    -0.207 F 
ENDBRANCH  11  13
BRANCH  12  20
ATOM     20  C   UNL A   1      37.447  31.393  33.424  1.00  0.00     0.047 C 
BRANCH  20  21
ATOM     21  C   UNL A   1      37.923  31.479  34.887  1.00  0.00     0.060 C 
ATOM     22  C   UNL A   1      39.435  31.312  35.094  1.00  0.00     0.012 C 
ATOM     23  C   UNL A   1      37.637  32.728  35.707  1.00  0.00     0.136 C 
ATOM     24  C   UNL A   1      39.947  32.620  35.689  1.00  0.00     0.009 C 
ATOM     25  C   UNL A   1      38.811  33.149  36.535  1.00  0.00     0.076 C 
ATOM     26  O   UNL A   1      36.555  33.291  35.802  1.00  0.00    -0.299 OA
ENDBRANCH  20  21
ENDBRANCH  12  20
ENDBRANCH   5   7
ENDBRANCH   3   5
ENDBRANCH   2   3
ENDBRANCH   1   2
BRANCH   1  27
ATOM     27  C   UNL A   1      34.411  33.686  28.531  1.00  0.00     0.275 C 
BRANCH  27  28
ATOM     28  O   UNL A   1      34.418  32.407  29.212  1.00  0.00    -0.458 OA
BRANCH  28  29
ATOM     29  C   UNL A   1      34.649  31.300  28.450  1.00  0.00     0.338 C 
ATOM     30  O   UNL A   1      34.012  30.935  27.481  1.00  0.00    -0.246 OA
BRANCH  29  31
ATOM     31  C   UNL A   1      35.925  30.663  28.869  1.00  0.00     0.060 A 
ATOM     32  C   UNL A   1      36.963  30.755  27.966  1.00  0.00     0.016 A 
ATOM     33  C   UNL A   1      36.121  29.885  30.012  1.00  0.00     0.016 A 
ATOM     34  C   UNL A   1      38.206  30.182  28.226  1.00  0.00     0.010 A 
ATOM     35  C   UNL A   1      37.399  29.318  30.287  1.00  0.00     0.010 A 
ATOM     36  C   UNL A   1      38.475  29.507  29.409  1.00  0.00    -0.014 A 
BRANCH  36  37
ATOM     37  C   UNL A   1      39.868  28.970  29.518  1.00  0.00     0.031 A 
ATOM     38  C   UNL A   1      40.774  29.540  30.576  1.00  0.00     0.074 A 
ATOM     39  C   UNL A   1      40.239  27.805  28.935  1.00  0.00     0.049 A 
ATOM     40  N   UNL A   1      42.018  29.239  30.847  1.00  0.00    -0.248 NA
ATOM     41  C   UNL A   1      40.198  30.573  31.452  1.00  0.00     0.031 C 
ATOM     42  C   UNL A   1      39.400  27.004  28.053  1.00  0.00     0.029 A 
ATOM     43  N   UNL A   1      41.383  27.041  29.074  1.00  0.00    -0.354 N 
ATOM     44  C   UNL A   1      42.407  30.131  31.836  1.00  0.00     0.074 A 
ATOM     45  C   UNL A   1      41.237  30.897  32.204  1.00  0.00     0.031 C 
ATOM     46  C   UNL A   1      40.002  25.823  27.818  1.00  0.00     0.029 A 
ATOM     47  C   UNL A   1      41.322  25.812  28.445  1.00  0.00     0.049 A 
ATOM     48  H   UNL A   1      42.172  27.346  29.577  1.00  0.00     0.167 HD
ATOM     49  C   UNL A   1      43.654  30.355  32.313  1.00  0.00     0.031 A 
ATOM     50  C   UNL A   1      42.229  24.810  28.367  1.00  0.00     0.031 A 
ATOM     51  C   UNL A   1      44.811  29.592  31.929  1.00  0.00     0.049 A 
ATOM     52  C   UNL A   1      43.623  25.071  28.897  1.00  0.00     0.074 A 
ATOM     53  C   UNL A   1      46.144  29.833  32.211  1.00  0.00     0.029 A 
ATOM     54  N   UNL A   1      44.763  28.420  31.190  1.00  0.00    -0.354 N 
ATOM     55  N   UNL A   1      44.055  26.063  29.638  1.00  0.00    -0.248 NA
ATOM     56  C   UNL A   1      44.675  24.117  28.506  1.00  0.00     0.031 C 
ATOM     57  C   UNL A   1      46.907  28.829  31.602  1.00  0.00     0.029 A 
ATOM     58  C   UNL A   1      46.042  27.928  31.003  1.00  0.00     0.049 A 
ATOM     59  H   UNL A   1      43.940  28.000  30.850  1.00  0.00     0.167 HD
ATOM     60  C   UNL A   1      45.429  25.884  29.750  1.00  0.00     0.074 A 
ATOM     61  C   UNL A   1      45.749  24.643  29.078  1.00  0.00     0.031 C 
ATOM     62  C   UNL A   1      46.351  26.701  30.315  1.00  0.00     0.031 A 
BRANCH  49  63
ATOM     63  C   UNL A   1      43.838  31.604  33.123  1.00  0.00    -0.014 A 
ATOM     64  C   UNL A   1      43.749  31.625  34.521  1.00  0.00     0.009 A 
ATOM     65  C   UNL A   1      44.050  32.811  32.434  1.00  0.00     0.009 A 
ATOM     66  C   UNL A   1      43.826  32.840  35.208  1.00  0.00     0.001 A 
ATOM     67  C   UNL A   1      44.158  34.016  33.123  1.00  0.00     0.001 A 
ATOM     68  C   UNL A   1      44.031  34.031  34.510  1.00  0.00     0.000 A 
ENDBRANCH  49  63
BRANCH  50  69
ATOM     69  C   UNL A   1      41.938  23.513  27.672  1.00  0.00    -0.014 A 
ATOM     70  C   UNL A   1      41.372  22.427  28.369  1.00  0.00     0.009 A 
ATOM     71  C   UNL A   1      42.294  23.313  26.329  1.00  0.00     0.009 A 
ATOM     72  C   UNL A   1      41.184  21.187  27.745  1.00  0.00     0.001 A 
ATOM     73  C   UNL A   1      42.058  22.089  25.691  1.00  0.00     0.001 A 
ATOM     74  C   UNL A   1      41.514  21.023  26.403  1.00  0.00     0.000 A 
ENDBRANCH  50  69
BRANCH  62  75
ATOM     75  C   UNL A   1      47.795  26.290  30.218  1.00  0.00    -0.014 A 
ATOM     76  C   UNL A   1      48.555  26.577  29.072  1.00  0.00     0.009 A 
ATOM     77  C   UNL A   1      48.416  25.652  31.302  1.00  0.00     0.009 A 
ATOM     78  C   UNL A   1      49.897  26.200  29.001  1.00  0.00     0.001 A 
ATOM     79  C   UNL A   1      49.765  25.300  31.238  1.00  0.00     0.001 A 
ATOM     80  C   UNL A   1      50.502  25.566  30.086  1.00  0.00     0.000 A 
ENDBRANCH  62  75
ENDBRANCH  36  37
ENDBRANCH  29  31
ENDBRANCH  28  29
ENDBRANCH  27  28
ENDBRANCH   1  27
TORSDOF 15
ENDMDL
