MODEL 1
REMARK VINA RESULT:     -11.3      0.000      0.000
REMARK SMILES COc1ccc(/C=C/c2ncc(C(=O)OCCOC(=O)c3ccc(-c4c5nc(c(-c6ccccc6)c6ccc([nH]6)c(-c6ccccc6)c6nc(c(-c7ccccc7)c7ccc4[nH]7)C=C6)C=C5)cc3)s2)cc1O
REMARK SMILES IDX 16 1 15 2 13 3 14 4 12 5 9 6 10 7 69 8 11 9 8 10 7 11 6 12
REMARK SMILES IDX 3 13 4 14 71 15 5 16 70 17 2 18 1 19 72 20 17 22 18 23 19 24
REMARK SMILES IDX 20 25 21 26 22 27 68 28 23 29 67 30 24 31 25 32 26 33 61 34
REMARK SMILES IDX 27 35 66 36 60 37 62 38 28 39 65 40 59 41 58 42 29 44 51 45
REMARK SMILES IDX 36 46 50 47 37 48 40 49 49 50 63 51 38 52 39 53 48 55 64 56
REMARK SMILES IDX 41 57 30 58 31 59 35 60 32 61 34 62 33 63 52 64 53 65 57 66
REMARK SMILES IDX 54 67 56 68 55 69 42 70 43 71 47 72 44 73 46 74 45 75
REMARK H PARENT 72 21 62 43 40 54
REMARK Flexibility Score: inf
ROOT
ATOM      1  C   UNL A   1      34.760  21.120  24.650  1.00  0.00     0.275 C 
ENDROOT
BRANCH   1   2
ATOM      2  O   UNL A   1      33.822  21.006  25.737  1.00  0.00    -0.458 OA
BRANCH   2   3
ATOM      3  C   UNL A   1      32.506  21.184  25.411  1.00  0.00     0.350 C 
ATOM      4  O   UNL A   1      31.772  20.292  25.017  1.00  0.00    -0.245 OA
BRANCH   3   5
ATOM      5  C   UNL A   1      32.103  22.545  25.682  1.00  0.00     0.132 A 
ATOM      6  C   UNL A   1      31.066  24.746  25.520  1.00  0.00     0.116 A 
ATOM      7  N   UNL A   1      31.449  24.518  26.761  1.00  0.00    -0.244 NA
ATOM      8  S   UNL A   1      31.573  23.544  24.391  1.00  0.00    -0.107 S 
ATOM      9  C   UNL A   1      32.014  23.255  26.860  1.00  0.00     0.139 A 
BRANCH   6  10
ATOM     10  C   UNL A   1      30.277  25.828  25.047  1.00  0.00     0.040 C 
ATOM     11  C   UNL A   1      30.665  26.552  23.987  1.00  0.00     0.011 C 
BRANCH  11  12
ATOM     12  C   UNL A   1      29.911  27.675  23.400  1.00  0.00    -0.022 A 
ATOM     13  C   UNL A   1      28.320  29.696  22.192  1.00  0.00     0.160 A 
ATOM     14  C   UNL A   1      29.714  29.703  22.069  1.00  0.00     0.051 A 
ATOM     15  C   UNL A   1      27.734  28.665  22.926  1.00  0.00     0.158 A 
ATOM     16  C   UNL A   1      30.501  28.703  22.655  1.00  0.00     0.012 A 
ATOM     17  C   UNL A   1      28.517  27.680  23.537  1.00  0.00     0.058 A 
BRANCH  13  18
ATOM     18  O   UNL A   1      27.712  30.722  21.526  1.00  0.00    -0.493 OA
ATOM     19  C   UNL A   1      28.389  31.966  21.420  1.00  0.00     0.278 C 
ENDBRANCH  13  18
BRANCH  15  20
ATOM     20  O   UNL A   1      26.385  28.495  23.048  1.00  0.00    -0.504 OA
ATOM     21  H   UNL A   1      25.816  29.238  23.034  1.00  0.00     0.293 HD
ENDBRANCH  15  20
ENDBRANCH  11  12
ENDBRANCH   6  10
ENDBRANCH   3   5
ENDBRANCH   2   3
ENDBRANCH   1   2
BRANCH   1  22
ATOM     22  C   UNL A   1      36.139  20.575  25.035  1.00  0.00     0.275 C 
BRANCH  22  23
ATOM     23  O   UNL A   1      36.956  21.573  25.679  1.00  0.00    -0.458 OA
BRANCH  23  24
ATOM     24  C   UNL A   1      38.268  21.258  25.785  1.00  0.00     0.338 C 
ATOM     25  O   UNL A   1      38.813  20.234  25.409  1.00  0.00    -0.246 OA
BRANCH  24  26
ATOM     26  C   UNL A   1      39.022  22.414  26.297  1.00  0.00     0.060 A 
ATOM     27  C   UNL A   1      38.461  23.677  26.106  1.00  0.00     0.016 A 
ATOM     28  C   UNL A   1      40.291  22.286  26.862  1.00  0.00     0.016 A 
ATOM     29  C   UNL A   1      39.156  24.822  26.475  1.00  0.00     0.010 A 
ATOM     30  C   UNL A   1      40.994  23.442  27.236  1.00  0.00     0.010 A 
ATOM     31  C   UNL A   1      40.434  24.717  27.034  1.00  0.00    -0.014 A 
BRANCH  31  32
ATOM     32  C   UNL A   1      41.186  25.955  27.359  1.00  0.00     0.031 A 
ATOM     33  C   UNL A   1      40.616  26.955  28.325  1.00  0.00     0.074 A 
ATOM     34  C   UNL A   1      42.405  26.161  26.826  1.00  0.00     0.049 A 
ATOM     35  N   UNL A   1      41.109  28.105  28.710  1.00  0.00    -0.248 NA
ATOM     36  C   UNL A   1      39.323  26.617  28.937  1.00  0.00     0.031 C 
ATOM     37  C   UNL A   1      43.092  25.247  25.913  1.00  0.00     0.029 A 
ATOM     38  N   UNL A   1      43.284  27.203  26.985  1.00  0.00    -0.354 N 
ATOM     39  C   UNL A   1      40.175  28.643  29.585  1.00  0.00     0.074 A 
ATOM     40  C   UNL A   1      39.081  27.696  29.668  1.00  0.00     0.031 C 
ATOM     41  C   UNL A   1      44.294  25.761  25.605  1.00  0.00     0.029 A 
ATOM     42  C   UNL A   1      44.440  27.060  26.259  1.00  0.00     0.049 A 
ATOM     43  H   UNL A   1      43.102  27.978  27.565  1.00  0.00     0.167 HD
ATOM     44  C   UNL A   1      40.220  29.819  30.258  1.00  0.00     0.031 A 
ATOM     45  C   UNL A   1      45.491  27.888  26.114  1.00  0.00     0.031 A 
ATOM     46  C   UNL A   1      41.310  30.756  30.188  1.00  0.00     0.049 A 
ATOM     47  C   UNL A   1      45.500  29.205  26.836  1.00  0.00     0.074 A 
ATOM     48  C   UNL A   1      41.453  31.963  30.852  1.00  0.00     0.029 A 
ATOM     49  N   UNL A   1      42.442  30.593  29.407  1.00  0.00    -0.354 N 
ATOM     50  N   UNL A   1      44.607  29.701  27.657  1.00  0.00    -0.248 NA
ATOM     51  C   UNL A   1      46.660  30.077  26.606  1.00  0.00     0.031 C 
ATOM     52  C   UNL A   1      42.652  32.552  30.436  1.00  0.00     0.029 A 
ATOM     53  C   UNL A   1      43.277  31.689  29.550  1.00  0.00     0.049 A 
ATOM     54  H   UNL A   1      42.626  29.814  28.833  1.00  0.00     0.167 HD
ATOM     55  C   UNL A   1      45.101  30.939  28.049  1.00  0.00     0.074 A 
ATOM     56  C   UNL A   1      46.381  31.109  27.392  1.00  0.00     0.031 C 
ATOM     57  C   UNL A   1      44.541  31.852  28.879  1.00  0.00     0.031 A 
BRANCH  44  58
ATOM     58  C   UNL A   1      39.023  30.176  31.093  1.00  0.00    -0.014 A 
ATOM     59  C   UNL A   1      38.944  29.830  32.450  1.00  0.00     0.009 A 
ATOM     60  C   UNL A   1      37.962  30.887  30.509  1.00  0.00     0.009 A 
ATOM     61  C   UNL A   1      37.809  30.156  33.195  1.00  0.00     0.001 A 
ATOM     62  C   UNL A   1      36.840  31.232  31.262  1.00  0.00     0.001 A 
ATOM     63  C   UNL A   1      36.759  30.857  32.602  1.00  0.00     0.000 A 
ENDBRANCH  44  58
BRANCH  45  64
ATOM     64  C   UNL A   1      46.610  27.501  25.220  1.00  0.00    -0.014 A 
ATOM     65  C   UNL A   1      46.669  27.969  23.900  1.00  0.00     0.009 A 
ATOM     66  C   UNL A   1      47.642  26.675  25.695  1.00  0.00     0.009 A 
ATOM     67  C   UNL A   1      47.734  27.610  23.070  1.00  0.00     0.001 A 
ATOM     68  C   UNL A   1      48.718  26.338  24.873  1.00  0.00     0.001 A 
ATOM     69  C   UNL A   1      48.760  26.802  23.560  1.00  0.00     0.000 A 
ENDBRANCH  45  64
BRANCH  57  70
ATOM     70  C   UNL A   1      45.317  33.113  29.131  1.00  0.00    -0.014 A 
ATOM     71  C   UNL A   1      46.232  33.199  30.192  1.00  0.00     0.009 A 
ATOM     72  C   UNL A   1      45.157  34.214  28.278  1.00  0.00     0.009 A 
ATOM     73  C   UNL A   1      46.951  34.377  30.409  1.00  0.00     0.001 A 
ATOM     74  C   UNL A   1      45.894  35.382  28.483  1.00  0.00     0.001 A 
ATOM     75  C   UNL A   1      46.785  35.465  29.553  1.00  0.00     0.000 A 
ENDBRANCH  57  70
ENDBRANCH  31  32
ENDBRANCH  24  26
ENDBRANCH  23  24
ENDBRANCH  22  23
ENDBRANCH   1  22
TORSDOF 15
ENDMDL
MODEL 2
REMARK VINA RESULT:     -11.3      4.065      7.888
REMARK SMILES COc1ccc(/C=C/c2ncc(C(=O)OCCOC(=O)c3ccc(-c4c5nc(c(-c6ccccc6)c6ccc([nH]6)c(-c6ccccc6)c6nc(c(-c7ccccc7)c7ccc4[nH]7)C=C6)C=C5)cc3)s2)cc1O
REMARK SMILES IDX 16 1 15 2 13 3 14 4 12 5 9 6 10 7 69 8 11 9 8 10 7 11 6 12
REMARK SMILES IDX 3 13 4 14 71 15 5 16 70 17 2 18 1 19 72 20 17 22 18 23 19 24
REMARK SMILES IDX 20 25 21 26 22 27 68 28 23 29 67 30 24 31 25 32 26 33 61 34
REMARK SMILES IDX 27 35 66 36 60 37 62 38 28 39 65 40 59 41 58 42 29 44 51 45
REMARK SMILES IDX 36 46 50 47 37 48 40 49 49 50 63 51 38 52 39 53 48 55 64 56
REMARK SMILES IDX 41 57 30 58 31 59 35 60 32 61 34 62 33 63 52 64 53 65 57 66
REMARK SMILES IDX 54 67 56 68 55 69 42 70 43 71 47 72 44 73 46 74 45 75
REMARK H PARENT 72 21 62 43 40 54
REMARK Flexibility Score: inf
ROOT
ATOM      1  C   UNL A   1      42.438  19.959  26.019  1.00  0.00     0.275 C 
ENDROOT
BRANCH   1   2
ATOM      2  O   UNL A   1      41.274  20.445  26.717  1.00  0.00    -0.458 OA
BRANCH   2   3
ATOM      3  C   UNL A   1      40.080  20.287  26.069  1.00  0.00     0.350 C 
ATOM      4  O   UNL A   1      39.677  19.223  25.629  1.00  0.00    -0.245 OA
BRANCH   3   5
ATOM      5  C   UNL A   1      39.347  21.532  26.062  1.00  0.00     0.132 A 
ATOM      6  C   UNL A   1      37.559  23.184  25.923  1.00  0.00     0.116 A 
ATOM      7  N   UNL A   1      38.599  23.696  26.550  1.00  0.00    -0.244 NA
ATOM      8  S   UNL A   1      37.840  21.623  25.244  1.00  0.00    -0.107 S 
ATOM      9  C   UNL A   1      39.607  22.749  26.655  1.00  0.00     0.139 A 
BRANCH   6  10
ATOM     10  C   UNL A   1      36.266  23.757  25.787  1.00  0.00     0.040 C 
ATOM     11  C   UNL A   1      35.232  23.301  26.510  1.00  0.00     0.011 C 
BRANCH  11  12
ATOM     12  C   UNL A   1      33.860  23.840  26.467  1.00  0.00    -0.022 A 
ATOM     13  C   UNL A   1      31.151  24.685  26.326  1.00  0.00     0.160 A 
ATOM     14  C   UNL A   1      32.178  25.456  25.772  1.00  0.00     0.051 A 
ATOM     15  C   UNL A   1      31.497  23.486  26.950  1.00  0.00     0.158 A 
ATOM     16  C   UNL A   1      33.515  25.038  25.831  1.00  0.00     0.012 A 
ATOM     17  C   UNL A   1      32.832  23.079  27.037  1.00  0.00     0.058 A 
BRANCH  13  18
ATOM     18  O   UNL A   1      29.909  25.224  26.142  1.00  0.00    -0.493 OA
ATOM     19  C   UNL A   1      29.690  26.074  25.026  1.00  0.00     0.278 C 
ENDBRANCH  13  18
BRANCH  15  20
ATOM     20  O   UNL A   1      30.584  22.603  27.451  1.00  0.00    -0.504 OA
ATOM     21  H   UNL A   1      30.319  22.661  28.348  1.00  0.00     0.293 HD
ENDBRANCH  15  20
ENDBRANCH  11  12
ENDBRANCH   6  10
ENDBRANCH   3   5
ENDBRANCH   2   3
ENDBRANCH   1   2
BRANCH   1  22
ATOM     22  C   UNL A   1      43.417  21.093  25.697  1.00  0.00     0.275 C 
BRANCH  22  23
ATOM     23  O   UNL A   1      42.736  22.322  25.374  1.00  0.00    -0.458 OA
BRANCH  23  24
ATOM     24  C   UNL A   1      43.538  23.405  25.248  1.00  0.00     0.338 C 
ATOM     25  O   UNL A   1      44.306  23.650  24.333  1.00  0.00    -0.246 OA
BRANCH  24  26
ATOM     26  C   UNL A   1      43.250  24.372  26.319  1.00  0.00     0.060 A 
ATOM     27  C   UNL A   1      42.591  23.891  27.451  1.00  0.00     0.016 A 
ATOM     28  C   UNL A   1      43.523  25.733  26.190  1.00  0.00     0.016 A 
ATOM     29  C   UNL A   1      42.199  24.760  28.463  1.00  0.00     0.010 A 
ATOM     30  C   UNL A   1      43.130  26.611  27.211  1.00  0.00     0.010 A 
ATOM     31  C   UNL A   1      42.455  26.131  28.349  1.00  0.00    -0.014 A 
BRANCH  31  32
ATOM     32  C   UNL A   1      41.969  27.048  29.409  1.00  0.00     0.031 A 
ATOM     33  C   UNL A   1      42.737  27.197  30.692  1.00  0.00     0.074 A 
ATOM     34  C   UNL A   1      40.864  27.789  29.202  1.00  0.00     0.049 A 
ATOM     35  N   UNL A   1      42.456  27.925  31.743  1.00  0.00    -0.248 NA
ATOM     36  C   UNL A   1      43.984  26.425  30.807  1.00  0.00     0.031 C 
ATOM     37  C   UNL A   1      40.054  27.775  27.984  1.00  0.00     0.029 A 
ATOM     38  N   UNL A   1      40.239  28.703  30.012  1.00  0.00    -0.354 N 
ATOM     39  C   UNL A   1      43.472  27.677  32.657  1.00  0.00     0.074 A 
ATOM     40  C   UNL A   1      44.372  26.725  32.038  1.00  0.00     0.031 C 
ATOM     41  C   UNL A   1      39.048  28.653  28.119  1.00  0.00     0.029 A 
ATOM     42  C   UNL A   1      39.114  29.253  29.450  1.00  0.00     0.049 A 
ATOM     43  H   UNL A   1      40.567  28.942  30.909  1.00  0.00     0.167 HD
ATOM     44  C   UNL A   1      43.641  28.192  33.899  1.00  0.00     0.031 A 
ATOM     45  C   UNL A   1      38.220  30.125  29.954  1.00  0.00     0.031 A 
ATOM     46  C   UNL A   1      42.756  29.148  34.512  1.00  0.00     0.049 A 
ATOM     47  C   UNL A   1      38.404  30.650  31.349  1.00  0.00     0.074 A 
ATOM     48  C   UNL A   1      42.859  29.743  35.758  1.00  0.00     0.029 A 
ATOM     49  N   UNL A   1      41.604  29.646  33.926  1.00  0.00    -0.354 N 
ATOM     50  N   UNL A   1      39.368  30.404  32.202  1.00  0.00    -0.248 NA
ATOM     51  C   UNL A   1      37.374  31.570  31.850  1.00  0.00     0.031 C 
ATOM     52  C   UNL A   1      41.744  30.567  35.944  1.00  0.00     0.029 A 
ATOM     53  C   UNL A   1      40.972  30.520  34.794  1.00  0.00     0.049 A 
ATOM     54  H   UNL A   1      41.281  29.412  33.025  1.00  0.00     0.167 HD
ATOM     55  C   UNL A   1      39.066  31.145  33.338  1.00  0.00     0.074 A 
ATOM     56  C   UNL A   1      37.840  31.864  33.057  1.00  0.00     0.031 C 
ATOM     57  C   UNL A   1      39.744  31.218  34.508  1.00  0.00     0.031 A 
BRANCH  44  58
ATOM     58  C   UNL A   1      44.810  27.688  34.696  1.00  0.00    -0.014 A 
ATOM     59  C   UNL A   1      44.707  26.555  35.516  1.00  0.00     0.009 A 
ATOM     60  C   UNL A   1      46.043  28.355  34.609  1.00  0.00     0.009 A 
ATOM     61  C   UNL A   1      45.805  26.123  36.264  1.00  0.00     0.001 A 
ATOM     62  C   UNL A   1      47.145  27.907  35.338  1.00  0.00     0.001 A 
ATOM     63  C   UNL A   1      47.022  26.798  36.172  1.00  0.00     0.000 A 
ENDBRANCH  44  58
BRANCH  45  64
ATOM     64  C   UNL A   1      37.050  30.530  29.135  1.00  0.00    -0.014 A 
ATOM     65  C   UNL A   1      36.920  31.846  28.670  1.00  0.00     0.009 A 
ATOM     66  C   UNL A   1      36.065  29.588  28.796  1.00  0.00     0.009 A 
ATOM     67  C   UNL A   1      35.821  32.213  27.889  1.00  0.00     0.001 A 
ATOM     68  C   UNL A   1      34.982  29.950  27.994  1.00  0.00     0.001 A 
ATOM     69  C   UNL A   1      34.859  31.263  27.546  1.00  0.00     0.000 A 
ENDBRANCH  45  64
BRANCH  57  70
ATOM     70  C   UNL A   1      39.181  32.119  35.569  1.00  0.00    -0.014 A 
ATOM     71  C   UNL A   1      38.263  31.637  36.517  1.00  0.00     0.009 A 
ATOM     72  C   UNL A   1      39.599  33.456  35.645  1.00  0.00     0.009 A 
ATOM     73  C   UNL A   1      37.754  32.486  37.501  1.00  0.00     0.001 A 
ATOM     74  C   UNL A   1      39.106  34.296  36.644  1.00  0.00     0.001 A 
ATOM     75  C   UNL A   1      38.178  33.813  37.567  1.00  0.00     0.000 A 
ENDBRANCH  57  70
ENDBRANCH  31  32
ENDBRANCH  24  26
ENDBRANCH  23  24
ENDBRANCH  22  23
ENDBRANCH   1  22
TORSDOF 15
ENDMDL
MODEL 3
REMARK VINA RESULT:     -11.1      7.984     11.837
REMARK SMILES COc1ccc(/C=C/c2ncc(C(=O)OCCOC(=O)c3ccc(-c4c5nc(c(-c6ccccc6)c6ccc([nH]6)c(-c6ccccc6)c6nc(c(-c7ccccc7)c7ccc4[nH]7)C=C6)C=C5)cc3)s2)cc1O
REMARK SMILES IDX 16 1 15 2 13 3 14 4 12 5 9 6 10 7 69 8 11 9 8 10 7 11 6 12
REMARK SMILES IDX 3 13 4 14 71 15 5 16 70 17 2 18 1 19 72 20 17 22 18 23 19 24
REMARK SMILES IDX 20 25 21 26 22 27 68 28 23 29 67 30 24 31 25 32 26 33 61 34
REMARK SMILES IDX 27 35 66 36 60 37 62 38 28 39 65 40 59 41 58 42 29 44 51 45
REMARK SMILES IDX 36 46 50 47 37 48 40 49 49 50 63 51 38 52 39 53 48 55 64 56
REMARK SMILES IDX 41 57 30 58 31 59 35 60 32 61 34 62 33 63 52 64 53 65 57 66
REMARK SMILES IDX 54 67 56 68 55 69 42 70 43 71 47 72 44 73 46 74 45 75
REMARK H PARENT 72 21 62 43 40 54
REMARK Flexibility Score: inf
ROOT
ATOM      1  C   UNL A   1      33.826  34.573  28.544  1.00  0.00     0.275 C 
ENDROOT
BRANCH   1   2
ATOM      2  O   UNL A   1      33.167  34.522  29.825  1.00  0.00    -0.458 OA
BRANCH   2   3
ATOM      3  C   UNL A   1      33.066  35.711  30.492  1.00  0.00     0.350 C 
ATOM      4  O   UNL A   1      32.496  36.696  30.052  1.00  0.00    -0.245 OA
BRANCH   3   5
ATOM      5  C   UNL A   1      33.653  35.597  31.808  1.00  0.00     0.132 A 
ATOM      6  C   UNL A   1      34.996  34.862  33.706  1.00  0.00     0.116 A 
ATOM      7  N   UNL A   1      34.562  36.091  33.908  1.00  0.00    -0.244 NA
ATOM      8  S   UNL A   1      34.344  34.104  32.300  1.00  0.00    -0.107 S 
ATOM      9  C   UNL A   1      33.821  36.520  32.817  1.00  0.00     0.139 A 
BRANCH   6  10
ATOM     10  C   UNL A   1      35.940  34.143  34.486  1.00  0.00     0.040 C 
ATOM     11  C   UNL A   1      37.250  34.197  34.204  1.00  0.00     0.011 C 
BRANCH  11  12
ATOM     12  C   UNL A   1      38.314  33.513  34.962  1.00  0.00    -0.022 A 
ATOM     13  C   UNL A   1      40.213  32.102  36.537  1.00  0.00     0.160 A 
ATOM     14  C   UNL A   1      40.371  33.465  36.263  1.00  0.00     0.051 A 
ATOM     15  C   UNL A   1      39.092  31.456  36.013  1.00  0.00     0.158 A 
ATOM     16  C   UNL A   1      39.432  34.167  35.494  1.00  0.00     0.012 A 
ATOM     17  C   UNL A   1      38.168  32.145  35.222  1.00  0.00     0.058 A 
BRANCH  13  18
ATOM     18  O   UNL A   1      41.199  31.591  37.331  1.00  0.00    -0.493 OA
ATOM     19  C   UNL A   1      41.894  32.465  38.209  1.00  0.00     0.278 C 
ENDBRANCH  13  18
BRANCH  15  20
ATOM     20  O   UNL A   1      38.777  30.154  36.278  1.00  0.00    -0.504 OA
ATOM     21  H   UNL A   1      38.162  29.701  35.737  1.00  0.00     0.293 HD
ENDBRANCH  15  20
ENDBRANCH  11  12
ENDBRANCH   6  10
ENDBRANCH   3   5
ENDBRANCH   2   3
ENDBRANCH   1   2
BRANCH   1  22
ATOM     22  C   UNL A   1      35.051  33.653  28.503  1.00  0.00     0.275 C 
BRANCH  22  23
ATOM     23  O   UNL A   1      34.779  32.362  29.083  1.00  0.00    -0.458 OA
BRANCH  23  24
ATOM     24  C   UNL A   1      35.597  31.365  28.672  1.00  0.00     0.338 C 
ATOM     25  O   UNL A   1      35.477  30.681  27.670  1.00  0.00    -0.246 OA
BRANCH  24  26
ATOM     26  C   UNL A   1      36.785  31.299  29.538  1.00  0.00     0.060 A 
ATOM     27  C   UNL A   1      36.588  31.496  30.905  1.00  0.00     0.016 A 
ATOM     28  C   UNL A   1      38.074  31.148  29.027  1.00  0.00     0.016 A 
ATOM     29  C   UNL A   1      37.672  31.544  31.775  1.00  0.00     0.010 A 
ATOM     30  C   UNL A   1      39.168  31.195  29.904  1.00  0.00     0.010 A 
ATOM     31  C   UNL A   1      38.974  31.404  31.282  1.00  0.00    -0.014 A 
BRANCH  31  32
ATOM     32  C   UNL A   1      40.119  31.526  32.218  1.00  0.00     0.031 A 
ATOM     33  C   UNL A   1      40.593  30.329  32.993  1.00  0.00     0.074 A 
ATOM     34  C   UNL A   1      40.769  32.699  32.337  1.00  0.00     0.049 A 
ATOM     35  N   UNL A   1      41.555  30.246  33.878  1.00  0.00    -0.248 NA
ATOM     36  C   UNL A   1      39.892  29.061  32.742  1.00  0.00     0.031 C 
ATOM     37  C   UNL A   1      40.441  33.923  31.606  1.00  0.00     0.029 A 
ATOM     38  N   UNL A   1      41.847  33.047  33.111  1.00  0.00    -0.354 N 
ATOM     39  C   UNL A   1      41.557  28.926  34.311  1.00  0.00     0.074 A 
ATOM     40  C   UNL A   1      40.494  28.248  33.598  1.00  0.00     0.031 C 
ATOM     41  C   UNL A   1      41.311  34.885  31.954  1.00  0.00     0.029 A 
ATOM     42  C   UNL A   1      42.224  34.359  32.967  1.00  0.00     0.049 A 
ATOM     43  H   UNL A   1      42.306  32.416  33.711  1.00  0.00     0.167 HD
ATOM     44  C   UNL A   1      42.367  28.333  35.221  1.00  0.00     0.031 A 
ATOM     45  C   UNL A   1      43.180  35.069  33.594  1.00  0.00     0.031 A 
ATOM     46  C   UNL A   1      43.432  29.001  35.922  1.00  0.00     0.049 A 
ATOM     47  C   UNL A   1      44.038  34.402  34.630  1.00  0.00     0.074 A 
ATOM     48  C   UNL A   1      44.319  28.475  36.846  1.00  0.00     0.029 A 
ATOM     49  N   UNL A   1      43.752  30.341  35.779  1.00  0.00    -0.354 N 
ATOM     50  N   UNL A   1      44.026  33.154  35.031  1.00  0.00    -0.248 NA
ATOM     51  C   UNL A   1      45.039  35.243  35.302  1.00  0.00     0.031 C 
ATOM     52  C   UNL A   1      45.147  29.509  37.296  1.00  0.00     0.029 A 
ATOM     53  C   UNL A   1      44.805  30.668  36.617  1.00  0.00     0.049 A 
ATOM     54  H   UNL A   1      43.297  30.970  35.173  1.00  0.00     0.167 HD
ATOM     55  C   UNL A   1      45.021  33.057  35.996  1.00  0.00     0.074 A 
ATOM     56  C   UNL A   1      45.630  34.367  36.104  1.00  0.00     0.031 C 
ATOM     57  C   UNL A   1      45.393  31.979  36.726  1.00  0.00     0.031 A 
BRANCH  44  58
ATOM     58  C   UNL A   1      42.094  26.891  35.543  1.00  0.00    -0.014 A 
ATOM     59  C   UNL A   1      42.680  25.850  34.809  1.00  0.00     0.009 A 
ATOM     60  C   UNL A   1      41.244  26.574  36.615  1.00  0.00     0.009 A 
ATOM     61  C   UNL A   1      42.389  24.519  35.118  1.00  0.00     0.001 A 
ATOM     62  C   UNL A   1      40.975  25.243  36.937  1.00  0.00     0.001 A 
ATOM     63  C   UNL A   1      41.539  24.217  36.182  1.00  0.00     0.000 A 
ENDBRANCH  44  58
BRANCH  45  64
ATOM     64  C   UNL A   1      43.352  36.508  33.274  1.00  0.00    -0.014 A 
ATOM     65  C   UNL A   1      42.849  37.499  34.130  1.00  0.00     0.009 A 
ATOM     66  C   UNL A   1      44.042  36.898  32.115  1.00  0.00     0.009 A 
ATOM     67  C   UNL A   1      43.028  38.851  33.827  1.00  0.00     0.001 A 
ATOM     68  C   UNL A   1      44.242  38.249  31.828  1.00  0.00     0.001 A 
ATOM     69  C   UNL A   1      43.730  39.223  32.681  1.00  0.00     0.000 A 
ENDBRANCH  45  64
BRANCH  57  70
ATOM     70  C   UNL A   1      46.520  32.168  37.699  1.00  0.00    -0.014 A 
ATOM     71  C   UNL A   1      46.279  32.606  39.011  1.00  0.00     0.009 A 
ATOM     72  C   UNL A   1      47.835  31.871  37.311  1.00  0.00     0.009 A 
ATOM     73  C   UNL A   1      47.339  32.771  39.906  1.00  0.00     0.001 A 
ATOM     74  C   UNL A   1      48.890  32.015  38.215  1.00  0.00     0.001 A 
ATOM     75  C   UNL A   1      48.642  32.472  39.509  1.00  0.00     0.000 A 
ENDBRANCH  57  70
ENDBRANCH  31  32
ENDBRANCH  24  26
ENDBRANCH  23  24
ENDBRANCH  22  23
ENDBRANCH   1  22
TORSDOF 15
ENDMDL
