MODEL 1
REMARK VINA RESULT:     -12.4      0.000      0.000
REMARK SMILES COc1cc2ccccc2cc1C(=O)Nc1cc(C(=O)OCCOC(=O)c2ccc(-c3c4nc(c(-c5ccccc5)c5ccc([nH]5)c(-c5ccccc5)c5nc(c(-c6ccccc6)c6ccc3[nH]6)C=C5)C=C4)cc2)ccc1C
REMARK SMILES IDX 22 1 21 2 19 3 20 4 18 5 16 6 17 7 77 8 76 9 78 10 75 11
REMARK SMILES IDX 15 12 13 13 14 14 12 16 3 17 4 18 5 19 11 20 6 21 10 22 7 23
REMARK SMILES IDX 9 24 8 25 2 26 1 27 23 28 24 29 25 30 26 31 27 32 28 33
REMARK SMILES IDX 74 34 29 35 73 36 30 37 31 38 32 39 67 40 33 41 72 42 66 43
REMARK SMILES IDX 68 44 34 45 71 46 65 47 64 48 35 50 57 51 42 52 56 53 43 54
REMARK SMILES IDX 46 55 55 56 69 57 44 58 45 59 54 61 70 62 47 63 36 64 37 65
REMARK SMILES IDX 41 66 38 67 40 68 39 69 58 70 59 71 63 72 60 73 62 74 61 75
REMARK SMILES IDX 48 76 49 77 53 78 50 79 52 80 51 81
REMARK H PARENT 15 15 68 49 46 60
REMARK Flexibility Score: inf
ROOT
ATOM      1  C   UNL A   1      31.359  31.701  26.507  1.00  0.00     0.275 C 
ENDROOT
BRANCH   1   2
ATOM      2  O   UNL A   1      32.064  30.737  27.305  1.00  0.00    -0.458 OA
BRANCH   2   3
ATOM      3  C   UNL A   1      32.956  30.047  26.560  1.00  0.00     0.338 C 
ATOM      4  O   UNL A   1      34.153  30.281  26.506  1.00  0.00    -0.246 OA
BRANCH   3   5
ATOM      5  C   UNL A   1      32.386  28.999  25.706  1.00  0.00     0.062 A 
ATOM      6  C   UNL A   1      31.349  26.814  25.871  1.00  0.00     0.045 A 
ATOM      7  C   UNL A   1      32.281  27.747  26.319  1.00  0.00     0.042 A 
ATOM      8  C   UNL A   1      30.650  27.059  24.672  1.00  0.00    -0.027 A 
ATOM      9  C   UNL A   1      30.829  28.302  24.019  1.00  0.00     0.006 A 
ATOM     10  C   UNL A   1      29.553  26.159  24.161  1.00  0.00     0.046 C 
ATOM     11  C   UNL A   1      31.671  29.286  24.546  1.00  0.00     0.016 A 
BRANCH   6  12
ATOM     12  N   UNL A   1      31.028  25.698  26.674  1.00  0.00    -0.322 N 
ATOM     13  C   UNL A   1      31.470  24.383  26.613  1.00  0.00     0.259 C 
ATOM     14  O   UNL A   1      30.899  23.540  27.309  1.00  0.00    -0.269 OA
ATOM     15  H   UNL A   1      30.383  25.882  27.395  1.00  0.00     0.170 HD
BRANCH  13  16
ATOM     16  C   UNL A   1      32.654  23.944  25.816  1.00  0.00     0.082 A 
ATOM     17  C   UNL A   1      32.575  23.326  24.570  1.00  0.00     0.132 A 
ATOM     18  C   UNL A   1      33.700  22.671  24.078  1.00  0.00     0.056 A 
ATOM     19  C   UNL A   1      34.965  22.818  24.649  1.00  0.00    -0.015 A 
ATOM     20  C   UNL A   1      33.938  24.171  26.365  1.00  0.00     0.026 A 
ATOM     21  C   UNL A   1      36.088  22.187  24.089  1.00  0.00     0.009 A 
ATOM     22  C   UNL A   1      35.110  23.664  25.755  1.00  0.00    -0.017 A 
ATOM     23  C   UNL A   1      37.372  22.517  24.504  1.00  0.00     0.001 A 
ATOM     24  C   UNL A   1      36.418  23.956  26.195  1.00  0.00     0.009 A 
ATOM     25  C   UNL A   1      37.537  23.419  25.546  1.00  0.00     0.001 A 
BRANCH  17  26
ATOM     26  O   UNL A   1      31.454  23.188  23.797  1.00  0.00    -0.496 OA
ATOM     27  C   UNL A   1      31.567  22.161  22.817  1.00  0.00     0.278 C 
ENDBRANCH  17  26
ENDBRANCH  13  16
ENDBRANCH   6  12
ENDBRANCH   3   5
ENDBRANCH   2   3
ENDBRANCH   1   2
BRANCH   1  28
ATOM     28  C   UNL A   1      31.910  33.116  26.645  1.00  0.00     0.275 C 
BRANCH  28  29
ATOM     29  O   UNL A   1      32.150  33.678  27.964  1.00  0.00    -0.458 OA
BRANCH  29  30
ATOM     30  C   UNL A   1      33.264  34.316  28.387  1.00  0.00     0.338 C 
ATOM     31  O   UNL A   1      33.326  35.542  28.429  1.00  0.00    -0.246 OA
BRANCH  30  32
ATOM     32  C   UNL A   1      34.468  33.498  28.665  1.00  0.00     0.060 A 
ATOM     33  C   UNL A   1      34.372  32.407  29.552  1.00  0.00     0.016 A 
ATOM     34  C   UNL A   1      35.688  33.794  28.067  1.00  0.00     0.016 A 
ATOM     35  C   UNL A   1      35.487  31.604  29.826  1.00  0.00     0.010 A 
ATOM     36  C   UNL A   1      36.757  32.941  28.253  1.00  0.00     0.010 A 
ATOM     37  C   UNL A   1      36.689  31.882  29.179  1.00  0.00    -0.014 A 
BRANCH  37  38
ATOM     38  C   UNL A   1      38.007  31.356  29.552  1.00  0.00     0.031 A 
ATOM     39  C   UNL A   1      38.508  30.020  29.186  1.00  0.00     0.074 A 
ATOM     40  C   UNL A   1      38.809  32.306  30.070  1.00  0.00     0.049 A 
ATOM     41  N   UNL A   1      39.541  29.796  28.436  1.00  0.00    -0.248 NA
ATOM     42  C   UNL A   1      37.825  28.809  29.654  1.00  0.00     0.031 C 
ATOM     43  C   UNL A   1      40.243  32.334  30.250  1.00  0.00     0.029 A 
ATOM     44  N   UNL A   1      38.339  33.402  30.801  1.00  0.00    -0.354 N 
ATOM     45  C   UNL A   1      39.681  28.417  28.323  1.00  0.00     0.074 A 
ATOM     46  C   UNL A   1      38.550  27.854  29.063  1.00  0.00     0.031 C 
ATOM     47  C   UNL A   1      40.514  33.170  31.273  1.00  0.00     0.029 A 
ATOM     48  C   UNL A   1      39.231  33.559  31.863  1.00  0.00     0.049 A 
ATOM     49  H   UNL A   1      37.544  33.949  30.608  1.00  0.00     0.167 HD
ATOM     50  C   UNL A   1      40.898  27.836  28.498  1.00  0.00     0.031 A 
ATOM     51  C   UNL A   1      38.802  33.178  33.105  1.00  0.00     0.031 A 
ATOM     52  C   UNL A   1      41.671  28.513  29.504  1.00  0.00     0.049 A 
ATOM     53  C   UNL A   1      39.582  31.984  33.605  1.00  0.00     0.074 A 
ATOM     54  C   UNL A   1      42.599  29.534  29.488  1.00  0.00     0.029 A 
ATOM     55  N   UNL A   1      41.276  28.338  30.817  1.00  0.00    -0.354 N 
ATOM     56  N   UNL A   1      40.026  31.017  32.846  1.00  0.00    -0.248 NA
ATOM     57  C   UNL A   1      39.982  31.845  35.000  1.00  0.00     0.031 C 
ATOM     58  C   UNL A   1      42.700  30.033  30.815  1.00  0.00     0.029 A 
ATOM     59  C   UNL A   1      41.855  29.289  31.621  1.00  0.00     0.049 A 
ATOM     60  H   UNL A   1      40.665  27.633  31.131  1.00  0.00     0.167 HD
ATOM     61  C   UNL A   1      40.866  30.229  33.591  1.00  0.00     0.074 A 
ATOM     62  C   UNL A   1      40.764  30.754  34.941  1.00  0.00     0.031 C 
ATOM     63  C   UNL A   1      41.632  29.238  33.053  1.00  0.00     0.031 A 
BRANCH  50  64
ATOM     64  C   UNL A   1      41.422  27.028  27.349  1.00  0.00    -0.014 A 
ATOM     65  C   UNL A   1      41.203  25.641  27.286  1.00  0.00     0.009 A 
ATOM     66  C   UNL A   1      42.176  27.604  26.306  1.00  0.00     0.009 A 
ATOM     67  C   UNL A   1      41.753  24.857  26.263  1.00  0.00     0.001 A 
ATOM     68  C   UNL A   1      42.721  26.822  25.277  1.00  0.00     0.001 A 
ATOM     69  C   UNL A   1      42.519  25.446  25.263  1.00  0.00     0.000 A 
ENDBRANCH  50  64
BRANCH  51  70
ATOM     70  C   UNL A   1      37.338  33.410  33.354  1.00  0.00    -0.014 A 
ATOM     71  C   UNL A   1      36.854  34.738  33.323  1.00  0.00     0.009 A 
ATOM     72  C   UNL A   1      36.395  32.372  33.328  1.00  0.00     0.009 A 
ATOM     73  C   UNL A   1      35.493  35.018  33.164  1.00  0.00     0.001 A 
ATOM     74  C   UNL A   1      35.024  32.657  33.194  1.00  0.00     0.001 A 
ATOM     75  C   UNL A   1      34.578  33.974  33.081  1.00  0.00     0.000 A 
ENDBRANCH  51  70
BRANCH  63  76
ATOM     76  C   UNL A   1      42.307  28.127  33.817  1.00  0.00    -0.014 A 
ATOM     77  C   UNL A   1      41.613  27.113  34.487  1.00  0.00     0.009 A 
ATOM     78  C   UNL A   1      43.709  27.969  33.704  1.00  0.00     0.009 A 
ATOM     79  C   UNL A   1      42.285  26.021  35.045  1.00  0.00     0.001 A 
ATOM     80  C   UNL A   1      44.376  26.853  34.210  1.00  0.00     0.001 A 
ATOM     81  C   UNL A   1      43.661  25.882  34.893  1.00  0.00     0.000 A 
ENDBRANCH  63  76
ENDBRANCH  37  38
ENDBRANCH  30  32
ENDBRANCH  29  30
ENDBRANCH  28  29
ENDBRANCH   1  28
TORSDOF 14
ENDMDL
MODEL 2
REMARK VINA RESULT:     -12.1      1.209      1.530
REMARK SMILES COc1cc2ccccc2cc1C(=O)Nc1cc(C(=O)OCCOC(=O)c2ccc(-c3c4nc(c(-c5ccccc5)c5ccc([nH]5)c(-c5ccccc5)c5nc(c(-c6ccccc6)c6ccc3[nH]6)C=C5)C=C4)cc2)ccc1C
REMARK SMILES IDX 22 1 21 2 19 3 20 4 18 5 16 6 17 7 77 8 76 9 78 10 75 11
REMARK SMILES IDX 15 12 13 13 14 14 12 16 3 17 4 18 5 19 11 20 6 21 10 22 7 23
REMARK SMILES IDX 9 24 8 25 2 26 1 27 23 28 24 29 25 30 26 31 27 32 28 33
REMARK SMILES IDX 74 34 29 35 73 36 30 37 31 38 32 39 67 40 33 41 72 42 66 43
REMARK SMILES IDX 68 44 34 45 71 46 65 47 64 48 35 50 57 51 42 52 56 53 43 54
REMARK SMILES IDX 46 55 55 56 69 57 44 58 45 59 54 61 70 62 47 63 36 64 37 65
REMARK SMILES IDX 41 66 38 67 40 68 39 69 58 70 59 71 63 72 60 73 62 74 61 75
REMARK SMILES IDX 48 76 49 77 53 78 50 79 52 80 51 81
REMARK H PARENT 15 15 68 49 46 60
REMARK Flexibility Score: inf
ROOT
ATOM      1  C   UNL A   1      31.850  30.759  26.239  1.00  0.00     0.275 C 
ENDROOT
BRANCH   1   2
ATOM      2  O   UNL A   1      32.334  29.565  25.604  1.00  0.00    -0.458 OA
BRANCH   2   3
ATOM      3  C   UNL A   1      31.464  29.123  24.668  1.00  0.00     0.338 C 
ATOM      4  O   UNL A   1      30.552  29.782  24.195  1.00  0.00    -0.246 OA
BRANCH   3   5
ATOM      5  C   UNL A   1      31.616  27.717  24.281  1.00  0.00     0.062 A 
ATOM      6  C   UNL A   1      31.263  25.487  25.168  1.00  0.00     0.045 A 
ATOM      7  C   UNL A   1      31.625  26.820  25.354  1.00  0.00     0.042 A 
ATOM      8  C   UNL A   1      31.084  24.999  23.857  1.00  0.00    -0.027 A 
ATOM      9  C   UNL A   1      31.157  25.907  22.774  1.00  0.00     0.006 A 
ATOM     10  C   UNL A   1      30.596  23.604  23.560  1.00  0.00     0.046 C 
ATOM     11  C   UNL A   1      31.394  27.270  22.982  1.00  0.00     0.016 A 
BRANCH   6  12
ATOM     12  N   UNL A   1      30.968  24.675  26.283  1.00  0.00    -0.322 N 
ATOM     13  C   UNL A   1      31.533  23.479  26.706  1.00  0.00     0.259 C 
ATOM     14  O   UNL A   1      30.976  22.855  27.612  1.00  0.00    -0.269 OA
ATOM     15  H   UNL A   1      30.241  25.010  26.856  1.00  0.00     0.170 HD
BRANCH  13  16
ATOM     16  C   UNL A   1      32.826  22.943  26.183  1.00  0.00     0.082 A 
ATOM     17  C   UNL A   1      32.966  21.709  25.554  1.00  0.00     0.132 A 
ATOM     18  C   UNL A   1      34.244  21.175  25.410  1.00  0.00     0.056 A 
ATOM     19  C   UNL A   1      35.401  21.924  25.632  1.00  0.00    -0.015 A 
ATOM     20  C   UNL A   1      33.981  23.745  26.339  1.00  0.00     0.026 A 
ATOM     21  C   UNL A   1      36.672  21.368  25.419  1.00  0.00     0.009 A 
ATOM     22  C   UNL A   1      35.271  23.266  26.008  1.00  0.00    -0.017 A 
ATOM     23  C   UNL A   1      37.807  22.169  25.408  1.00  0.00     0.001 A 
ATOM     24  C   UNL A   1      36.438  24.058  26.036  1.00  0.00     0.009 A 
ATOM     25  C   UNL A   1      37.686  23.522  25.697  1.00  0.00     0.001 A 
BRANCH  17  26
ATOM     26  O   UNL A   1      31.956  20.880  25.146  1.00  0.00    -0.496 OA
ATOM     27  C   UNL A   1      32.391  19.554  24.868  1.00  0.00     0.278 C 
ENDBRANCH  17  26
ENDBRANCH  13  16
ENDBRANCH   6  12
ENDBRANCH   3   5
ENDBRANCH   2   3
ENDBRANCH   1   2
BRANCH   1  28
ATOM     28  C   UNL A   1      32.834  31.348  27.244  1.00  0.00     0.275 C 
BRANCH  28  29
ATOM     29  O   UNL A   1      32.873  32.782  27.471  1.00  0.00    -0.458 OA
BRANCH  29  30
ATOM     30  C   UNL A   1      33.484  33.431  28.487  1.00  0.00     0.338 C 
ATOM     31  O   UNL A   1      32.995  34.437  28.994  1.00  0.00    -0.246 OA
BRANCH  30  32
ATOM     32  C   UNL A   1      34.840  32.980  28.881  1.00  0.00     0.060 A 
ATOM     33  C   UNL A   1      35.925  33.213  28.012  1.00  0.00     0.016 A 
ATOM     34  C   UNL A   1      35.054  32.331  30.091  1.00  0.00     0.016 A 
ATOM     35  C   UNL A   1      37.222  32.813  28.359  1.00  0.00     0.010 A 
ATOM     36  C   UNL A   1      36.344  32.034  30.480  1.00  0.00     0.010 A 
ATOM     37  C   UNL A   1      37.428  32.209  29.598  1.00  0.00    -0.014 A 
BRANCH  37  38
ATOM     38  C   UNL A   1      38.629  31.470  30.004  1.00  0.00     0.031 A 
ATOM     39  C   UNL A   1      38.959  30.105  29.561  1.00  0.00     0.074 A 
ATOM     40  C   UNL A   1      39.519  32.253  30.643  1.00  0.00     0.049 A 
ATOM     41  N   UNL A   1      39.999  29.785  28.858  1.00  0.00    -0.248 NA
ATOM     42  C   UNL A   1      38.080  28.976  29.889  1.00  0.00     0.031 C 
ATOM     43  C   UNL A   1      40.927  32.057  30.909  1.00  0.00     0.029 A 
ATOM     44  N   UNL A   1      39.160  33.351  31.431  1.00  0.00    -0.354 N 
ATOM     45  C   UNL A   1      39.950  28.412  28.642  1.00  0.00     0.074 A 
ATOM     46  C   UNL A   1      38.702  27.970  29.267  1.00  0.00     0.031 C 
ATOM     47  C   UNL A   1      41.242  32.770  32.009  1.00  0.00     0.029 A 
ATOM     48  C   UNL A   1      39.989  33.299  32.552  1.00  0.00     0.049 A 
ATOM     49  H   UNL A   1      38.465  34.021  31.236  1.00  0.00     0.167 HD
ATOM     50  C   UNL A   1      41.058  27.647  28.842  1.00  0.00     0.031 A 
ATOM     51  C   UNL A   1      39.424  32.898  33.732  1.00  0.00     0.031 A 
ATOM     52  C   UNL A   1      41.846  28.130  29.943  1.00  0.00     0.049 A 
ATOM     53  C   UNL A   1      39.989  31.570  34.180  1.00  0.00     0.074 A 
ATOM     54  C   UNL A   1      42.909  29.002  30.063  1.00  0.00     0.029 A 
ATOM     55  N   UNL A   1      41.340  27.923  31.211  1.00  0.00    -0.354 N 
ATOM     56  N   UNL A   1      40.344  30.605  33.373  1.00  0.00    -0.248 NA
ATOM     57  C   UNL A   1      40.268  31.275  35.580  1.00  0.00     0.031 C 
ATOM     58  C   UNL A   1      42.987  29.386  31.430  1.00  0.00     0.029 A 
ATOM     59  C   UNL A   1      41.991  28.718  32.122  1.00  0.00     0.049 A 
ATOM     60  H   UNL A   1      40.614  27.295  31.431  1.00  0.00     0.167 HD
ATOM     61  C   UNL A   1      41.010  29.651  34.100  1.00  0.00     0.074 A 
ATOM     62  C   UNL A   1      40.889  30.088  35.479  1.00  0.00     0.031 C 
ATOM     63  C   UNL A   1      41.663  28.599  33.530  1.00  0.00     0.031 A 
BRANCH  50  64
ATOM     64  C   UNL A   1      41.540  26.855  27.664  1.00  0.00    -0.014 A 
ATOM     65  C   UNL A   1      42.912  26.754  27.379  1.00  0.00     0.009 A 
ATOM     66  C   UNL A   1      40.654  26.207  26.780  1.00  0.00     0.009 A 
ATOM     67  C   UNL A   1      43.377  26.086  26.238  1.00  0.00     0.001 A 
ATOM     68  C   UNL A   1      41.117  25.531  25.642  1.00  0.00     0.001 A 
ATOM     69  C   UNL A   1      42.479  25.482  25.364  1.00  0.00     0.000 A 
ENDBRANCH  50  64
BRANCH  51  70
ATOM     70  C   UNL A   1      37.994  33.325  33.913  1.00  0.00    -0.014 A 
ATOM     71  C   UNL A   1      37.643  34.654  33.584  1.00  0.00     0.009 A 
ATOM     72  C   UNL A   1      36.953  32.406  34.111  1.00  0.00     0.009 A 
ATOM     73  C   UNL A   1      36.314  35.026  33.357  1.00  0.00     0.001 A 
ATOM     74  C   UNL A   1      35.615  32.789  33.907  1.00  0.00     0.001 A 
ATOM     75  C   UNL A   1      35.300  34.086  33.501  1.00  0.00     0.000 A 
ENDBRANCH  51  70
BRANCH  63  76
ATOM     76  C   UNL A   1      42.118  27.349  34.241  1.00  0.00    -0.014 A 
ATOM     77  C   UNL A   1      41.271  26.541  35.007  1.00  0.00     0.009 A 
ATOM     78  C   UNL A   1      43.414  26.843  33.978  1.00  0.00     0.009 A 
ATOM     79  C   UNL A   1      41.706  25.310  35.512  1.00  0.00     0.001 A 
ATOM     80  C   UNL A   1      43.831  25.592  34.432  1.00  0.00     0.001 A 
ATOM     81  C   UNL A   1      42.976  24.829  35.213  1.00  0.00     0.000 A 
ENDBRANCH  63  76
ENDBRANCH  37  38
ENDBRANCH  30  32
ENDBRANCH  29  30
ENDBRANCH  28  29
ENDBRANCH   1  28
TORSDOF 14
ENDMDL
MODEL 3
REMARK VINA RESULT:     -12.1      3.638      9.514
REMARK SMILES COc1cc2ccccc2cc1C(=O)Nc1cc(C(=O)OCCOC(=O)c2ccc(-c3c4nc(c(-c5ccccc5)c5ccc([nH]5)c(-c5ccccc5)c5nc(c(-c6ccccc6)c6ccc3[nH]6)C=C5)C=C4)cc2)ccc1C
REMARK SMILES IDX 22 1 21 2 19 3 20 4 18 5 16 6 17 7 77 8 76 9 78 10 75 11
REMARK SMILES IDX 15 12 13 13 14 14 12 16 3 17 4 18 5 19 11 20 6 21 10 22 7 23
REMARK SMILES IDX 9 24 8 25 2 26 1 27 23 28 24 29 25 30 26 31 27 32 28 33
REMARK SMILES IDX 74 34 29 35 73 36 30 37 31 38 32 39 67 40 33 41 72 42 66 43
REMARK SMILES IDX 68 44 34 45 71 46 65 47 64 48 35 50 57 51 42 52 56 53 43 54
REMARK SMILES IDX 46 55 55 56 69 57 44 58 45 59 54 61 70 62 47 63 36 64 37 65
REMARK SMILES IDX 41 66 38 67 40 68 39 69 58 70 59 71 63 72 60 73 62 74 61 75
REMARK SMILES IDX 48 76 49 77 53 78 50 79 52 80 51 81
REMARK H PARENT 15 15 68 49 46 60
REMARK Flexibility Score: inf
ROOT
ATOM      1  C   UNL A   1      38.599  20.553  25.022  1.00  0.00     0.275 C 
ENDROOT
BRANCH   1   2
ATOM      2  O   UNL A   1      37.247  20.683  25.491  1.00  0.00    -0.458 OA
BRANCH   2   3
ATOM      3  C   UNL A   1      36.877  21.982  25.558  1.00  0.00     0.338 C 
ATOM      4  O   UNL A   1      37.601  22.898  25.913  1.00  0.00    -0.246 OA
BRANCH   3   5
ATOM      5  C   UNL A   1      35.468  22.251  25.251  1.00  0.00     0.062 A 
ATOM      6  C   UNL A   1      34.102  23.404  23.613  1.00  0.00     0.045 A 
ATOM      7  C   UNL A   1      35.262  23.325  24.379  1.00  0.00     0.042 A 
ATOM      8  C   UNL A   1      33.046  22.504  23.866  1.00  0.00    -0.027 A 
ATOM      9  C   UNL A   1      33.243  21.469  24.810  1.00  0.00     0.006 A 
ATOM     10  C   UNL A   1      31.797  22.446  23.025  1.00  0.00     0.046 C 
ATOM     11  C   UNL A   1      34.461  21.320  25.484  1.00  0.00     0.016 A 
BRANCH   6  12
ATOM     12  N   UNL A   1      34.038  24.297  22.522  1.00  0.00    -0.322 N 
ATOM     13  C   UNL A   1      33.427  25.539  22.404  1.00  0.00     0.259 C 
ATOM     14  O   UNL A   1      33.346  26.048  21.284  1.00  0.00    -0.269 OA
ATOM     15  H   UNL A   1      34.501  23.989  21.710  1.00  0.00     0.170 HD
BRANCH  13  16
ATOM     16  C   UNL A   1      32.935  26.333  23.570  1.00  0.00     0.082 A 
ATOM     17  C   UNL A   1      31.595  26.454  23.927  1.00  0.00     0.132 A 
ATOM     18  C   UNL A   1      31.228  27.466  24.808  1.00  0.00     0.056 A 
ATOM     19  C   UNL A   1      32.162  28.198  25.543  1.00  0.00    -0.015 A 
ATOM     20  C   UNL A   1      33.896  27.007  24.359  1.00  0.00     0.026 A 
ATOM     21  C   UNL A   1      31.750  29.172  26.467  1.00  0.00     0.009 A 
ATOM     22  C   UNL A   1      33.521  27.897  25.393  1.00  0.00    -0.017 A 
ATOM     23  C   UNL A   1      32.653  29.729  27.364  1.00  0.00     0.001 A 
ATOM     24  C   UNL A   1      34.433  28.504  26.281  1.00  0.00     0.009 A 
ATOM     25  C   UNL A   1      33.994  29.379  27.284  1.00  0.00     0.001 A 
BRANCH  17  26
ATOM     26  O   UNL A   1      30.545  25.741  23.412  1.00  0.00    -0.496 OA
ATOM     27  C   UNL A   1      29.273  26.233  23.822  1.00  0.00     0.278 C 
ENDBRANCH  17  26
ENDBRANCH  13  16
ENDBRANCH   6  12
ENDBRANCH   3   5
ENDBRANCH   2   3
ENDBRANCH   1   2
BRANCH   1  28
ATOM     28  C   UNL A   1      39.365  19.422  25.699  1.00  0.00     0.275 C 
BRANCH  28  29
ATOM     29  O   UNL A   1      40.811  19.351  25.583  1.00  0.00    -0.458 OA
BRANCH  29  30
ATOM     30  C   UNL A   1      41.724  19.744  26.500  1.00  0.00     0.338 C 
ATOM     31  O   UNL A   1      42.391  18.931  27.132  1.00  0.00    -0.246 OA
BRANCH  30  32
ATOM     32  C   UNL A   1      41.797  21.187  26.830  1.00  0.00     0.060 A 
ATOM     33  C   UNL A   1      42.139  22.110  25.821  1.00  0.00     0.016 A 
ATOM     34  C   UNL A   1      41.536  21.641  28.117  1.00  0.00     0.016 A 
ATOM     35  C   UNL A   1      42.204  23.482  26.095  1.00  0.00     0.010 A 
ATOM     36  C   UNL A   1      41.493  22.999  28.361  1.00  0.00     0.010 A 
ATOM     37  C   UNL A   1      41.889  23.926  27.377  1.00  0.00    -0.014 A 
BRANCH  37  38
ATOM     38  C   UNL A   1      42.182  25.257  27.923  1.00  0.00     0.031 A 
ATOM     39  C   UNL A   1      41.276  26.414  27.833  1.00  0.00     0.074 A 
ATOM     40  C   UNL A   1      43.268  25.255  28.719  1.00  0.00     0.049 A 
ATOM     41  N   UNL A   1      40.742  27.018  28.847  1.00  0.00    -0.248 NA
ATOM     42  C   UNL A   1      40.892  26.967  26.529  1.00  0.00     0.031 C 
ATOM     43  C   UNL A   1      43.715  26.212  29.705  1.00  0.00     0.029 A 
ATOM     44  N   UNL A   1      44.355  24.394  28.544  1.00  0.00    -0.354 N 
ATOM     45  C   UNL A   1      39.951  28.048  28.349  1.00  0.00     0.074 A 
ATOM     46  C   UNL A   1      40.045  27.934  26.893  1.00  0.00     0.031 C 
ATOM     47  C   UNL A   1      45.054  26.097  29.815  1.00  0.00     0.029 A 
ATOM     48  C   UNL A   1      45.493  25.170  28.770  1.00  0.00     0.049 A 
ATOM     49  H   UNL A   1      44.326  23.438  28.309  1.00  0.00     0.167 HD
ATOM     50  C   UNL A   1      40.032  29.295  28.888  1.00  0.00     0.031 A 
ATOM     51  C   UNL A   1      46.236  25.527  27.677  1.00  0.00     0.031 A 
ATOM     52  C   UNL A   1      41.373  29.611  29.300  1.00  0.00     0.049 A 
ATOM     53  C   UNL A   1      46.177  27.019  27.447  1.00  0.00     0.074 A 
ATOM     54  C   UNL A   1      42.079  29.483  30.479  1.00  0.00     0.029 A 
ATOM     55  N   UNL A   1      42.290  29.865  28.298  1.00  0.00    -0.354 N 
ATOM     56  N   UNL A   1      45.129  27.765  27.678  1.00  0.00    -0.248 NA
ATOM     57  C   UNL A   1      47.338  27.785  27.010  1.00  0.00     0.031 C 
ATOM     58  C   UNL A   1      43.460  29.586  30.156  1.00  0.00     0.029 A 
ATOM     59  C   UNL A   1      43.569  29.804  28.793  1.00  0.00     0.049 A 
ATOM     60  H   UNL A   1      42.058  30.061  27.361  1.00  0.00     0.167 HD
ATOM     61  C   UNL A   1      45.498  29.082  27.568  1.00  0.00     0.074 A 
ATOM     62  C   UNL A   1      46.871  29.042  27.097  1.00  0.00     0.031 C 
ATOM     63  C   UNL A   1      44.683  30.116  27.920  1.00  0.00     0.031 A 
BRANCH  50  64
ATOM     64  C   UNL A   1      38.759  29.865  29.440  1.00  0.00    -0.014 A 
ATOM     65  C   UNL A   1      38.726  31.165  29.973  1.00  0.00     0.009 A 
ATOM     66  C   UNL A   1      37.560  29.126  29.481  1.00  0.00     0.009 A 
ATOM     67  C   UNL A   1      37.567  31.685  30.566  1.00  0.00     0.001 A 
ATOM     68  C   UNL A   1      36.397  29.647  30.067  1.00  0.00     0.001 A 
ATOM     69  C   UNL A   1      36.405  30.922  30.621  1.00  0.00     0.000 A 
ENDBRANCH  50  64
BRANCH  51  70
ATOM     70  C   UNL A   1      46.275  24.493  26.588  1.00  0.00    -0.014 A 
ATOM     71  C   UNL A   1      46.089  23.137  26.942  1.00  0.00     0.009 A 
ATOM     72  C   UNL A   1      46.199  24.827  25.228  1.00  0.00     0.009 A 
ATOM     73  C   UNL A   1      45.734  22.174  25.991  1.00  0.00     0.001 A 
ATOM     74  C   UNL A   1      45.867  23.852  24.271  1.00  0.00     0.001 A 
ATOM     75  C   UNL A   1      45.606  22.537  24.655  1.00  0.00     0.000 A 
ENDBRANCH  51  70
BRANCH  63  76
ATOM     76  C   UNL A   1      44.866  31.561  27.524  1.00  0.00    -0.014 A 
ATOM     77  C   UNL A   1      44.406  32.098  26.317  1.00  0.00     0.009 A 
ATOM     78  C   UNL A   1      45.350  32.480  28.486  1.00  0.00     0.009 A 
ATOM     79  C   UNL A   1      44.460  33.475  26.070  1.00  0.00     0.001 A 
ATOM     80  C   UNL A   1      45.353  33.857  28.265  1.00  0.00     0.001 A 
ATOM     81  C   UNL A   1      44.917  34.354  27.047  1.00  0.00     0.000 A 
ENDBRANCH  63  76
ENDBRANCH  37  38
ENDBRANCH  30  32
ENDBRANCH  29  30
ENDBRANCH  28  29
ENDBRANCH   1  28
TORSDOF 14
ENDMDL
