MODEL 1
REMARK VINA RESULT:     -11.3      0.000      0.000
REMARK SMILES O=C(OCCOC(=O)[C@H]1CCN1C(=O)OCC1c2ccccc2-c2ccccc21)c1ccc(-c2c3nc(c(-c4ccccc4)c4ccc([nH]4)c(-c4ccccc4)c4nc(c(-c5ccccc5)c5ccc2[nH]5)C=C4)C=C3)cc1
REMARK SMILES IDX 5 1 4 2 3 3 2 4 1 5 30 6 31 7 77 8 32 9 76 10 33 11 34 12
REMARK SMILES IDX 35 13 70 14 36 15 75 16 69 17 71 18 37 19 74 20 68 21 67 22
REMARK SMILES IDX 38 24 60 25 45 26 59 27 46 28 49 29 58 30 72 31 47 32 48 33
REMARK SMILES IDX 57 35 73 36 50 37 39 38 40 39 44 40 41 41 43 42 42 43 61 44
REMARK SMILES IDX 62 45 66 46 63 47 65 48 64 49 51 50 52 51 56 52 53 53 55 54
REMARK SMILES IDX 54 55 6 56 7 57 8 58 9 59 10 60 12 61 11 62 13 63 14 64
REMARK SMILES IDX 15 65 16 66 17 67 18 68 29 69 19 70 23 71 24 72 28 73 20 74
REMARK SMILES IDX 22 75 25 76 27 77 21 78 26 79
REMARK H PARENT 71 23 49 34
REMARK Flexibility Score: inf
ROOT
ATOM      1  C   UNL A   1      33.101  28.109  25.522  1.00  0.00     0.274 C 
ENDROOT
BRANCH   1   2
ATOM      2  C   UNL A   1      33.393  29.529  26.012  1.00  0.00     0.275 C 
BRANCH   2   3
ATOM      3  O   UNL A   1      33.766  29.565  27.395  1.00  0.00    -0.458 OA
BRANCH   3   4
ATOM      4  C   UNL A   1      34.682  30.321  28.036  1.00  0.00     0.338 C 
ATOM      5  O   UNL A   1      34.329  31.450  28.381  1.00  0.00    -0.246 OA
BRANCH   4   6
ATOM      6  C   UNL A   1      36.115  29.940  28.323  1.00  0.00     0.060 A 
ATOM      7  C   UNL A   1      36.638  29.327  29.470  1.00  0.00     0.016 A 
ATOM      8  C   UNL A   1      37.010  30.148  27.252  1.00  0.00     0.016 A 
ATOM      9  C   UNL A   1      37.983  28.899  29.532  1.00  0.00     0.010 A 
ATOM     10  C   UNL A   1      38.335  29.697  27.295  1.00  0.00     0.010 A 
ATOM     11  C   UNL A   1      38.836  29.060  28.437  1.00  0.00    -0.014 A 
BRANCH  11  12
ATOM     12  C   UNL A   1      40.281  28.698  28.487  1.00  0.00     0.031 A 
ATOM     13  C   UNL A   1      40.668  27.335  28.015  1.00  0.00     0.074 A 
ATOM     14  C   UNL A   1      41.197  29.449  29.134  1.00  0.00     0.049 A 
ATOM     15  N   UNL A   1      41.844  26.768  28.011  1.00  0.00    -0.248 NA
ATOM     16  C   UNL A   1      39.565  26.466  27.575  1.00  0.00     0.031 C 
ATOM     17  C   UNL A   1      40.894  30.695  29.809  1.00  0.00     0.029 A 
ATOM     18  N   UNL A   1      42.542  29.267  29.385  1.00  0.00    -0.354 N 
ATOM     19  C   UNL A   1      41.608  25.446  27.671  1.00  0.00     0.074 A 
ATOM     20  C   UNL A   1      40.182  25.302  27.474  1.00  0.00     0.031 C 
ATOM     21  C   UNL A   1      41.996  31.145  30.425  1.00  0.00     0.029 A 
ATOM     22  C   UNL A   1      43.132  30.315  30.072  1.00  0.00     0.049 A 
ATOM     23  H   UNL A   1      43.038  28.465  29.101  1.00  0.00     0.167 HD
ATOM     24  C   UNL A   1      42.502  24.437  27.570  1.00  0.00     0.031 A 
ATOM     25  C   UNL A   1      44.439  30.606  30.290  1.00  0.00     0.031 A 
ATOM     26  C   UNL A   1      43.912  24.595  27.787  1.00  0.00     0.049 A 
ATOM     27  C   UNL A   1      45.441  29.594  29.819  1.00  0.00     0.074 A 
ATOM     28  C   UNL A   1      44.921  23.657  27.688  1.00  0.00     0.029 A 
ATOM     29  N   UNL A   1      44.509  25.792  28.157  1.00  0.00    -0.354 N 
ATOM     30  N   UNL A   1      45.225  28.433  29.257  1.00  0.00    -0.248 NA
ATOM     31  C   UNL A   1      46.861  29.939  29.983  1.00  0.00     0.031 C 
ATOM     32  C   UNL A   1      46.130  24.281  28.022  1.00  0.00     0.029 A 
ATOM     33  C   UNL A   1      45.874  25.615  28.289  1.00  0.00     0.049 A 
ATOM     34  H   UNL A   1      44.032  26.641  28.304  1.00  0.00     0.167 HD
ATOM     35  C   UNL A   1      46.479  27.904  29.019  1.00  0.00     0.074 A 
ATOM     36  C   UNL A   1      47.445  28.922  29.373  1.00  0.00     0.031 C 
ATOM     37  C   UNL A   1      46.808  26.654  28.623  1.00  0.00     0.031 A 
BRANCH  24  38
ATOM     38  C   UNL A   1      41.920  23.081  27.301  1.00  0.00    -0.014 A 
ATOM     39  C   UNL A   1      41.458  22.261  28.344  1.00  0.00     0.009 A 
ATOM     40  C   UNL A   1      41.968  22.565  25.997  1.00  0.00     0.009 A 
ATOM     41  C   UNL A   1      41.145  20.923  28.102  1.00  0.00     0.001 A 
ATOM     42  C   UNL A   1      41.617  21.238  25.752  1.00  0.00     0.001 A 
ATOM     43  C   UNL A   1      41.232  20.412  26.807  1.00  0.00     0.000 A 
ENDBRANCH  24  38
BRANCH  25  44
ATOM     44  C   UNL A   1      44.940  31.954  30.735  1.00  0.00    -0.014 A 
ATOM     45  C   UNL A   1      45.196  32.151  32.116  1.00  0.00     0.009 A 
ATOM     46  C   UNL A   1      45.253  33.006  29.866  1.00  0.00     0.009 A 
ATOM     47  C   UNL A   1      45.787  33.320  32.603  1.00  0.00     0.001 A 
ATOM     48  C   UNL A   1      45.865  34.176  30.355  1.00  0.00     0.001 A 
ATOM     49  C   UNL A   1      46.145  34.326  31.715  1.00  0.00     0.000 A 
ENDBRANCH  25  44
BRANCH  37  50
ATOM     50  C   UNL A   1      48.270  26.340  28.608  1.00  0.00    -0.014 A 
ATOM     51  C   UNL A   1      49.022  26.523  27.435  1.00  0.00     0.009 A 
ATOM     52  C   UNL A   1      48.896  25.857  29.762  1.00  0.00     0.009 A 
ATOM     53  C   UNL A   1      50.372  26.184  27.407  1.00  0.00     0.001 A 
ATOM     54  C   UNL A   1      50.255  25.550  29.739  1.00  0.00     0.001 A 
ATOM     55  C   UNL A   1      50.988  25.705  28.562  1.00  0.00     0.000 A 
ENDBRANCH  37  50
ENDBRANCH  11  12
ENDBRANCH   4   6
ENDBRANCH   3   4
ENDBRANCH   2   3
ENDBRANCH   1   2
BRANCH   1  56
ATOM     56  O   UNL A   1      31.698  27.862  25.318  1.00  0.00    -0.461 OA
BRANCH  56  57
ATOM     57  C   UNL A   1      31.068  27.069  26.253  1.00  0.00     0.329 C 
ATOM     58  O   UNL A   1      31.249  27.203  27.463  1.00  0.00    -0.250 OA
BRANCH  57  59
ATOM     59  C   UNL A   1      30.126  25.985  25.620  1.00  0.00     0.200 C 
ATOM     60  C   UNL A   1      30.088  25.889  24.083  1.00  0.00     0.059 C 
ATOM     61  N   UNL A   1      30.624  24.619  25.597  1.00  0.00    -0.294 N 
ATOM     62  C   UNL A   1      30.832  24.562  24.180  1.00  0.00     0.127 C 
BRANCH  61  63
ATOM     63  C   UNL A   1      31.034  23.824  26.616  1.00  0.00     0.410 C 
ATOM     64  O   UNL A   1      30.288  23.248  27.390  1.00  0.00    -0.224 OA
BRANCH  63  65
ATOM     65  O   UNL A   1      32.391  23.805  26.665  1.00  0.00    -0.448 OA
BRANCH  65  66
ATOM     66  C   UNL A   1      33.052  22.527  26.600  1.00  0.00     0.248 C 
BRANCH  66  67
ATOM     67  C   UNL A   1      33.829  22.235  25.297  1.00  0.00     0.088 C 
ATOM     68  C   UNL A   1      35.345  22.409  25.386  1.00  0.00    -0.029 A 
ATOM     69  C   UNL A   1      33.690  20.773  24.897  1.00  0.00    -0.029 A 
ATOM     70  C   UNL A   1      36.081  23.525  25.758  1.00  0.00     0.005 A 
ATOM     71  C   UNL A   1      35.981  21.187  25.098  1.00  0.00    -0.014 A 
ATOM     72  C   UNL A   1      34.959  20.198  24.820  1.00  0.00    -0.014 A 
ATOM     73  C   UNL A   1      32.533  20.016  24.718  1.00  0.00     0.005 A 
ATOM     74  C   UNL A   1      37.468  23.402  25.882  1.00  0.00     0.000 A 
ATOM     75  C   UNL A   1      37.363  21.081  25.186  1.00  0.00     0.009 A 
ATOM     76  C   UNL A   1      35.050  18.844  24.628  1.00  0.00     0.009 A 
ATOM     77  C   UNL A   1      32.651  18.636  24.547  1.00  0.00     0.000 A 
ATOM     78  C   UNL A   1      38.106  22.187  25.603  1.00  0.00     0.001 A 
ATOM     79  C   UNL A   1      33.910  18.046  24.525  1.00  0.00     0.001 A 
ENDBRANCH  66  67
ENDBRANCH  65  66
ENDBRANCH  63  65
ENDBRANCH  61  63
ENDBRANCH  57  59
ENDBRANCH  56  57
ENDBRANCH   1  56
TORSDOF 15
ENDMDL
MODEL 2
REMARK VINA RESULT:     -11.2      1.061      5.929
REMARK SMILES O=C(OCCOC(=O)[C@H]1CCN1C(=O)OCC1c2ccccc2-c2ccccc21)c1ccc(-c2c3nc(c(-c4ccccc4)c4ccc([nH]4)c(-c4ccccc4)c4nc(c(-c5ccccc5)c5ccc2[nH]5)C=C4)C=C3)cc1
REMARK SMILES IDX 5 1 4 2 3 3 2 4 1 5 30 6 31 7 77 8 32 9 76 10 33 11 34 12
REMARK SMILES IDX 35 13 70 14 36 15 75 16 69 17 71 18 37 19 74 20 68 21 67 22
REMARK SMILES IDX 38 24 60 25 45 26 59 27 46 28 49 29 58 30 72 31 47 32 48 33
REMARK SMILES IDX 57 35 73 36 50 37 39 38 40 39 44 40 41 41 43 42 42 43 61 44
REMARK SMILES IDX 62 45 66 46 63 47 65 48 64 49 51 50 52 51 56 52 53 53 55 54
REMARK SMILES IDX 54 55 6 56 7 57 8 58 9 59 10 60 12 61 11 62 13 63 14 64
REMARK SMILES IDX 15 65 16 66 17 67 18 68 29 69 19 70 23 71 24 72 28 73 20 74
REMARK SMILES IDX 22 75 25 76 27 77 21 78 26 79
REMARK H PARENT 71 23 49 34
REMARK Flexibility Score: inf
ROOT
ATOM      1  C   UNL A   1      31.804  29.712  25.492  1.00  0.00     0.274 C 
ENDROOT
BRANCH   1   2
ATOM      2  C   UNL A   1      32.241  30.460  26.753  1.00  0.00     0.275 C 
BRANCH   2   3
ATOM      3  O   UNL A   1      33.585  30.147  27.137  1.00  0.00    -0.458 OA
BRANCH   3   4
ATOM      4  C   UNL A   1      34.424  30.779  27.985  1.00  0.00     0.338 C 
ATOM      5  O   UNL A   1      34.067  31.883  28.401  1.00  0.00    -0.246 OA
BRANCH   4   6
ATOM      6  C   UNL A   1      35.781  30.291  28.432  1.00  0.00     0.060 A 
ATOM      7  C   UNL A   1      36.146  29.754  29.674  1.00  0.00     0.016 A 
ATOM      8  C   UNL A   1      36.773  30.297  27.428  1.00  0.00     0.016 A 
ATOM      9  C   UNL A   1      37.429  29.205  29.894  1.00  0.00     0.010 A 
ATOM     10  C   UNL A   1      38.035  29.726  27.630  1.00  0.00     0.010 A 
ATOM     11  C   UNL A   1      38.376  29.166  28.867  1.00  0.00    -0.014 A 
BRANCH  11  12
ATOM     12  C   UNL A   1      39.766  28.671  29.078  1.00  0.00     0.031 A 
ATOM     13  C   UNL A   1      40.749  29.612  29.691  1.00  0.00     0.074 A 
ATOM     14  C   UNL A   1      40.215  27.515  28.545  1.00  0.00     0.049 A 
ATOM     15  N   UNL A   1      42.022  29.439  29.924  1.00  0.00    -0.248 NA
ATOM     16  C   UNL A   1      40.248  30.961  29.997  1.00  0.00     0.031 C 
ATOM     17  C   UNL A   1      39.400  26.616  27.753  1.00  0.00     0.029 A 
ATOM     18  N   UNL A   1      41.459  26.916  28.531  1.00  0.00    -0.354 N 
ATOM     19  C   UNL A   1      42.495  30.684  30.302  1.00  0.00     0.074 A 
ATOM     20  C   UNL A   1      41.374  31.597  30.271  1.00  0.00     0.031 C 
ATOM     21  C   UNL A   1      40.161  25.610  27.300  1.00  0.00     0.029 A 
ATOM     22  C   UNL A   1      41.486  25.691  27.886  1.00  0.00     0.049 A 
ATOM     23  H   UNL A   1      42.256  27.323  28.941  1.00  0.00     0.167 HD
ATOM     24  C   UNL A   1      43.763  31.038  30.612  1.00  0.00     0.031 A 
ATOM     25  C   UNL A   1      42.434  24.721  27.868  1.00  0.00     0.031 A 
ATOM     26  C   UNL A   1      44.867  30.122  30.620  1.00  0.00     0.049 A 
ATOM     27  C   UNL A   1      43.727  25.032  28.560  1.00  0.00     0.074 A 
ATOM     28  C   UNL A   1      46.191  30.353  30.942  1.00  0.00     0.029 A 
ATOM     29  N   UNL A   1      44.764  28.780  30.279  1.00  0.00    -0.354 N 
ATOM     30  N   UNL A   1      44.091  26.141  29.150  1.00  0.00    -0.248 NA
ATOM     31  C   UNL A   1      44.729  23.956  28.611  1.00  0.00     0.031 C 
ATOM     32  C   UNL A   1      46.895  29.154  30.773  1.00  0.00     0.029 A 
ATOM     33  C   UNL A   1      46.001  28.172  30.385  1.00  0.00     0.049 A 
ATOM     34  H   UNL A   1      43.933  28.329  30.004  1.00  0.00     0.167 HD
ATOM     35  C   UNL A   1      45.366  25.901  29.623  1.00  0.00     0.074 A 
ATOM     36  C   UNL A   1      45.660  24.506  29.370  1.00  0.00     0.031 C 
ATOM     37  C   UNL A   1      46.253  26.778  30.145  1.00  0.00     0.031 A 
BRANCH  24  38
ATOM     38  C   UNL A   1      43.984  32.500  30.865  1.00  0.00    -0.014 A 
ATOM     39  C   UNL A   1      43.801  33.058  32.142  1.00  0.00     0.009 A 
ATOM     40  C   UNL A   1      44.242  33.349  29.780  1.00  0.00     0.009 A 
ATOM     41  C   UNL A   1      43.777  34.443  32.307  1.00  0.00     0.001 A 
ATOM     42  C   UNL A   1      44.258  34.732  29.955  1.00  0.00     0.001 A 
ATOM     43  C   UNL A   1      44.000  35.278  31.212  1.00  0.00     0.000 A 
ENDBRANCH  24  38
BRANCH  25  44
ATOM     44  C   UNL A   1      42.181  23.303  27.429  1.00  0.00    -0.014 A 
ATOM     45  C   UNL A   1      42.693  22.890  26.173  1.00  0.00     0.009 A 
ATOM     46  C   UNL A   1      41.545  22.334  28.215  1.00  0.00     0.009 A 
ATOM     47  C   UNL A   1      42.624  21.562  25.742  1.00  0.00     0.001 A 
ATOM     48  C   UNL A   1      41.493  20.993  27.788  1.00  0.00     0.001 A 
ATOM     49  C   UNL A   1      42.044  20.606  26.564  1.00  0.00     0.000 A 
ENDBRANCH  25  44
BRANCH  37  50
ATOM     50  C   UNL A   1      47.619  26.236  30.420  1.00  0.00    -0.014 A 
ATOM     51  C   UNL A   1      47.949  25.761  31.700  1.00  0.00     0.009 A 
ATOM     52  C   UNL A   1      48.579  26.205  29.402  1.00  0.00     0.009 A 
ATOM     53  C   UNL A   1      49.236  25.302  31.969  1.00  0.00     0.001 A 
ATOM     54  C   UNL A   1      49.857  25.713  29.667  1.00  0.00     0.001 A 
ATOM     55  C   UNL A   1      50.185  25.272  30.950  1.00  0.00     0.000 A 
ENDBRANCH  37  50
ENDBRANCH  11  12
ENDBRANCH   4   6
ENDBRANCH   3   4
ENDBRANCH   2   3
ENDBRANCH   1   2
BRANCH   1  56
ATOM     56  O   UNL A   1      31.336  28.379  25.763  1.00  0.00    -0.461 OA
BRANCH  56  57
ATOM     57  C   UNL A   1      31.731  27.395  24.882  1.00  0.00     0.329 C 
ATOM     58  O   UNL A   1      32.805  27.437  24.281  1.00  0.00    -0.250 OA
BRANCH  57  59
ATOM     59  C   UNL A   1      30.677  26.244  24.718  1.00  0.00     0.200 C 
ATOM     60  C   UNL A   1      30.504  25.637  23.312  1.00  0.00     0.059 C 
ATOM     61  N   UNL A   1      31.090  24.914  25.137  1.00  0.00    -0.294 N 
ATOM     62  C   UNL A   1      31.174  24.363  23.816  1.00  0.00     0.127 C 
BRANCH  61  63
ATOM     63  C   UNL A   1      31.536  24.479  26.341  1.00  0.00     0.410 C 
ATOM     64  O   UNL A   1      30.823  24.043  27.229  1.00  0.00    -0.224 OA
BRANCH  63  65
ATOM     65  O   UNL A   1      32.883  24.643  26.417  1.00  0.00    -0.448 OA
BRANCH  65  66
ATOM     66  C   UNL A   1      33.700  23.467  26.566  1.00  0.00     0.248 C 
BRANCH  66  67
ATOM     67  C   UNL A   1      34.425  22.983  25.291  1.00  0.00     0.088 C 
ATOM     68  C   UNL A   1      35.932  22.776  25.434  1.00  0.00    -0.029 A 
ATOM     69  C   UNL A   1      33.941  21.599  24.882  1.00  0.00    -0.029 A 
ATOM     70  C   UNL A   1      36.909  23.676  25.834  1.00  0.00     0.005 A 
ATOM     71  C   UNL A   1      36.255  21.432  25.166  1.00  0.00    -0.014 A 
ATOM     72  C   UNL A   1      35.030  20.726  24.849  1.00  0.00    -0.014 A 
ATOM     73  C   UNL A   1      32.639  21.151  24.661  1.00  0.00     0.005 A 
ATOM     74  C   UNL A   1      38.217  23.213  26.007  1.00  0.00     0.000 A 
ATOM     75  C   UNL A   1      37.563  20.987  25.302  1.00  0.00     0.009 A 
ATOM     76  C   UNL A   1      34.788  19.390  24.657  1.00  0.00     0.009 A 
ATOM     77  C   UNL A   1      32.417  19.784  24.491  1.00  0.00     0.000 A 
ATOM     78  C   UNL A   1      38.543  21.876  25.747  1.00  0.00     0.001 A 
ATOM     79  C   UNL A   1      33.490  18.900  24.511  1.00  0.00     0.001 A 
ENDBRANCH  66  67
ENDBRANCH  65  66
ENDBRANCH  63  65
ENDBRANCH  61  63
ENDBRANCH  57  59
ENDBRANCH  56  57
ENDBRANCH   1  56
TORSDOF 15
ENDMDL
MODEL 3
REMARK VINA RESULT:     -11.1      2.645      8.086
REMARK SMILES O=C(OCCOC(=O)[C@H]1CCN1C(=O)OCC1c2ccccc2-c2ccccc21)c1ccc(-c2c3nc(c(-c4ccccc4)c4ccc([nH]4)c(-c4ccccc4)c4nc(c(-c5ccccc5)c5ccc2[nH]5)C=C4)C=C3)cc1
REMARK SMILES IDX 5 1 4 2 3 3 2 4 1 5 30 6 31 7 77 8 32 9 76 10 33 11 34 12
REMARK SMILES IDX 35 13 70 14 36 15 75 16 69 17 71 18 37 19 74 20 68 21 67 22
REMARK SMILES IDX 38 24 60 25 45 26 59 27 46 28 49 29 58 30 72 31 47 32 48 33
REMARK SMILES IDX 57 35 73 36 50 37 39 38 40 39 44 40 41 41 43 42 42 43 61 44
REMARK SMILES IDX 62 45 66 46 63 47 65 48 64 49 51 50 52 51 56 52 53 53 55 54
REMARK SMILES IDX 54 55 6 56 7 57 8 58 9 59 10 60 12 61 11 62 13 63 14 64
REMARK SMILES IDX 15 65 16 66 17 67 18 68 29 69 19 70 23 71 24 72 28 73 20 74
REMARK SMILES IDX 22 75 25 76 27 77 21 78 26 79
REMARK H PARENT 71 23 49 34
REMARK Flexibility Score: inf
ROOT
ATOM      1  C   UNL A   1      35.692  22.443  24.624  1.00  0.00     0.274 C 
ENDROOT
BRANCH   1   2
ATOM      2  C   UNL A   1      36.803  23.264  25.281  1.00  0.00     0.275 C 
BRANCH   2   3
ATOM      3  O   UNL A   1      37.816  22.441  25.871  1.00  0.00    -0.458 OA
BRANCH   3   4
ATOM      4  C   UNL A   1      39.081  22.736  26.237  1.00  0.00     0.338 C 
ATOM      5  O   UNL A   1      39.898  21.814  26.208  1.00  0.00    -0.246 OA
BRANCH   4   6
ATOM      6  C   UNL A   1      39.582  24.071  26.732  1.00  0.00     0.060 A 
ATOM      7  C   UNL A   1      40.261  25.065  26.014  1.00  0.00     0.016 A 
ATOM      8  C   UNL A   1      39.231  24.380  28.064  1.00  0.00     0.016 A 
ATOM      9  C   UNL A   1      40.537  26.329  26.581  1.00  0.00     0.010 A 
ATOM     10  C   UNL A   1      39.474  25.642  28.620  1.00  0.00     0.010 A 
ATOM     11  C   UNL A   1      40.127  26.636  27.881  1.00  0.00    -0.014 A 
BRANCH  11  12
ATOM     12  C   UNL A   1      40.469  27.925  28.546  1.00  0.00     0.031 A 
ATOM     13  C   UNL A   1      41.854  28.081  29.079  1.00  0.00     0.074 A 
ATOM     14  C   UNL A   1      39.536  28.843  28.875  1.00  0.00     0.049 A 
ATOM     15  N   UNL A   1      42.375  29.077  29.743  1.00  0.00    -0.248 NA
ATOM     16  C   UNL A   1      42.742  26.918  28.923  1.00  0.00     0.031 C 
ATOM     17  C   UNL A   1      38.122  28.702  28.588  1.00  0.00     0.029 A 
ATOM     18  N   UNL A   1      39.606  30.039  29.561  1.00  0.00    -0.354 N 
ATOM     19  C   UNL A   1      43.609  28.621  30.174  1.00  0.00     0.074 A 
ATOM     20  C   UNL A   1      43.758  27.265  29.693  1.00  0.00     0.031 C 
ATOM     21  C   UNL A   1      37.457  29.737  29.120  1.00  0.00     0.029 A 
ATOM     22  C   UNL A   1      38.396  30.705  29.657  1.00  0.00     0.049 A 
ATOM     23  H   UNL A   1      40.442  30.387  29.949  1.00  0.00     0.167 HD
ATOM     24  C   UNL A   1      44.520  29.268  30.936  1.00  0.00     0.031 A 
ATOM     25  C   UNL A   1      38.112  31.976  30.035  1.00  0.00     0.031 A 
ATOM     26  C   UNL A   1      44.347  30.608  31.420  1.00  0.00     0.049 A 
ATOM     27  C   UNL A   1      39.259  32.797  30.546  1.00  0.00     0.074 A 
ATOM     28  C   UNL A   1      45.208  31.381  32.176  1.00  0.00     0.029 A 
ATOM     29  N   UNL A   1      43.214  31.376  31.188  1.00  0.00    -0.354 N 
ATOM     30  N   UNL A   1      40.504  32.439  30.721  1.00  0.00    -0.248 NA
ATOM     31  C   UNL A   1      38.972  34.199  30.885  1.00  0.00     0.031 C 
ATOM     32  C   UNL A   1      44.585  32.611  32.423  1.00  0.00     0.029 A 
ATOM     33  C   UNL A   1      43.355  32.614  31.787  1.00  0.00     0.049 A 
ATOM     34  H   UNL A   1      42.428  31.082  30.675  1.00  0.00     0.167 HD
ATOM     35  C   UNL A   1      41.142  33.564  31.206  1.00  0.00     0.074 A 
ATOM     36  C   UNL A   1      40.182  34.647  31.172  1.00  0.00     0.031 C 
ATOM     37  C   UNL A   1      42.389  33.674  31.716  1.00  0.00     0.031 A 
BRANCH  24  38
ATOM     38  C   UNL A   1      45.717  28.461  31.340  1.00  0.00    -0.014 A 
ATOM     39  C   UNL A   1      46.863  28.392  30.529  1.00  0.00     0.009 A 
ATOM     40  C   UNL A   1      45.639  27.648  32.481  1.00  0.00     0.009 A 
ATOM     41  C   UNL A   1      47.862  27.456  30.801  1.00  0.00     0.001 A 
ATOM     42  C   UNL A   1      46.657  26.742  32.772  1.00  0.00     0.001 A 
ATOM     43  C   UNL A   1      47.754  26.628  31.918  1.00  0.00     0.000 A 
ENDBRANCH  24  38
BRANCH  25  44
ATOM     44  C   UNL A   1      36.808  32.670  29.746  1.00  0.00    -0.014 A 
ATOM     45  C   UNL A   1      36.607  33.203  28.447  1.00  0.00     0.009 A 
ATOM     46  C   UNL A   1      35.741  32.754  30.648  1.00  0.00     0.009 A 
ATOM     47  C   UNL A   1      35.382  33.744  28.047  1.00  0.00     0.001 A 
ATOM     48  C   UNL A   1      34.502  33.283  30.238  1.00  0.00     0.001 A 
ATOM     49  C   UNL A   1      34.319  33.761  28.939  1.00  0.00     0.000 A 
ENDBRANCH  25  44
BRANCH  37  50
ATOM     50  C   UNL A   1      42.734  35.003  32.309  1.00  0.00    -0.014 A 
ATOM     51  C   UNL A   1      43.476  35.939  31.568  1.00  0.00     0.009 A 
ATOM     52  C   UNL A   1      42.323  35.320  33.608  1.00  0.00     0.009 A 
ATOM     53  C   UNL A   1      43.839  37.156  32.138  1.00  0.00     0.001 A 
ATOM     54  C   UNL A   1      42.660  36.554  34.162  1.00  0.00     0.001 A 
ATOM     55  C   UNL A   1      43.425  37.465  33.432  1.00  0.00     0.000 A 
ENDBRANCH  37  50
ENDBRANCH  11  12
ENDBRANCH   4   6
ENDBRANCH   3   4
ENDBRANCH   2   3
ENDBRANCH   1   2
BRANCH   1  56
ATOM     56  O   UNL A   1      34.826  21.802  25.579  1.00  0.00    -0.461 OA
BRANCH  56  57
ATOM     57  C   UNL A   1      33.476  21.826  25.302  1.00  0.00     0.329 C 
ATOM     58  O   UNL A   1      32.721  20.904  25.611  1.00  0.00    -0.250 OA
BRANCH  57  59
ATOM     59  C   UNL A   1      33.015  23.124  24.549  1.00  0.00     0.200 C 
ATOM     60  C   UNL A   1      32.039  22.951  23.371  1.00  0.00     0.059 C 
ATOM     61  N   UNL A   1      31.966  23.908  25.180  1.00  0.00    -0.294 N 
ATOM     62  C   UNL A   1      30.946  23.581  24.227  1.00  0.00     0.127 C 
BRANCH  61  63
ATOM     63  C   UNL A   1      31.922  24.477  26.410  1.00  0.00     0.410 C 
ATOM     64  O   UNL A   1      31.545  23.912  27.422  1.00  0.00    -0.224 OA
BRANCH  63  65
ATOM     65  O   UNL A   1      32.318  25.774  26.329  1.00  0.00    -0.448 OA
BRANCH  65  66
ATOM     66  C   UNL A   1      33.582  26.057  25.700  1.00  0.00     0.248 C 
BRANCH  66  67
ATOM     67  C   UNL A   1      33.641  27.349  24.855  1.00  0.00     0.088 C 
ATOM     68  C   UNL A   1      32.421  27.609  23.971  1.00  0.00    -0.029 A 
ATOM     69  C   UNL A   1      33.668  28.581  25.747  1.00  0.00    -0.029 A 
ATOM     70  C   UNL A   1      31.862  26.806  22.987  1.00  0.00     0.005 A 
ATOM     71  C   UNL A   1      31.819  28.826  24.340  1.00  0.00    -0.014 A 
ATOM     72  C   UNL A   1      32.579  29.396  25.433  1.00  0.00    -0.014 A 
ATOM     73  C   UNL A   1      34.529  28.886  26.801  1.00  0.00     0.005 A 
ATOM     74  C   UNL A   1      30.662  27.210  22.395  1.00  0.00     0.000 A 
ATOM     75  C   UNL A   1      30.647  29.241  23.721  1.00  0.00     0.009 A 
ATOM     76  C   UNL A   1      32.328  30.483  26.231  1.00  0.00     0.009 A 
ATOM     77  C   UNL A   1      34.238  29.985  27.612  1.00  0.00     0.000 A 
ATOM     78  C   UNL A   1      30.055  28.418  22.762  1.00  0.00     0.001 A 
ATOM     79  C   UNL A   1      33.124  30.770  27.340  1.00  0.00     0.001 A 
ENDBRANCH  66  67
ENDBRANCH  65  66
ENDBRANCH  63  65
ENDBRANCH  61  63
ENDBRANCH  57  59
ENDBRANCH  56  57
ENDBRANCH   1  56
TORSDOF 15
ENDMDL
