MODEL 1
REMARK VINA RESULT:      -8.3      0.000      0.000
REMARK SMILES CC[C@H](Oc1c(C)cc(Br)cc1N)C(=O)OCCOC(=O)c1ccc(-c2c3nc(c(-c4ccccc4)c4ccc([nH]4)c(-c4ccccc4)c4nc(c(-c5ccccc5)c5ccc2[nH]5)C=C4)C=C3)cc1
REMARK SMILES IDX 17 1 16 2 14 3 15 4 3 5 2 6 1 7 4 8 5 9 6 10 12 11 7 12 8 13
REMARK SMILES IDX 11 14 9 15 10 16 13 17 18 20 19 21 20 22 21 23 22 24 23 25
REMARK SMILES IDX 69 26 24 27 68 28 25 29 26 30 27 31 62 32 28 33 67 34 61 35
REMARK SMILES IDX 63 36 29 37 66 38 60 39 59 40 30 42 52 43 37 44 51 45 38 46
REMARK SMILES IDX 41 47 50 48 64 49 39 50 40 51 49 53 65 54 42 55 31 56 32 57
REMARK SMILES IDX 36 58 33 59 35 60 34 61 53 62 54 63 58 64 55 65 57 66 56 67
REMARK SMILES IDX 43 68 44 69 48 70 45 71 47 72 46 73
REMARK H PARENT 13 18 13 19 63 41 41 52
REMARK Flexibility Score: inf
ROOT
ATOM      1  C   UNL A   1      40.027  20.260  25.796  1.00  0.00     0.274 C 
ENDROOT
BRANCH   1   2
ATOM      2  O   UNL A   1      41.226  20.677  26.479  1.00  0.00    -0.459 OA
BRANCH   2   3
ATOM      3  C   UNL A   1      42.375  20.649  25.748  1.00  0.00     0.347 C 
ATOM      4  O   UNL A   1      42.983  19.626  25.445  1.00  0.00    -0.248 OA
BRANCH   3   5
ATOM      5  C   UNL A   1      42.884  22.050  25.378  1.00  0.00     0.282 C 
BRANCH   5   6
ATOM      6  C   UNL A   1      44.386  21.922  25.056  1.00  0.00     0.054 C 
ATOM      7  C   UNL A   1      44.908  22.573  23.790  1.00  0.00     0.008 C 
ENDBRANCH   5   6
BRANCH   5   8
ATOM      8  O   UNL A   1      42.499  22.955  26.402  1.00  0.00    -0.476 OA
BRANCH   8   9
ATOM      9  C   UNL A   1      43.398  23.725  27.099  1.00  0.00     0.146 A 
ATOM     10  C   UNL A   1      44.021  24.918  26.693  1.00  0.00    -0.006 A 
ATOM     11  C   UNL A   1      43.667  23.202  28.395  1.00  0.00     0.076 A 
ATOM     12  C   UNL A   1      43.698  25.683  25.443  1.00  0.00     0.048 C 
ATOM     13  C   UNL A   1      45.022  25.470  27.521  1.00  0.00     0.023 A 
ATOM     14  C   UNL A   1      44.677  23.758  29.183  1.00  0.00     0.045 A 
ATOM     15  C   UNL A   1      45.356  24.883  28.739  1.00  0.00     0.020 A 
ATOM     16  Br  UNL A   1      46.732  25.634  29.796  1.00  0.00    -0.051 Br
BRANCH  11  17
ATOM     17  N   UNL A   1      43.036  22.027  28.826  1.00  0.00    -0.396 N 
ATOM     18  H   UNL A   1      42.326  21.620  28.280  1.00  0.00     0.156 HD
ATOM     19  H   UNL A   1      43.304  21.608  29.676  1.00  0.00     0.156 HD
ENDBRANCH  11  17
ENDBRANCH   8   9
ENDBRANCH   5   8
ENDBRANCH   3   5
ENDBRANCH   2   3
ENDBRANCH   1   2
BRANCH   1  20
ATOM     20  C   UNL A   1      38.909  21.300  25.909  1.00  0.00     0.275 C 
BRANCH  20  21
ATOM     21  O   UNL A   1      39.342  22.475  26.618  1.00  0.00    -0.458 OA
BRANCH  21  22
ATOM     22  C   UNL A   1      38.797  23.634  26.179  1.00  0.00     0.338 C 
ATOM     23  O   UNL A   1      37.947  23.775  25.318  1.00  0.00    -0.246 OA
BRANCH  22  24
ATOM     24  C   UNL A   1      39.300  24.750  26.998  1.00  0.00     0.060 A 
ATOM     25  C   UNL A   1      38.899  24.811  28.336  1.00  0.00     0.016 A 
ATOM     26  C   UNL A   1      40.083  25.762  26.442  1.00  0.00     0.016 A 
ATOM     27  C   UNL A   1      39.277  25.894  29.126  1.00  0.00     0.010 A 
ATOM     28  C   UNL A   1      40.454  26.855  27.234  1.00  0.00     0.010 A 
ATOM     29  C   UNL A   1      40.039  26.933  28.575  1.00  0.00    -0.014 A 
BRANCH  29  30
ATOM     30  C   UNL A   1      40.333  28.135  29.390  1.00  0.00     0.031 A 
ATOM     31  C   UNL A   1      41.666  28.264  30.072  1.00  0.00     0.074 A 
ATOM     32  C   UNL A   1      39.433  29.130  29.476  1.00  0.00     0.049 A 
ATOM     33  N   UNL A   1      42.112  29.228  30.837  1.00  0.00    -0.248 NA
ATOM     34  C   UNL A   1      42.626  27.169  29.857  1.00  0.00     0.031 C 
ATOM     35  C   UNL A   1      38.131  29.153  28.810  1.00  0.00     0.029 A 
ATOM     36  N   UNL A   1      39.486  30.323  30.152  1.00  0.00    -0.354 N 
ATOM     37  C   UNL A   1      43.401  28.858  31.194  1.00  0.00     0.074 A 
ATOM     38  C   UNL A   1      43.660  27.571  30.582  1.00  0.00     0.031 C 
ATOM     39  C   UNL A   1      37.515  30.312  29.096  1.00  0.00     0.029 A 
ATOM     40  C   UNL A   1      38.362  31.094  29.996  1.00  0.00     0.049 A 
ATOM     41  H   UNL A   1      40.259  30.600  30.696  1.00  0.00     0.167 HD
ATOM     42  C   UNL A   1      44.293  29.531  31.958  1.00  0.00     0.031 A 
ATOM     43  C   UNL A   1      38.043  32.289  30.528  1.00  0.00     0.031 A 
ATOM     44  C   UNL A   1      44.037  30.804  32.577  1.00  0.00     0.049 A 
ATOM     45  C   UNL A   1      39.013  32.970  31.453  1.00  0.00     0.074 A 
ATOM     46  C   UNL A   1      44.877  31.554  33.382  1.00  0.00     0.029 A 
ATOM     47  N   UNL A   1      42.853  31.513  32.459  1.00  0.00    -0.354 N 
ATOM     48  N   UNL A   1      40.221  32.599  31.800  1.00  0.00    -0.248 NA
ATOM     49  C   UNL A   1      38.570  34.231  32.067  1.00  0.00     0.031 C 
ATOM     50  C   UNL A   1      44.185  32.701  33.785  1.00  0.00     0.029 A 
ATOM     51  C   UNL A   1      42.932  32.684  33.195  1.00  0.00     0.049 A 
ATOM     52  H   UNL A   1      42.072  31.227  31.932  1.00  0.00     0.167 HD
ATOM     53  C   UNL A   1      40.688  33.585  32.659  1.00  0.00     0.074 A 
ATOM     54  C   UNL A   1      39.640  34.579  32.770  1.00  0.00     0.031 C 
ATOM     55  C   UNL A   1      41.879  33.659  33.300  1.00  0.00     0.031 A 
BRANCH  42  56
ATOM     56  C   UNL A   1      45.631  28.891  32.187  1.00  0.00    -0.014 A 
ATOM     57  C   UNL A   1      46.746  29.253  31.416  1.00  0.00     0.009 A 
ATOM     58  C   UNL A   1      45.790  27.958  33.223  1.00  0.00     0.009 A 
ATOM     59  C   UNL A   1      47.992  28.675  31.665  1.00  0.00     0.001 A 
ATOM     60  C   UNL A   1      47.041  27.398  33.483  1.00  0.00     0.001 A 
ATOM     61  C   UNL A   1      48.140  27.753  32.701  1.00  0.00     0.000 A 
ENDBRANCH  42  56
BRANCH  43  62
ATOM     62  C   UNL A   1      36.735  32.916  30.213  1.00  0.00    -0.014 A 
ATOM     63  C   UNL A   1      36.580  33.699  29.060  1.00  0.00     0.009 A 
ATOM     64  C   UNL A   1      35.636  32.738  31.068  1.00  0.00     0.009 A 
ATOM     65  C   UNL A   1      35.352  34.302  28.774  1.00  0.00     0.001 A 
ATOM     66  C   UNL A   1      34.404  33.323  30.768  1.00  0.00     0.001 A 
ATOM     67  C   UNL A   1      34.265  34.110  29.626  1.00  0.00     0.000 A 
ENDBRANCH  43  62
BRANCH  55  68
ATOM     68  C   UNL A   1      42.124  34.858  34.167  1.00  0.00    -0.014 A 
ATOM     69  C   UNL A   1      41.862  34.817  35.545  1.00  0.00     0.009 A 
ATOM     70  C   UNL A   1      42.683  36.020  33.612  1.00  0.00     0.009 A 
ATOM     71  C   UNL A   1      42.139  35.926  36.348  1.00  0.00     0.001 A 
ATOM     72  C   UNL A   1      42.978  37.118  34.420  1.00  0.00     0.001 A 
ATOM     73  C   UNL A   1      42.701  37.072  35.786  1.00  0.00     0.000 A 
ENDBRANCH  55  68
ENDBRANCH  29  30
ENDBRANCH  22  24
ENDBRANCH  21  22
ENDBRANCH  20  21
ENDBRANCH   1  20
TORSDOF 15
ENDMDL
MODEL 2
REMARK VINA RESULT:      -8.3      5.120     10.896
REMARK SMILES CC[C@H](Oc1c(C)cc(Br)cc1N)C(=O)OCCOC(=O)c1ccc(-c2c3nc(c(-c4ccccc4)c4ccc([nH]4)c(-c4ccccc4)c4nc(c(-c5ccccc5)c5ccc2[nH]5)C=C4)C=C3)cc1
REMARK SMILES IDX 17 1 16 2 14 3 15 4 3 5 2 6 1 7 4 8 5 9 6 10 12 11 7 12 8 13
REMARK SMILES IDX 11 14 9 15 10 16 13 17 18 20 19 21 20 22 21 23 22 24 23 25
REMARK SMILES IDX 69 26 24 27 68 28 25 29 26 30 27 31 62 32 28 33 67 34 61 35
REMARK SMILES IDX 63 36 29 37 66 38 60 39 59 40 30 42 52 43 37 44 51 45 38 46
REMARK SMILES IDX 41 47 50 48 64 49 39 50 40 51 49 53 65 54 42 55 31 56 32 57
REMARK SMILES IDX 36 58 33 59 35 60 34 61 53 62 54 63 58 64 55 65 57 66 56 67
REMARK SMILES IDX 43 68 44 69 48 70 45 71 47 72 46 73
REMARK H PARENT 13 18 13 19 63 41 41 52
REMARK Flexibility Score: inf
ROOT
ATOM      1  C   UNL A   1      34.907  34.424  32.243  1.00  0.00     0.274 C 
ENDROOT
BRANCH   1   2
ATOM      2  O   UNL A   1      35.405  33.885  31.003  1.00  0.00    -0.459 OA
BRANCH   2   3
ATOM      3  C   UNL A   1      34.493  33.743  30.000  1.00  0.00     0.347 C 
ATOM      4  O   UNL A   1      33.444  34.375  29.918  1.00  0.00    -0.248 OA
BRANCH   3   5
ATOM      5  C   UNL A   1      34.880  32.652  28.990  1.00  0.00     0.282 C 
BRANCH   5   6
ATOM      6  C   UNL A   1      35.831  33.296  27.961  1.00  0.00     0.054 C 
ATOM      7  C   UNL A   1      37.205  33.737  28.431  1.00  0.00     0.008 C 
ENDBRANCH   5   6
BRANCH   5   8
ATOM      8  O   UNL A   1      33.692  32.044  28.505  1.00  0.00    -0.476 OA
BRANCH   8   9
ATOM      9  C   UNL A   1      33.694  30.949  27.676  1.00  0.00     0.146 A 
ATOM     10  C   UNL A   1      34.630  29.901  27.623  1.00  0.00    -0.006 A 
ATOM     11  C   UNL A   1      32.566  30.925  26.809  1.00  0.00     0.076 A 
ATOM     12  C   UNL A   1      35.757  29.693  28.591  1.00  0.00     0.048 C 
ATOM     13  C   UNL A   1      34.508  28.943  26.592  1.00  0.00     0.023 A 
ATOM     14  C   UNL A   1      32.485  29.977  25.787  1.00  0.00     0.045 A 
ATOM     15  C   UNL A   1      33.460  28.997  25.677  1.00  0.00     0.020 A 
ATOM     16  Br  UNL A   1      33.360  27.717  24.288  1.00  0.00    -0.051 Br
BRANCH  11  17
ATOM     17  N   UNL A   1      31.611  31.948  26.866  1.00  0.00    -0.396 N 
ATOM     18  H   UNL A   1      31.043  32.137  26.085  1.00  0.00     0.156 HD
ATOM     19  H   UNL A   1      31.506  32.479  27.689  1.00  0.00     0.156 HD
ENDBRANCH  11  17
ENDBRANCH   8   9
ENDBRANCH   5   8
ENDBRANCH   3   5
ENDBRANCH   2   3
ENDBRANCH   1   2
BRANCH   1  20
ATOM     20  C   UNL A   1      34.808  33.356  33.336  1.00  0.00     0.275 C 
BRANCH  20  21
ATOM     21  O   UNL A   1      35.531  32.163  32.983  1.00  0.00    -0.458 OA
BRANCH  21  22
ATOM     22  C   UNL A   1      36.730  32.025  33.597  1.00  0.00     0.338 C 
ATOM     23  O   UNL A   1      36.993  32.240  34.767  1.00  0.00    -0.246 OA
BRANCH  22  24
ATOM     24  C   UNL A   1      37.696  31.439  32.653  1.00  0.00     0.060 A 
ATOM     25  C   UNL A   1      38.841  30.836  33.180  1.00  0.00     0.016 A 
ATOM     26  C   UNL A   1      37.522  31.554  31.273  1.00  0.00     0.016 A 
ATOM     27  C   UNL A   1      39.826  30.346  32.325  1.00  0.00     0.010 A 
ATOM     28  C   UNL A   1      38.517  31.071  30.415  1.00  0.00     0.010 A 
ATOM     29  C   UNL A   1      39.680  30.479  30.938  1.00  0.00    -0.014 A 
BRANCH  29  30
ATOM     30  C   UNL A   1      40.787  30.063  30.045  1.00  0.00     0.031 A 
ATOM     31  C   UNL A   1      40.746  28.712  29.390  1.00  0.00     0.074 A 
ATOM     32  C   UNL A   1      41.795  30.911  29.778  1.00  0.00     0.049 A 
ATOM     33  N   UNL A   1      41.618  28.157  28.586  1.00  0.00    -0.248 NA
ATOM     34  C   UNL A   1      39.564  27.878  29.667  1.00  0.00     0.031 C 
ATOM     35  C   UNL A   1      41.916  32.273  30.300  1.00  0.00     0.029 A 
ATOM     36  N   UNL A   1      42.905  30.755  28.987  1.00  0.00    -0.354 N 
ATOM     37  C   UNL A   1      41.093  26.914  28.263  1.00  0.00     0.074 A 
ATOM     38  C   UNL A   1      39.838  26.783  28.972  1.00  0.00     0.031 C 
ATOM     39  C   UNL A   1      43.030  32.833  29.801  1.00  0.00     0.029 A 
ATOM     40  C   UNL A   1      43.720  31.859  28.957  1.00  0.00     0.049 A 
ATOM     41  H   UNL A   1      43.098  29.928  28.487  1.00  0.00     0.167 HD
ATOM     42  C   UNL A   1      41.606  25.967  27.442  1.00  0.00     0.031 A 
ATOM     43  C   UNL A   1      44.894  32.059  28.331  1.00  0.00     0.031 A 
ATOM     44  C   UNL A   1      42.858  26.086  26.744  1.00  0.00     0.049 A 
ATOM     45  C   UNL A   1      45.491  30.953  27.505  1.00  0.00     0.074 A 
ATOM     46  C   UNL A   1      43.466  25.170  25.903  1.00  0.00     0.029 A 
ATOM     47  N   UNL A   1      43.692  27.191  26.805  1.00  0.00    -0.354 N 
ATOM     48  N   UNL A   1      44.994  29.773  27.224  1.00  0.00    -0.248 NA
ATOM     49  C   UNL A   1      46.815  31.205  26.917  1.00  0.00     0.031 C 
ATOM     50  C   UNL A   1      44.690  25.705  25.486  1.00  0.00     0.029 A 
ATOM     51  C   UNL A   1      44.820  26.971  26.034  1.00  0.00     0.049 A 
ATOM     52  H   UNL A   1      43.510  28.009  27.321  1.00  0.00     0.167 HD
ATOM     53  C   UNL A   1      45.937  29.149  26.417  1.00  0.00     0.074 A 
ATOM     54  C   UNL A   1      47.027  30.084  26.240  1.00  0.00     0.031 C 
ATOM     55  C   UNL A   1      45.900  27.909  25.873  1.00  0.00     0.031 A 
BRANCH  42  56
ATOM     56  C   UNL A   1      40.821  24.699  27.271  1.00  0.00    -0.014 A 
ATOM     57  C   UNL A   1      39.637  24.680  26.519  1.00  0.00     0.009 A 
ATOM     58  C   UNL A   1      41.301  23.501  27.822  1.00  0.00     0.009 A 
ATOM     59  C   UNL A   1      38.937  23.486  26.338  1.00  0.00     0.001 A 
ATOM     60  C   UNL A   1      40.609  22.305  27.622  1.00  0.00     0.001 A 
ATOM     61  C   UNL A   1      39.426  22.300  26.884  1.00  0.00     0.000 A 
ENDBRANCH  42  56
BRANCH  43  62
ATOM     62  C   UNL A   1      45.599  33.358  28.473  1.00  0.00    -0.014 A 
ATOM     63  C   UNL A   1      45.371  34.395  27.558  1.00  0.00     0.009 A 
ATOM     64  C   UNL A   1      46.506  33.564  29.524  1.00  0.00     0.009 A 
ATOM     65  C   UNL A   1      46.048  35.611  27.684  1.00  0.00     0.001 A 
ATOM     66  C   UNL A   1      47.164  34.788  29.661  1.00  0.00     0.001 A 
ATOM     67  C   UNL A   1      46.940  35.807  28.737  1.00  0.00     0.000 A 
ENDBRANCH  43  62
BRANCH  55  68
ATOM     68  C   UNL A   1      47.063  27.493  25.022  1.00  0.00    -0.014 A 
ATOM     69  C   UNL A   1      48.074  26.668  25.537  1.00  0.00     0.009 A 
ATOM     70  C   UNL A   1      47.115  27.877  23.673  1.00  0.00     0.009 A 
ATOM     71  C   UNL A   1      49.127  26.251  24.720  1.00  0.00     0.001 A 
ATOM     72  C   UNL A   1      48.157  27.441  22.854  1.00  0.00     0.001 A 
ATOM     73  C   UNL A   1      49.164  26.633  23.379  1.00  0.00     0.000 A 
ENDBRANCH  55  68
ENDBRANCH  29  30
ENDBRANCH  22  24
ENDBRANCH  21  22
ENDBRANCH  20  21
ENDBRANCH   1  20
TORSDOF 15
ENDMDL
MODEL 3
REMARK VINA RESULT:      -8.3      3.861     10.233
REMARK SMILES CC[C@H](Oc1c(C)cc(Br)cc1N)C(=O)OCCOC(=O)c1ccc(-c2c3nc(c(-c4ccccc4)c4ccc([nH]4)c(-c4ccccc4)c4nc(c(-c5ccccc5)c5ccc2[nH]5)C=C4)C=C3)cc1
REMARK SMILES IDX 17 1 16 2 14 3 15 4 3 5 2 6 1 7 4 8 5 9 6 10 12 11 7 12 8 13
REMARK SMILES IDX 11 14 9 15 10 16 13 17 18 20 19 21 20 22 21 23 22 24 23 25
REMARK SMILES IDX 69 26 24 27 68 28 25 29 26 30 27 31 62 32 28 33 67 34 61 35
REMARK SMILES IDX 63 36 29 37 66 38 60 39 59 40 30 42 52 43 37 44 51 45 38 46
REMARK SMILES IDX 41 47 50 48 64 49 39 50 40 51 49 53 65 54 42 55 31 56 32 57
REMARK SMILES IDX 36 58 33 59 35 60 34 61 53 62 54 63 58 64 55 65 57 66 56 67
REMARK SMILES IDX 43 68 44 69 48 70 45 71 47 72 46 73
REMARK H PARENT 13 18 13 19 63 41 41 52
REMARK Flexibility Score: inf
ROOT
ATOM      1  C   UNL A   1      34.581  33.701  28.615  1.00  0.00     0.274 C 
ENDROOT
BRANCH   1   2
ATOM      2  O   UNL A   1      34.164  34.329  29.843  1.00  0.00    -0.459 OA
BRANCH   2   3
ATOM      3  C   UNL A   1      34.723  33.845  30.987  1.00  0.00     0.347 C 
ATOM      4  O   UNL A   1      34.117  33.207  31.842  1.00  0.00    -0.248 OA
BRANCH   3   5
ATOM      5  C   UNL A   1      36.203  34.230  31.139  1.00  0.00     0.282 C 
BRANCH   5   6
ATOM      6  C   UNL A   1      37.036  32.959  30.882  1.00  0.00     0.054 C 
ATOM      7  C   UNL A   1      37.839  32.873  29.598  1.00  0.00     0.008 C 
ENDBRANCH   5   6
BRANCH   5   8
ATOM      8  O   UNL A   1      36.371  34.894  32.383  1.00  0.00    -0.476 OA
BRANCH   8   9
ATOM      9  C   UNL A   1      37.096  34.365  33.423  1.00  0.00     0.146 A 
ATOM     10  C   UNL A   1      38.483  34.148  33.494  1.00  0.00    -0.006 A 
ATOM     11  C   UNL A   1      36.279  34.043  34.543  1.00  0.00     0.076 A 
ATOM     12  C   UNL A   1      39.487  34.605  32.477  1.00  0.00     0.048 C 
ATOM     13  C   UNL A   1      38.999  33.461  34.614  1.00  0.00     0.023 A 
ATOM     14  C   UNL A   1      36.815  33.346  35.628  1.00  0.00     0.045 A 
ATOM     15  C   UNL A   1      38.170  33.050  35.654  1.00  0.00     0.020 A 
ATOM     16  Br  UNL A   1      38.899  32.096  37.116  1.00  0.00    -0.051 Br
BRANCH  11  17
ATOM     17  N   UNL A   1      34.898  34.276  34.499  1.00  0.00    -0.396 N 
ATOM     18  H   UNL A   1      34.271  33.518  34.459  1.00  0.00     0.156 HD
ATOM     19  H   UNL A   1      34.554  35.199  34.508  1.00  0.00     0.156 HD
ENDBRANCH  11  17
ENDBRANCH   8   9
ENDBRANCH   5   8
ENDBRANCH   3   5
ENDBRANCH   2   3
ENDBRANCH   1   2
BRANCH   1  20
ATOM     20  C   UNL A   1      33.808  32.408  28.339  1.00  0.00     0.275 C 
BRANCH  20  21
ATOM     21  O   UNL A   1      34.457  31.601  27.340  1.00  0.00    -0.458 OA
BRANCH  21  22
ATOM     22  C   UNL A   1      34.523  30.281  27.634  1.00  0.00     0.338 C 
ATOM     23  O   UNL A   1      33.687  29.427  27.399  1.00  0.00    -0.246 OA
BRANCH  22  24
ATOM     24  C   UNL A   1      35.849  29.972  28.193  1.00  0.00     0.060 A 
ATOM     25  C   UNL A   1      36.956  30.069  27.345  1.00  0.00     0.016 A 
ATOM     26  C   UNL A   1      35.994  29.515  29.504  1.00  0.00     0.016 A 
ATOM     27  C   UNL A   1      38.219  29.702  27.804  1.00  0.00     0.010 A 
ATOM     28  C   UNL A   1      37.262  29.137  29.961  1.00  0.00     0.010 A 
ATOM     29  C   UNL A   1      38.376  29.214  29.109  1.00  0.00    -0.014 A 
BRANCH  29  30
ATOM     30  C   UNL A   1      39.701  28.715  29.545  1.00  0.00     0.031 A 
ATOM     31  C   UNL A   1      40.472  29.469  30.592  1.00  0.00     0.074 A 
ATOM     32  C   UNL A   1      40.188  27.565  29.048  1.00  0.00     0.049 A 
ATOM     33  N   UNL A   1      41.649  29.205  31.100  1.00  0.00    -0.248 NA
ATOM     34  C   UNL A   1      39.830  30.672  31.146  1.00  0.00     0.031 C 
ATOM     35  C   UNL A   1      39.508  26.708  28.076  1.00  0.00     0.029 A 
ATOM     36  N   UNL A   1      41.367  26.911  29.306  1.00  0.00    -0.354 N 
ATOM     37  C   UNL A   1      41.889  30.206  32.032  1.00  0.00     0.074 A 
ATOM     38  C   UNL A   1      40.747  31.095  32.005  1.00  0.00     0.031 C 
ATOM     39  C   UNL A   1      40.274  25.632  27.833  1.00  0.00     0.029 A 
ATOM     40  C   UNL A   1      41.514  25.743  28.601  1.00  0.00     0.049 A 
ATOM     41  H   UNL A   1      42.042  27.247  29.939  1.00  0.00     0.167 HD
ATOM     42  C   UNL A   1      42.961  30.367  32.843  1.00  0.00     0.031 A 
ATOM     43  C   UNL A   1      42.536  24.868  28.566  1.00  0.00     0.031 A 
ATOM     44  C   UNL A   1      44.103  29.493  32.866  1.00  0.00     0.049 A 
ATOM     45  C   UNL A   1      43.758  25.123  29.403  1.00  0.00     0.074 A 
ATOM     46  C   UNL A   1      45.244  29.587  33.644  1.00  0.00     0.029 A 
ATOM     47  N   UNL A   1      44.247  28.364  32.075  1.00  0.00    -0.354 N 
ATOM     48  N   UNL A   1      43.981  26.086  30.265  1.00  0.00    -0.248 NA
ATOM     49  C   UNL A   1      44.873  24.175  29.257  1.00  0.00     0.031 C 
ATOM     50  C   UNL A   1      46.098  28.535  33.295  1.00  0.00     0.029 A 
ATOM     51  C   UNL A   1      45.468  27.764  32.331  1.00  0.00     0.049 A 
ATOM     52  H   UNL A   1      43.581  28.039  31.427  1.00  0.00     0.167 HD
ATOM     53  C   UNL A   1      45.253  25.852  30.772  1.00  0.00     0.074 A 
ATOM     54  C   UNL A   1      45.747  24.649  30.135  1.00  0.00     0.031 C 
ATOM     55  C   UNL A   1      45.949  26.572  31.684  1.00  0.00     0.031 A 
BRANCH  42  56
ATOM     56  C   UNL A   1      42.962  31.552  33.763  1.00  0.00    -0.014 A 
ATOM     57  C   UNL A   1      43.377  32.815  33.313  1.00  0.00     0.009 A 
ATOM     58  C   UNL A   1      42.489  31.416  35.077  1.00  0.00     0.009 A 
ATOM     59  C   UNL A   1      43.337  33.915  34.170  1.00  0.00     0.001 A 
ATOM     60  C   UNL A   1      42.432  32.523  35.925  1.00  0.00     0.001 A 
ATOM     61  C   UNL A   1      42.860  33.770  35.473  1.00  0.00     0.000 A 
ENDBRANCH  42  56
BRANCH  43  62
ATOM     62  C   UNL A   1      42.458  23.670  27.692  1.00  0.00    -0.014 A 
ATOM     63  C   UNL A   1      41.950  22.460  28.186  1.00  0.00     0.009 A 
ATOM     64  C   UNL A   1      42.895  23.731  26.360  1.00  0.00     0.009 A 
ATOM     65  C   UNL A   1      41.893  21.330  27.367  1.00  0.00     0.001 A 
ATOM     66  C   UNL A   1      42.817  22.607  25.536  1.00  0.00     0.001 A 
ATOM     67  C   UNL A   1      42.322  21.405  26.042  1.00  0.00     0.000 A 
ENDBRANCH  43  62
BRANCH  55  68
ATOM     68  C   UNL A   1      47.312  26.075  32.063  1.00  0.00    -0.014 A 
ATOM     69  C   UNL A   1      47.493  25.248  33.182  1.00  0.00     0.009 A 
ATOM     70  C   UNL A   1      48.418  26.385  31.256  1.00  0.00     0.009 A 
ATOM     71  C   UNL A   1      48.762  24.756  33.496  1.00  0.00     0.001 A 
ATOM     72  C   UNL A   1      49.681  25.874  31.560  1.00  0.00     0.001 A 
ATOM     73  C   UNL A   1      49.852  25.064  32.682  1.00  0.00     0.000 A 
ENDBRANCH  55  68
ENDBRANCH  29  30
ENDBRANCH  22  24
ENDBRANCH  21  22
ENDBRANCH  20  21
ENDBRANCH   1  20
TORSDOF 15
ENDMDL
