MODEL 1
REMARK VINA RESULT:      -9.3      0.000      0.000
REMARK SMILES O=C(OCCOC(=O)c1cc(Cl)cc(Cl)c1O)c1ccc(-c2c3nc(c(-c4ccccc4)c4ccc([nH]4)c(-c4ccccc4)c4nc(c(-c5ccccc5)c5ccc2[nH]5)C=C4)C=C3)cc1
REMARK SMILES IDX 4 1 3 2 2 3 1 4 18 5 19 6 65 7 20 8 64 9 21 10 22 11 23 12
REMARK SMILES IDX 58 13 24 14 63 15 57 16 59 17 25 18 62 19 56 20 55 21 26 23
REMARK SMILES IDX 48 24 33 25 47 26 34 27 37 28 46 29 60 30 35 31 36 32 45 34
REMARK SMILES IDX 61 35 38 36 27 37 28 38 32 39 29 40 31 41 30 42 49 43 50 44
REMARK SMILES IDX 54 45 51 46 53 47 52 48 39 49 40 50 44 51 41 52 43 53 42 54
REMARK SMILES IDX 5 55 6 56 7 57 8 58 9 59 10 60 16 61 11 62 14 63 12 64 13 65
REMARK SMILES IDX 15 66 17 67
REMARK H PARENT 59 22 37 33 17 68
REMARK Flexibility Score: inf
ROOT
ATOM      1  C   UNL A   1      34.751  33.371  28.620  1.00  0.00     0.275 C 
ENDROOT
BRANCH   1   2
ATOM      2  O   UNL A   1      33.962  32.212  28.294  1.00  0.00    -0.458 OA
BRANCH   2   3
ATOM      3  C   UNL A   1      34.327  30.974  27.889  1.00  0.00     0.338 C 
ATOM      4  O   UNL A   1      33.510  30.281  27.286  1.00  0.00    -0.246 OA
BRANCH   3   5
ATOM      5  C   UNL A   1      35.634  30.346  28.247  1.00  0.00     0.060 A 
ATOM      6  C   UNL A   1      35.966  29.844  29.504  1.00  0.00     0.016 A 
ATOM      7  C   UNL A   1      36.615  30.305  27.236  1.00  0.00     0.016 A 
ATOM      8  C   UNL A   1      37.209  29.253  29.734  1.00  0.00     0.010 A 
ATOM      9  C   UNL A   1      37.862  29.711  27.457  1.00  0.00     0.010 A 
ATOM     10  C   UNL A   1      38.167  29.194  28.719  1.00  0.00    -0.014 A 
BRANCH  10  11
ATOM     11  C   UNL A   1      39.532  28.754  29.072  1.00  0.00     0.031 A 
ATOM     12  C   UNL A   1      40.356  29.638  29.959  1.00  0.00     0.074 A 
ATOM     13  C   UNL A   1      39.973  27.535  28.715  1.00  0.00     0.049 A 
ATOM     14  N   UNL A   1      41.494  29.379  30.548  1.00  0.00    -0.248 NA
ATOM     15  C   UNL A   1      39.809  30.972  30.255  1.00  0.00     0.031 C 
ATOM     16  C   UNL A   1      39.215  26.565  27.929  1.00  0.00     0.029 A 
ATOM     17  N   UNL A   1      41.155  26.897  28.986  1.00  0.00    -0.354 N 
ATOM     18  C   UNL A   1      41.778  30.502  31.313  1.00  0.00     0.074 A 
ATOM     19  C   UNL A   1      40.729  31.465  31.068  1.00  0.00     0.031 C 
ATOM     20  C   UNL A   1      39.959  25.458  27.761  1.00  0.00     0.029 A 
ATOM     21  C   UNL A   1      41.241  25.644  28.428  1.00  0.00     0.049 A 
ATOM     22  H   UNL A   1      41.873  27.298  29.526  1.00  0.00     0.167 HD
ATOM     23  C   UNL A   1      42.808  30.701  32.167  1.00  0.00     0.031 A 
ATOM     24  C   UNL A   1      42.244  24.746  28.464  1.00  0.00     0.031 A 
ATOM     25  C   UNL A   1      43.873  29.758  32.365  1.00  0.00     0.049 A 
ATOM     26  C   UNL A   1      43.454  25.055  29.301  1.00  0.00     0.074 A 
ATOM     27  C   UNL A   1      44.976  29.862  33.191  1.00  0.00     0.029 A 
ATOM     28  N   UNL A   1      43.974  28.542  31.705  1.00  0.00    -0.354 N 
ATOM     29  N   UNL A   1      43.683  26.096  30.065  1.00  0.00    -0.248 NA
ATOM     30  C   UNL A   1      44.525  24.051  29.311  1.00  0.00     0.031 C 
ATOM     31  C   UNL A   1      45.776  28.731  32.986  1.00  0.00     0.029 A 
ATOM     32  C   UNL A   1      45.139  27.898  32.077  1.00  0.00     0.049 A 
ATOM     33  H   UNL A   1      43.313  28.190  31.066  1.00  0.00     0.167 HD
ATOM     34  C   UNL A   1      44.900  25.851  30.687  1.00  0.00     0.074 A 
ATOM     35  C   UNL A   1      45.359  24.562  30.206  1.00  0.00     0.031 C 
ATOM     36  C   UNL A   1      45.569  26.614  31.585  1.00  0.00     0.031 A 
BRANCH  23  37
ATOM     37  C   UNL A   1      42.829  32.011  32.900  1.00  0.00    -0.014 A 
ATOM     38  C   UNL A   1      42.229  32.146  34.164  1.00  0.00     0.009 A 
ATOM     39  C   UNL A   1      43.415  33.135  32.301  1.00  0.00     0.009 A 
ATOM     40  C   UNL A   1      42.177  33.392  34.791  1.00  0.00     0.001 A 
ATOM     41  C   UNL A   1      43.383  34.374  32.942  1.00  0.00     0.001 A 
ATOM     42  C   UNL A   1      42.752  34.505  34.179  1.00  0.00     0.000 A 
ENDBRANCH  23  37
BRANCH  24  43
ATOM     43  C   UNL A   1      42.139  23.471  27.706  1.00  0.00    -0.014 A 
ATOM     44  C   UNL A   1      41.582  22.323  28.290  1.00  0.00     0.009 A 
ATOM     45  C   UNL A   1      42.618  23.393  26.388  1.00  0.00     0.009 A 
ATOM     46  C   UNL A   1      41.536  21.118  27.582  1.00  0.00     0.001 A 
ATOM     47  C   UNL A   1      42.548  22.194  25.674  1.00  0.00     0.001 A 
ATOM     48  C   UNL A   1      42.016  21.055  26.276  1.00  0.00     0.000 A 
ENDBRANCH  24  43
BRANCH  36  49
ATOM     49  C   UNL A   1      46.842  26.045  32.144  1.00  0.00    -0.014 A 
ATOM     50  C   UNL A   1      46.849  25.278  33.319  1.00  0.00     0.009 A 
ATOM     51  C   UNL A   1      48.049  26.253  31.457  1.00  0.00     0.009 A 
ATOM     52  C   UNL A   1      48.047  24.761  33.814  1.00  0.00     0.001 A 
ATOM     53  C   UNL A   1      49.239  25.708  31.937  1.00  0.00     0.001 A 
ATOM     54  C   UNL A   1      49.238  24.972  33.120  1.00  0.00     0.000 A 
ENDBRANCH  36  49
ENDBRANCH  10  11
ENDBRANCH   3   5
ENDBRANCH   2   3
ENDBRANCH   1   2
BRANCH   1  55
ATOM     55  C   UNL A   1      34.774  33.758  30.100  1.00  0.00     0.275 C 
BRANCH  55  56
ATOM     56  O   UNL A   1      34.410  32.703  31.005  1.00  0.00    -0.458 OA
BRANCH  56  57
ATOM     57  C   UNL A   1      34.531  33.023  32.317  1.00  0.00     0.342 C 
ATOM     58  O   UNL A   1      33.635  33.365  33.074  1.00  0.00    -0.246 OA
BRANCH  57  59
ATOM     59  C   UNL A   1      35.892  32.749  32.808  1.00  0.00     0.104 A 
ATOM     60  C   UNL A   1      36.397  31.444  32.825  1.00  0.00     0.040 A 
ATOM     61  C   UNL A   1      36.684  33.819  33.249  1.00  0.00     0.148 A 
ATOM     62  C   UNL A   1      37.690  31.220  33.299  1.00  0.00     0.043 A 
ATOM     63  C   UNL A   1      37.951  33.563  33.786  1.00  0.00     0.085 A 
ATOM     64  Cl  UNL A   1      38.365  29.638  33.224  1.00  0.00    -0.084 Cl
ATOM     65  C   UNL A   1      38.456  32.264  33.809  1.00  0.00     0.045 A 
ATOM     66  Cl  UNL A   1      38.920  34.829  34.448  1.00  0.00    -0.080 Cl
BRANCH  61  67
ATOM     67  O   UNL A   1      36.238  35.117  33.217  1.00  0.00    -0.505 OA
ATOM     68  H   UNL A   1      35.320  35.298  33.260  1.00  0.00     0.293 HD
ENDBRANCH  61  67
ENDBRANCH  57  59
ENDBRANCH  56  57
ENDBRANCH  55  56
ENDBRANCH   1  55
TORSDOF 12
ENDMDL
MODEL 2
REMARK VINA RESULT:      -9.0      5.425     10.354
REMARK SMILES O=C(OCCOC(=O)c1cc(Cl)cc(Cl)c1O)c1ccc(-c2c3nc(c(-c4ccccc4)c4ccc([nH]4)c(-c4ccccc4)c4nc(c(-c5ccccc5)c5ccc2[nH]5)C=C4)C=C3)cc1
REMARK SMILES IDX 4 1 3 2 2 3 1 4 18 5 19 6 65 7 20 8 64 9 21 10 22 11 23 12
REMARK SMILES IDX 58 13 24 14 63 15 57 16 59 17 25 18 62 19 56 20 55 21 26 23
REMARK SMILES IDX 48 24 33 25 47 26 34 27 37 28 46 29 60 30 35 31 36 32 45 34
REMARK SMILES IDX 61 35 38 36 27 37 28 38 32 39 29 40 31 41 30 42 49 43 50 44
REMARK SMILES IDX 54 45 51 46 53 47 52 48 39 49 40 50 44 51 41 52 43 53 42 54
REMARK SMILES IDX 5 55 6 56 7 57 8 58 9 59 10 60 16 61 11 62 14 63 12 64 13 65
REMARK SMILES IDX 15 66 17 67
REMARK H PARENT 59 22 37 33 17 68
REMARK Flexibility Score: inf
ROOT
ATOM      1  C   UNL A   1      38.707  19.810  25.033  1.00  0.00     0.275 C 
ENDROOT
BRANCH   1   2
ATOM      2  O   UNL A   1      39.742  19.201  25.827  1.00  0.00    -0.458 OA
BRANCH   2   3
ATOM      3  C   UNL A   1      41.057  19.493  25.949  1.00  0.00     0.338 C 
ATOM      4  O   UNL A   1      41.885  18.628  25.673  1.00  0.00    -0.246 OA
BRANCH   3   5
ATOM      5  C   UNL A   1      41.562  20.774  26.526  1.00  0.00     0.060 A 
ATOM      6  C   UNL A   1      41.583  21.090  27.884  1.00  0.00     0.016 A 
ATOM      7  C   UNL A   1      42.010  21.749  25.612  1.00  0.00     0.016 A 
ATOM      8  C   UNL A   1      42.098  22.309  28.328  1.00  0.00     0.010 A 
ATOM      9  C   UNL A   1      42.531  22.971  26.049  1.00  0.00     0.010 A 
ATOM     10  C   UNL A   1      42.562  23.259  27.416  1.00  0.00    -0.014 A 
BRANCH  10  11
ATOM     11  C   UNL A   1      42.898  24.606  27.921  1.00  0.00     0.031 A 
ATOM     12  C   UNL A   1      44.341  25.009  27.965  1.00  0.00     0.074 A 
ATOM     13  C   UNL A   1      41.928  25.492  28.207  1.00  0.00     0.049 A 
ATOM     14  N   UNL A   1      44.859  26.188  28.188  1.00  0.00    -0.248 NA
ATOM     15  C   UNL A   1      45.329  23.955  27.682  1.00  0.00     0.031 C 
ATOM     16  C   UNL A   1      40.494  25.229  28.110  1.00  0.00     0.029 A 
ATOM     17  N   UNL A   1      42.002  26.798  28.615  1.00  0.00    -0.354 N 
ATOM     18  C   UNL A   1      46.229  26.025  28.035  1.00  0.00     0.074 A 
ATOM     19  C   UNL A   1      46.467  24.627  27.760  1.00  0.00     0.031 C 
ATOM     20  C   UNL A   1      39.819  26.333  28.470  1.00  0.00     0.029 A 
ATOM     21  C   UNL A   1      40.773  27.379  28.820  1.00  0.00     0.049 A 
ATOM     22  H   UNL A   1      42.852  27.274  28.750  1.00  0.00     0.167 HD
ATOM     23  C   UNL A   1      47.200  26.965  28.089  1.00  0.00     0.031 A 
ATOM     24  C   UNL A   1      40.458  28.620  29.235  1.00  0.00     0.031 A 
ATOM     25  C   UNL A   1      46.958  28.343  28.413  1.00  0.00     0.049 A 
ATOM     26  C   UNL A   1      41.571  29.611  29.440  1.00  0.00     0.074 A 
ATOM     27  C   UNL A   1      47.867  29.379  28.515  1.00  0.00     0.029 A 
ATOM     28  N   UNL A   1      45.709  28.869  28.712  1.00  0.00    -0.354 N 
ATOM     29  N   UNL A   1      42.857  29.459  29.235  1.00  0.00    -0.248 NA
ATOM     30  C   UNL A   1      41.186  30.952  29.896  1.00  0.00     0.031 C 
ATOM     31  C   UNL A   1      47.174  30.522  28.933  1.00  0.00     0.029 A 
ATOM     32  C   UNL A   1      45.826  30.209  29.033  1.00  0.00     0.049 A 
ATOM     33  H   UNL A   1      44.865  28.363  28.698  1.00  0.00     0.167 HD
ATOM     34  C   UNL A   1      43.431  30.698  29.486  1.00  0.00     0.074 A 
ATOM     35  C   UNL A   1      42.349  31.588  29.861  1.00  0.00     0.031 C 
ATOM     36  C   UNL A   1      44.731  31.071  29.400  1.00  0.00     0.031 A 
BRANCH  23  37
ATOM     37  C   UNL A   1      48.603  26.497  27.833  1.00  0.00    -0.014 A 
ATOM     38  C   UNL A   1      49.133  26.468  26.532  1.00  0.00     0.009 A 
ATOM     39  C   UNL A   1      49.389  26.036  28.898  1.00  0.00     0.009 A 
ATOM     40  C   UNL A   1      50.406  25.943  26.299  1.00  0.00     0.001 A 
ATOM     41  C   UNL A   1      50.670  25.535  28.666  1.00  0.00     0.001 A 
ATOM     42  C   UNL A   1      51.172  25.477  27.366  1.00  0.00     0.000 A 
ENDBRANCH  23  37
BRANCH  24  43
ATOM     43  C   UNL A   1      39.040  28.999  29.465  1.00  0.00    -0.014 A 
ATOM     44  C   UNL A   1      38.264  29.562  28.440  1.00  0.00     0.009 A 
ATOM     45  C   UNL A   1      38.456  28.816  30.730  1.00  0.00     0.009 A 
ATOM     46  C   UNL A   1      36.946  29.960  28.685  1.00  0.00     0.001 A 
ATOM     47  C   UNL A   1      37.131  29.192  30.965  1.00  0.00     0.001 A 
ATOM     48  C   UNL A   1      36.380  29.773  29.944  1.00  0.00     0.000 A 
ENDBRANCH  24  43
BRANCH  36  49
ATOM     49  C   UNL A   1      45.042  32.516  29.665  1.00  0.00    -0.014 A 
ATOM     50  C   UNL A   1      45.402  32.966  30.943  1.00  0.00     0.009 A 
ATOM     51  C   UNL A   1      45.009  33.433  28.602  1.00  0.00     0.009 A 
ATOM     52  C   UNL A   1      45.688  34.315  31.159  1.00  0.00     0.001 A 
ATOM     53  C   UNL A   1      45.326  34.774  28.815  1.00  0.00     0.001 A 
ATOM     54  C   UNL A   1      45.655  35.216  30.096  1.00  0.00     0.000 A 
ENDBRANCH  36  49
ENDBRANCH  10  11
ENDBRANCH   3   5
ENDBRANCH   2   3
ENDBRANCH   1   2
BRANCH   1  55
ATOM     55  C   UNL A   1      38.322  21.236  25.432  1.00  0.00     0.275 C 
BRANCH  55  56
ATOM     56  O   UNL A   1      36.917  21.442  25.651  1.00  0.00    -0.458 OA
BRANCH  56  57
ATOM     57  C   UNL A   1      36.229  21.832  24.549  1.00  0.00     0.342 C 
ATOM     58  O   UNL A   1      36.696  22.292  23.518  1.00  0.00    -0.246 OA
BRANCH  57  59
ATOM     59  C   UNL A   1      34.804  21.481  24.660  1.00  0.00     0.104 A 
ATOM     60  C   UNL A   1      33.814  22.464  24.547  1.00  0.00     0.040 A 
ATOM     61  C   UNL A   1      34.447  20.140  24.869  1.00  0.00     0.148 A 
ATOM     62  C   UNL A   1      32.472  22.097  24.660  1.00  0.00     0.043 A 
ATOM     63  C   UNL A   1      33.101  19.805  25.049  1.00  0.00     0.085 A 
ATOM     64  Cl  UNL A   1      31.241  23.274  24.414  1.00  0.00    -0.084 Cl
ATOM     65  C   UNL A   1      32.112  20.782  24.942  1.00  0.00     0.045 A 
ATOM     66  Cl  UNL A   1      32.617  18.190  25.423  1.00  0.00    -0.080 Cl
BRANCH  61  67
ATOM     67  O   UNL A   1      35.386  19.142  24.951  1.00  0.00    -0.505 OA
ATOM     68  H   UNL A   1      36.102  19.121  24.347  1.00  0.00     0.293 HD
ENDBRANCH  61  67
ENDBRANCH  57  59
ENDBRANCH  56  57
ENDBRANCH  55  56
ENDBRANCH   1  55
TORSDOF 12
ENDMDL
MODEL 3
REMARK VINA RESULT:      -9.0      3.861      6.457
REMARK SMILES O=C(OCCOC(=O)c1cc(Cl)cc(Cl)c1O)c1ccc(-c2c3nc(c(-c4ccccc4)c4ccc([nH]4)c(-c4ccccc4)c4nc(c(-c5ccccc5)c5ccc2[nH]5)C=C4)C=C3)cc1
REMARK SMILES IDX 4 1 3 2 2 3 1 4 18 5 19 6 65 7 20 8 64 9 21 10 22 11 23 12
REMARK SMILES IDX 58 13 24 14 63 15 57 16 59 17 25 18 62 19 56 20 55 21 26 23
REMARK SMILES IDX 48 24 33 25 47 26 34 27 37 28 46 29 60 30 35 31 36 32 45 34
REMARK SMILES IDX 61 35 38 36 27 37 28 38 32 39 29 40 31 41 30 42 49 43 50 44
REMARK SMILES IDX 54 45 51 46 53 47 52 48 39 49 40 50 44 51 41 52 43 53 42 54
REMARK SMILES IDX 5 55 6 56 7 57 8 58 9 59 10 60 16 61 11 62 14 63 12 64 13 65
REMARK SMILES IDX 15 66 17 67
REMARK H PARENT 59 22 37 33 17 68
REMARK Flexibility Score: inf
ROOT
ATOM      1  C   UNL A   1      31.780  32.426  27.231  1.00  0.00     0.275 C 
ENDROOT
BRANCH   1   2
ATOM      2  O   UNL A   1      32.384  33.729  27.321  1.00  0.00    -0.458 OA
BRANCH   2   3
ATOM      3  C   UNL A   1      33.008  34.351  28.347  1.00  0.00     0.338 C 
ATOM      4  O   UNL A   1      32.576  35.433  28.737  1.00  0.00    -0.246 OA
BRANCH   3   5
ATOM      5  C   UNL A   1      34.279  33.856  28.955  1.00  0.00     0.060 A 
ATOM      6  C   UNL A   1      35.557  34.305  28.623  1.00  0.00     0.016 A 
ATOM      7  C   UNL A   1      34.166  32.822  29.906  1.00  0.00     0.016 A 
ATOM      8  C   UNL A   1      36.684  33.794  29.266  1.00  0.00     0.010 A 
ATOM      9  C   UNL A   1      35.292  32.307  30.558  1.00  0.00     0.010 A 
ATOM     10  C   UNL A   1      36.562  32.787  30.225  1.00  0.00    -0.014 A 
BRANCH  10  11
ATOM     11  C   UNL A   1      37.793  32.137  30.718  1.00  0.00     0.031 A 
ATOM     12  C   UNL A   1      38.297  32.511  32.079  1.00  0.00     0.074 A 
ATOM     13  C   UNL A   1      38.371  31.143  30.020  1.00  0.00     0.049 A 
ATOM     14  N   UNL A   1      39.236  31.946  32.792  1.00  0.00    -0.248 NA
ATOM     15  C   UNL A   1      37.629  33.642  32.743  1.00  0.00     0.031 C 
ATOM     16  C   UNL A   1      37.906  30.644  28.728  1.00  0.00     0.029 A 
ATOM     17  N   UNL A   1      39.458  30.362  30.310  1.00  0.00    -0.354 N 
ATOM     18  C   UNL A   1      39.245  32.630  34.000  1.00  0.00     0.074 A 
ATOM     19  C   UNL A   1      38.263  33.685  33.904  1.00  0.00     0.031 C 
ATOM     20  C   UNL A   1      38.717  29.652  28.324  1.00  0.00     0.029 A 
ATOM     21  C   UNL A   1      39.753  29.447  29.328  1.00  0.00     0.049 A 
ATOM     22  H   UNL A   1      39.979  30.449  31.141  1.00  0.00     0.167 HD
ATOM     23  C   UNL A   1      39.986  32.379  35.103  1.00  0.00     0.031 A 
ATOM     24  C   UNL A   1      40.745  28.540  29.257  1.00  0.00     0.031 A 
ATOM     25  C   UNL A   1      40.996  31.360  35.172  1.00  0.00     0.049 A 
ATOM     26  C   UNL A   1      41.660  28.384  30.441  1.00  0.00     0.074 A 
ATOM     27  C   UNL A   1      41.820  31.030  36.230  1.00  0.00     0.029 A 
ATOM     28  N   UNL A   1      41.332  30.520  34.120  1.00  0.00    -0.354 N 
ATOM     29  N   UNL A   1      41.620  28.997  31.599  1.00  0.00    -0.248 NA
ATOM     30  C   UNL A   1      42.730  27.386  30.321  1.00  0.00     0.031 C 
ATOM     31  C   UNL A   1      42.696  30.026  35.799  1.00  0.00     0.029 A 
ATOM     32  C   UNL A   1      42.376  29.692  34.490  1.00  0.00     0.049 A 
ATOM     33  H   UNL A   1      40.891  30.514  33.239  1.00  0.00     0.167 HD
ATOM     34  C   UNL A   1      42.625  28.425  32.366  1.00  0.00     0.074 A 
ATOM     35  C   UNL A   1      43.258  27.417  31.537  1.00  0.00     0.031 C 
ATOM     36  C   UNL A   1      42.983  28.696  33.645  1.00  0.00     0.031 A 
BRANCH  23  37
ATOM     37  C   UNL A   1      39.744  33.265  36.291  1.00  0.00    -0.014 A 
ATOM     38  C   UNL A   1      38.799  32.921  37.273  1.00  0.00     0.009 A 
ATOM     39  C   UNL A   1      40.433  34.480  36.406  1.00  0.00     0.009 A 
ATOM     40  C   UNL A   1      38.519  33.799  38.321  1.00  0.00     0.001 A 
ATOM     41  C   UNL A   1      40.169  35.345  37.469  1.00  0.00     0.001 A 
ATOM     42  C   UNL A   1      39.203  35.010  38.418  1.00  0.00     0.000 A 
ENDBRANCH  23  37
BRANCH  24  43
ATOM     43  C   UNL A   1      40.913  27.703  28.040  1.00  0.00    -0.014 A 
ATOM     44  C   UNL A   1      41.678  28.150  26.952  1.00  0.00     0.009 A 
ATOM     45  C   UNL A   1      40.286  26.448  27.955  1.00  0.00     0.009 A 
ATOM     46  C   UNL A   1      41.785  27.373  25.794  1.00  0.00     0.001 A 
ATOM     47  C   UNL A   1      40.415  25.664  26.806  1.00  0.00     0.001 A 
ATOM     48  C   UNL A   1      41.157  26.131  25.722  1.00  0.00     0.000 A 
ENDBRANCH  24  43
BRANCH  36  49
ATOM     49  C   UNL A   1      44.074  27.853  34.239  1.00  0.00    -0.014 A 
ATOM     50  C   UNL A   1      45.419  28.250  34.187  1.00  0.00     0.009 A 
ATOM     51  C   UNL A   1      43.740  26.656  34.894  1.00  0.00     0.009 A 
ATOM     52  C   UNL A   1      46.411  27.445  34.749  1.00  0.00     0.001 A 
ATOM     53  C   UNL A   1      44.731  25.871  35.482  1.00  0.00     0.001 A 
ATOM     54  C   UNL A   1      46.067  26.261  35.400  1.00  0.00     0.000 A 
ENDBRANCH  36  49
ENDBRANCH  10  11
ENDBRANCH   3   5
ENDBRANCH   2   3
ENDBRANCH   1   2
BRANCH   1  55
ATOM     55  C   UNL A   1      32.756  31.254  27.100  1.00  0.00     0.275 C 
BRANCH  55  56
ATOM     56  O   UNL A   1      32.569  30.442  25.929  1.00  0.00    -0.458 OA
BRANCH  56  57
ATOM     57  C   UNL A   1      31.872  29.299  26.144  1.00  0.00     0.342 C 
ATOM     58  O   UNL A   1      31.556  28.826  27.225  1.00  0.00    -0.246 OA
BRANCH  57  59
ATOM     59  C   UNL A   1      31.369  28.737  24.880  1.00  0.00     0.104 A 
ATOM     60  C   UNL A   1      31.643  27.411  24.528  1.00  0.00     0.040 A 
ATOM     61  C   UNL A   1      30.599  29.548  24.034  1.00  0.00     0.148 A 
ATOM     62  C   UNL A   1      31.153  26.910  23.321  1.00  0.00     0.043 A 
ATOM     63  C   UNL A   1      30.177  29.049  22.797  1.00  0.00     0.085 A 
ATOM     64  Cl  UNL A   1      31.387  25.252  22.925  1.00  0.00    -0.084 Cl
ATOM     65  C   UNL A   1      30.451  27.729  22.440  1.00  0.00     0.045 A 
ATOM     66  Cl  UNL A   1      29.326  30.040  21.668  1.00  0.00    -0.080 Cl
BRANCH  61  67
ATOM     67  O   UNL A   1      30.280  30.843  24.358  1.00  0.00    -0.505 OA
ATOM     68  H   UNL A   1      30.960  31.476  24.483  1.00  0.00     0.293 HD
ENDBRANCH  61  67
ENDBRANCH  57  59
ENDBRANCH  56  57
ENDBRANCH  55  56
ENDBRANCH   1  55
TORSDOF 12
ENDMDL
