MODEL 1
REMARK VINA RESULT:     -10.2      0.000      0.000
REMARK SMILES O=C(OCCOC(=O)[C@H]([C@@H]1CCOC1)[C@@H]1CCS(=O)(=O)C1)c1ccc(-c2c3nc(c(-c4ccccc4)c4ccc([nH]4)c(-c4ccccc4)c4nc(c(-c5ccccc5)c5ccc2[nH]5)C=C4)C=C3)cc1
REMARK SMILES IDX 4 1 3 2 2 3 1 4 22 5 23 6 69 7 24 8 68 9 25 10 26 11 27 12
REMARK SMILES IDX 62 13 28 14 67 15 61 16 63 17 29 18 66 19 60 20 59 21 30 23
REMARK SMILES IDX 52 24 37 25 51 26 38 27 41 28 50 29 64 30 39 31 40 32 49 34
REMARK SMILES IDX 65 35 42 36 31 37 32 38 36 39 33 40 35 41 34 42 53 43 54 44
REMARK SMILES IDX 58 45 55 46 57 47 56 48 43 49 44 50 48 51 45 52 47 53 46 54
REMARK SMILES IDX 5 55 6 56 7 57 8 58 9 59 15 60 16 61 21 62 17 63 18 64 19 65
REMARK SMILES IDX 20 66 10 67 11 68 14 69 12 70 13 71
REMARK H PARENT 63 22 41 33
REMARK Flexibility Score: inf
ROOT
ATOM      1  C   UNL A   1      31.600  32.101  26.896  1.00  0.00     0.275 C 
ENDROOT
BRANCH   1   2
ATOM      2  O   UNL A   1      32.141  33.419  27.048  1.00  0.00    -0.458 OA
BRANCH   2   3
ATOM      3  C   UNL A   1      32.862  33.950  28.060  1.00  0.00     0.338 C 
ATOM      4  O   UNL A   1      32.404  34.941  28.628  1.00  0.00    -0.246 OA
BRANCH   3   5
ATOM      5  C   UNL A   1      34.213  33.458  28.503  1.00  0.00     0.060 A 
ATOM      6  C   UNL A   1      35.460  33.732  27.921  1.00  0.00     0.016 A 
ATOM      7  C   UNL A   1      34.206  32.638  29.641  1.00  0.00     0.016 A 
ATOM      8  C   UNL A   1      36.667  33.282  28.497  1.00  0.00     0.010 A 
ATOM      9  C   UNL A   1      35.400  32.201  30.222  1.00  0.00     0.010 A 
ATOM     10  C   UNL A   1      36.654  32.531  29.667  1.00  0.00    -0.014 A 
BRANCH  10  11
ATOM     11  C   UNL A   1      37.882  32.021  30.346  1.00  0.00     0.031 A 
ATOM     12  C   UNL A   1      38.431  30.710  29.866  1.00  0.00     0.074 A 
ATOM     13  C   UNL A   1      38.406  32.587  31.460  1.00  0.00     0.049 A 
ATOM     14  N   UNL A   1      39.382  29.981  30.384  1.00  0.00    -0.248 NA
ATOM     15  C   UNL A   1      37.847  30.158  28.630  1.00  0.00     0.031 C 
ATOM     16  C   UNL A   1      38.044  33.881  32.044  1.00  0.00     0.029 A 
ATOM     17  N   UNL A   1      39.253  32.049  32.404  1.00  0.00    -0.354 N 
ATOM     18  C   UNL A   1      39.577  28.955  29.477  1.00  0.00     0.074 A 
ATOM     19  C   UNL A   1      38.518  29.028  28.499  1.00  0.00     0.031 C 
ATOM     20  C   UNL A   1      38.448  33.920  33.327  1.00  0.00     0.029 A 
ATOM     21  C   UNL A   1      39.206  32.712  33.617  1.00  0.00     0.049 A 
ATOM     22  H   UNL A   1      39.833  31.272  32.233  1.00  0.00     0.167 HD
ATOM     23  C   UNL A   1      40.633  28.116  29.383  1.00  0.00     0.031 A 
ATOM     24  C   UNL A   1      39.713  32.374  34.819  1.00  0.00     0.031 A 
ATOM     25  C   UNL A   1      41.651  28.020  30.383  1.00  0.00     0.049 A 
ATOM     26  C   UNL A   1      40.704  31.245  34.861  1.00  0.00     0.074 A 
ATOM     27  C   UNL A   1      42.809  27.268  30.386  1.00  0.00     0.029 A 
ATOM     28  N   UNL A   1      41.599  28.690  31.598  1.00  0.00    -0.354 N 
ATOM     29  N   UNL A   1      41.033  30.410  33.906  1.00  0.00    -0.248 NA
ATOM     30  C   UNL A   1      41.496  31.102  36.090  1.00  0.00     0.031 C 
ATOM     31  C   UNL A   1      43.432  27.445  31.629  1.00  0.00     0.029 A 
ATOM     32  C   UNL A   1      42.683  28.341  32.378  1.00  0.00     0.049 A 
ATOM     33  H   UNL A   1      40.891  29.321  31.864  1.00  0.00     0.167 HD
ATOM     34  C   UNL A   1      42.145  29.725  34.372  1.00  0.00     0.074 A 
ATOM     35  C   UNL A   1      42.396  30.201  35.718  1.00  0.00     0.031 C 
ATOM     36  C   UNL A   1      42.924  28.831  33.712  1.00  0.00     0.031 A 
BRANCH  23  37
ATOM     37  C   UNL A   1      40.717  27.341  28.104  1.00  0.00    -0.014 A 
ATOM     38  C   UNL A   1      40.198  26.030  28.050  1.00  0.00     0.009 A 
ATOM     39  C   UNL A   1      41.415  27.841  27.001  1.00  0.00     0.009 A 
ATOM     40  C   UNL A   1      40.448  25.211  26.950  1.00  0.00     0.001 A 
ATOM     41  C   UNL A   1      41.637  27.028  25.887  1.00  0.00     0.001 A 
ATOM     42  C   UNL A   1      41.172  25.711  25.871  1.00  0.00     0.000 A 
ENDBRANCH  23  37
BRANCH  24  43
ATOM     43  C   UNL A   1      39.416  33.166  36.046  1.00  0.00    -0.014 A 
ATOM     44  C   UNL A   1      40.198  34.280  36.393  1.00  0.00     0.009 A 
ATOM     45  C   UNL A   1      38.381  32.779  36.913  1.00  0.00     0.009 A 
ATOM     46  C   UNL A   1      39.975  34.966  37.590  1.00  0.00     0.001 A 
ATOM     47  C   UNL A   1      38.152  33.473  38.108  1.00  0.00     0.001 A 
ATOM     48  C   UNL A   1      38.953  34.561  38.450  1.00  0.00     0.000 A 
ENDBRANCH  24  43
BRANCH  36  49
ATOM     49  C   UNL A   1      44.174  28.378  34.400  1.00  0.00    -0.014 A 
ATOM     50  C   UNL A   1      44.206  27.216  35.183  1.00  0.00     0.009 A 
ATOM     51  C   UNL A   1      45.357  29.114  34.215  1.00  0.00     0.009 A 
ATOM     52  C   UNL A   1      45.398  26.810  35.784  1.00  0.00     0.001 A 
ATOM     53  C   UNL A   1      46.551  28.690  34.792  1.00  0.00     0.001 A 
ATOM     54  C   UNL A   1      46.569  27.541  35.582  1.00  0.00     0.000 A 
ENDBRANCH  36  49
ENDBRANCH  10  11
ENDBRANCH   3   5
ENDBRANCH   2   3
ENDBRANCH   1   2
BRANCH   1  55
ATOM     55  C   UNL A   1      32.641  30.979  26.854  1.00  0.00     0.274 C 
BRANCH  55  56
ATOM     56  O   UNL A   1      32.068  29.684  26.584  1.00  0.00    -0.462 OA
BRANCH  56  57
ATOM     57  C   UNL A   1      32.852  28.818  25.878  1.00  0.00     0.309 C 
ATOM     58  O   UNL A   1      34.050  28.671  26.077  1.00  0.00    -0.252 OA
BRANCH  57  59
ATOM     59  C   UNL A   1      32.054  28.061  24.787  1.00  0.00     0.109 C 
BRANCH  59  60
ATOM     60  C   UNL A   1      30.990  27.109  25.442  1.00  0.00     0.019 C 
ATOM     61  C   UNL A   1      31.597  26.267  26.585  1.00  0.00     0.021 C 
ATOM     62  C   UNL A   1      30.376  25.982  24.566  1.00  0.00     0.141 C 
ATOM     63  C   UNL A   1      32.464  25.250  25.870  1.00  0.00     0.137 C 
ATOM     64  S   UNL A   1      31.542  24.644  24.510  1.00  0.00     0.150 S 
ATOM     65  O   UNL A   1      32.376  24.751  23.331  1.00  0.00    -0.229 OA
ATOM     66  O   UNL A   1      30.877  23.418  24.891  1.00  0.00    -0.229 OA
ENDBRANCH  59  60
BRANCH  59  67
ATOM     67  C   UNL A   1      31.550  29.144  23.787  1.00  0.00     0.032 C 
ATOM     68  C   UNL A   1      30.122  29.614  23.992  1.00  0.00     0.035 C 
ATOM     69  C   UNL A   1      31.558  28.747  22.319  1.00  0.00     0.164 C 
ATOM     70  C   UNL A   1      29.318  28.821  22.994  1.00  0.00     0.160 C 
ATOM     71  O   UNL A   1      30.204  28.479  21.928  1.00  0.00    -0.381 OA
ENDBRANCH  59  67
ENDBRANCH  57  59
ENDBRANCH  56  57
ENDBRANCH  55  56
ENDBRANCH   1  55
TORSDOF 13
ENDMDL
MODEL 2
REMARK VINA RESULT:     -10.2      3.179      5.848
REMARK SMILES O=C(OCCOC(=O)[C@H]([C@@H]1CCOC1)[C@@H]1CCS(=O)(=O)C1)c1ccc(-c2c3nc(c(-c4ccccc4)c4ccc([nH]4)c(-c4ccccc4)c4nc(c(-c5ccccc5)c5ccc2[nH]5)C=C4)C=C3)cc1
REMARK SMILES IDX 4 1 3 2 2 3 1 4 22 5 23 6 69 7 24 8 68 9 25 10 26 11 27 12
REMARK SMILES IDX 62 13 28 14 67 15 61 16 63 17 29 18 66 19 60 20 59 21 30 23
REMARK SMILES IDX 52 24 37 25 51 26 38 27 41 28 50 29 64 30 39 31 40 32 49 34
REMARK SMILES IDX 65 35 42 36 31 37 32 38 36 39 33 40 35 41 34 42 53 43 54 44
REMARK SMILES IDX 58 45 55 46 57 47 56 48 43 49 44 50 48 51 45 52 47 53 46 54
REMARK SMILES IDX 5 55 6 56 7 57 8 58 9 59 15 60 16 61 21 62 17 63 18 64 19 65
REMARK SMILES IDX 20 66 10 67 11 68 14 69 12 70 13 71
REMARK H PARENT 63 22 41 33
REMARK Flexibility Score: inf
ROOT
ATOM      1  C   UNL A   1      29.858  26.390  24.629  1.00  0.00     0.275 C 
ENDROOT
BRANCH   1   2
ATOM      2  O   UNL A   1      29.763  27.770  24.255  1.00  0.00    -0.458 OA
BRANCH   2   3
ATOM      3  C   UNL A   1      30.731  28.640  23.895  1.00  0.00     0.338 C 
ATOM      4  O   UNL A   1      30.938  28.798  22.693  1.00  0.00    -0.246 OA
BRANCH   3   5
ATOM      5  C   UNL A   1      31.619  29.383  24.856  1.00  0.00     0.060 A 
ATOM      6  C   UNL A   1      31.233  30.152  25.964  1.00  0.00     0.016 A 
ATOM      7  C   UNL A   1      32.995  29.273  24.604  1.00  0.00     0.016 A 
ATOM      8  C   UNL A   1      32.177  30.721  26.844  1.00  0.00     0.010 A 
ATOM      9  C   UNL A   1      33.935  29.824  25.481  1.00  0.00     0.010 A 
ATOM     10  C   UNL A   1      33.540  30.544  26.628  1.00  0.00    -0.014 A 
BRANCH  10  11
ATOM     11  C   UNL A   1      34.606  31.104  27.510  1.00  0.00     0.031 A 
ATOM     12  C   UNL A   1      35.762  30.205  27.837  1.00  0.00     0.074 A 
ATOM     13  C   UNL A   1      34.493  32.292  28.151  1.00  0.00     0.049 A 
ATOM     14  N   UNL A   1      36.728  30.390  28.695  1.00  0.00    -0.248 NA
ATOM     15  C   UNL A   1      35.853  28.940  27.083  1.00  0.00     0.031 C 
ATOM     16  C   UNL A   1      33.475  33.321  27.927  1.00  0.00     0.029 A 
ATOM     17  N   UNL A   1      35.165  32.759  29.261  1.00  0.00    -0.354 N 
ATOM     18  C   UNL A   1      37.588  29.325  28.498  1.00  0.00     0.074 A 
ATOM     19  C   UNL A   1      36.936  28.395  27.607  1.00  0.00     0.031 C 
ATOM     20  C   UNL A   1      33.425  34.141  28.994  1.00  0.00     0.029 A 
ATOM     21  C   UNL A   1      34.490  33.773  29.916  1.00  0.00     0.049 A 
ATOM     22  H   UNL A   1      36.035  32.408  29.556  1.00  0.00     0.167 HD
ATOM     23  C   UNL A   1      38.871  29.205  28.906  1.00  0.00     0.031 A 
ATOM     24  C   UNL A   1      34.709  34.333  31.122  1.00  0.00     0.031 A 
ATOM     25  C   UNL A   1      39.491  30.107  29.826  1.00  0.00     0.049 A 
ATOM     26  C   UNL A   1      36.016  34.030  31.800  1.00  0.00     0.074 A 
ATOM     27  C   UNL A   1      40.797  30.146  30.271  1.00  0.00     0.029 A 
ATOM     28  N   UNL A   1      38.809  31.125  30.479  1.00  0.00    -0.354 N 
ATOM     29  N   UNL A   1      36.927  33.149  31.464  1.00  0.00    -0.248 NA
ATOM     30  C   UNL A   1      36.392  34.887  32.932  1.00  0.00     0.031 C 
ATOM     31  C   UNL A   1      40.891  31.159  31.235  1.00  0.00     0.029 A 
ATOM     32  C   UNL A   1      39.654  31.776  31.355  1.00  0.00     0.049 A 
ATOM     33  H   UNL A   1      37.860  31.349  30.339  1.00  0.00     0.167 HD
ATOM     34  C   UNL A   1      38.029  33.425  32.258  1.00  0.00     0.074 A 
ATOM     35  C   UNL A   1      37.649  34.516  33.136  1.00  0.00     0.031 C 
ATOM     36  C   UNL A   1      39.264  32.866  32.214  1.00  0.00     0.031 A 
BRANCH  23  37
ATOM     37  C   UNL A   1      39.642  28.096  28.257  1.00  0.00    -0.014 A 
ATOM     38  C   UNL A   1      39.744  26.848  28.906  1.00  0.00     0.009 A 
ATOM     39  C   UNL A   1      40.372  28.315  27.085  1.00  0.00     0.009 A 
ATOM     40  C   UNL A   1      40.623  25.872  28.437  1.00  0.00     0.001 A 
ATOM     41  C   UNL A   1      41.229  27.323  26.601  1.00  0.00     0.001 A 
ATOM     42  C   UNL A   1      41.368  26.114  27.287  1.00  0.00     0.000 A 
ENDBRANCH  23  37
BRANCH  24  43
ATOM     43  C   UNL A   1      33.763  35.322  31.711  1.00  0.00    -0.014 A 
ATOM     44  C   UNL A   1      34.105  36.680  31.807  1.00  0.00     0.009 A 
ATOM     45  C   UNL A   1      32.530  34.903  32.238  1.00  0.00     0.009 A 
ATOM     46  C   UNL A   1      33.254  37.589  32.442  1.00  0.00     0.001 A 
ATOM     47  C   UNL A   1      31.673  35.817  32.865  1.00  0.00     0.001 A 
ATOM     48  C   UNL A   1      32.039  37.158  32.974  1.00  0.00     0.000 A 
ENDBRANCH  24  43
BRANCH  36  49
ATOM     49  C   UNL A   1      40.323  33.483  33.073  1.00  0.00    -0.014 A 
ATOM     50  C   UNL A   1      41.125  34.537  32.614  1.00  0.00     0.009 A 
ATOM     51  C   UNL A   1      40.483  33.023  34.392  1.00  0.00     0.009 A 
ATOM     52  C   UNL A   1      42.082  35.105  33.456  1.00  0.00     0.001 A 
ATOM     53  C   UNL A   1      41.418  33.612  35.238  1.00  0.00     0.001 A 
ATOM     54  C   UNL A   1      42.222  34.649  34.767  1.00  0.00     0.000 A 
ENDBRANCH  36  49
ENDBRANCH  10  11
ENDBRANCH   3   5
ENDBRANCH   2   3
ENDBRANCH   1   2
BRANCH   1  55
ATOM     55  C   UNL A   1      30.283  26.144  26.079  1.00  0.00     0.274 C 
BRANCH  55  56
ATOM     56  O   UNL A   1      31.218  25.055  26.218  1.00  0.00    -0.462 OA
BRANCH  56  57
ATOM     57  C   UNL A   1      32.538  25.382  26.109  1.00  0.00     0.309 C 
ATOM     58  O   UNL A   1      33.003  26.459  26.458  1.00  0.00    -0.252 OA
BRANCH  57  59
ATOM     59  C   UNL A   1      33.374  24.242  25.475  1.00  0.00     0.109 C 
BRANCH  59  60
ATOM     60  C   UNL A   1      34.129  24.755  24.196  1.00  0.00     0.019 C 
ATOM     61  C   UNL A   1      33.223  25.632  23.306  1.00  0.00     0.021 C 
ATOM     62  C   UNL A   1      34.606  23.705  23.156  1.00  0.00     0.141 C 
ATOM     63  C   UNL A   1      32.264  24.643  22.673  1.00  0.00     0.137 C 
ATOM     64  S   UNL A   1      33.208  23.262  22.155  1.00  0.00     0.150 S 
ATOM     65  O   UNL A   1      32.569  22.072  22.678  1.00  0.00    -0.229 OA
ATOM     66  O   UNL A   1      33.554  23.416  20.759  1.00  0.00    -0.229 OA
ENDBRANCH  59  60
BRANCH  59  67
ATOM     67  C   UNL A   1      34.223  23.632  26.630  1.00  0.00     0.032 C 
ATOM     68  C   UNL A   1      35.508  22.945  26.210  1.00  0.00     0.035 C 
ATOM     69  C   UNL A   1      33.536  22.561  27.465  1.00  0.00     0.164 C 
ATOM     70  C   UNL A   1      35.157  21.481  26.166  1.00  0.00     0.160 C 
ATOM     71  O   UNL A   1      34.073  21.288  27.076  1.00  0.00    -0.381 OA
ENDBRANCH  59  67
ENDBRANCH  57  59
ENDBRANCH  56  57
ENDBRANCH  55  56
ENDBRANCH   1  55
TORSDOF 13
ENDMDL
MODEL 3
REMARK VINA RESULT:     -10.1      1.000      2.013
REMARK SMILES O=C(OCCOC(=O)[C@H]([C@@H]1CCOC1)[C@@H]1CCS(=O)(=O)C1)c1ccc(-c2c3nc(c(-c4ccccc4)c4ccc([nH]4)c(-c4ccccc4)c4nc(c(-c5ccccc5)c5ccc2[nH]5)C=C4)C=C3)cc1
REMARK SMILES IDX 4 1 3 2 2 3 1 4 22 5 23 6 69 7 24 8 68 9 25 10 26 11 27 12
REMARK SMILES IDX 62 13 28 14 67 15 61 16 63 17 29 18 66 19 60 20 59 21 30 23
REMARK SMILES IDX 52 24 37 25 51 26 38 27 41 28 50 29 64 30 39 31 40 32 49 34
REMARK SMILES IDX 65 35 42 36 31 37 32 38 36 39 33 40 35 41 34 42 53 43 54 44
REMARK SMILES IDX 58 45 55 46 57 47 56 48 43 49 44 50 48 51 45 52 47 53 46 54
REMARK SMILES IDX 5 55 6 56 7 57 8 58 9 59 15 60 16 61 21 62 17 63 18 64 19 65
REMARK SMILES IDX 20 66 10 67 11 68 14 69 12 70 13 71
REMARK H PARENT 63 22 41 33
REMARK Flexibility Score: inf
ROOT
ATOM      1  C   UNL A   1      31.509  32.075  26.921  1.00  0.00     0.275 C 
ENDROOT
BRANCH   1   2
ATOM      2  O   UNL A   1      32.316  33.259  26.953  1.00  0.00    -0.458 OA
BRANCH   2   3
ATOM      3  C   UNL A   1      32.989  33.823  27.980  1.00  0.00     0.338 C 
ATOM      4  O   UNL A   1      32.479  34.800  28.528  1.00  0.00    -0.246 OA
BRANCH   3   5
ATOM      5  C   UNL A   1      34.345  33.386  28.462  1.00  0.00     0.060 A 
ATOM      6  C   UNL A   1      35.599  33.762  27.958  1.00  0.00     0.016 A 
ATOM      7  C   UNL A   1      34.335  32.506  29.555  1.00  0.00     0.016 A 
ATOM      8  C   UNL A   1      36.803  33.351  28.568  1.00  0.00     0.010 A 
ATOM      9  C   UNL A   1      35.525  32.106  30.170  1.00  0.00     0.010 A 
ATOM     10  C   UNL A   1      36.782  32.538  29.695  1.00  0.00    -0.014 A 
BRANCH  10  11
ATOM     11  C   UNL A   1      38.005  32.062  30.406  1.00  0.00     0.031 A 
ATOM     12  C   UNL A   1      38.565  30.735  29.986  1.00  0.00     0.074 A 
ATOM     13  C   UNL A   1      38.515  32.676  31.501  1.00  0.00     0.049 A 
ATOM     14  N   UNL A   1      39.515  30.033  30.542  1.00  0.00    -0.248 NA
ATOM     15  C   UNL A   1      37.995  30.130  28.768  1.00  0.00     0.031 C 
ATOM     16  C   UNL A   1      38.141  33.991  32.027  1.00  0.00     0.029 A 
ATOM     17  N   UNL A   1      39.356  32.181  32.475  1.00  0.00    -0.354 N 
ATOM     18  C   UNL A   1      39.723  28.972  29.680  1.00  0.00     0.074 A 
ATOM     19  C   UNL A   1      38.674  28.999  28.689  1.00  0.00     0.031 C 
ATOM     20  C   UNL A   1      38.533  34.085  33.312  1.00  0.00     0.029 A 
ATOM     21  C   UNL A   1      39.294  32.893  33.658  1.00  0.00     0.049 A 
ATOM     22  H   UNL A   1      39.942  31.402  32.341  1.00  0.00     0.167 HD
ATOM     23  C   UNL A   1      40.784  28.136  29.631  1.00  0.00     0.031 A 
ATOM     24  C   UNL A   1      39.791  32.608  34.878  1.00  0.00     0.031 A 
ATOM     25  C   UNL A   1      41.793  28.086  30.643  1.00  0.00     0.049 A 
ATOM     26  C   UNL A   1      40.787  31.487  34.976  1.00  0.00     0.074 A 
ATOM     27  C   UNL A   1      42.955  27.340  30.687  1.00  0.00     0.029 A 
ATOM     28  N   UNL A   1      41.726  28.804  31.829  1.00  0.00    -0.354 N 
ATOM     29  N   UNL A   1      41.129  30.615  34.059  1.00  0.00    -0.248 NA
ATOM     30  C   UNL A   1      41.568  31.398  36.217  1.00  0.00     0.031 C 
ATOM     31  C   UNL A   1      43.564  27.572  31.928  1.00  0.00     0.029 A 
ATOM     32  C   UNL A   1      42.803  28.494  32.633  1.00  0.00     0.049 A 
ATOM     33  H   UNL A   1      41.012  29.442  32.062  1.00  0.00     0.167 HD
ATOM     34  C   UNL A   1      42.240  29.955  34.563  1.00  0.00     0.074 A 
ATOM     35  C   UNL A   1      42.476  30.488  35.891  1.00  0.00     0.031 C 
ATOM     36  C   UNL A   1      43.029  29.039  33.948  1.00  0.00     0.031 A 
BRANCH  23  37
ATOM     37  C   UNL A   1      40.884  27.309  28.385  1.00  0.00    -0.014 A 
ATOM     38  C   UNL A   1      41.526  27.841  27.247  1.00  0.00     0.009 A 
ATOM     39  C   UNL A   1      40.240  26.072  28.286  1.00  0.00     0.009 A 
ATOM     40  C   UNL A   1      41.451  27.188  26.018  1.00  0.00     0.001 A 
ATOM     41  C   UNL A   1      40.193  25.405  27.059  1.00  0.00     0.001 A 
ATOM     42  C   UNL A   1      40.778  25.972  25.925  1.00  0.00     0.000 A 
ENDBRANCH  23  37
BRANCH  24  43
ATOM     43  C   UNL A   1      39.479  33.448  36.068  1.00  0.00    -0.014 A 
ATOM     44  C   UNL A   1      40.241  34.589  36.367  1.00  0.00     0.009 A 
ATOM     45  C   UNL A   1      38.449  33.081  36.951  1.00  0.00     0.009 A 
ATOM     46  C   UNL A   1      40.003  35.323  37.533  1.00  0.00     0.001 A 
ATOM     47  C   UNL A   1      38.206  33.824  38.113  1.00  0.00     0.001 A 
ATOM     48  C   UNL A   1      38.988  34.940  38.408  1.00  0.00     0.000 A 
ENDBRANCH  24  43
BRANCH  36  49
ATOM     49  C   UNL A   1      44.275  28.621  34.666  1.00  0.00    -0.014 A 
ATOM     50  C   UNL A   1      45.464  29.357  34.570  1.00  0.00     0.009 A 
ATOM     51  C   UNL A   1      44.234  27.488  35.495  1.00  0.00     0.009 A 
ATOM     52  C   UNL A   1      46.596  28.952  35.278  1.00  0.00     0.001 A 
ATOM     53  C   UNL A   1      45.357  27.103  36.224  1.00  0.00     0.001 A 
ATOM     54  C   UNL A   1      46.540  27.833  36.109  1.00  0.00     0.000 A 
ENDBRANCH  36  49
ENDBRANCH  10  11
ENDBRANCH   3   5
ENDBRANCH   2   3
ENDBRANCH   1   2
BRANCH   1  55
ATOM     55  C   UNL A   1      32.213  30.832  26.369  1.00  0.00     0.274 C 
BRANCH  55  56
ATOM     56  O   UNL A   1      31.515  29.606  26.669  1.00  0.00    -0.462 OA
BRANCH  56  57
ATOM     57  C   UNL A   1      32.289  28.487  26.773  1.00  0.00     0.309 C 
ATOM     58  O   UNL A   1      33.110  28.310  27.663  1.00  0.00    -0.252 OA
BRANCH  57  59
ATOM     59  C   UNL A   1      32.020  27.480  25.628  1.00  0.00     0.109 C 
BRANCH  59  60
ATOM     60  C   UNL A   1      33.360  27.096  24.903  1.00  0.00     0.019 C 
ATOM     61  C   UNL A   1      33.967  28.295  24.143  1.00  0.00     0.021 C 
ATOM     62  C   UNL A   1      33.301  26.045  23.761  1.00  0.00     0.141 C 
ATOM     63  C   UNL A   1      33.055  28.469  22.945  1.00  0.00     0.137 C 
ATOM     64  S   UNL A   1      32.743  26.874  22.292  1.00  0.00     0.150 S 
ATOM     65  O   UNL A   1      31.309  26.731  22.147  1.00  0.00    -0.229 OA
ATOM     66  O   UNL A   1      33.670  26.608  21.215  1.00  0.00    -0.229 OA
ENDBRANCH  59  60
BRANCH  59  67
ATOM     67  C   UNL A   1      31.169  26.332  26.249  1.00  0.00     0.032 C 
ATOM     68  C   UNL A   1      31.922  25.056  26.572  1.00  0.00     0.035 C 
ATOM     69  C   UNL A   1      30.015  25.825  25.397  1.00  0.00     0.164 C 
ATOM     70  C   UNL A   1      31.650  24.150  25.400  1.00  0.00     0.160 C 
ATOM     71  O   UNL A   1      30.399  24.558  24.844  1.00  0.00    -0.381 OA
ENDBRANCH  59  67
ENDBRANCH  57  59
ENDBRANCH  56  57
ENDBRANCH  55  56
ENDBRANCH   1  55
TORSDOF 13
ENDMDL
