MODEL 1
REMARK VINA RESULT:     -10.6      0.000      0.000
REMARK SMILES O=C(C[N@H+]1CCCC[C@H]1C(=O)OCCOC(=O)c1ccc(-c2c3nc(c(-c4ccccc4)c4ccc([nH]4)c(-c4ccccc4)c4nc(c(-c5ccccc5)c5ccc2[nH]5)C=C4)C=C3)cc1)NC1CCCCC1
REMARK SMILES IDX 13 1 12 2 10 3 11 4 9 5 4 6 5 7 6 9 8 10 7 11 3 12 2 13 1 14
REMARK SMILES IDX 66 15 67 17 68 18 72 19 69 20 71 21 70 22 14 23 15 24 16 25
REMARK SMILES IDX 17 26 18 27 19 28 65 29 20 30 64 31 21 32 22 33 23 34 58 35
REMARK SMILES IDX 24 36 63 37 57 38 59 39 25 40 62 41 56 42 55 43 26 45 48 46
REMARK SMILES IDX 33 47 47 48 34 49 37 50 46 51 60 52 35 53 36 54 45 56 61 57
REMARK SMILES IDX 38 58 27 59 28 60 32 61 29 62 31 63 30 64 49 65 50 66 54 67
REMARK SMILES IDX 51 68 53 69 52 70 39 71 40 72 44 73 41 74 43 75 42 76
REMARK H PARENT 4 8 66 16 59 44 37 55
REMARK Flexibility Score: inf
ROOT
ATOM      1  C   UNL A   1      31.746  28.523  27.508  1.00  0.00     0.274 C 
ENDROOT
BRANCH   1   2
ATOM      2  O   UNL A   1      31.370  27.254  26.931  1.00  0.00    -0.458 OA
BRANCH   2   3
ATOM      3  C   UNL A   1      32.314  26.617  26.187  1.00  0.00     0.365 C 
ATOM      4  O   UNL A   1      33.517  26.645  26.429  1.00  0.00    -0.245 OA
BRANCH   3   5
ATOM      5  C   UNL A   1      31.733  25.883  24.964  1.00  0.00     0.295 C 
ATOM      6  N   UNL A   1      32.410  26.140  23.669  1.00  0.00    -0.315 N 
ATOM      7  C   UNL A   1      33.688  25.451  23.514  1.00  0.00     0.263 C 
ATOM      8  H   UNL A   1      31.807  25.706  22.969  1.00  0.00     0.349 HD
ATOM      9  C   UNL A   1      33.523  23.944  23.708  1.00  0.00     0.062 C 
ATOM     10  C   UNL A   1      31.579  24.383  25.241  1.00  0.00     0.078 C 
ATOM     11  C   UNL A   1      32.874  23.599  25.041  1.00  0.00     0.013 C 
BRANCH   6  12
ATOM     12  C   UNL A   1      32.463  27.564  23.317  1.00  0.00     0.364 C 
BRANCH  12  13
ATOM     13  C   UNL A   1      31.104  28.073  22.821  1.00  0.00     0.275 C 
ATOM     14  O   UNL A   1      30.353  27.374  22.145  1.00  0.00    -0.268 OA
ATOM     15  N   UNL A   1      30.776  29.352  23.228  1.00  0.00    -0.348 N 
ATOM     16  H   UNL A   1      31.419  29.862  23.773  1.00  0.00     0.163 HD
BRANCH  15  17
ATOM     17  C   UNL A   1      29.504  29.965  22.872  1.00  0.00     0.082 C 
ATOM     18  C   UNL A   1      29.143  31.069  23.874  1.00  0.00     0.025 C 
ATOM     19  C   UNL A   1      29.535  30.516  21.440  1.00  0.00     0.025 C 
ATOM     20  C   UNL A   1      27.836  31.767  23.504  1.00  0.00     0.002 C 
ATOM     21  C   UNL A   1      28.223  31.206  21.075  1.00  0.00     0.002 C 
ATOM     22  C   UNL A   1      27.867  32.301  22.075  1.00  0.00     0.000 C 
ENDBRANCH  15  17
ENDBRANCH  12  13
ENDBRANCH   6  12
ENDBRANCH   3   5
ENDBRANCH   2   3
ENDBRANCH   1   2
BRANCH   1  23
ATOM     23  C   UNL A   1      31.611  29.643  26.482  1.00  0.00     0.275 C 
BRANCH  23  24
ATOM     24  O   UNL A   1      32.915  30.180  26.215  1.00  0.00    -0.458 OA
BRANCH  24  25
ATOM     25  C   UNL A   1      33.310  31.204  27.001  1.00  0.00     0.338 C 
ATOM     26  O   UNL A   1      32.687  32.220  27.258  1.00  0.00    -0.246 OA
BRANCH  25  27
ATOM     27  C   UNL A   1      34.638  30.904  27.578  1.00  0.00     0.060 A 
ATOM     28  C   UNL A   1      35.021  29.588  27.843  1.00  0.00     0.016 A 
ATOM     29  C   UNL A   1      35.463  31.957  27.972  1.00  0.00     0.016 A 
ATOM     30  C   UNL A   1      36.167  29.327  28.593  1.00  0.00     0.010 A 
ATOM     31  C   UNL A   1      36.670  31.686  28.623  1.00  0.00     0.010 A 
ATOM     32  C   UNL A   1      37.022  30.369  28.968  1.00  0.00    -0.014 A 
BRANCH  32  33
ATOM     33  C   UNL A   1      38.279  30.102  29.720  1.00  0.00     0.031 A 
ATOM     34  C   UNL A   1      39.392  29.318  29.080  1.00  0.00     0.074 A 
ATOM     35  C   UNL A   1      38.416  30.520  30.993  1.00  0.00     0.049 A 
ATOM     36  N   UNL A   1      40.420  28.732  29.642  1.00  0.00    -0.248 NA
ATOM     37  C   UNL A   1      39.326  29.145  27.620  1.00  0.00     0.031 C 
ATOM     38  C   UNL A   1      37.449  31.328  31.738  1.00  0.00     0.029 A 
ATOM     39  N   UNL A   1      39.432  30.310  31.894  1.00  0.00    -0.354 N 
ATOM     40  C   UNL A   1      41.075  28.056  28.620  1.00  0.00     0.074 A 
ATOM     41  C   UNL A   1      40.339  28.318  27.400  1.00  0.00     0.031 C 
ATOM     42  C   UNL A   1      37.929  31.571  32.966  1.00  0.00     0.029 A 
ATOM     43  C   UNL A   1      39.189  30.856  33.129  1.00  0.00     0.049 A 
ATOM     44  H   UNL A   1      40.255  29.816  31.674  1.00  0.00     0.167 HD
ATOM     45  C   UNL A   1      42.178  27.275  28.699  1.00  0.00     0.031 A 
ATOM     46  C   UNL A   1      39.865  30.752  34.288  1.00  0.00     0.031 A 
ATOM     47  C   UNL A   1      42.948  27.073  29.899  1.00  0.00     0.049 A 
ATOM     48  C   UNL A   1      41.089  29.891  34.352  1.00  0.00     0.074 A 
ATOM     49  C   UNL A   1      44.098  26.323  30.071  1.00  0.00     0.029 A 
ATOM     50  N   UNL A   1      42.659  27.649  31.126  1.00  0.00    -0.354 N 
ATOM     51  N   UNL A   1      41.648  29.184  33.401  1.00  0.00    -0.248 NA
ATOM     52  C   UNL A   1      41.759  29.793  35.656  1.00  0.00     0.031 C 
ATOM     53  C   UNL A   1      44.491  26.423  31.411  1.00  0.00     0.029 A 
ATOM     54  C   UNL A   1      43.603  27.264  32.062  1.00  0.00     0.049 A 
ATOM     55  H   UNL A   1      41.895  28.244  31.305  1.00  0.00     0.167 HD
ATOM     56  C   UNL A   1      42.733  28.552  33.992  1.00  0.00     0.074 A 
ATOM     57  C   UNL A   1      42.767  28.978  35.376  1.00  0.00     0.031 C 
ATOM     58  C   UNL A   1      43.615  27.687  33.437  1.00  0.00     0.031 A 
BRANCH  45  59
ATOM     59  C   UNL A   1      42.595  26.535  27.460  1.00  0.00    -0.014 A 
ATOM     60  C   UNL A   1      43.568  27.041  26.587  1.00  0.00     0.009 A 
ATOM     61  C   UNL A   1      42.023  25.280  27.189  1.00  0.00     0.009 A 
ATOM     62  C   UNL A   1      43.941  26.317  25.452  1.00  0.00     0.001 A 
ATOM     63  C   UNL A   1      42.415  24.549  26.068  1.00  0.00     0.001 A 
ATOM     64  C   UNL A   1      43.368  25.071  25.196  1.00  0.00     0.000 A 
ENDBRANCH  45  59
BRANCH  46  65
ATOM     65  C   UNL A   1      39.344  31.435  35.498  1.00  0.00    -0.014 A 
ATOM     66  C   UNL A   1      39.838  32.691  35.876  1.00  0.00     0.009 A 
ATOM     67  C   UNL A   1      38.315  30.850  36.253  1.00  0.00     0.009 A 
ATOM     68  C   UNL A   1      39.313  33.347  36.991  1.00  0.00     0.001 A 
ATOM     69  C   UNL A   1      37.774  31.520  37.351  1.00  0.00     0.001 A 
ATOM     70  C   UNL A   1      38.276  32.767  37.721  1.00  0.00     0.000 A 
ENDBRANCH  46  65
BRANCH  58  71
ATOM     71  C   UNL A   1      44.695  27.157  34.331  1.00  0.00    -0.014 A 
ATOM     72  C   UNL A   1      44.513  25.965  35.048  1.00  0.00     0.009 A 
ATOM     73  C   UNL A   1      45.912  27.845  34.441  1.00  0.00     0.009 A 
ATOM     74  C   UNL A   1      45.525  25.485  35.883  1.00  0.00     0.001 A 
ATOM     75  C   UNL A   1      46.927  27.353  35.263  1.00  0.00     0.001 A 
ATOM     76  C   UNL A   1      46.730  26.179  35.988  1.00  0.00     0.000 A 
ENDBRANCH  58  71
ENDBRANCH  32  33
ENDBRANCH  25  27
ENDBRANCH  24  25
ENDBRANCH  23  24
ENDBRANCH   1  23
TORSDOF 14
ENDMDL
MODEL 2
REMARK VINA RESULT:     -10.4      3.120      6.558
REMARK SMILES O=C(C[N@H+]1CCCC[C@H]1C(=O)OCCOC(=O)c1ccc(-c2c3nc(c(-c4ccccc4)c4ccc([nH]4)c(-c4ccccc4)c4nc(c(-c5ccccc5)c5ccc2[nH]5)C=C4)C=C3)cc1)NC1CCCCC1
REMARK SMILES IDX 13 1 12 2 10 3 11 4 9 5 4 6 5 7 6 9 8 10 7 11 3 12 2 13 1 14
REMARK SMILES IDX 66 15 67 17 68 18 72 19 69 20 71 21 70 22 14 23 15 24 16 25
REMARK SMILES IDX 17 26 18 27 19 28 65 29 20 30 64 31 21 32 22 33 23 34 58 35
REMARK SMILES IDX 24 36 63 37 57 38 59 39 25 40 62 41 56 42 55 43 26 45 48 46
REMARK SMILES IDX 33 47 47 48 34 49 37 50 46 51 60 52 35 53 36 54 45 56 61 57
REMARK SMILES IDX 38 58 27 59 28 60 32 61 29 62 31 63 30 64 49 65 50 66 54 67
REMARK SMILES IDX 51 68 53 69 52 70 39 71 40 72 44 73 41 74 43 75 42 76
REMARK H PARENT 4 8 66 16 59 44 37 55
REMARK Flexibility Score: inf
ROOT
ATOM      1  C   UNL A   1      36.066  21.886  25.610  1.00  0.00     0.274 C 
ENDROOT
BRANCH   1   2
ATOM      2  O   UNL A   1      35.268  21.994  24.411  1.00  0.00    -0.458 OA
BRANCH   2   3
ATOM      3  C   UNL A   1      33.923  22.113  24.580  1.00  0.00     0.365 C 
ATOM      4  O   UNL A   1      33.090  21.469  23.951  1.00  0.00    -0.245 OA
BRANCH   3   5
ATOM      5  C   UNL A   1      33.532  23.184  25.616  1.00  0.00     0.295 C 
ATOM      6  N   UNL A   1      33.015  24.462  25.068  1.00  0.00    -0.315 N 
ATOM      7  C   UNL A   1      31.643  24.392  24.576  1.00  0.00     0.263 C 
ATOM      8  H   UNL A   1      32.960  25.087  25.872  1.00  0.00     0.349 HD
ATOM      9  C   UNL A   1      30.696  23.891  25.666  1.00  0.00     0.062 C 
ATOM     10  C   UNL A   1      32.600  22.603  26.686  1.00  0.00     0.078 C 
ATOM     11  C   UNL A   1      31.138  22.555  26.248  1.00  0.00     0.013 C 
BRANCH   6  12
ATOM     12  C   UNL A   1      33.944  25.106  24.130  1.00  0.00     0.364 C 
BRANCH  12  13
ATOM     13  C   UNL A   1      33.841  26.634  24.194  1.00  0.00     0.275 C 
ATOM     14  O   UNL A   1      33.821  27.330  23.181  1.00  0.00    -0.268 OA
ATOM     15  N   UNL A   1      33.730  27.159  25.467  1.00  0.00    -0.348 N 
ATOM     16  H   UNL A   1      33.749  26.549  26.241  1.00  0.00     0.163 HD
BRANCH  15  17
ATOM     17  C   UNL A   1      33.586  28.590  25.695  1.00  0.00     0.082 C 
ATOM     18  C   UNL A   1      32.103  28.983  25.708  1.00  0.00     0.025 C 
ATOM     19  C   UNL A   1      34.275  29.017  26.997  1.00  0.00     0.025 C 
ATOM     20  C   UNL A   1      31.912  30.472  25.992  1.00  0.00     0.002 C 
ATOM     21  C   UNL A   1      34.086  30.508  27.272  1.00  0.00     0.002 C 
ATOM     22  C   UNL A   1      32.610  30.894  27.281  1.00  0.00     0.000 C 
ENDBRANCH  15  17
ENDBRANCH  12  13
ENDBRANCH   6  12
ENDBRANCH   3   5
ENDBRANCH   2   3
ENDBRANCH   1   2
BRANCH   1  23
ATOM     23  C   UNL A   1      36.927  23.131  25.797  1.00  0.00     0.275 C 
BRANCH  23  24
ATOM     24  O   UNL A   1      38.279  22.812  25.435  1.00  0.00    -0.458 OA
BRANCH  24  25
ATOM     25  C   UNL A   1      39.178  22.797  26.442  1.00  0.00     0.338 C 
ATOM     26  O   UNL A   1      39.779  21.831  26.880  1.00  0.00    -0.246 OA
BRANCH  25  27
ATOM     27  C   UNL A   1      39.389  24.173  26.942  1.00  0.00     0.060 A 
ATOM     28  C   UNL A   1      40.036  25.127  26.154  1.00  0.00     0.016 A 
ATOM     29  C   UNL A   1      39.045  24.480  28.258  1.00  0.00     0.016 A 
ATOM     30  C   UNL A   1      40.434  26.342  26.709  1.00  0.00     0.010 A 
ATOM     31  C   UNL A   1      39.344  25.743  28.776  1.00  0.00     0.010 A 
ATOM     32  C   UNL A   1      40.069  26.679  28.018  1.00  0.00    -0.014 A 
BRANCH  32  33
ATOM     33  C   UNL A   1      40.439  27.996  28.607  1.00  0.00     0.031 A 
ATOM     34  C   UNL A   1      41.819  28.215  29.165  1.00  0.00     0.074 A 
ATOM     35  C   UNL A   1      39.531  28.988  28.687  1.00  0.00     0.049 A 
ATOM     36  N   UNL A   1      42.245  29.157  29.969  1.00  0.00    -0.248 NA
ATOM     37  C   UNL A   1      42.848  27.231  28.793  1.00  0.00     0.031 C 
ATOM     38  C   UNL A   1      38.169  28.947  28.152  1.00  0.00     0.029 A 
ATOM     39  N   UNL A   1      39.622  30.232  29.263  1.00  0.00    -0.354 N 
ATOM     40  C   UNL A   1      43.564  28.834  30.264  1.00  0.00     0.074 A 
ATOM     41  C   UNL A   1      43.874  27.619  29.539  1.00  0.00     0.031 C 
ATOM     42  C   UNL A   1      37.563  30.118  28.397  1.00  0.00     0.029 A 
ATOM     43  C   UNL A   1      38.456  30.954  29.189  1.00  0.00     0.049 A 
ATOM     44  H   UNL A   1      40.442  30.572  29.688  1.00  0.00     0.167 HD
ATOM     45  C   UNL A   1      44.428  29.484  31.078  1.00  0.00     0.031 A 
ATOM     46  C   UNL A   1      38.113  32.131  29.742  1.00  0.00     0.031 A 
ATOM     47  C   UNL A   1      44.140  30.728  31.742  1.00  0.00     0.049 A 
ATOM     48  C   UNL A   1      39.087  32.839  30.634  1.00  0.00     0.074 A 
ATOM     49  C   UNL A   1      44.963  31.478  32.566  1.00  0.00     0.029 A 
ATOM     50  N   UNL A   1      42.944  31.420  31.636  1.00  0.00    -0.354 N 
ATOM     51  N   UNL A   1      40.299  32.480  30.977  1.00  0.00    -0.248 NA
ATOM     52  C   UNL A   1      38.635  34.102  31.233  1.00  0.00     0.031 C 
ATOM     53  C   UNL A   1      44.254  32.612  32.979  1.00  0.00     0.029 A 
ATOM     54  C   UNL A   1      43.003  32.583  32.384  1.00  0.00     0.049 A 
ATOM     55  H   UNL A   1      42.168  31.127  31.106  1.00  0.00     0.167 HD
ATOM     56  C   UNL A   1      40.754  33.468  31.838  1.00  0.00     0.074 A 
ATOM     57  C   UNL A   1      39.697  34.454  31.945  1.00  0.00     0.031 C 
ATOM     58  C   UNL A   1      41.939  33.545  32.490  1.00  0.00     0.031 A 
BRANCH  45  59
ATOM     59  C   UNL A   1      45.757  28.834  31.341  1.00  0.00    -0.014 A 
ATOM     60  C   UNL A   1      46.891  29.129  30.571  1.00  0.00     0.009 A 
ATOM     61  C   UNL A   1      45.877  27.935  32.414  1.00  0.00     0.009 A 
ATOM     62  C   UNL A   1      48.113  28.517  30.855  1.00  0.00     0.001 A 
ATOM     63  C   UNL A   1      47.105  27.342  32.709  1.00  0.00     0.001 A 
ATOM     64  C   UNL A   1      48.221  27.628  31.925  1.00  0.00     0.000 A 
ENDBRANCH  45  59
BRANCH  46  65
ATOM     65  C   UNL A   1      36.748  32.670  29.518  1.00  0.00    -0.014 A 
ATOM     66  C   UNL A   1      35.745  32.490  30.480  1.00  0.00     0.009 A 
ATOM     67  C   UNL A   1      36.459  33.407  28.359  1.00  0.00     0.009 A 
ATOM     68  C   UNL A   1      34.475  33.037  30.282  1.00  0.00     0.001 A 
ATOM     69  C   UNL A   1      35.198  33.974  28.177  1.00  0.00     0.001 A 
ATOM     70  C   UNL A   1      34.205  33.785  29.137  1.00  0.00     0.000 A 
ENDBRANCH  46  65
BRANCH  58  71
ATOM     71  C   UNL A   1      42.152  34.743  33.365  1.00  0.00    -0.014 A 
ATOM     72  C   UNL A   1      42.841  35.868  32.888  1.00  0.00     0.009 A 
ATOM     73  C   UNL A   1      41.640  34.754  34.671  1.00  0.00     0.009 A 
ATOM     74  C   UNL A   1      43.038  36.975  33.716  1.00  0.00     0.001 A 
ATOM     75  C   UNL A   1      41.824  35.869  35.489  1.00  0.00     0.001 A 
ATOM     76  C   UNL A   1      42.529  36.975  35.014  1.00  0.00     0.000 A 
ENDBRANCH  58  71
ENDBRANCH  32  33
ENDBRANCH  25  27
ENDBRANCH  24  25
ENDBRANCH  23  24
ENDBRANCH   1  23
TORSDOF 14
ENDMDL
MODEL 3
REMARK VINA RESULT:     -10.3      1.670      6.190
REMARK SMILES O=C(C[N@H+]1CCCC[C@H]1C(=O)OCCOC(=O)c1ccc(-c2c3nc(c(-c4ccccc4)c4ccc([nH]4)c(-c4ccccc4)c4nc(c(-c5ccccc5)c5ccc2[nH]5)C=C4)C=C3)cc1)NC1CCCCC1
REMARK SMILES IDX 13 1 12 2 10 3 11 4 9 5 4 6 5 7 6 9 8 10 7 11 3 12 2 13 1 14
REMARK SMILES IDX 66 15 67 17 68 18 72 19 69 20 71 21 70 22 14 23 15 24 16 25
REMARK SMILES IDX 17 26 18 27 19 28 65 29 20 30 64 31 21 32 22 33 23 34 58 35
REMARK SMILES IDX 24 36 63 37 57 38 59 39 25 40 62 41 56 42 55 43 26 45 48 46
REMARK SMILES IDX 33 47 47 48 34 49 37 50 46 51 60 52 35 53 36 54 45 56 61 57
REMARK SMILES IDX 38 58 27 59 28 60 32 61 29 62 31 63 30 64 49 65 50 66 54 67
REMARK SMILES IDX 51 68 53 69 52 70 39 71 40 72 44 73 41 74 43 75 42 76
REMARK H PARENT 4 8 66 16 59 44 37 55
REMARK Flexibility Score: inf
ROOT
ATOM      1  C   UNL A   1      32.619  30.283  25.890  1.00  0.00     0.274 C 
ENDROOT
BRANCH   1   2
ATOM      2  O   UNL A   1      31.903  29.069  26.201  1.00  0.00    -0.458 OA
BRANCH   2   3
ATOM      3  C   UNL A   1      32.622  27.914  26.189  1.00  0.00     0.365 C 
ATOM      4  O   UNL A   1      33.698  27.766  26.760  1.00  0.00    -0.245 OA
BRANCH   3   5
ATOM      5  C   UNL A   1      31.976  26.803  25.340  1.00  0.00     0.295 C 
ATOM      6  N   UNL A   1      32.604  26.545  24.020  1.00  0.00    -0.315 N 
ATOM      7  C   UNL A   1      33.860  25.806  24.088  1.00  0.00     0.263 C 
ATOM      8  H   UNL A   1      31.963  25.906  23.548  1.00  0.00     0.349 HD
ATOM      9  C   UNL A   1      33.676  24.481  24.827  1.00  0.00     0.062 C 
ATOM     10  C   UNL A   1      31.806  25.514  26.153  1.00  0.00     0.078 C 
ATOM     11  C   UNL A   1      33.076  24.670  26.214  1.00  0.00     0.013 C 
BRANCH   6  12
ATOM     12  C   UNL A   1      32.668  27.740  23.168  1.00  0.00     0.364 C 
BRANCH  12  13
ATOM     13  C   UNL A   1      31.275  28.170  22.694  1.00  0.00     0.275 C 
ATOM     14  O   UNL A   1      30.567  27.442  22.002  1.00  0.00    -0.268 OA
ATOM     15  N   UNL A   1      30.866  29.412  23.139  1.00  0.00    -0.348 N 
ATOM     16  H   UNL A   1      31.477  29.948  23.695  1.00  0.00     0.163 HD
BRANCH  15  17
ATOM     17  C   UNL A   1      29.553  29.949  22.807  1.00  0.00     0.082 C 
ATOM     18  C   UNL A   1      29.161  31.053  23.797  1.00  0.00     0.025 C 
ATOM     19  C   UNL A   1      29.515  30.469  21.364  1.00  0.00     0.025 C 
ATOM     20  C   UNL A   1      27.808  31.673  23.450  1.00  0.00     0.002 C 
ATOM     21  C   UNL A   1      28.158  31.081  21.023  1.00  0.00     0.002 C 
ATOM     22  C   UNL A   1      27.771  32.177  22.011  1.00  0.00     0.000 C 
ENDBRANCH  15  17
ENDBRANCH  12  13
ENDBRANCH   6  12
ENDBRANCH   3   5
ENDBRANCH   2   3
ENDBRANCH   1   2
BRANCH   1  23
ATOM     23  C   UNL A   1      32.549  31.264  27.056  1.00  0.00     0.275 C 
BRANCH  23  24
ATOM     24  O   UNL A   1      33.621  30.974  27.966  1.00  0.00    -0.458 OA
BRANCH  24  25
ATOM     25  C   UNL A   1      34.703  31.776  27.886  1.00  0.00     0.338 C 
ATOM     26  O   UNL A   1      34.728  32.954  27.573  1.00  0.00    -0.246 OA
BRANCH  25  27
ATOM     27  C   UNL A   1      35.911  31.023  28.291  1.00  0.00     0.060 A 
ATOM     28  C   UNL A   1      35.810  29.715  28.769  1.00  0.00     0.016 A 
ATOM     29  C   UNL A   1      37.144  31.674  28.308  1.00  0.00     0.016 A 
ATOM     30  C   UNL A   1      36.911  29.098  29.361  1.00  0.00     0.010 A 
ATOM     31  C   UNL A   1      38.272  31.008  28.797  1.00  0.00     0.010 A 
ATOM     32  C   UNL A   1      38.163  29.723  29.357  1.00  0.00    -0.014 A 
BRANCH  32  33
ATOM     33  C   UNL A   1      39.361  29.053  29.935  1.00  0.00     0.031 A 
ATOM     34  C   UNL A   1      39.976  29.569  31.208  1.00  0.00     0.074 A 
ATOM     35  C   UNL A   1      39.932  28.010  29.303  1.00  0.00     0.049 A 
ATOM     36  N   UNL A   1      41.162  29.328  31.710  1.00  0.00    -0.248 NA
ATOM     37  C   UNL A   1      39.162  30.498  32.008  1.00  0.00     0.031 C 
ATOM     38  C   UNL A   1      39.431  27.367  28.088  1.00  0.00     0.029 A 
ATOM     39  N   UNL A   1      41.076  27.309  29.599  1.00  0.00    -0.354 N 
ATOM     40  C   UNL A   1      41.267  30.136  32.835  1.00  0.00     0.074 A 
ATOM     41  C   UNL A   1      40.019  30.861  32.953  1.00  0.00     0.031 C 
ATOM     42  C   UNL A   1      40.242  26.350  27.759  1.00  0.00     0.029 A 
ATOM     43  C   UNL A   1      41.370  26.331  28.681  1.00  0.00     0.049 A 
ATOM     44  H   UNL A   1      41.631  27.490  30.392  1.00  0.00     0.167 HD
ATOM     45  C   UNL A   1      42.317  30.270  33.679  1.00  0.00     0.031 A 
ATOM     46  C   UNL A   1      42.452  25.542  28.551  1.00  0.00     0.031 A 
ATOM     47  C   UNL A   1      43.529  29.498  33.600  1.00  0.00     0.049 A 
ATOM     48  C   UNL A   1      43.599  25.701  29.501  1.00  0.00     0.074 A 
ATOM     49  C   UNL A   1      44.638  29.543  34.428  1.00  0.00     0.029 A 
ATOM     50  N   UNL A   1      43.779  28.519  32.650  1.00  0.00    -0.354 N 
ATOM     51  N   UNL A   1      43.725  26.530  30.507  1.00  0.00    -0.248 NA
ATOM     52  C   UNL A   1      44.764  24.831  29.281  1.00  0.00     0.031 C 
ATOM     53  C   UNL A   1      45.571  28.609  33.962  1.00  0.00     0.029 A 
ATOM     54  C   UNL A   1      45.027  27.960  32.866  1.00  0.00     0.049 A 
ATOM     55  H   UNL A   1      43.160  28.261  31.929  1.00  0.00     0.167 HD
ATOM     56  C   UNL A   1      44.984  26.288  31.037  1.00  0.00     0.074 A 
ATOM     57  C   UNL A   1      45.572  25.218  30.257  1.00  0.00     0.031 C 
ATOM     58  C   UNL A   1      45.601  26.906  32.073  1.00  0.00     0.031 A 
BRANCH  45  59
ATOM     59  C   UNL A   1      42.225  31.332  34.738  1.00  0.00    -0.014 A 
ATOM     60  C   UNL A   1      42.624  32.654  34.497  1.00  0.00     0.009 A 
ATOM     61  C   UNL A   1      41.686  31.001  35.993  1.00  0.00     0.009 A 
ATOM     62  C   UNL A   1      42.510  33.618  35.501  1.00  0.00     0.001 A 
ATOM     63  C   UNL A   1      41.552  31.972  36.986  1.00  0.00     0.001 A 
ATOM     64  C   UNL A   1      41.971  33.278  36.742  1.00  0.00     0.000 A 
ENDBRANCH  45  59
BRANCH  46  65
ATOM     65  C   UNL A   1      42.518  24.579  27.423  1.00  0.00    -0.014 A 
ATOM     66  C   UNL A   1      43.110  24.947  26.207  1.00  0.00     0.009 A 
ATOM     67  C   UNL A   1      42.030  23.272  27.578  1.00  0.00     0.009 A 
ATOM     68  C   UNL A   1      43.209  24.022  25.165  1.00  0.00     0.001 A 
ATOM     69  C   UNL A   1      42.153  22.343  26.544  1.00  0.00     0.001 A 
ATOM     70  C   UNL A   1      42.740  22.720  25.337  1.00  0.00     0.000 A 
ENDBRANCH  46  65
BRANCH  58  71
ATOM     71  C   UNL A   1      46.978  26.427  32.422  1.00  0.00    -0.014 A 
ATOM     72  C   UNL A   1      47.164  25.377  33.333  1.00  0.00     0.009 A 
ATOM     73  C   UNL A   1      48.097  27.019  31.819  1.00  0.00     0.009 A 
ATOM     74  C   UNL A   1      48.452  24.944  33.655  1.00  0.00     0.001 A 
ATOM     75  C   UNL A   1      49.382  26.572  32.130  1.00  0.00     0.001 A 
ATOM     76  C   UNL A   1      49.559  25.542  33.052  1.00  0.00     0.000 A 
ENDBRANCH  58  71
ENDBRANCH  32  33
ENDBRANCH  25  27
ENDBRANCH  24  25
ENDBRANCH  23  24
ENDBRANCH   1  23
TORSDOF 14
ENDMDL
