MODEL 1
REMARK VINA RESULT:     -12.5      0.000      0.000
REMARK SMILES Cc1ccc(C)c(N2C(=O)S[C@H](CC(=O)Nc3ccc(C(=O)OCCOC(=O)c4ccc(-c5c6nc(c(-c7ccccc7)c7ccc([nH]7)c(-c7ccccc7)c7nc(c(-c8ccccc8)c8ccc5[nH]8)C=C7)C=C6)cc4)c(O)c3)C2=O)c1
REMARK SMILES IDX 24 1 23 2 21 3 22 4 20 5 17 6 18 7 79 8 19 9 77 10 16 11
REMARK SMILES IDX 14 12 15 13 13 15 12 16 8 17 9 18 80 19 10 20 11 21 81 22
REMARK SMILES IDX 7 23 1 24 2 25 3 26 82 27 4 28 5 29 6 30 78 31 25 33 26 34
REMARK SMILES IDX 27 35 28 36 29 37 30 38 76 39 31 40 75 41 32 42 33 43 34 44
REMARK SMILES IDX 69 45 35 46 74 47 68 48 70 49 36 50 73 51 67 52 66 53 37 55
REMARK SMILES IDX 59 56 44 57 58 58 45 59 48 60 57 61 71 62 46 63 47 64 56 66
REMARK SMILES IDX 72 67 49 68 38 69 39 70 43 71 40 72 42 73 41 74 60 75 61 76
REMARK SMILES IDX 65 77 62 78 64 79 63 80 50 81 51 82 55 83 52 84 54 85 53 86
REMARK H PARENT 16 14 78 32 70 54 48 65
REMARK Flexibility Score: inf
ROOT
ATOM      1  C   UNL A   1      33.081  30.231  25.718  1.00  0.00     0.275 C 
ENDROOT
BRANCH   1   2
ATOM      2  O   UNL A   1      31.833  29.987  25.067  1.00  0.00    -0.458 OA
BRANCH   2   3
ATOM      3  C   UNL A   1      31.892  29.015  24.127  1.00  0.00     0.342 C 
ATOM      4  O   UNL A   1      32.164  29.137  22.946  1.00  0.00    -0.246 OA
BRANCH   3   5
ATOM      5  C   UNL A   1      31.374  27.777  24.702  1.00  0.00     0.101 A 
ATOM      6  C   UNL A   1      30.220  25.549  25.900  1.00  0.00     0.044 A 
ATOM      7  C   UNL A   1      31.354  26.148  26.447  1.00  0.00     0.027 A 
ATOM      8  C   UNL A   1      29.760  25.971  24.654  1.00  0.00     0.073 A 
ATOM      9  C   UNL A   1      31.905  27.290  25.887  1.00  0.00     0.022 A 
ATOM     10  C   UNL A   1      30.353  27.081  24.050  1.00  0.00     0.132 A 
BRANCH   6  11
ATOM     11  N   UNL A   1      29.577  24.505  26.583  1.00  0.00    -0.326 N 
ATOM     12  C   UNL A   1      30.069  23.238  26.818  1.00  0.00     0.226 C 
ATOM     13  O   UNL A   1      29.301  22.317  27.095  1.00  0.00    -0.275 OA
ATOM     14  H   UNL A   1      28.677  24.699  26.932  1.00  0.00     0.169 HD
BRANCH  12  15
ATOM     15  C   UNL A   1      31.579  23.069  26.946  1.00  0.00     0.125 C 
BRANCH  15  16
ATOM     16  C   UNL A   1      32.189  21.922  26.150  1.00  0.00     0.156 C 
ATOM     17  N   UNL A   1      34.465  22.415  25.562  1.00  0.00    -0.240 N 
ATOM     18  C   UNL A   1      33.878  22.747  24.358  1.00  0.00     0.293 C 
ATOM     19  C   UNL A   1      33.661  21.825  26.520  1.00  0.00     0.248 C 
ATOM     20  O   UNL A   1      34.351  23.284  23.388  1.00  0.00    -0.261 OA
ATOM     21  S   UNL A   1      32.210  22.179  24.356  1.00  0.00    -0.050 SA
ATOM     22  O   UNL A   1      34.037  21.303  27.566  1.00  0.00    -0.273 OA
BRANCH  17  23
ATOM     23  C   UNL A   1      35.875  22.376  25.669  1.00  0.00     0.056 A 
ATOM     24  C   UNL A   1      38.748  24.706  26.647  1.00  0.00     0.044 C 
ATOM     25  C   UNL A   1      37.974  23.497  26.207  1.00  0.00    -0.049 A 
ATOM     26  C   UNL A   1      38.667  22.335  25.853  1.00  0.00     0.004 A 
ATOM     27  C   UNL A   1      36.573  23.505  26.132  1.00  0.00     0.030 A 
ATOM     28  C   UNL A   1      37.977  21.208  25.405  1.00  0.00     0.006 A 
ATOM     29  C   UNL A   1      36.579  21.216  25.297  1.00  0.00    -0.027 A 
ATOM     30  C   UNL A   1      35.909  19.966  24.799  1.00  0.00     0.046 C 
ENDBRANCH  17  23
ENDBRANCH  15  16
ENDBRANCH  12  15
ENDBRANCH   6  11
BRANCH  10  31
ATOM     31  O   UNL A   1      29.883  27.457  22.823  1.00  0.00    -0.507 OA
ATOM     32  H   UNL A   1      30.364  27.238  22.048  1.00  0.00     0.293 HD
ENDBRANCH  10  31
ENDBRANCH   3   5
ENDBRANCH   2   3
ENDBRANCH   1   2
BRANCH   1  33
ATOM     33  C   UNL A   1      32.876  30.966  27.048  1.00  0.00     0.275 C 
BRANCH  33  34
ATOM     34  O   UNL A   1      33.858  30.813  28.117  1.00  0.00    -0.458 OA
BRANCH  34  35
ATOM     35  C   UNL A   1      34.803  31.741  28.419  1.00  0.00     0.338 C 
ATOM     36  O   UNL A   1      34.518  32.853  28.833  1.00  0.00    -0.246 OA
BRANCH  35  37
ATOM     37  C   UNL A   1      36.205  31.293  28.252  1.00  0.00     0.060 A 
ATOM     38  C   UNL A   1      37.230  31.973  28.923  1.00  0.00     0.016 A 
ATOM     39  C   UNL A   1      36.458  30.073  27.644  1.00  0.00     0.016 A 
ATOM     40  C   UNL A   1      38.435  31.322  29.184  1.00  0.00     0.010 A 
ATOM     41  C   UNL A   1      37.593  29.386  28.015  1.00  0.00     0.010 A 
ATOM     42  C   UNL A   1      38.595  29.993  28.783  1.00  0.00    -0.014 A 
BRANCH  42  43
ATOM     43  C   UNL A   1      39.770  29.212  29.182  1.00  0.00     0.031 A 
ATOM     44  C   UNL A   1      40.019  28.929  30.636  1.00  0.00     0.074 A 
ATOM     45  C   UNL A   1      40.534  28.561  28.279  1.00  0.00     0.049 A 
ATOM     46  N   UNL A   1      41.005  29.352  31.365  1.00  0.00    -0.248 NA
ATOM     47  C   UNL A   1      39.085  28.066  31.368  1.00  0.00     0.031 C 
ATOM     48  C   UNL A   1      40.372  28.454  26.822  1.00  0.00     0.029 A 
ATOM     49  N   UNL A   1      41.600  27.755  28.520  1.00  0.00    -0.354 N 
ATOM     50  C   UNL A   1      40.902  28.716  32.607  1.00  0.00     0.074 A 
ATOM     51  C   UNL A   1      39.645  28.009  32.581  1.00  0.00     0.031 C 
ATOM     52  C   UNL A   1      41.134  27.445  26.352  1.00  0.00     0.029 A 
ATOM     53  C   UNL A   1      42.002  27.012  27.427  1.00  0.00     0.049 A 
ATOM     54  H   UNL A   1      42.046  27.705  29.397  1.00  0.00     0.167 HD
ATOM     55  C   UNL A   1      41.928  28.692  33.510  1.00  0.00     0.031 A 
ATOM     56  C   UNL A   1      43.022  26.134  27.369  1.00  0.00     0.031 A 
ATOM     57  C   UNL A   1      42.979  29.605  33.147  1.00  0.00     0.049 A 
ATOM     58  C   UNL A   1      43.974  26.506  28.436  1.00  0.00     0.074 A 
ATOM     59  C   UNL A   1      43.084  30.972  32.994  1.00  0.00     0.029 A 
ATOM     60  N   UNL A   1      44.086  29.081  32.526  1.00  0.00    -0.354 N 
ATOM     61  N   UNL A   1      44.621  27.639  28.442  1.00  0.00    -0.248 NA
ATOM     62  C   UNL A   1      43.889  25.832  29.719  1.00  0.00     0.031 C 
ATOM     63  C   UNL A   1      43.921  31.136  31.849  1.00  0.00     0.029 A 
ATOM     64  C   UNL A   1      44.315  29.863  31.425  1.00  0.00     0.049 A 
ATOM     65  H   UNL A   1      44.610  28.298  32.813  1.00  0.00     0.167 HD
ATOM     66  C   UNL A   1      44.653  28.028  29.772  1.00  0.00     0.074 A 
ATOM     67  C   UNL A   1      44.293  26.823  30.519  1.00  0.00     0.031 C 
ATOM     68  C   UNL A   1      44.705  29.347  30.130  1.00  0.00     0.031 A 
BRANCH  55  69
ATOM     69  C   UNL A   1      42.170  27.640  34.570  1.00  0.00    -0.014 A 
ATOM     70  C   UNL A   1      42.658  26.374  34.174  1.00  0.00     0.009 A 
ATOM     71  C   UNL A   1      41.699  27.743  35.889  1.00  0.00     0.009 A 
ATOM     72  C   UNL A   1      42.603  25.260  35.024  1.00  0.00     0.001 A 
ATOM     73  C   UNL A   1      41.679  26.640  36.755  1.00  0.00     0.001 A 
ATOM     74  C   UNL A   1      42.104  25.394  36.314  1.00  0.00     0.000 A 
ENDBRANCH  55  69
BRANCH  56  75
ATOM     75  C   UNL A   1      43.065  24.886  26.596  1.00  0.00    -0.014 A 
ATOM     76  C   UNL A   1      44.014  24.682  25.591  1.00  0.00     0.009 A 
ATOM     77  C   UNL A   1      42.294  23.785  27.021  1.00  0.00     0.009 A 
ATOM     78  C   UNL A   1      44.211  23.405  25.050  1.00  0.00     0.001 A 
ATOM     79  C   UNL A   1      42.493  22.511  26.484  1.00  0.00     0.001 A 
ATOM     80  C   UNL A   1      43.463  22.319  25.508  1.00  0.00     0.000 A 
ENDBRANCH  56  75
BRANCH  68  81
ATOM     81  C   UNL A   1      44.887  30.379  29.038  1.00  0.00    -0.014 A 
ATOM     82  C   UNL A   1      46.156  30.793  28.597  1.00  0.00     0.009 A 
ATOM     83  C   UNL A   1      43.768  30.792  28.303  1.00  0.00     0.009 A 
ATOM     84  C   UNL A   1      46.302  31.610  27.470  1.00  0.00     0.001 A 
ATOM     85  C   UNL A   1      43.911  31.594  27.166  1.00  0.00     0.001 A 
ATOM     86  C   UNL A   1      45.178  32.004  26.752  1.00  0.00     0.000 A 
ENDBRANCH  68  81
ENDBRANCH  42  43
ENDBRANCH  35  37
ENDBRANCH  34  35
ENDBRANCH  33  34
ENDBRANCH   1  33
TORSDOF 16
ENDMDL
MODEL 2
REMARK VINA RESULT:     -12.5      2.246      6.320
REMARK SMILES Cc1ccc(C)c(N2C(=O)S[C@H](CC(=O)Nc3ccc(C(=O)OCCOC(=O)c4ccc(-c5c6nc(c(-c7ccccc7)c7ccc([nH]7)c(-c7ccccc7)c7nc(c(-c8ccccc8)c8ccc5[nH]8)C=C7)C=C6)cc4)c(O)c3)C2=O)c1
REMARK SMILES IDX 24 1 23 2 21 3 22 4 20 5 17 6 18 7 79 8 19 9 77 10 16 11
REMARK SMILES IDX 14 12 15 13 13 15 12 16 8 17 9 18 80 19 10 20 11 21 81 22
REMARK SMILES IDX 7 23 1 24 2 25 3 26 82 27 4 28 5 29 6 30 78 31 25 33 26 34
REMARK SMILES IDX 27 35 28 36 29 37 30 38 76 39 31 40 75 41 32 42 33 43 34 44
REMARK SMILES IDX 69 45 35 46 74 47 68 48 70 49 36 50 73 51 67 52 66 53 37 55
REMARK SMILES IDX 59 56 44 57 58 58 45 59 48 60 57 61 71 62 46 63 47 64 56 66
REMARK SMILES IDX 72 67 49 68 38 69 39 70 43 71 40 72 42 73 41 74 60 75 61 76
REMARK SMILES IDX 65 77 62 78 64 79 63 80 50 81 51 82 55 83 52 84 54 85 53 86
REMARK H PARENT 16 14 78 32 70 54 48 65
REMARK Flexibility Score: inf
ROOT
ATOM      1  C   UNL A   1      33.739  31.570  27.802  1.00  0.00     0.275 C 
ENDROOT
BRANCH   1   2
ATOM      2  O   UNL A   1      33.879  30.462  26.913  1.00  0.00    -0.458 OA
BRANCH   2   3
ATOM      3  C   UNL A   1      32.709  29.848  26.621  1.00  0.00     0.342 C 
ATOM      4  O   UNL A   1      31.778  29.623  27.374  1.00  0.00    -0.246 OA
BRANCH   3   5
ATOM      5  C   UNL A   1      32.794  29.294  25.274  1.00  0.00     0.101 A 
ATOM      6  C   UNL A   1      32.841  28.050  22.787  1.00  0.00     0.044 A 
ATOM      7  C   UNL A   1      33.956  28.020  23.623  1.00  0.00     0.027 A 
ATOM      8  C   UNL A   1      31.752  28.848  23.133  1.00  0.00     0.073 A 
ATOM      9  C   UNL A   1      33.926  28.592  24.885  1.00  0.00     0.022 A 
ATOM     10  C   UNL A   1      31.740  29.483  24.376  1.00  0.00     0.132 A 
BRANCH   6  11
ATOM     11  N   UNL A   1      32.837  27.313  21.593  1.00  0.00    -0.326 N 
ATOM     12  C   UNL A   1      32.784  25.942  21.463  1.00  0.00     0.226 C 
ATOM     13  O   UNL A   1      33.145  25.404  20.416  1.00  0.00    -0.275 OA
ATOM     14  H   UNL A   1      32.875  27.832  20.758  1.00  0.00     0.169 HD
BRANCH  12  15
ATOM     15  C   UNL A   1      32.066  25.146  22.548  1.00  0.00     0.125 C 
BRANCH  15  16
ATOM     16  C   UNL A   1      32.920  24.722  23.737  1.00  0.00     0.156 C 
ATOM     17  N   UNL A   1      32.715  22.361  24.127  1.00  0.00    -0.240 N 
ATOM     18  C   UNL A   1      31.835  22.793  25.097  1.00  0.00     0.293 C 
ATOM     19  C   UNL A   1      33.450  23.324  23.459  1.00  0.00     0.248 C 
ATOM     20  O   UNL A   1      31.076  22.164  25.791  1.00  0.00    -0.261 OA
ATOM     21  S   UNL A   1      32.003  24.536  25.290  1.00  0.00    -0.050 SA
ATOM     22  O   UNL A   1      34.398  23.125  22.705  1.00  0.00    -0.273 OA
BRANCH  17  23
ATOM     23  C   UNL A   1      33.080  20.995  24.068  1.00  0.00     0.056 A 
ATOM     24  C   UNL A   1      32.021  17.815  22.224  1.00  0.00     0.044 C 
ATOM     25  C   UNL A   1      32.744  18.769  23.131  1.00  0.00    -0.049 A 
ATOM     26  C   UNL A   1      33.759  18.283  23.962  1.00  0.00     0.004 A 
ATOM     27  C   UNL A   1      32.422  20.133  23.174  1.00  0.00     0.030 A 
ATOM     28  C   UNL A   1      34.423  19.138  24.841  1.00  0.00     0.006 A 
ATOM     29  C   UNL A   1      34.088  20.498  24.914  1.00  0.00    -0.027 A 
ATOM     30  C   UNL A   1      34.844  21.352  25.893  1.00  0.00     0.046 C 
ENDBRANCH  17  23
ENDBRANCH  15  16
ENDBRANCH  12  15
ENDBRANCH   6  11
BRANCH  10  31
ATOM     31  O   UNL A   1      30.660  30.267  24.673  1.00  0.00    -0.507 OA
ATOM     32  H   UNL A   1      30.624  31.151  24.365  1.00  0.00     0.293 HD
ENDBRANCH  10  31
ENDBRANCH   3   5
ENDBRANCH   2   3
ENDBRANCH   1   2
BRANCH   1  33
ATOM     33  C   UNL A   1      35.090  31.964  28.412  1.00  0.00     0.275 C 
BRANCH  33  34
ATOM     34  O   UNL A   1      36.248  31.095  28.225  1.00  0.00    -0.458 OA
BRANCH  34  35
ATOM     35  C   UNL A   1      36.721  30.245  29.173  1.00  0.00     0.338 C 
ATOM     36  O   UNL A   1      36.291  30.233  30.314  1.00  0.00    -0.246 OA
BRANCH  35  37
ATOM     37  C   UNL A   1      37.767  29.303  28.710  1.00  0.00     0.060 A 
ATOM     38  C   UNL A   1      38.414  29.538  27.490  1.00  0.00     0.016 A 
ATOM     39  C   UNL A   1      38.261  28.354  29.592  1.00  0.00     0.016 A 
ATOM     40  C   UNL A   1      39.679  28.995  27.263  1.00  0.00     0.010 A 
ATOM     41  C   UNL A   1      39.560  27.928  29.424  1.00  0.00     0.010 A 
ATOM     42  C   UNL A   1      40.286  28.236  28.266  1.00  0.00    -0.014 A 
BRANCH  42  43
ATOM     43  C   UNL A   1      41.678  27.789  28.148  1.00  0.00     0.031 A 
ATOM     44  C   UNL A   1      41.995  26.531  27.390  1.00  0.00     0.074 A 
ATOM     45  C   UNL A   1      42.713  28.570  28.524  1.00  0.00     0.049 A 
ATOM     46  N   UNL A   1      42.484  25.427  27.862  1.00  0.00    -0.248 NA
ATOM     47  C   UNL A   1      41.765  26.492  25.942  1.00  0.00     0.031 C 
ATOM     48  C   UNL A   1      42.704  29.941  29.056  1.00  0.00     0.029 A 
ATOM     49  N   UNL A   1      44.039  28.304  28.406  1.00  0.00    -0.354 N 
ATOM     50  C   UNL A   1      42.749  24.593  26.770  1.00  0.00     0.074 A 
ATOM     51  C   UNL A   1      42.197  25.267  25.621  1.00  0.00     0.031 C 
ATOM     52  C   UNL A   1      43.942  30.468  28.972  1.00  0.00     0.029 A 
ATOM     53  C   UNL A   1      44.853  29.401  28.616  1.00  0.00     0.049 A 
ATOM     54  H   UNL A   1      44.389  27.410  28.190  1.00  0.00     0.167 HD
ATOM     55  C   UNL A   1      43.539  23.481  26.866  1.00  0.00     0.031 A 
ATOM     56  C   UNL A   1      46.199  29.438  28.565  1.00  0.00     0.031 A 
ATOM     57  C   UNL A   1      43.816  23.141  28.237  1.00  0.00     0.049 A 
ATOM     58  C   UNL A   1      46.680  28.065  28.824  1.00  0.00     0.074 A 
ATOM     59  C   UNL A   1      43.062  22.758  29.327  1.00  0.00     0.029 A 
ATOM     60  N   UNL A   1      45.033  23.521  28.749  1.00  0.00    -0.354 N 
ATOM     61  N   UNL A   1      46.491  27.452  29.959  1.00  0.00    -0.248 NA
ATOM     62  C   UNL A   1      46.982  27.204  27.694  1.00  0.00     0.031 C 
ATOM     63  C   UNL A   1      43.661  23.440  30.429  1.00  0.00     0.029 A 
ATOM     64  C   UNL A   1      44.771  24.138  29.943  1.00  0.00     0.049 A 
ATOM     65  H   UNL A   1      45.917  23.379  28.339  1.00  0.00     0.167 HD
ATOM     66  C   UNL A   1      46.227  26.135  29.617  1.00  0.00     0.074 A 
ATOM     67  C   UNL A   1      46.660  26.020  28.224  1.00  0.00     0.031 C 
ATOM     68  C   UNL A   1      45.443  25.336  30.402  1.00  0.00     0.031 A 
BRANCH  55  69
ATOM     69  C   UNL A   1      44.339  22.845  25.751  1.00  0.00    -0.014 A 
ATOM     70  C   UNL A   1      44.148  21.473  25.473  1.00  0.00     0.009 A 
ATOM     71  C   UNL A   1      45.448  23.456  25.145  1.00  0.00     0.009 A 
ATOM     72  C   UNL A   1      45.057  20.741  24.697  1.00  0.00     0.001 A 
ATOM     73  C   UNL A   1      46.338  22.736  24.336  1.00  0.00     0.001 A 
ATOM     74  C   UNL A   1      46.159  21.373  24.135  1.00  0.00     0.000 A 
ENDBRANCH  55  69
BRANCH  56  75
ATOM     75  C   UNL A   1      47.029  30.547  28.078  1.00  0.00    -0.014 A 
ATOM     76  C   UNL A   1      46.636  31.329  26.987  1.00  0.00     0.009 A 
ATOM     77  C   UNL A   1      48.122  30.984  28.853  1.00  0.00     0.009 A 
ATOM     78  C   UNL A   1      47.296  32.530  26.702  1.00  0.00     0.001 A 
ATOM     79  C   UNL A   1      48.777  32.184  28.570  1.00  0.00     0.001 A 
ATOM     80  C   UNL A   1      48.354  32.964  27.501  1.00  0.00     0.000 A 
ENDBRANCH  56  75
BRANCH  68  81
ATOM     81  C   UNL A   1      44.990  25.872  31.743  1.00  0.00    -0.014 A 
ATOM     82  C   UNL A   1      43.890  26.739  31.875  1.00  0.00     0.009 A 
ATOM     83  C   UNL A   1      45.550  25.339  32.911  1.00  0.00     0.009 A 
ATOM     84  C   UNL A   1      43.381  27.078  33.133  1.00  0.00     0.001 A 
ATOM     85  C   UNL A   1      45.032  25.661  34.169  1.00  0.00     0.001 A 
ATOM     86  C   UNL A   1      43.950  26.533  34.280  1.00  0.00     0.000 A 
ENDBRANCH  68  81
ENDBRANCH  42  43
ENDBRANCH  35  37
ENDBRANCH  34  35
ENDBRANCH  33  34
ENDBRANCH   1  33
TORSDOF 16
ENDMDL
MODEL 3
REMARK VINA RESULT:     -12.4      3.103      8.721
REMARK SMILES Cc1ccc(C)c(N2C(=O)S[C@H](CC(=O)Nc3ccc(C(=O)OCCOC(=O)c4ccc(-c5c6nc(c(-c7ccccc7)c7ccc([nH]7)c(-c7ccccc7)c7nc(c(-c8ccccc8)c8ccc5[nH]8)C=C7)C=C6)cc4)c(O)c3)C2=O)c1
REMARK SMILES IDX 24 1 23 2 21 3 22 4 20 5 17 6 18 7 79 8 19 9 77 10 16 11
REMARK SMILES IDX 14 12 15 13 13 15 12 16 8 17 9 18 80 19 10 20 11 21 81 22
REMARK SMILES IDX 7 23 1 24 2 25 3 26 82 27 4 28 5 29 6 30 78 31 25 33 26 34
REMARK SMILES IDX 27 35 28 36 29 37 30 38 76 39 31 40 75 41 32 42 33 43 34 44
REMARK SMILES IDX 69 45 35 46 74 47 68 48 70 49 36 50 73 51 67 52 66 53 37 55
REMARK SMILES IDX 59 56 44 57 58 58 45 59 48 60 57 61 71 62 46 63 47 64 56 66
REMARK SMILES IDX 72 67 49 68 38 69 39 70 43 71 40 72 42 73 41 74 60 75 61 76
REMARK SMILES IDX 65 77 62 78 64 79 63 80 50 81 51 82 55 83 52 84 54 85 53 86
REMARK H PARENT 16 14 78 32 70 54 48 65
REMARK Flexibility Score: inf
ROOT
ATOM      1  C   UNL A   1      42.468  20.284  26.445  1.00  0.00     0.275 C 
ENDROOT
BRANCH   1   2
ATOM      2  O   UNL A   1      41.343  20.827  25.754  1.00  0.00    -0.458 OA
BRANCH   2   3
ATOM      3  C   UNL A   1      40.333  21.207  26.572  1.00  0.00     0.342 C 
ATOM      4  O   UNL A   1      40.419  21.651  27.702  1.00  0.00    -0.246 OA
BRANCH   3   5
ATOM      5  C   UNL A   1      39.066  20.815  25.963  1.00  0.00     0.101 A 
ATOM      6  C   UNL A   1      36.571  20.025  25.024  1.00  0.00     0.044 A 
ATOM      7  C   UNL A   1      37.654  19.149  24.998  1.00  0.00     0.027 A 
ATOM      8  C   UNL A   1      36.780  21.359  25.372  1.00  0.00     0.073 A 
ATOM      9  C   UNL A   1      38.889  19.515  25.512  1.00  0.00     0.022 A 
ATOM     10  C   UNL A   1      38.039  21.753  25.829  1.00  0.00     0.132 A 
BRANCH   6  11
ATOM     11  N   UNL A   1      35.292  19.574  24.663  1.00  0.00    -0.326 N 
ATOM     12  C   UNL A   1      34.086  20.181  24.945  1.00  0.00     0.226 C 
ATOM     13  O   UNL A   1      33.041  19.533  24.904  1.00  0.00    -0.275 OA
ATOM     14  H   UNL A   1      35.251  18.732  24.155  1.00  0.00     0.169 HD
BRANCH  12  15
ATOM     15  C   UNL A   1      34.064  21.699  25.083  1.00  0.00     0.125 C 
BRANCH  15  16
ATOM     16  C   UNL A   1      33.721  22.478  23.819  1.00  0.00     0.156 C 
ATOM     17  N   UNL A   1      33.204  24.764  24.344  1.00  0.00    -0.240 N 
ATOM     18  C   UNL A   1      31.911  24.294  24.234  1.00  0.00     0.293 C 
ATOM     19  C   UNL A   1      34.226  23.901  23.992  1.00  0.00     0.248 C 
ATOM     20  O   UNL A   1      30.866  24.833  24.497  1.00  0.00    -0.261 OA
ATOM     21  S   UNL A   1      31.944  22.682  23.522  1.00  0.00    -0.050 SA
ATOM     22  O   UNL A   1      35.410  24.193  23.853  1.00  0.00    -0.273 OA
BRANCH  17  23
ATOM     23  C   UNL A   1      33.437  26.151  24.486  1.00  0.00     0.056 A 
ATOM     24  C   UNL A   1      34.056  28.690  27.280  1.00  0.00     0.044 C 
ATOM     25  C   UNL A   1      33.862  28.075  25.924  1.00  0.00    -0.049 A 
ATOM     26  C   UNL A   1      33.863  28.899  24.795  1.00  0.00     0.004 A 
ATOM     27  C   UNL A   1      33.667  26.695  25.761  1.00  0.00     0.030 A 
ATOM     28  C   UNL A   1      33.648  28.362  23.526  1.00  0.00     0.006 A 
ATOM     29  C   UNL A   1      33.423  26.988  23.355  1.00  0.00    -0.027 A 
ATOM     30  C   UNL A   1      33.190  26.486  21.957  1.00  0.00     0.046 C 
ENDBRANCH  17  23
ENDBRANCH  15  16
ENDBRANCH  12  15
ENDBRANCH   6  11
BRANCH  10  31
ATOM     31  O   UNL A   1      38.208  23.071  26.150  1.00  0.00    -0.507 OA
ATOM     32  H   UNL A   1      38.115  23.730  25.489  1.00  0.00     0.293 HD
ENDBRANCH  10  31
ENDBRANCH   3   5
ENDBRANCH   2   3
ENDBRANCH   1   2
BRANCH   1  33
ATOM     33  C   UNL A   1      43.059  19.089  25.689  1.00  0.00     0.275 C 
BRANCH  33  34
ATOM     34  O   UNL A   1      43.526  19.261  24.316  1.00  0.00    -0.458 OA
BRANCH  34  35
ATOM     35  C   UNL A   1      44.787  19.640  23.984  1.00  0.00     0.338 C 
ATOM     36  O   UNL A   1      45.571  18.888  23.431  1.00  0.00    -0.246 OA
BRANCH  35  37
ATOM     37  C   UNL A   1      45.128  21.046  24.303  1.00  0.00     0.060 A 
ATOM     38  C   UNL A   1      44.389  22.083  23.719  1.00  0.00     0.016 A 
ATOM     39  C   UNL A   1      45.997  21.311  25.351  1.00  0.00     0.016 A 
ATOM     40  C   UNL A   1      44.344  23.333  24.337  1.00  0.00     0.010 A 
ATOM     41  C   UNL A   1      45.849  22.500  26.031  1.00  0.00     0.010 A 
ATOM     42  C   UNL A   1      45.029  23.524  25.540  1.00  0.00    -0.014 A 
BRANCH  42  43
ATOM     43  C   UNL A   1      44.876  24.759  26.317  1.00  0.00     0.031 A 
ATOM     44  C   UNL A   1      45.910  25.843  26.205  1.00  0.00     0.074 A 
ATOM     45  C   UNL A   1      43.736  25.048  26.981  1.00  0.00     0.049 A 
ATOM     46  N   UNL A   1      46.713  26.267  27.129  1.00  0.00    -0.248 NA
ATOM     47  C   UNL A   1      46.063  26.557  24.932  1.00  0.00     0.031 C 
ATOM     48  C   UNL A   1      42.478  24.291  27.050  1.00  0.00     0.029 A 
ATOM     49  N   UNL A   1      43.444  26.177  27.675  1.00  0.00    -0.354 N 
ATOM     50  C   UNL A   1      47.386  27.380  26.614  1.00  0.00     0.074 A 
ATOM     51  C   UNL A   1      47.012  27.452  25.222  1.00  0.00     0.031 C 
ATOM     52  C   UNL A   1      41.495  25.085  27.523  1.00  0.00     0.029 A 
ATOM     53  C   UNL A   1      42.109  26.304  28.006  1.00  0.00     0.049 A 
ATOM     54  H   UNL A   1      44.124  26.846  27.921  1.00  0.00     0.167 HD
ATOM     55  C   UNL A   1      48.081  28.253  27.404  1.00  0.00     0.031 A 
ATOM     56  C   UNL A   1      41.530  27.312  28.688  1.00  0.00     0.031 A 
ATOM     57  C   UNL A   1      48.257  27.740  28.737  1.00  0.00     0.049 A 
ATOM     58  C   UNL A   1      42.586  27.943  29.506  1.00  0.00     0.074 A 
ATOM     59  C   UNL A   1      48.895  26.652  29.297  1.00  0.00     0.029 A 
ATOM     60  N   UNL A   1      47.408  28.207  29.711  1.00  0.00    -0.354 N 
ATOM     61  N   UNL A   1      43.204  27.314  30.468  1.00  0.00    -0.248 NA
ATOM     62  C   UNL A   1      43.269  29.114  28.988  1.00  0.00     0.031 C 
ATOM     63  C   UNL A   1      48.011  26.216  30.330  1.00  0.00     0.029 A 
ATOM     64  C   UNL A   1      46.930  27.103  30.366  1.00  0.00     0.049 A 
ATOM     65  H   UNL A   1      47.187  29.148  29.901  1.00  0.00     0.167 HD
ATOM     66  C   UNL A   1      44.521  27.741  30.388  1.00  0.00     0.074 A 
ATOM     67  C   UNL A   1      44.473  28.932  29.538  1.00  0.00     0.031 C 
ATOM     68  C   UNL A   1      45.556  26.944  30.792  1.00  0.00     0.031 A 
BRANCH  55  69
ATOM     69  C   UNL A   1      48.357  29.711  27.110  1.00  0.00    -0.014 A 
ATOM     70  C   UNL A   1      49.686  30.182  27.193  1.00  0.00     0.009 A 
ATOM     71  C   UNL A   1      47.353  30.687  27.017  1.00  0.00     0.009 A 
ATOM     72  C   UNL A   1      49.984  31.551  27.257  1.00  0.00     0.001 A 
ATOM     73  C   UNL A   1      47.650  32.057  27.040  1.00  0.00     0.001 A 
ATOM     74  C   UNL A   1      48.962  32.488  27.189  1.00  0.00     0.000 A 
ENDBRANCH  55  69
BRANCH  56  75
ATOM     75  C   UNL A   1      40.188  27.866  28.466  1.00  0.00    -0.014 A 
ATOM     76  C   UNL A   1      39.211  27.834  29.465  1.00  0.00     0.009 A 
ATOM     77  C   UNL A   1      39.946  28.650  27.320  1.00  0.00     0.009 A 
ATOM     78  C   UNL A   1      38.039  28.591  29.335  1.00  0.00     0.001 A 
ATOM     79  C   UNL A   1      38.780  29.407  27.193  1.00  0.00     0.001 A 
ATOM     80  C   UNL A   1      37.832  29.388  28.209  1.00  0.00     0.000 A 
ENDBRANCH  56  75
BRANCH  68  81
ATOM     81  C   UNL A   1      45.227  25.638  31.481  1.00  0.00    -0.014 A 
ATOM     82  C   UNL A   1      45.288  25.486  32.878  1.00  0.00     0.009 A 
ATOM     83  C   UNL A   1      44.654  24.601  30.732  1.00  0.00     0.009 A 
ATOM     84  C   UNL A   1      44.810  24.329  33.503  1.00  0.00     0.001 A 
ATOM     85  C   UNL A   1      44.159  23.452  31.355  1.00  0.00     0.001 A 
ATOM     86  C   UNL A   1      44.240  23.315  32.741  1.00  0.00     0.000 A 
ENDBRANCH  68  81
ENDBRANCH  42  43
ENDBRANCH  35  37
ENDBRANCH  34  35
ENDBRANCH  33  34
ENDBRANCH   1  33
TORSDOF 16
ENDMDL
