MODEL 1
REMARK VINA RESULT:     -11.5      0.000      0.000
REMARK SMILES COc1ccc(C(=O)N(C)C)cc1NC(=O)[C@H]1[C@@H](C(=O)OCCOC(=O)c2ccc(-c3c4nc(c(-c5ccccc5)c5ccc([nH]5)c(-c5ccccc5)c5nc(c(-c6ccccc6)c6ccc3[nH]6)C=C5)C=C4)cc2)[C@H]2C=C[C@@H]1C2
REMARK SMILES IDX 22 1 21 2 19 3 20 4 18 5 17 6 78 7 75 8 77 9 79 10 76 11
REMARK SMILES IDX 15 12 14 13 16 15 13 16 3 17 4 18 5 19 12 20 6 21 2 22 1 23
REMARK SMILES IDX 7 24 8 25 9 26 10 27 11 28 23 29 24 30 25 31 26 32 27 33
REMARK SMILES IDX 28 34 74 35 29 36 73 37 30 38 31 39 32 40 67 41 33 42 72 43
REMARK SMILES IDX 66 44 68 45 34 46 71 47 65 48 64 49 35 51 57 52 42 53 56 54
REMARK SMILES IDX 43 55 46 56 55 57 69 58 44 59 45 60 54 62 70 63 47 64 36 65
REMARK SMILES IDX 37 66 41 67 38 68 40 69 39 70 58 71 59 72 63 73 60 74 62 75
REMARK SMILES IDX 61 76 48 77 49 78 53 79 50 80 52 81 51 82
REMARK H PARENT 14 14 68 50 46 61
REMARK Flexibility Score: inf
ROOT
ATOM      1  C   UNL A   1      35.509  21.562  26.049  1.00  0.00     0.274 C 
ENDROOT
BRANCH   1   2
ATOM      2  O   UNL A   1      34.523  22.250  25.255  1.00  0.00    -0.462 OA
BRANCH   2   3
ATOM      3  C   UNL A   1      34.742  23.566  25.068  1.00  0.00     0.310 C 
ATOM      4  O   UNL A   1      35.454  24.268  25.782  1.00  0.00    -0.252 OA
BRANCH   3   5
ATOM      5  C   UNL A   1      34.045  24.165  23.879  1.00  0.00     0.119 C 
ATOM      6  C   UNL A   1      32.869  25.145  24.135  1.00  0.00     0.100 C 
ATOM      7  C   UNL A   1      31.906  24.808  22.959  1.00  0.00     0.025 C 
ATOM      8  C   UNL A   1      33.547  23.302  22.704  1.00  0.00     0.027 C 
ATOM      9  C   UNL A   1      31.308  23.438  23.182  1.00  0.00    -0.027 C 
ATOM     10  C   UNL A   1      32.894  24.412  21.854  1.00  0.00     0.017 C 
ATOM     11  C   UNL A   1      32.300  22.543  23.062  1.00  0.00    -0.027 C 
BRANCH   6  12
ATOM     12  C   UNL A   1      32.140  25.117  25.468  1.00  0.00     0.229 C 
ATOM     13  N   UNL A   1      31.348  26.146  25.883  1.00  0.00    -0.323 N 
ATOM     14  H   UNL A   1      30.790  25.909  26.658  1.00  0.00     0.170 HD
ATOM     15  O   UNL A   1      32.224  24.158  26.240  1.00  0.00    -0.274 OA
BRANCH  13  16
ATOM     16  C   UNL A   1      31.149  27.470  25.451  1.00  0.00     0.084 A 
ATOM     17  C   UNL A   1      31.815  28.471  26.183  1.00  0.00     0.142 A 
ATOM     18  C   UNL A   1      31.797  29.804  25.770  1.00  0.00     0.049 A 
ATOM     19  C   UNL A   1      31.143  30.148  24.588  1.00  0.00     0.018 A 
ATOM     20  C   UNL A   1      30.392  27.855  24.348  1.00  0.00     0.044 A 
ATOM     21  C   UNL A   1      30.453  29.169  23.865  1.00  0.00     0.042 A 
BRANCH  17  22
ATOM     22  O   UNL A   1      32.444  28.162  27.365  1.00  0.00    -0.495 OA
ATOM     23  C   UNL A   1      33.784  28.659  27.397  1.00  0.00     0.278 C 
ENDBRANCH  17  22
BRANCH  21  24
ATOM     24  C   UNL A   1      29.713  29.562  22.637  1.00  0.00     0.253 C 
ATOM     25  O   UNL A   1      29.919  28.896  21.624  1.00  0.00    -0.269 OA
ATOM     26  N   UNL A   1      28.838  30.651  22.666  1.00  0.00    -0.345 N 
ATOM     27  C   UNL A   1      28.304  31.291  23.860  1.00  0.00     0.146 C 
ATOM     28  C   UNL A   1      28.294  31.128  21.405  1.00  0.00     0.146 C 
ENDBRANCH  21  24
ENDBRANCH  13  16
ENDBRANCH   6  12
ENDBRANCH   3   5
ENDBRANCH   2   3
ENDBRANCH   1   2
BRANCH   1  29
ATOM     29  C   UNL A   1      36.422  20.753  25.138  1.00  0.00     0.275 C 
BRANCH  29  30
ATOM     30  O   UNL A   1      37.643  21.478  24.908  1.00  0.00    -0.458 OA
BRANCH  30  31
ATOM     31  C   UNL A   1      38.666  21.134  25.722  1.00  0.00     0.338 C 
ATOM     32  O   UNL A   1      39.086  20.015  25.972  1.00  0.00    -0.246 OA
BRANCH  31  33
ATOM     33  C   UNL A   1      39.249  22.339  26.319  1.00  0.00     0.060 A 
ATOM     34  C   UNL A   1      38.726  23.597  26.019  1.00  0.00     0.016 A 
ATOM     35  C   UNL A   1      40.417  22.213  27.069  1.00  0.00     0.016 A 
ATOM     36  C   UNL A   1      39.425  24.742  26.396  1.00  0.00     0.010 A 
ATOM     37  C   UNL A   1      41.065  23.361  27.524  1.00  0.00     0.010 A 
ATOM     38  C   UNL A   1      40.596  24.636  27.162  1.00  0.00    -0.014 A 
BRANCH  38  39
ATOM     39  C   UNL A   1      41.347  25.842  27.591  1.00  0.00     0.031 A 
ATOM     40  C   UNL A   1      40.699  26.854  28.496  1.00  0.00     0.074 A 
ATOM     41  C   UNL A   1      42.593  26.057  27.131  1.00  0.00     0.049 A 
ATOM     42  N   UNL A   1      41.097  28.063  28.802  1.00  0.00    -0.248 NA
ATOM     43  C   UNL A   1      39.429  26.459  29.124  1.00  0.00     0.031 C 
ATOM     44  C   UNL A   1      43.351  25.145  26.272  1.00  0.00     0.029 A 
ATOM     45  N   UNL A   1      43.434  27.126  27.308  1.00  0.00    -0.354 N 
ATOM     46  C   UNL A   1      40.103  28.592  29.616  1.00  0.00     0.074 A 
ATOM     47  C   UNL A   1      39.085  27.573  29.757  1.00  0.00     0.031 C 
ATOM     48  C   UNL A   1      44.546  25.689  26.003  1.00  0.00     0.029 A 
ATOM     49  C   UNL A   1      44.609  27.015  26.606  1.00  0.00     0.049 A 
ATOM     50  H   UNL A   1      43.217  27.896  27.881  1.00  0.00     0.167 HD
ATOM     51  C   UNL A   1      40.042  29.820  30.186  1.00  0.00     0.031 A 
ATOM     52  C   UNL A   1      45.605  27.899  26.421  1.00  0.00     0.031 A 
ATOM     53  C   UNL A   1      41.064  30.825  30.062  1.00  0.00     0.049 A 
ATOM     54  C   UNL A   1      45.506  29.262  27.036  1.00  0.00     0.074 A 
ATOM     55  C   UNL A   1      41.101  32.094  30.613  1.00  0.00     0.029 A 
ATOM     56  N   UNL A   1      42.236  30.668  29.338  1.00  0.00    -0.354 N 
ATOM     57  N   UNL A   1      44.544  29.764  27.771  1.00  0.00    -0.248 NA
ATOM     58  C   UNL A   1      46.622  30.184  26.784  1.00  0.00     0.031 C 
ATOM     59  C   UNL A   1      42.283  32.718  30.195  1.00  0.00     0.029 A 
ATOM     60  C   UNL A   1      42.998  31.822  29.417  1.00  0.00     0.049 A 
ATOM     61  H   UNL A   1      42.490  29.857  28.841  1.00  0.00     0.167 HD
ATOM     62  C   UNL A   1      44.937  31.061  28.071  1.00  0.00     0.074 A 
ATOM     63  C   UNL A   1      46.235  31.259  27.458  1.00  0.00     0.031 C 
ATOM     64  C   UNL A   1      44.279  32.004  28.787  1.00  0.00     0.031 A 
BRANCH  51  65
ATOM     65  C   UNL A   1      38.798  30.155  30.960  1.00  0.00    -0.014 A 
ATOM     66  C   UNL A   1      38.704  29.908  32.338  1.00  0.00     0.009 A 
ATOM     67  C   UNL A   1      37.707  30.739  30.297  1.00  0.00     0.009 A 
ATOM     68  C   UNL A   1      37.525  30.205  33.028  1.00  0.00     0.001 A 
ATOM     69  C   UNL A   1      36.540  31.054  30.994  1.00  0.00     0.001 A 
ATOM     70  C   UNL A   1      36.446  30.778  32.357  1.00  0.00     0.000 A 
ENDBRANCH  51  65
BRANCH  52  71
ATOM     71  C   UNL A   1      46.758  27.524  25.565  1.00  0.00    -0.014 A 
ATOM     72  C   UNL A   1      47.826  26.784  26.092  1.00  0.00     0.009 A 
ATOM     73  C   UNL A   1      46.768  27.861  24.202  1.00  0.00     0.009 A 
ATOM     74  C   UNL A   1      48.886  26.393  25.270  1.00  0.00     0.001 A 
ATOM     75  C   UNL A   1      47.816  27.448  23.378  1.00  0.00     0.001 A 
ATOM     76  C   UNL A   1      48.875  26.719  23.914  1.00  0.00     0.000 A 
ENDBRANCH  52  71
BRANCH  64  77
ATOM     77  C   UNL A   1      44.965  33.329  28.951  1.00  0.00    -0.014 A 
ATOM     78  C   UNL A   1      45.851  33.554  30.015  1.00  0.00     0.009 A 
ATOM     79  C   UNL A   1      44.738  34.352  28.019  1.00  0.00     0.009 A 
ATOM     80  C   UNL A   1      46.478  34.793  30.156  1.00  0.00     0.001 A 
ATOM     81  C   UNL A   1      45.382  35.582  28.152  1.00  0.00     0.001 A 
ATOM     82  C   UNL A   1      46.246  35.805  29.224  1.00  0.00     0.000 A 
ENDBRANCH  64  77
ENDBRANCH  38  39
ENDBRANCH  31  33
ENDBRANCH  30  31
ENDBRANCH  29  30
ENDBRANCH   1  29
TORSDOF 15
ENDMDL
MODEL 2
REMARK VINA RESULT:     -11.2      2.799      6.112
REMARK SMILES COc1ccc(C(=O)N(C)C)cc1NC(=O)[C@H]1[C@@H](C(=O)OCCOC(=O)c2ccc(-c3c4nc(c(-c5ccccc5)c5ccc([nH]5)c(-c5ccccc5)c5nc(c(-c6ccccc6)c6ccc3[nH]6)C=C5)C=C4)cc2)[C@H]2C=C[C@@H]1C2
REMARK SMILES IDX 22 1 21 2 19 3 20 4 18 5 17 6 78 7 75 8 77 9 79 10 76 11
REMARK SMILES IDX 15 12 14 13 16 15 13 16 3 17 4 18 5 19 12 20 6 21 2 22 1 23
REMARK SMILES IDX 7 24 8 25 9 26 10 27 11 28 23 29 24 30 25 31 26 32 27 33
REMARK SMILES IDX 28 34 74 35 29 36 73 37 30 38 31 39 32 40 67 41 33 42 72 43
REMARK SMILES IDX 66 44 68 45 34 46 71 47 65 48 64 49 35 51 57 52 42 53 56 54
REMARK SMILES IDX 43 55 46 56 55 57 69 58 44 59 45 60 54 62 70 63 47 64 36 65
REMARK SMILES IDX 37 66 41 67 38 68 40 69 39 70 58 71 59 72 63 73 60 74 62 75
REMARK SMILES IDX 61 76 48 77 49 78 53 79 50 80 52 81 51 82
REMARK H PARENT 14 14 68 50 46 61
REMARK Flexibility Score: inf
ROOT
ATOM      1  C   UNL A   1      36.108  21.881  25.781  1.00  0.00     0.274 C 
ENDROOT
BRANCH   1   2
ATOM      2  O   UNL A   1      35.254  22.383  24.736  1.00  0.00    -0.462 OA
BRANCH   2   3
ATOM      3  C   UNL A   1      35.066  23.717  24.730  1.00  0.00     0.310 C 
ATOM      4  O   UNL A   1      35.537  24.496  25.555  1.00  0.00    -0.252 OA
BRANCH   3   5
ATOM      5  C   UNL A   1      34.216  24.236  23.604  1.00  0.00     0.119 C 
ATOM      6  C   UNL A   1      33.004  25.138  23.956  1.00  0.00     0.100 C 
ATOM      7  C   UNL A   1      31.959  24.706  22.887  1.00  0.00     0.025 C 
ATOM      8  C   UNL A   1      33.670  23.310  22.500  1.00  0.00     0.027 C 
ATOM      9  C   UNL A   1      31.484  23.304  23.194  1.00  0.00    -0.027 C 
ATOM     10  C   UNL A   1      32.861  24.350  21.698  1.00  0.00     0.017 C 
ATOM     11  C   UNL A   1      32.521  22.477  22.993  1.00  0.00    -0.027 C 
BRANCH   6  12
ATOM     12  C   UNL A   1      32.412  25.095  25.354  1.00  0.00     0.229 C 
ATOM     13  N   UNL A   1      31.640  26.105  25.846  1.00  0.00    -0.323 N 
ATOM     14  H   UNL A   1      31.167  25.856  26.672  1.00  0.00     0.170 HD
ATOM     15  O   UNL A   1      32.594  24.140  26.113  1.00  0.00    -0.274 OA
BRANCH  13  16
ATOM     16  C   UNL A   1      31.367  27.423  25.437  1.00  0.00     0.084 A 
ATOM     17  C   UNL A   1      31.986  28.447  26.178  1.00  0.00     0.142 A 
ATOM     18  C   UNL A   1      31.893  29.783  25.787  1.00  0.00     0.049 A 
ATOM     19  C   UNL A   1      31.211  30.110  24.617  1.00  0.00     0.018 A 
ATOM     20  C   UNL A   1      30.580  27.785  24.347  1.00  0.00     0.044 A 
ATOM     21  C   UNL A   1      30.566  29.107  23.884  1.00  0.00     0.042 A 
BRANCH  17  22
ATOM     22  O   UNL A   1      32.642  28.154  27.350  1.00  0.00    -0.495 OA
ATOM     23  C   UNL A   1      33.899  28.827  27.435  1.00  0.00     0.278 C 
ENDBRANCH  17  22
BRANCH  21  24
ATOM     24  C   UNL A   1      29.795  29.479  22.669  1.00  0.00     0.253 C 
ATOM     25  O   UNL A   1      29.953  28.779  21.671  1.00  0.00    -0.269 OA
ATOM     26  N   UNL A   1      28.945  30.588  22.693  1.00  0.00    -0.345 N 
ATOM     27  C   UNL A   1      28.465  31.276  23.883  1.00  0.00     0.146 C 
ATOM     28  C   UNL A   1      28.370  31.039  21.436  1.00  0.00     0.146 C 
ENDBRANCH  21  24
ENDBRANCH  13  16
ENDBRANCH   6  12
ENDBRANCH   3   5
ENDBRANCH   2   3
ENDBRANCH   1   2
BRANCH   1  29
ATOM     29  C   UNL A   1      37.507  21.646  25.228  1.00  0.00     0.275 C 
BRANCH  29  30
ATOM     30  O   UNL A   1      38.286  22.848  25.356  1.00  0.00    -0.458 OA
BRANCH  30  31
ATOM     31  C   UNL A   1      39.196  22.828  26.355  1.00  0.00     0.338 C 
ATOM     32  O   UNL A   1      39.794  21.865  26.810  1.00  0.00    -0.246 OA
BRANCH  31  33
ATOM     33  C   UNL A   1      39.389  24.185  26.876  1.00  0.00     0.060 A 
ATOM     34  C   UNL A   1      40.054  25.143  26.110  1.00  0.00     0.016 A 
ATOM     35  C   UNL A   1      39.030  24.450  28.196  1.00  0.00     0.016 A 
ATOM     36  C   UNL A   1      40.442  26.346  26.698  1.00  0.00     0.010 A 
ATOM     37  C   UNL A   1      39.338  25.691  28.753  1.00  0.00     0.010 A 
ATOM     38  C   UNL A   1      40.078  26.637  28.022  1.00  0.00    -0.014 A 
BRANCH  38  39
ATOM     39  C   UNL A   1      40.464  27.919  28.662  1.00  0.00     0.031 A 
ATOM     40  C   UNL A   1      41.823  28.075  29.286  1.00  0.00     0.074 A 
ATOM     41  C   UNL A   1      39.577  28.930  28.728  1.00  0.00     0.049 A 
ATOM     42  N   UNL A   1      42.266  29.020  30.075  1.00  0.00    -0.248 NA
ATOM     43  C   UNL A   1      42.807  27.020  28.996  1.00  0.00     0.031 C 
ATOM     44  C   UNL A   1      38.236  28.924  28.140  1.00  0.00     0.029 A 
ATOM     45  N   UNL A   1      39.668  30.154  29.342  1.00  0.00    -0.354 N 
ATOM     46  C   UNL A   1      43.560  28.649  30.419  1.00  0.00     0.074 A 
ATOM     47  C   UNL A   1      43.831  27.394  29.751  1.00  0.00     0.031 C 
ATOM     48  C   UNL A   1      37.633  30.089  28.415  1.00  0.00     0.029 A 
ATOM     49  C   UNL A   1      38.512  30.891  29.258  1.00  0.00     0.049 A 
ATOM     50  H   UNL A   1      40.481  30.471  29.797  1.00  0.00     0.167 HD
ATOM     51  C   UNL A   1      44.439  29.293  31.225  1.00  0.00     0.031 A 
ATOM     52  C   UNL A   1      38.173  32.056  29.836  1.00  0.00     0.031 A 
ATOM     53  C   UNL A   1      44.176  30.551  31.873  1.00  0.00     0.049 A 
ATOM     54  C   UNL A   1      39.148  32.738  30.748  1.00  0.00     0.074 A 
ATOM     55  C   UNL A   1      45.006  31.290  32.697  1.00  0.00     0.029 A 
ATOM     56  N   UNL A   1      42.990  31.259  31.760  1.00  0.00    -0.354 N 
ATOM     57  N   UNL A   1      40.353  32.359  31.095  1.00  0.00    -0.248 NA
ATOM     58  C   UNL A   1      38.710  34.001  31.357  1.00  0.00     0.031 C 
ATOM     59  C   UNL A   1      44.309  32.432  33.110  1.00  0.00     0.029 A 
ATOM     60  C   UNL A   1      43.059  32.421  32.511  1.00  0.00     0.049 A 
ATOM     61  H   UNL A   1      42.211  30.979  31.226  1.00  0.00     0.167 HD
ATOM     62  C   UNL A   1      40.820  33.335  31.964  1.00  0.00     0.074 A 
ATOM     63  C   UNL A   1      39.777  34.335  32.071  1.00  0.00     0.031 C 
ATOM     64  C   UNL A   1      42.006  33.395  32.617  1.00  0.00     0.031 A 
BRANCH  51  65
ATOM     65  C   UNL A   1      45.753  28.615  31.486  1.00  0.00    -0.014 A 
ATOM     66  C   UNL A   1      46.877  28.860  30.681  1.00  0.00     0.009 A 
ATOM     67  C   UNL A   1      45.870  27.723  32.564  1.00  0.00     0.009 A 
ATOM     68  C   UNL A   1      48.081  28.195  30.930  1.00  0.00     0.001 A 
ATOM     69  C   UNL A   1      47.081  27.077  32.822  1.00  0.00     0.001 A 
ATOM     70  C   UNL A   1      48.182  27.306  31.999  1.00  0.00     0.000 A 
ENDBRANCH  51  65
BRANCH  52  71
ATOM     71  C   UNL A   1      36.818  32.615  29.602  1.00  0.00    -0.014 A 
ATOM     72  C   UNL A   1      35.776  32.355  30.502  1.00  0.00     0.009 A 
ATOM     73  C   UNL A   1      36.579  33.454  28.502  1.00  0.00     0.009 A 
ATOM     74  C   UNL A   1      34.515  32.922  30.302  1.00  0.00     0.001 A 
ATOM     75  C   UNL A   1      35.325  34.039  28.318  1.00  0.00     0.001 A 
ATOM     76  C   UNL A   1      34.294  33.769  29.215  1.00  0.00     0.000 A 
ENDBRANCH  52  71
BRANCH  64  77
ATOM     77  C   UNL A   1      42.234  34.590  33.495  1.00  0.00    -0.014 A 
ATOM     78  C   UNL A   1      41.909  34.555  34.859  1.00  0.00     0.009 A 
ATOM     79  C   UNL A   1      42.800  35.755  32.954  1.00  0.00     0.009 A 
ATOM     80  C   UNL A   1      42.124  35.677  35.661  1.00  0.00     0.001 A 
ATOM     81  C   UNL A   1      43.031  36.867  33.763  1.00  0.00     0.001 A 
ATOM     82  C   UNL A   1      42.686  36.830  35.114  1.00  0.00     0.000 A 
ENDBRANCH  64  77
ENDBRANCH  38  39
ENDBRANCH  31  33
ENDBRANCH  30  31
ENDBRANCH  29  30
ENDBRANCH   1  29
TORSDOF 15
ENDMDL
MODEL 3
REMARK VINA RESULT:     -11.1      2.407      7.487
REMARK SMILES COc1ccc(C(=O)N(C)C)cc1NC(=O)[C@H]1[C@@H](C(=O)OCCOC(=O)c2ccc(-c3c4nc(c(-c5ccccc5)c5ccc([nH]5)c(-c5ccccc5)c5nc(c(-c6ccccc6)c6ccc3[nH]6)C=C5)C=C4)cc2)[C@H]2C=C[C@@H]1C2
REMARK SMILES IDX 22 1 21 2 19 3 20 4 18 5 17 6 78 7 75 8 77 9 79 10 76 11
REMARK SMILES IDX 15 12 14 13 16 15 13 16 3 17 4 18 5 19 12 20 6 21 2 22 1 23
REMARK SMILES IDX 7 24 8 25 9 26 10 27 11 28 23 29 24 30 25 31 26 32 27 33
REMARK SMILES IDX 28 34 74 35 29 36 73 37 30 38 31 39 32 40 67 41 33 42 72 43
REMARK SMILES IDX 66 44 68 45 34 46 71 47 65 48 64 49 35 51 57 52 42 53 56 54
REMARK SMILES IDX 43 55 46 56 55 57 69 58 44 59 45 60 54 62 70 63 47 64 36 65
REMARK SMILES IDX 37 66 41 67 38 68 40 69 39 70 58 71 59 72 63 73 60 74 62 75
REMARK SMILES IDX 61 76 48 77 49 78 53 79 50 80 52 81 51 82
REMARK H PARENT 14 14 68 50 46 61
REMARK Flexibility Score: inf
ROOT
ATOM      1  C   UNL A   1      32.448  29.991  26.172  1.00  0.00     0.274 C 
ENDROOT
BRANCH   1   2
ATOM      2  O   UNL A   1      33.039  28.783  25.657  1.00  0.00    -0.462 OA
BRANCH   2   3
ATOM      3  C   UNL A   1      32.256  28.057  24.835  1.00  0.00     0.310 C 
ATOM      4  O   UNL A   1      31.943  28.385  23.693  1.00  0.00    -0.252 OA
BRANCH   3   5
ATOM      5  C   UNL A   1      31.764  26.757  25.406  1.00  0.00     0.119 C 
ATOM      6  C   UNL A   1      32.565  25.467  25.088  1.00  0.00     0.100 C 
ATOM      7  C   UNL A   1      31.432  24.406  24.966  1.00  0.00     0.025 C 
ATOM      8  C   UNL A   1      30.295  26.313  25.275  1.00  0.00     0.027 C 
ATOM      9  C   UNL A   1      30.635  24.671  23.710  1.00  0.00    -0.027 C 
ATOM     10  C   UNL A   1      30.400  24.938  25.969  1.00  0.00     0.017 C 
ATOM     11  C   UNL A   1      29.982  25.829  23.887  1.00  0.00    -0.027 C 
BRANCH   6  12
ATOM     12  C   UNL A   1      33.487  25.429  23.881  1.00  0.00     0.229 C 
ATOM     13  N   UNL A   1      34.172  24.305  23.528  1.00  0.00    -0.323 N 
ATOM     14  H   UNL A   1      34.565  24.365  22.627  1.00  0.00     0.170 HD
ATOM     15  O   UNL A   1      33.656  26.412  23.156  1.00  0.00    -0.274 OA
BRANCH  13  16
ATOM     16  C   UNL A   1      34.444  23.079  24.161  1.00  0.00     0.084 A 
ATOM     17  C   UNL A   1      35.631  23.017  24.916  1.00  0.00     0.142 A 
ATOM     18  C   UNL A   1      35.939  21.898  25.691  1.00  0.00     0.049 A 
ATOM     19  C   UNL A   1      35.037  20.838  25.755  1.00  0.00     0.018 A 
ATOM     20  C   UNL A   1      33.623  21.956  24.135  1.00  0.00     0.044 A 
ATOM     21  C   UNL A   1      33.867  20.872  24.989  1.00  0.00     0.042 A 
BRANCH  17  22
ATOM     22  O   UNL A   1      36.549  24.037  24.848  1.00  0.00    -0.495 OA
ATOM     23  C   UNL A   1      37.600  23.867  25.801  1.00  0.00     0.278 C 
ENDBRANCH  17  22
BRANCH  21  24
ATOM     24  C   UNL A   1      32.943  19.709  25.025  1.00  0.00     0.253 C 
ATOM     25  O   UNL A   1      31.751  19.948  25.214  1.00  0.00    -0.269 OA
ATOM     26  N   UNL A   1      33.441  18.414  24.857  1.00  0.00    -0.345 N 
ATOM     27  C   UNL A   1      34.752  18.061  24.330  1.00  0.00     0.146 C 
ATOM     28  C   UNL A   1      32.544  17.296  25.101  1.00  0.00     0.146 C 
ENDBRANCH  21  24
ENDBRANCH  13  16
ENDBRANCH   6  12
ENDBRANCH   3   5
ENDBRANCH   2   3
ENDBRANCH   1   2
BRANCH   1  29
ATOM     29  C   UNL A   1      33.516  30.824  26.868  1.00  0.00     0.275 C 
BRANCH  29  30
ATOM     30  O   UNL A   1      34.155  30.037  27.888  1.00  0.00    -0.458 OA
BRANCH  30  31
ATOM     31  C   UNL A   1      35.020  30.720  28.669  1.00  0.00     0.338 C 
ATOM     32  O   UNL A   1      34.829  31.767  29.270  1.00  0.00    -0.246 OA
BRANCH  31  33
ATOM     33  C   UNL A   1      36.309  30.021  28.710  1.00  0.00     0.060 A 
ATOM     34  C   UNL A   1      36.755  29.437  29.896  1.00  0.00     0.016 A 
ATOM     35  C   UNL A   1      37.135  30.080  27.589  1.00  0.00     0.016 A 
ATOM     36  C   UNL A   1      38.070  28.987  29.990  1.00  0.00     0.010 A 
ATOM     37  C   UNL A   1      38.421  29.545  27.659  1.00  0.00     0.010 A 
ATOM     38  C   UNL A   1      38.913  29.027  28.869  1.00  0.00    -0.014 A 
BRANCH  38  39
ATOM     39  C   UNL A   1      40.312  28.536  28.941  1.00  0.00     0.031 A 
ATOM     40  C   UNL A   1      41.433  29.487  29.261  1.00  0.00     0.074 A 
ATOM     41  C   UNL A   1      40.586  27.246  28.669  1.00  0.00     0.049 A 
ATOM     42  N   UNL A   1      42.725  29.306  29.155  1.00  0.00    -0.248 NA
ATOM     43  C   UNL A   1      41.047  30.820  29.749  1.00  0.00     0.031 C 
ATOM     44  C   UNL A   1      39.594  26.211  28.372  1.00  0.00     0.029 A 
ATOM     45  N   UNL A   1      41.789  26.592  28.580  1.00  0.00    -0.354 N 
ATOM     46  C   UNL A   1      43.305  30.517  29.513  1.00  0.00     0.074 A 
ATOM     47  C   UNL A   1      42.225  31.423  29.839  1.00  0.00     0.031 C 
ATOM     48  C   UNL A   1      40.227  25.052  28.141  1.00  0.00     0.029 A 
ATOM     49  C   UNL A   1      41.666  25.279  28.199  1.00  0.00     0.049 A 
ATOM     50  H   UNL A   1      42.654  27.023  28.769  1.00  0.00     0.167 HD
ATOM     51  C   UNL A   1      44.619  30.845  29.555  1.00  0.00     0.031 A 
ATOM     52  C   UNL A   1      42.603  24.369  27.879  1.00  0.00     0.031 A 
ATOM     53  C   UNL A   1      45.694  29.938  29.250  1.00  0.00     0.049 A 
ATOM     54  C   UNL A   1      44.050  24.759  27.904  1.00  0.00     0.074 A 
ATOM     55  C   UNL A   1      47.057  30.171  29.278  1.00  0.00     0.029 A 
ATOM     56  N   UNL A   1      45.521  28.617  28.866  1.00  0.00    -0.354 N 
ATOM     57  N   UNL A   1      44.584  25.917  28.207  1.00  0.00    -0.248 NA
ATOM     58  C   UNL A   1      45.021  23.722  27.532  1.00  0.00     0.031 C 
ATOM     59  C   UNL A   1      47.710  28.998  28.879  1.00  0.00     0.029 A 
ATOM     60  C   UNL A   1      46.752  28.025  28.641  1.00  0.00     0.049 A 
ATOM     61  H   UNL A   1      44.651  28.166  28.768  1.00  0.00     0.167 HD
ATOM     62  C   UNL A   1      45.954  25.750  28.061  1.00  0.00     0.074 A 
ATOM     63  C   UNL A   1      46.169  24.372  27.667  1.00  0.00     0.031 C 
ATOM     64  C   UNL A   1      46.944  26.658  28.235  1.00  0.00     0.031 A 
BRANCH  51  65
ATOM     65  C   UNL A   1      44.959  32.266  29.904  1.00  0.00    -0.014 A 
ATOM     66  C   UNL A   1      45.015  33.269  28.924  1.00  0.00     0.009 A 
ATOM     67  C   UNL A   1      45.217  32.608  31.242  1.00  0.00     0.009 A 
ATOM     68  C   UNL A   1      45.360  34.578  29.272  1.00  0.00     0.001 A 
ATOM     69  C   UNL A   1      45.539  33.921  31.589  1.00  0.00     0.001 A 
ATOM     70  C   UNL A   1      45.620  34.902  30.603  1.00  0.00     0.000 A 
ENDBRANCH  51  65
BRANCH  52  71
ATOM     71  C   UNL A   1      42.180  23.011  27.454  1.00  0.00    -0.014 A 
ATOM     72  C   UNL A   1      42.115  21.963  28.382  1.00  0.00     0.009 A 
ATOM     73  C   UNL A   1      41.791  22.774  26.127  1.00  0.00     0.009 A 
ATOM     74  C   UNL A   1      41.671  20.699  27.987  1.00  0.00     0.001 A 
ATOM     75  C   UNL A   1      41.324  21.517  25.740  1.00  0.00     0.001 A 
ATOM     76  C   UNL A   1      41.268  20.480  26.669  1.00  0.00     0.000 A 
ENDBRANCH  52  71
BRANCH  64  77
ATOM     77  C   UNL A   1      48.348  26.179  28.009  1.00  0.00    -0.014 A 
ATOM     78  C   UNL A   1      49.119  25.681  29.070  1.00  0.00     0.009 A 
ATOM     79  C   UNL A   1      48.895  26.205  26.717  1.00  0.00     0.009 A 
ATOM     80  C   UNL A   1      50.424  25.242  28.845  1.00  0.00     0.001 A 
ATOM     81  C   UNL A   1      50.193  25.748  26.492  1.00  0.00     0.001 A 
ATOM     82  C   UNL A   1      50.960  25.274  27.557  1.00  0.00     0.000 A 
ENDBRANCH  64  77
ENDBRANCH  38  39
ENDBRANCH  31  33
ENDBRANCH  30  31
ENDBRANCH  29  30
ENDBRANCH   1  29
TORSDOF 15
ENDMDL
