MODEL 1
REMARK VINA RESULT:      -9.4      0.000      0.000
REMARK SMILES CC[C@H](Oc1ccc(C)nc1C[NH3+])C(=O)OCCOC(=O)c1ccc(-c2c3nc(c(-c4ccccc4)c4ccc([nH]4)c(-c4ccccc4)c4nc(c(-c5ccccc5)c5ccc2[nH]5)C=C4)C=C3)cc1
REMARK SMILES IDX 17 1 16 2 14 3 15 4 3 5 2 6 1 7 4 8 5 9 6 10 11 11 7 12
REMARK SMILES IDX 10 13 8 14 9 15 12 16 13 17 18 21 19 22 20 23 21 24 22 25
REMARK SMILES IDX 23 26 69 27 24 28 68 29 25 30 26 31 27 32 62 33 28 34 67 35
REMARK SMILES IDX 61 36 63 37 29 38 66 39 60 40 59 41 30 43 52 44 37 45 51 46
REMARK SMILES IDX 38 47 41 48 50 49 64 50 39 51 40 52 49 54 65 55 42 56 31 57
REMARK SMILES IDX 32 58 36 59 33 60 35 61 34 62 53 63 54 64 58 65 55 66 57 67
REMARK SMILES IDX 56 68 43 69 44 70 48 71 45 72 47 73 46 74
REMARK H PARENT 13 18 13 19 13 20 63 42 41 53
REMARK Flexibility Score: inf
ROOT
ATOM      1  C   UNL A   1      36.377  22.609  23.704  1.00  0.00     0.274 C 
ENDROOT
BRANCH   1   2
ATOM      2  O   UNL A   1      35.520  23.535  24.400  1.00  0.00    -0.459 OA
BRANCH   2   3
ATOM      3  C   UNL A   1      34.447  23.991  23.700  1.00  0.00     0.347 C 
ATOM      4  O   UNL A   1      34.396  24.071  22.474  1.00  0.00    -0.248 OA
BRANCH   3   5
ATOM      5  C   UNL A   1      33.273  24.420  24.591  1.00  0.00     0.282 C 
BRANCH   5   6
ATOM      6  C   UNL A   1      33.608  25.750  25.287  1.00  0.00     0.054 C 
ATOM      7  C   UNL A   1      33.728  26.957  24.368  1.00  0.00     0.008 C 
ENDBRANCH   5   6
BRANCH   5   8
ATOM      8  O   UNL A   1      32.887  23.393  25.498  1.00  0.00    -0.477 OA
BRANCH   8   9
ATOM      9  C   UNL A   1      32.815  22.093  25.079  1.00  0.00     0.147 A 
ATOM     10  C   UNL A   1      32.314  21.669  23.848  1.00  0.00     0.050 A 
ATOM     11  C   UNL A   1      33.281  21.103  25.959  1.00  0.00     0.136 A 
ATOM     12  C   UNL A   1      32.282  20.312  23.531  1.00  0.00     0.027 A 
ATOM     13  N   UNL A   1      33.252  19.773  25.650  1.00  0.00    -0.248 NA
ATOM     14  C   UNL A   1      32.751  19.393  24.457  1.00  0.00     0.038 A 
ATOM     15  C   UNL A   1      32.693  17.921  24.188  1.00  0.00     0.067 C 
BRANCH  11  16
ATOM     16  C   UNL A   1      33.827  21.451  27.334  1.00  0.00     0.320 C 
BRANCH  16  17
ATOM     17  N   UNL A   1      34.845  22.514  27.297  1.00  0.00    -0.352 N 
ATOM     18  H   UNL A   1      35.667  22.179  26.794  1.00  0.00     0.344 HD
ATOM     19  H   UNL A   1      35.108  22.766  28.249  1.00  0.00     0.344 HD
ATOM     20  H   UNL A   1      34.464  23.332  26.820  1.00  0.00     0.344 HD
ENDBRANCH  16  17
ENDBRANCH  11  16
ENDBRANCH   8   9
ENDBRANCH   5   8
ENDBRANCH   3   5
ENDBRANCH   2   3
ENDBRANCH   1   2
BRANCH   1  21
ATOM     21  C   UNL A   1      36.635  21.346  24.533  1.00  0.00     0.275 C 
BRANCH  21  22
ATOM     22  O   UNL A   1      37.172  21.658  25.832  1.00  0.00    -0.458 OA
BRANCH  22  23
ATOM     23  C   UNL A   1      38.486  21.375  25.986  1.00  0.00     0.338 C 
ATOM     24  O   UNL A   1      39.068  20.353  25.669  1.00  0.00    -0.246 OA
BRANCH  23  25
ATOM     25  C   UNL A   1      39.186  22.562  26.503  1.00  0.00     0.060 A 
ATOM     26  C   UNL A   1      38.669  23.818  26.176  1.00  0.00     0.016 A 
ATOM     27  C   UNL A   1      40.378  22.451  27.220  1.00  0.00     0.016 A 
ATOM     28  C   UNL A   1      39.343  24.974  26.561  1.00  0.00     0.010 A 
ATOM     29  C   UNL A   1      41.060  23.612  27.601  1.00  0.00     0.010 A 
ATOM     30  C   UNL A   1      40.552  24.879  27.261  1.00  0.00    -0.014 A 
BRANCH  30  31
ATOM     31  C   UNL A   1      41.313  26.111  27.572  1.00  0.00     0.031 A 
ATOM     32  C   UNL A   1      40.727  27.137  28.499  1.00  0.00     0.074 A 
ATOM     33  C   UNL A   1      42.541  26.294  27.054  1.00  0.00     0.049 A 
ATOM     34  N   UNL A   1      41.214  28.298  28.860  1.00  0.00    -0.248 NA
ATOM     35  C   UNL A   1      39.426  26.812  29.102  1.00  0.00     0.031 C 
ATOM     36  C   UNL A   1      43.240  25.349  26.183  1.00  0.00     0.029 A 
ATOM     37  N   UNL A   1      43.419  27.340  27.190  1.00  0.00    -0.354 N 
ATOM     38  C   UNL A   1      40.272  28.849  29.720  1.00  0.00     0.074 A 
ATOM     39  C   UNL A   1      39.180  27.902  29.815  1.00  0.00     0.031 C 
ATOM     40  C   UNL A   1      44.442  25.860  25.863  1.00  0.00     0.029 A 
ATOM     41  C   UNL A   1      44.578  27.180  26.474  1.00  0.00     0.049 A 
ATOM     42  H   UNL A   1      43.233  28.130  27.749  1.00  0.00     0.167 HD
ATOM     43  C   UNL A   1      40.313  30.035  30.372  1.00  0.00     0.031 A 
ATOM     44  C   UNL A   1      45.623  28.012  26.310  1.00  0.00     0.031 A 
ATOM     45  C   UNL A   1      41.394  30.979  30.276  1.00  0.00     0.049 A 
ATOM     46  C   UNL A   1      45.615  29.352  26.991  1.00  0.00     0.074 A 
ATOM     47  C   UNL A   1      41.523  32.209  30.898  1.00  0.00     0.029 A 
ATOM     48  N   UNL A   1      42.532  30.797  29.507  1.00  0.00    -0.354 N 
ATOM     49  N   UNL A   1      44.714  29.865  27.794  1.00  0.00    -0.248 NA
ATOM     50  C   UNL A   1      46.768  30.229  26.740  1.00  0.00     0.031 C 
ATOM     51  C   UNL A   1      42.724  32.789  30.473  1.00  0.00     0.029 A 
ATOM     52  C   UNL A   1      43.361  31.900  29.623  1.00  0.00     0.049 A 
ATOM     53  H   UNL A   1      42.723  30.002  28.960  1.00  0.00     0.167 HD
ATOM     54  C   UNL A   1      45.197  31.115  28.156  1.00  0.00     0.074 A 
ATOM     55  C   UNL A   1      46.479  31.277  27.500  1.00  0.00     0.031 C 
ATOM     56  C   UNL A   1      44.630  32.047  28.960  1.00  0.00     0.031 A 
BRANCH  43  57
ATOM     57  C   UNL A   1      39.129  30.391  31.224  1.00  0.00    -0.014 A 
ATOM     58  C   UNL A   1      38.031  31.083  30.691  1.00  0.00     0.009 A 
ATOM     59  C   UNL A   1      39.102  30.004  32.572  1.00  0.00     0.009 A 
ATOM     60  C   UNL A   1      36.941  31.407  31.503  1.00  0.00     0.001 A 
ATOM     61  C   UNL A   1      38.002  30.310  33.375  1.00  0.00     0.001 A 
ATOM     62  C   UNL A   1      36.926  31.017  32.842  1.00  0.00     0.000 A 
ENDBRANCH  43  57
BRANCH  44  63
ATOM     63  C   UNL A   1      46.754  27.617  25.434  1.00  0.00    -0.014 A 
ATOM     64  C   UNL A   1      47.853  26.917  25.954  1.00  0.00     0.009 A 
ATOM     65  C   UNL A   1      46.741  27.944  24.069  1.00  0.00     0.009 A 
ATOM     66  C   UNL A   1      48.924  26.569  25.128  1.00  0.00     0.001 A 
ATOM     67  C   UNL A   1      47.802  27.573  23.240  1.00  0.00     0.001 A 
ATOM     68  C   UNL A   1      48.896  26.894  23.772  1.00  0.00     0.000 A 
ENDBRANCH  44  63
BRANCH  56  69
ATOM     69  C   UNL A   1      45.404  33.312  29.192  1.00  0.00    -0.014 A 
ATOM     70  C   UNL A   1      46.340  33.409  30.233  1.00  0.00     0.009 A 
ATOM     71  C   UNL A   1      45.220  34.408  28.334  1.00  0.00     0.009 A 
ATOM     72  C   UNL A   1      47.057  34.592  30.427  1.00  0.00     0.001 A 
ATOM     73  C   UNL A   1      45.954  35.580  28.517  1.00  0.00     0.001 A 
ATOM     74  C   UNL A   1      46.865  35.674  29.568  1.00  0.00     0.000 A 
ENDBRANCH  56  69
ENDBRANCH  30  31
ENDBRANCH  23  25
ENDBRANCH  22  23
ENDBRANCH  21  22
ENDBRANCH   1  21
TORSDOF 16
ENDMDL
MODEL 2
REMARK VINA RESULT:      -9.4      4.576      7.721
REMARK SMILES CC[C@H](Oc1ccc(C)nc1C[NH3+])C(=O)OCCOC(=O)c1ccc(-c2c3nc(c(-c4ccccc4)c4ccc([nH]4)c(-c4ccccc4)c4nc(c(-c5ccccc5)c5ccc2[nH]5)C=C4)C=C3)cc1
REMARK SMILES IDX 17 1 16 2 14 3 15 4 3 5 2 6 1 7 4 8 5 9 6 10 11 11 7 12
REMARK SMILES IDX 10 13 8 14 9 15 12 16 13 17 18 21 19 22 20 23 21 24 22 25
REMARK SMILES IDX 23 26 69 27 24 28 68 29 25 30 26 31 27 32 62 33 28 34 67 35
REMARK SMILES IDX 61 36 63 37 29 38 66 39 60 40 59 41 30 43 52 44 37 45 51 46
REMARK SMILES IDX 38 47 41 48 50 49 64 50 39 51 40 52 49 54 65 55 42 56 31 57
REMARK SMILES IDX 32 58 36 59 33 60 35 61 34 62 53 63 54 64 58 65 55 66 57 67
REMARK SMILES IDX 56 68 43 69 44 70 48 71 45 72 47 73 46 74
REMARK H PARENT 13 18 13 19 13 20 63 42 41 53
REMARK Flexibility Score: inf
ROOT
ATOM      1  C   UNL A   1      31.299  31.991  26.644  1.00  0.00     0.274 C 
ENDROOT
BRANCH   1   2
ATOM      2  O   UNL A   1      31.702  30.634  26.909  1.00  0.00    -0.459 OA
BRANCH   2   3
ATOM      3  C   UNL A   1      31.915  29.853  25.816  1.00  0.00     0.347 C 
ATOM      4  O   UNL A   1      31.194  29.836  24.820  1.00  0.00    -0.248 OA
BRANCH   3   5
ATOM      5  C   UNL A   1      33.159  28.962  25.934  1.00  0.00     0.282 C 
BRANCH   5   6
ATOM      6  C   UNL A   1      34.298  29.746  26.605  1.00  0.00     0.054 C 
ATOM      7  C   UNL A   1      34.787  29.184  27.932  1.00  0.00     0.008 C 
ENDBRANCH   5   6
BRANCH   5   8
ATOM      8  O   UNL A   1      33.530  28.394  24.683  1.00  0.00    -0.477 OA
BRANCH   8   9
ATOM      9  C   UNL A   1      33.714  27.043  24.566  1.00  0.00     0.147 A 
ATOM     10  C   UNL A   1      34.043  26.180  25.612  1.00  0.00     0.050 A 
ATOM     11  C   UNL A   1      33.562  26.478  23.290  1.00  0.00     0.136 A 
ATOM     12  C   UNL A   1      34.215  24.817  25.373  1.00  0.00     0.027 A 
ATOM     13  N   UNL A   1      33.728  25.143  23.053  1.00  0.00    -0.248 NA
ATOM     14  C   UNL A   1      34.057  24.336  24.083  1.00  0.00     0.038 A 
ATOM     15  C   UNL A   1      34.279  22.890  23.761  1.00  0.00     0.067 C 
BRANCH  11  16
ATOM     16  C   UNL A   1      33.227  27.328  22.075  1.00  0.00     0.320 C 
BRANCH  16  17
ATOM     17  N   UNL A   1      31.977  28.090  22.234  1.00  0.00    -0.352 N 
ATOM     18  H   UNL A   1      31.775  28.206  23.228  1.00  0.00     0.344 HD
ATOM     19  H   UNL A   1      31.212  27.585  21.788  1.00  0.00     0.344 HD
ATOM     20  H   UNL A   1      32.081  29.007  21.799  1.00  0.00     0.344 HD
ENDBRANCH  16  17
ENDBRANCH  11  16
ENDBRANCH   8   9
ENDBRANCH   5   8
ENDBRANCH   3   5
ENDBRANCH   2   3
ENDBRANCH   1   2
BRANCH   1  21
ATOM     21  C   UNL A   1      32.433  32.982  26.927  1.00  0.00     0.275 C 
BRANCH  21  22
ATOM     22  O   UNL A   1      32.172  33.774  28.101  1.00  0.00    -0.458 OA
BRANCH  22  23
ATOM     23  C   UNL A   1      33.169  34.621  28.448  1.00  0.00     0.338 C 
ATOM     24  O   UNL A   1      33.118  35.836  28.524  1.00  0.00    -0.246 OA
BRANCH  23  25
ATOM     25  C   UNL A   1      34.350  33.846  28.861  1.00  0.00     0.060 A 
ATOM     26  C   UNL A   1      34.149  32.753  29.708  1.00  0.00     0.016 A 
ATOM     27  C   UNL A   1      35.640  34.236  28.498  1.00  0.00     0.016 A 
ATOM     28  C   UNL A   1      35.239  32.042  30.202  1.00  0.00     0.010 A 
ATOM     29  C   UNL A   1      36.736  33.526  29.002  1.00  0.00     0.010 A 
ATOM     30  C   UNL A   1      36.541  32.434  29.866  1.00  0.00    -0.014 A 
BRANCH  30  31
ATOM     31  C   UNL A   1      37.694  31.737  30.482  1.00  0.00     0.031 A 
ATOM     32  C   UNL A   1      38.138  32.108  31.867  1.00  0.00     0.074 A 
ATOM     33  C   UNL A   1      38.319  30.748  29.816  1.00  0.00     0.049 A 
ATOM     34  N   UNL A   1      39.149  31.649  32.562  1.00  0.00    -0.248 NA
ATOM     35  C   UNL A   1      37.337  33.126  32.563  1.00  0.00     0.031 C 
ATOM     36  C   UNL A   1      37.951  30.260  28.487  1.00  0.00     0.029 A 
ATOM     37  N   UNL A   1      39.396  29.976  30.173  1.00  0.00    -0.354 N 
ATOM     38  C   UNL A   1      39.115  32.333  33.770  1.00  0.00     0.074 A 
ATOM     39  C   UNL A   1      37.994  33.247  33.709  1.00  0.00     0.031 C 
ATOM     40  C   UNL A   1      38.788  29.268  28.141  1.00  0.00     0.029 A 
ATOM     41  C   UNL A   1      39.772  29.081  29.204  1.00  0.00     0.049 A 
ATOM     42  H   UNL A   1      39.853  30.058  31.041  1.00  0.00     0.167 HD
ATOM     43  C   UNL A   1      39.942  32.210  34.836  1.00  0.00     0.031 A 
ATOM     44  C   UNL A   1      40.808  28.221  29.168  1.00  0.00     0.031 A 
ATOM     45  C   UNL A   1      41.060  31.306  34.898  1.00  0.00     0.049 A 
ATOM     46  C   UNL A   1      41.752  28.150  30.336  1.00  0.00     0.074 A 
ATOM     47  C   UNL A   1      41.956  31.113  35.934  1.00  0.00     0.029 A 
ATOM     48  N   UNL A   1      41.432  30.444  33.879  1.00  0.00    -0.354 N 
ATOM     49  N   UNL A   1      41.714  28.809  31.469  1.00  0.00    -0.248 NA
ATOM     50  C   UNL A   1      42.883  27.218  30.217  1.00  0.00     0.031 C 
ATOM     51  C   UNL A   1      42.898  30.161  35.526  1.00  0.00     0.029 A 
ATOM     52  C   UNL A   1      42.558  29.730  34.254  1.00  0.00     0.049 A 
ATOM     53  H   UNL A   1      40.967  30.353  33.017  1.00  0.00     0.167 HD
ATOM     54  C   UNL A   1      42.804  28.362  32.203  1.00  0.00     0.074 A 
ATOM     55  C   UNL A   1      43.474  27.363  31.395  1.00  0.00     0.031 C 
ATOM     56  C   UNL A   1      43.214  28.744  33.437  1.00  0.00     0.031 A 
BRANCH  43  57
ATOM     57  C   UNL A   1      39.684  33.107  36.012  1.00  0.00    -0.014 A 
ATOM     58  C   UNL A   1      40.267  34.381  36.098  1.00  0.00     0.009 A 
ATOM     59  C   UNL A   1      38.824  32.681  37.035  1.00  0.00     0.009 A 
ATOM     60  C   UNL A   1      40.016  35.197  37.203  1.00  0.00     0.001 A 
ATOM     61  C   UNL A   1      38.558  33.508  38.127  1.00  0.00     0.001 A 
ATOM     62  C   UNL A   1      39.160  34.762  38.214  1.00  0.00     0.000 A 
ENDBRANCH  43  57
BRANCH  44  63
ATOM     63  C   UNL A   1      41.028  27.377  27.966  1.00  0.00    -0.014 A 
ATOM     64  C   UNL A   1      40.444  26.106  27.866  1.00  0.00     0.009 A 
ATOM     65  C   UNL A   1      41.831  27.841  26.913  1.00  0.00     0.009 A 
ATOM     66  C   UNL A   1      40.675  25.309  26.743  1.00  0.00     0.001 A 
ATOM     67  C   UNL A   1      42.041  27.053  25.780  1.00  0.00     0.001 A 
ATOM     68  C   UNL A   1      41.469  25.784  25.699  1.00  0.00     0.000 A 
ENDBRANCH  44  63
BRANCH  56  69
ATOM     69  C   UNL A   1      44.430  28.062  33.995  1.00  0.00    -0.014 A 
ATOM     70  C   UNL A   1      44.321  26.868  34.724  1.00  0.00     0.009 A 
ATOM     71  C   UNL A   1      45.703  28.603  33.755  1.00  0.00     0.009 A 
ATOM     72  C   UNL A   1      45.464  26.244  35.228  1.00  0.00     0.001 A 
ATOM     73  C   UNL A   1      46.844  27.965  34.241  1.00  0.00     0.001 A 
ATOM     74  C   UNL A   1      46.723  26.791  34.983  1.00  0.00     0.000 A 
ENDBRANCH  56  69
ENDBRANCH  30  31
ENDBRANCH  23  25
ENDBRANCH  22  23
ENDBRANCH  21  22
ENDBRANCH   1  21
TORSDOF 16
ENDMDL
MODEL 3
REMARK VINA RESULT:      -9.3      3.230      4.768
REMARK SMILES CC[C@H](Oc1ccc(C)nc1C[NH3+])C(=O)OCCOC(=O)c1ccc(-c2c3nc(c(-c4ccccc4)c4ccc([nH]4)c(-c4ccccc4)c4nc(c(-c5ccccc5)c5ccc2[nH]5)C=C4)C=C3)cc1
REMARK SMILES IDX 17 1 16 2 14 3 15 4 3 5 2 6 1 7 4 8 5 9 6 10 11 11 7 12
REMARK SMILES IDX 10 13 8 14 9 15 12 16 13 17 18 21 19 22 20 23 21 24 22 25
REMARK SMILES IDX 23 26 69 27 24 28 68 29 25 30 26 31 27 32 62 33 28 34 67 35
REMARK SMILES IDX 61 36 63 37 29 38 66 39 60 40 59 41 30 43 52 44 37 45 51 46
REMARK SMILES IDX 38 47 41 48 50 49 64 50 39 51 40 52 49 54 65 55 42 56 31 57
REMARK SMILES IDX 32 58 36 59 33 60 35 61 34 62 53 63 54 64 58 65 55 66 57 67
REMARK SMILES IDX 56 68 43 69 44 70 48 71 45 72 47 73 46 74
REMARK H PARENT 13 18 13 19 13 20 63 42 41 53
REMARK Flexibility Score: inf
ROOT
ATOM      1  C   UNL A   1      35.492  23.545  24.265  1.00  0.00     0.274 C 
ENDROOT
BRANCH   1   2
ATOM      2  O   UNL A   1      35.183  23.602  22.858  1.00  0.00    -0.459 OA
BRANCH   2   3
ATOM      3  C   UNL A   1      33.875  23.800  22.545  1.00  0.00     0.347 C 
ATOM      4  O   UNL A   1      33.345  23.432  21.499  1.00  0.00    -0.248 OA
BRANCH   3   5
ATOM      5  C   UNL A   1      33.093  24.551  23.631  1.00  0.00     0.282 C 
BRANCH   5   6
ATOM      6  C   UNL A   1      31.729  23.876  23.850  1.00  0.00     0.054 C 
ATOM      7  C   UNL A   1      30.525  24.653  23.337  1.00  0.00     0.008 C 
ENDBRANCH   5   6
BRANCH   5   8
ATOM      8  O   UNL A   1      32.993  25.943  23.352  1.00  0.00    -0.477 OA
BRANCH   8   9
ATOM      9  C   UNL A   1      33.257  26.863  24.329  1.00  0.00     0.147 A 
ATOM     10  C   UNL A   1      33.449  26.573  25.681  1.00  0.00     0.050 A 
ATOM     11  C   UNL A   1      33.340  28.210  23.944  1.00  0.00     0.136 A 
ATOM     12  C   UNL A   1      33.705  27.597  26.591  1.00  0.00     0.027 A 
ATOM     13  N   UNL A   1      33.592  29.215  24.833  1.00  0.00    -0.248 NA
ATOM     14  C   UNL A   1      33.762  28.905  26.135  1.00  0.00     0.038 A 
ATOM     15  C   UNL A   1      33.983  30.047  27.077  1.00  0.00     0.067 C 
BRANCH  11  16
ATOM     16  C   UNL A   1      33.125  28.642  22.502  1.00  0.00     0.320 C 
BRANCH  16  17
ATOM     17  N   UNL A   1      31.791  29.220  22.268  1.00  0.00    -0.352 N 
ATOM     18  H   UNL A   1      31.502  29.752  23.090  1.00  0.00     0.344 HD
ATOM     19  H   UNL A   1      31.122  28.470  22.096  1.00  0.00     0.344 HD
ATOM     20  H   UNL A   1      31.826  29.838  21.457  1.00  0.00     0.344 HD
ENDBRANCH  16  17
ENDBRANCH  11  16
ENDBRANCH   8   9
ENDBRANCH   5   8
ENDBRANCH   3   5
ENDBRANCH   2   3
ENDBRANCH   1   2
BRANCH   1  21
ATOM     21  C   UNL A   1      36.995  23.366  24.506  1.00  0.00     0.275 C 
BRANCH  21  22
ATOM     22  O   UNL A   1      37.313  23.342  25.910  1.00  0.00    -0.458 OA
BRANCH  22  23
ATOM     23  C   UNL A   1      38.607  23.067  26.195  1.00  0.00     0.338 C 
ATOM     24  O   UNL A   1      39.229  22.057  25.918  1.00  0.00    -0.246 OA
BRANCH  23  25
ATOM     25  C   UNL A   1      39.237  24.247  26.807  1.00  0.00     0.060 A 
ATOM     26  C   UNL A   1      38.965  24.507  28.153  1.00  0.00     0.016 A 
ATOM     27  C   UNL A   1      40.008  25.134  26.055  1.00  0.00     0.016 A 
ATOM     28  C   UNL A   1      39.460  25.660  28.757  1.00  0.00     0.010 A 
ATOM     29  C   UNL A   1      40.499  26.297  26.660  1.00  0.00     0.010 A 
ATOM     30  C   UNL A   1      40.216  26.571  28.010  1.00  0.00    -0.014 A 
BRANCH  30  31
ATOM     31  C   UNL A   1      40.647  27.844  28.633  1.00  0.00     0.031 A 
ATOM     32  C   UNL A   1      39.657  28.957  28.820  1.00  0.00     0.074 A 
ATOM     33  C   UNL A   1      41.914  27.990  29.064  1.00  0.00     0.049 A 
ATOM     34  N   UNL A   1      39.847  30.160  29.302  1.00  0.00    -0.248 NA
ATOM     35  C   UNL A   1      38.271  28.678  28.416  1.00  0.00     0.031 C 
ATOM     36  C   UNL A   1      42.956  26.966  28.986  1.00  0.00     0.029 A 
ATOM     37  N   UNL A   1      42.536  29.060  29.655  1.00  0.00    -0.354 N 
ATOM     38  C   UNL A   1      38.609  30.787  29.245  1.00  0.00     0.074 A 
ATOM     39  C   UNL A   1      37.679  29.837  28.669  1.00  0.00     0.031 C 
ATOM     40  C   UNL A   1      44.090  27.458  29.513  1.00  0.00     0.029 A 
ATOM     41  C   UNL A   1      43.863  28.841  29.926  1.00  0.00     0.049 A 
ATOM     42  H   UNL A   1      42.074  29.904  29.864  1.00  0.00     0.167 HD
ATOM     43  C   UNL A   1      38.276  32.040  29.638  1.00  0.00     0.031 A 
ATOM     44  C   UNL A   1      44.797  29.668  30.431  1.00  0.00     0.031 A 
ATOM     45  C   UNL A   1      39.198  32.986  30.206  1.00  0.00     0.049 A 
ATOM     46  C   UNL A   1      44.419  31.076  30.797  1.00  0.00     0.074 A 
ATOM     47  C   UNL A   1      38.953  34.280  30.631  1.00  0.00     0.029 A 
ATOM     48  N   UNL A   1      40.543  32.739  30.427  1.00  0.00    -0.354 N 
ATOM     49  N   UNL A   1      43.246  31.660  30.730  1.00  0.00    -0.248 NA
ATOM     50  C   UNL A   1      45.494  31.940  31.307  1.00  0.00     0.031 C 
ATOM     51  C   UNL A   1      40.162  34.831  31.073  1.00  0.00     0.029 A 
ATOM     52  C   UNL A   1      41.147  33.863  30.965  1.00  0.00     0.049 A 
ATOM     53  H   UNL A   1      41.002  31.891  30.230  1.00  0.00     0.167 HD
ATOM     54  C   UNL A   1      43.438  32.951  31.201  1.00  0.00     0.074 A 
ATOM     55  C   UNL A   1      44.835  33.061  31.569  1.00  0.00     0.031 C 
ATOM     56  C   UNL A   1      42.538  33.957  31.320  1.00  0.00     0.031 A 
BRANCH  43  57
ATOM     57  C   UNL A   1      36.852  32.468  29.430  1.00  0.00    -0.014 A 
ATOM     58  C   UNL A   1      35.887  32.303  30.435  1.00  0.00     0.009 A 
ATOM     59  C   UNL A   1      36.478  33.069  28.218  1.00  0.00     0.009 A 
ATOM     60  C   UNL A   1      34.567  32.705  30.218  1.00  0.00     0.001 A 
ATOM     61  C   UNL A   1      35.163  33.489  28.012  1.00  0.00     0.001 A 
ATOM     62  C   UNL A   1      34.207  33.301  29.010  1.00  0.00     0.000 A 
ENDBRANCH  43  57
BRANCH  44  63
ATOM     63  C   UNL A   1      46.197  29.197  30.589  1.00  0.00    -0.014 A 
ATOM     64  C   UNL A   1      46.623  28.608  31.788  1.00  0.00     0.009 A 
ATOM     65  C   UNL A   1      47.115  29.340  29.537  1.00  0.00     0.009 A 
ATOM     66  C   UNL A   1      47.947  28.189  31.937  1.00  0.00     0.001 A 
ATOM     67  C   UNL A   1      48.432  28.898  29.680  1.00  0.00     0.001 A 
ATOM     68  C   UNL A   1      48.848  28.330  30.883  1.00  0.00     0.000 A 
ENDBRANCH  44  63
BRANCH  56  69
ATOM     69  C   UNL A   1      43.034  35.254  31.891  1.00  0.00    -0.014 A 
ATOM     70  C   UNL A   1      43.621  36.230  31.071  1.00  0.00     0.009 A 
ATOM     71  C   UNL A   1      42.878  35.516  33.261  1.00  0.00     0.009 A 
ATOM     72  C   UNL A   1      44.069  37.434  31.620  1.00  0.00     0.001 A 
ATOM     73  C   UNL A   1      43.306  36.729  33.802  1.00  0.00     0.001 A 
ATOM     74  C   UNL A   1      43.908  37.683  32.982  1.00  0.00     0.000 A 
ENDBRANCH  56  69
ENDBRANCH  30  31
ENDBRANCH  23  25
ENDBRANCH  22  23
ENDBRANCH  21  22
ENDBRANCH   1  21
TORSDOF 16
ENDMDL
