MODEL 1
REMARK VINA RESULT:      -9.5      0.000      0.000
REMARK SMILES CC(C)[C@@H](NC(=O)[C@@](C)([NH3+])C(F)(F)F)C(=O)OCCOC(=O)c1ccc(-c2c3nc(c(-c4ccccc4)c4ccc([nH]4)c(-c4ccccc4)c4nc(c(-c5ccccc5)c5ccc2[nH]5)C=C4)C=C3)cc1
REMARK SMILES IDX 18 1 17 2 15 3 16 4 4 5 2 6 1 7 3 8 5 9 6 10 7 12 8 13 9 14
REMARK SMILES IDX 10 15 11 19 12 20 13 21 14 22 19 23 20 24 21 25 22 26 23 27
REMARK SMILES IDX 24 28 70 29 25 30 69 31 26 32 27 33 28 34 63 35 29 36 68 37
REMARK SMILES IDX 62 38 64 39 30 40 67 41 61 42 60 43 31 45 53 46 38 47 52 48
REMARK SMILES IDX 39 49 42 50 51 51 65 52 40 53 41 54 50 56 66 57 43 58 32 59
REMARK SMILES IDX 33 60 37 61 34 62 36 63 35 64 54 65 55 66 59 67 56 68 58 69
REMARK SMILES IDX 57 70 44 71 45 72 49 73 46 74 48 75 47 76
REMARK H PARENT 5 11 10 16 10 17 10 18 64 44 42 55
REMARK Flexibility Score: inf
ROOT
ATOM      1  C   UNL A   1      33.527  33.643  28.117  1.00  0.00     0.274 C 
ENDROOT
BRANCH   1   2
ATOM      2  O   UNL A   1      34.095  34.846  28.681  1.00  0.00    -0.461 OA
BRANCH   2   3
ATOM      3  C   UNL A   1      33.287  35.563  29.502  1.00  0.00     0.329 C 
ATOM      4  O   UNL A   1      32.383  36.293  29.104  1.00  0.00    -0.250 OA
BRANCH   3   5
ATOM      5  C   UNL A   1      33.693  35.522  30.986  1.00  0.00     0.195 C 
BRANCH   5   6
ATOM      6  C   UNL A   1      33.033  36.531  31.967  1.00  0.00     0.017 C 
ATOM      7  C   UNL A   1      31.688  35.985  32.488  1.00  0.00     0.010 C 
ATOM      8  C   UNL A   1      33.904  36.804  33.205  1.00  0.00     0.010 C 
ENDBRANCH   5   6
BRANCH   5   9
ATOM      9  N   UNL A   1      33.869  34.160  31.564  1.00  0.00    -0.337 N 
ATOM     10  C   UNL A   1      34.855  33.213  31.635  1.00  0.00     0.291 C 
ATOM     11  H   UNL A   1      33.052  33.858  32.020  1.00  0.00     0.164 HD
ATOM     12  O   UNL A   1      34.443  32.056  31.771  1.00  0.00    -0.267 OA
BRANCH  10  13
ATOM     13  C   UNL A   1      36.363  33.545  31.638  1.00  0.00     0.267 C 
ATOM     14  C   UNL A   1      37.015  33.153  30.306  1.00  0.00     0.100 C 
BRANCH  13  15
ATOM     15  N   UNL A   1      36.539  34.999  31.946  1.00  0.00    -0.337 N 
ATOM     16  H   UNL A   1      36.606  35.526  31.075  1.00  0.00     0.345 HD
ATOM     17  H   UNL A   1      37.393  35.131  32.489  1.00  0.00     0.345 HD
ATOM     18  H   UNL A   1      35.740  35.333  32.485  1.00  0.00     0.345 HD
ENDBRANCH  13  15
BRANCH  13  19
ATOM     19  C   UNL A   1      37.046  32.691  32.753  1.00  0.00     0.453 C 
ATOM     20  F   UNL A   1      37.242  31.402  32.401  1.00  0.00    -0.164 F 
ATOM     21  F   UNL A   1      38.226  33.206  33.163  1.00  0.00    -0.164 F 
ATOM     22  F   UNL A   1      36.239  32.671  33.856  1.00  0.00    -0.164 F 
ENDBRANCH  13  19
ENDBRANCH  10  13
ENDBRANCH   5   9
ENDBRANCH   3   5
ENDBRANCH   2   3
ENDBRANCH   1   2
BRANCH   1  23
ATOM     23  C   UNL A   1      34.556  32.542  27.860  1.00  0.00     0.275 C 
BRANCH  23  24
ATOM     24  O   UNL A   1      34.080  31.269  28.320  1.00  0.00    -0.458 OA
BRANCH  24  25
ATOM     25  C   UNL A   1      34.637  30.208  27.696  1.00  0.00     0.338 C 
ATOM     26  O   UNL A   1      34.197  29.593  26.740  1.00  0.00    -0.246 OA
BRANCH  25  27
ATOM     27  C   UNL A   1      35.985  29.981  28.226  1.00  0.00     0.060 A 
ATOM     28  C   UNL A   1      37.060  30.124  27.343  1.00  0.00     0.016 A 
ATOM     29  C   UNL A   1      36.182  29.547  29.535  1.00  0.00     0.016 A 
ATOM     30  C   UNL A   1      38.348  29.824  27.757  1.00  0.00     0.010 A 
ATOM     31  C   UNL A   1      37.474  29.222  29.947  1.00  0.00     0.010 A 
ATOM     32  C   UNL A   1      38.552  29.340  29.051  1.00  0.00    -0.014 A 
BRANCH  32  33
ATOM     33  C   UNL A   1      39.878  28.812  29.420  1.00  0.00     0.031 A 
ATOM     34  C   UNL A   1      40.781  29.670  30.254  1.00  0.00     0.074 A 
ATOM     35  C   UNL A   1      40.246  27.582  29.030  1.00  0.00     0.049 A 
ATOM     36  N   UNL A   1      42.028  29.475  30.588  1.00  0.00    -0.248 NA
ATOM     37  C   UNL A   1      40.198  30.914  30.782  1.00  0.00     0.031 C 
ATOM     38  C   UNL A   1      39.403  26.639  28.295  1.00  0.00     0.029 A 
ATOM     39  N   UNL A   1      41.433  26.921  29.196  1.00  0.00    -0.354 N 
ATOM     40  C   UNL A   1      42.389  30.583  31.343  1.00  0.00     0.074 A 
ATOM     41  C   UNL A   1      41.233  31.448  31.415  1.00  0.00     0.031 C 
ATOM     42  C   UNL A   1      40.110  25.522  28.055  1.00  0.00     0.029 A 
ATOM     43  C   UNL A   1      41.462  25.695  28.579  1.00  0.00     0.049 A 
ATOM     44  H   UNL A   1      42.189  27.287  29.708  1.00  0.00     0.167 HD
ATOM     45  C   UNL A   1      43.586  30.856  31.912  1.00  0.00     0.031 A 
ATOM     46  C   UNL A   1      42.484  24.835  28.423  1.00  0.00     0.031 A 
ATOM     47  C   UNL A   1      44.729  29.992  31.813  1.00  0.00     0.049 A 
ATOM     48  C   UNL A   1      43.827  25.199  28.992  1.00  0.00     0.074 A 
ATOM     49  C   UNL A   1      46.000  30.174  32.328  1.00  0.00     0.029 A 
ATOM     50  N   UNL A   1      44.734  28.773  31.149  1.00  0.00    -0.354 N 
ATOM     51  N   UNL A   1      44.175  26.265  29.673  1.00  0.00    -0.248 NA
ATOM     52  C   UNL A   1      44.920  24.244  28.765  1.00  0.00     0.031 C 
ATOM     53  C   UNL A   1      46.785  29.083  31.938  1.00  0.00     0.029 A 
ATOM     54  C   UNL A   1      45.990  28.199  31.224  1.00  0.00     0.049 A 
ATOM     55  H   UNL A   1      43.958  28.378  30.691  1.00  0.00     0.167 HD
ATOM     56  C   UNL A   1      45.520  26.102  29.974  1.00  0.00     0.074 A 
ATOM     57  C   UNL A   1      45.920  24.826  29.413  1.00  0.00     0.031 C 
ATOM     58  C   UNL A   1      46.353  26.928  30.653  1.00  0.00     0.031 A 
BRANCH  45  59
ATOM     59  C   UNL A   1      43.718  32.166  32.632  1.00  0.00    -0.014 A 
ATOM     60  C   UNL A   1      44.118  33.334  31.963  1.00  0.00     0.009 A 
ATOM     61  C   UNL A   1      43.443  32.231  34.007  1.00  0.00     0.009 A 
ATOM     62  C   UNL A   1      44.273  34.532  32.664  1.00  0.00     0.001 A 
ATOM     63  C   UNL A   1      43.575  33.436  34.701  1.00  0.00     0.001 A 
ATOM     64  C   UNL A   1      43.999  34.582  34.030  1.00  0.00     0.000 A 
ENDBRANCH  45  59
BRANCH  46  65
ATOM     65  C   UNL A   1      42.286  23.575  27.663  1.00  0.00    -0.014 A 
ATOM     66  C   UNL A   1      41.828  22.417  28.306  1.00  0.00     0.009 A 
ATOM     67  C   UNL A   1      42.551  23.527  26.284  1.00  0.00     0.009 A 
ATOM     68  C   UNL A   1      41.655  21.231  27.587  1.00  0.00     0.001 A 
ATOM     69  C   UNL A   1      42.353  22.347  25.564  1.00  0.00     0.001 A 
ATOM     70  C   UNL A   1      41.913  21.198  26.217  1.00  0.00     0.000 A 
ENDBRANCH  46  65
BRANCH  58  71
ATOM     71  C   UNL A   1      47.763  26.456  30.852  1.00  0.00    -0.014 A 
ATOM     72  C   UNL A   1      48.759  26.720  29.899  1.00  0.00     0.009 A 
ATOM     73  C   UNL A   1      48.104  25.771  32.028  1.00  0.00     0.009 A 
ATOM     74  C   UNL A   1      50.065  26.276  30.109  1.00  0.00     0.001 A 
ATOM     75  C   UNL A   1      49.416  25.351  32.245  1.00  0.00     0.001 A 
ATOM     76  C   UNL A   1      50.393  25.597  31.282  1.00  0.00     0.000 A 
ENDBRANCH  58  71
ENDBRANCH  32  33
ENDBRANCH  25  27
ENDBRANCH  24  25
ENDBRANCH  23  24
ENDBRANCH   1  23
TORSDOF 16
ENDMDL
MODEL 2
REMARK VINA RESULT:      -9.4      4.510     11.310
REMARK SMILES CC(C)[C@@H](NC(=O)[C@@](C)([NH3+])C(F)(F)F)C(=O)OCCOC(=O)c1ccc(-c2c3nc(c(-c4ccccc4)c4ccc([nH]4)c(-c4ccccc4)c4nc(c(-c5ccccc5)c5ccc2[nH]5)C=C4)C=C3)cc1
REMARK SMILES IDX 18 1 17 2 15 3 16 4 4 5 2 6 1 7 3 8 5 9 6 10 7 12 8 13 9 14
REMARK SMILES IDX 10 15 11 19 12 20 13 21 14 22 19 23 20 24 21 25 22 26 23 27
REMARK SMILES IDX 24 28 70 29 25 30 69 31 26 32 27 33 28 34 63 35 29 36 68 37
REMARK SMILES IDX 62 38 64 39 30 40 67 41 61 42 60 43 31 45 53 46 38 47 52 48
REMARK SMILES IDX 39 49 42 50 51 51 65 52 40 53 41 54 50 56 66 57 43 58 32 59
REMARK SMILES IDX 33 60 37 61 34 62 36 63 35 64 54 65 55 66 59 67 56 68 58 69
REMARK SMILES IDX 57 70 44 71 45 72 49 73 46 74 48 75 47 76
REMARK H PARENT 5 11 10 16 10 17 10 18 64 44 42 55
REMARK Flexibility Score: inf
ROOT
ATOM      1  C   UNL A   1      40.525  19.851  26.403  1.00  0.00     0.274 C 
ENDROOT
BRANCH   1   2
ATOM      2  O   UNL A   1      41.934  19.857  26.721  1.00  0.00    -0.461 OA
BRANCH   2   3
ATOM      3  C   UNL A   1      42.724  19.060  25.958  1.00  0.00     0.329 C 
ATOM      4  O   UNL A   1      42.513  17.865  25.771  1.00  0.00    -0.250 OA
BRANCH   3   5
ATOM      5  C   UNL A   1      44.016  19.735  25.463  1.00  0.00     0.195 C 
BRANCH   5   6
ATOM      6  C   UNL A   1      45.127  18.847  24.834  1.00  0.00     0.017 C 
ATOM      7  C   UNL A   1      45.184  19.047  23.306  1.00  0.00     0.010 C 
ATOM      8  C   UNL A   1      46.526  19.186  25.374  1.00  0.00     0.010 C 
ENDBRANCH   5   6
BRANCH   5   9
ATOM      9  N   UNL A   1      43.831  21.038  24.766  1.00  0.00    -0.337 N 
ATOM     10  C   UNL A   1      43.619  22.346  25.109  1.00  0.00     0.291 C 
ATOM     11  H   UNL A   1      43.873  20.929  23.789  1.00  0.00     0.164 HD
ATOM     12  O   UNL A   1      43.043  23.015  24.244  1.00  0.00    -0.267 OA
BRANCH  10  13
ATOM     13  C   UNL A   1      44.125  22.980  26.424  1.00  0.00     0.267 C 
ATOM     14  C   UNL A   1      43.009  23.033  27.475  1.00  0.00     0.100 C 
BRANCH  13  15
ATOM     15  N   UNL A   1      45.317  22.212  26.905  1.00  0.00    -0.337 N 
ATOM     16  H   UNL A   1      45.008  21.439  27.494  1.00  0.00     0.345 HD
ATOM     17  H   UNL A   1      45.924  22.830  27.445  1.00  0.00     0.345 HD
ATOM     18  H   UNL A   1      45.832  21.845  26.105  1.00  0.00     0.345 HD
ENDBRANCH  13  15
BRANCH  13  19
ATOM     19  C   UNL A   1      44.543  24.453  26.123  1.00  0.00     0.453 C 
ATOM     20  F   UNL A   1      43.498  25.267  25.857  1.00  0.00    -0.164 F 
ATOM     21  F   UNL A   1      45.274  25.008  27.115  1.00  0.00    -0.164 F 
ATOM     22  F   UNL A   1      45.339  24.473  25.012  1.00  0.00    -0.164 F 
ENDBRANCH  13  19
ENDBRANCH  10  13
ENDBRANCH   5   9
ENDBRANCH   3   5
ENDBRANCH   2   3
ENDBRANCH   1   2
BRANCH   1  23
ATOM     23  C   UNL A   1      40.025  21.169  25.812  1.00  0.00     0.275 C 
BRANCH  23  24
ATOM     24  O   UNL A   1      39.260  21.912  26.771  1.00  0.00    -0.458 OA
BRANCH  24  25
ATOM     25  C   UNL A   1      38.695  23.038  26.282  1.00  0.00     0.338 C 
ATOM     26  O   UNL A   1      37.700  23.127  25.583  1.00  0.00    -0.246 OA
BRANCH  25  27
ATOM     27  C   UNL A   1      39.355  24.209  26.865  1.00  0.00     0.060 A 
ATOM     28  C   UNL A   1      39.119  24.480  28.217  1.00  0.00     0.016 A 
ATOM     29  C   UNL A   1      40.113  25.076  26.080  1.00  0.00     0.016 A 
ATOM     30  C   UNL A   1      39.632  25.629  28.799  1.00  0.00     0.010 A 
ATOM     31  C   UNL A   1      40.610  26.244  26.657  1.00  0.00     0.010 A 
ATOM     32  C   UNL A   1      40.350  26.530  28.010  1.00  0.00    -0.014 A 
BRANCH  32  33
ATOM     33  C   UNL A   1      40.702  27.848  28.565  1.00  0.00     0.031 A 
ATOM     34  C   UNL A   1      42.113  28.079  29.018  1.00  0.00     0.074 A 
ATOM     35  C   UNL A   1      39.778  28.819  28.637  1.00  0.00     0.049 A 
ATOM     36  N   UNL A   1      42.619  29.101  29.653  1.00  0.00    -0.248 NA
ATOM     37  C   UNL A   1      43.081  27.012  28.713  1.00  0.00     0.031 C 
ATOM     38  C   UNL A   1      38.406  28.719  28.139  1.00  0.00     0.029 A 
ATOM     39  N   UNL A   1      39.858  30.078  29.166  1.00  0.00    -0.354 N 
ATOM     40  C   UNL A   1      43.959  28.791  29.849  1.00  0.00     0.074 A 
ATOM     41  C   UNL A   1      44.186  27.486  29.270  1.00  0.00     0.031 C 
ATOM     42  C   UNL A   1      37.764  29.869  28.405  1.00  0.00     0.029 A 
ATOM     43  C   UNL A   1      38.667  30.758  29.131  1.00  0.00     0.049 A 
ATOM     44  H   UNL A   1      40.688  30.458  29.536  1.00  0.00     0.167 HD
ATOM     45  C   UNL A   1      44.908  29.529  30.469  1.00  0.00     0.031 A 
ATOM     46  C   UNL A   1      38.340  31.949  29.665  1.00  0.00     0.031 A 
ATOM     47  C   UNL A   1      44.657  30.817  31.055  1.00  0.00     0.049 A 
ATOM     48  C   UNL A   1      39.389  32.713  30.423  1.00  0.00     0.074 A 
ATOM     49  C   UNL A   1      45.534  31.647  31.730  1.00  0.00     0.029 A 
ATOM     50  N   UNL A   1      43.429  31.462  31.032  1.00  0.00    -0.354 N 
ATOM     51  N   UNL A   1      40.646  32.400  30.638  1.00  0.00    -0.248 NA
ATOM     52  C   UNL A   1      38.975  33.991  31.017  1.00  0.00     0.031 C 
ATOM     53  C   UNL A   1      44.823  32.776  32.152  1.00  0.00     0.029 A 
ATOM     54  C   UNL A   1      43.518  32.671  31.696  1.00  0.00     0.049 A 
ATOM     55  H   UNL A   1      42.614  31.108  30.607  1.00  0.00     0.167 HD
ATOM     56  C   UNL A   1      41.178  33.449  31.374  1.00  0.00     0.074 A 
ATOM     57  C   UNL A   1      40.111  34.414  31.555  1.00  0.00     0.031 C 
ATOM     58  C   UNL A   1      42.434  33.606  31.859  1.00  0.00     0.031 A 
BRANCH  45  59
ATOM     59  C   UNL A   1      46.276  28.923  30.590  1.00  0.00    -0.014 A 
ATOM     60  C   UNL A   1      47.261  29.136  29.613  1.00  0.00     0.009 A 
ATOM     61  C   UNL A   1      46.580  28.118  31.699  1.00  0.00     0.009 A 
ATOM     62  C   UNL A   1      48.513  28.527  29.728  1.00  0.00     0.001 A 
ATOM     63  C   UNL A   1      47.841  27.531  31.824  1.00  0.00     0.001 A 
ATOM     64  C   UNL A   1      48.802  27.728  30.833  1.00  0.00     0.000 A 
ENDBRANCH  45  59
BRANCH  46  65
ATOM     65  C   UNL A   1      36.954  32.466  29.538  1.00  0.00    -0.014 A 
ATOM     66  C   UNL A   1      35.989  32.170  30.511  1.00  0.00     0.009 A 
ATOM     67  C   UNL A   1      36.590  33.264  28.441  1.00  0.00     0.009 A 
ATOM     68  C   UNL A   1      34.683  32.650  30.379  1.00  0.00     0.001 A 
ATOM     69  C   UNL A   1      35.291  33.763  28.326  1.00  0.00     0.001 A 
ATOM     70  C   UNL A   1      34.336  33.449  29.291  1.00  0.00     0.000 A 
ENDBRANCH  46  65
BRANCH  58  71
ATOM     71  C   UNL A   1      42.723  34.880  32.595  1.00  0.00    -0.014 A 
ATOM     72  C   UNL A   1      42.398  35.024  33.953  1.00  0.00     0.009 A 
ATOM     73  C   UNL A   1      43.363  35.937  31.928  1.00  0.00     0.009 A 
ATOM     74  C   UNL A   1      42.682  36.217  34.620  1.00  0.00     0.001 A 
ATOM     75  C   UNL A   1      43.667  37.117  32.605  1.00  0.00     0.001 A 
ATOM     76  C   UNL A   1      43.319  37.260  33.947  1.00  0.00     0.000 A 
ENDBRANCH  58  71
ENDBRANCH  32  33
ENDBRANCH  25  27
ENDBRANCH  24  25
ENDBRANCH  23  24
ENDBRANCH   1  23
TORSDOF 16
ENDMDL
MODEL 3
REMARK VINA RESULT:      -9.3      0.999      6.335
REMARK SMILES CC(C)[C@@H](NC(=O)[C@@](C)([NH3+])C(F)(F)F)C(=O)OCCOC(=O)c1ccc(-c2c3nc(c(-c4ccccc4)c4ccc([nH]4)c(-c4ccccc4)c4nc(c(-c5ccccc5)c5ccc2[nH]5)C=C4)C=C3)cc1
REMARK SMILES IDX 18 1 17 2 15 3 16 4 4 5 2 6 1 7 3 8 5 9 6 10 7 12 8 13 9 14
REMARK SMILES IDX 10 15 11 19 12 20 13 21 14 22 19 23 20 24 21 25 22 26 23 27
REMARK SMILES IDX 24 28 70 29 25 30 69 31 26 32 27 33 28 34 63 35 29 36 68 37
REMARK SMILES IDX 62 38 64 39 30 40 67 41 61 42 60 43 31 45 53 46 38 47 52 48
REMARK SMILES IDX 39 49 42 50 51 51 65 52 40 53 41 54 50 56 66 57 43 58 32 59
REMARK SMILES IDX 33 60 37 61 34 62 36 63 35 64 54 65 55 66 59 67 56 68 58 69
REMARK SMILES IDX 57 70 44 71 45 72 49 73 46 74 48 75 47 76
REMARK H PARENT 5 11 10 16 10 17 10 18 64 44 42 55
REMARK Flexibility Score: inf
ROOT
ATOM      1  C   UNL A   1      33.554  34.134  28.177  1.00  0.00     0.274 C 
ENDROOT
BRANCH   1   2
ATOM      2  O   UNL A   1      33.125  34.294  29.547  1.00  0.00    -0.461 OA
BRANCH   2   3
ATOM      3  C   UNL A   1      33.025  35.570  29.999  1.00  0.00     0.329 C 
ATOM      4  O   UNL A   1      32.435  36.463  29.398  1.00  0.00    -0.250 OA
BRANCH   3   5
ATOM      5  C   UNL A   1      33.855  35.863  31.261  1.00  0.00     0.195 C 
BRANCH   5   6
ATOM      6  C   UNL A   1      33.172  35.727  32.651  1.00  0.00     0.017 C 
ATOM      7  C   UNL A   1      33.691  36.808  33.621  1.00  0.00     0.010 C 
ATOM      8  C   UNL A   1      31.646  35.901  32.576  1.00  0.00     0.010 C 
ENDBRANCH   5   6
BRANCH   5   9
ATOM      9  N   UNL A   1      35.257  35.360  31.236  1.00  0.00    -0.337 N 
ATOM     10  C   UNL A   1      36.000  34.407  31.880  1.00  0.00     0.291 C 
ATOM     11  H   UNL A   1      35.799  35.846  30.575  1.00  0.00     0.164 HD
ATOM     12  O   UNL A   1      37.213  34.641  31.915  1.00  0.00    -0.267 OA
BRANCH  10  13
ATOM     13  C   UNL A   1      35.408  33.097  32.446  1.00  0.00     0.267 C 
ATOM     14  C   UNL A   1      34.971  33.276  33.905  1.00  0.00     0.100 C 
BRANCH  13  15
ATOM     15  N   UNL A   1      34.278  32.656  31.567  1.00  0.00    -0.337 N 
ATOM     16  H   UNL A   1      33.852  33.472  31.127  1.00  0.00     0.345 HD
ATOM     17  H   UNL A   1      33.579  32.171  32.131  1.00  0.00     0.345 HD
ATOM     18  H   UNL A   1      34.632  32.027  30.848  1.00  0.00     0.345 HD
ENDBRANCH  13  15
BRANCH  13  19
ATOM     19  C   UNL A   1      36.530  32.012  32.431  1.00  0.00     0.453 C 
ATOM     20  F   UNL A   1      37.532  32.260  33.303  1.00  0.00    -0.164 F 
ATOM     21  F   UNL A   1      36.062  30.765  32.663  1.00  0.00    -0.164 F 
ATOM     22  F   UNL A   1      37.101  31.976  31.190  1.00  0.00    -0.164 F 
ENDBRANCH  13  19
ENDBRANCH  10  13
ENDBRANCH   5   9
ENDBRANCH   3   5
ENDBRANCH   2   3
ENDBRANCH   1   2
BRANCH   1  23
ATOM     23  C   UNL A   1      34.762  33.212  28.017  1.00  0.00     0.275 C 
BRANCH  23  24
ATOM     24  O   UNL A   1      34.588  31.993  28.754  1.00  0.00    -0.458 OA
BRANCH  24  25
ATOM     25  C   UNL A   1      34.652  30.872  28.001  1.00  0.00     0.338 C 
ATOM     26  O   UNL A   1      33.867  30.508  27.143  1.00  0.00    -0.246 OA
BRANCH  25  27
ATOM     27  C   UNL A   1      35.935  30.202  28.231  1.00  0.00     0.060 A 
ATOM     28  C   UNL A   1      36.131  29.590  29.474  1.00  0.00     0.016 A 
ATOM     29  C   UNL A   1      36.956  30.253  27.284  1.00  0.00     0.016 A 
ATOM     30  C   UNL A   1      37.360  29.029  29.789  1.00  0.00     0.010 A 
ATOM     31  C   UNL A   1      38.199  29.710  27.609  1.00  0.00     0.010 A 
ATOM     32  C   UNL A   1      38.406  29.119  28.868  1.00  0.00    -0.014 A 
BRANCH  32  33
ATOM     33  C   UNL A   1      39.764  28.726  29.284  1.00  0.00     0.031 A 
ATOM     34  C   UNL A   1      40.293  27.398  28.833  1.00  0.00     0.074 A 
ATOM     35  C   UNL A   1      40.508  29.558  30.030  1.00  0.00     0.049 A 
ATOM     36  N   UNL A   1      41.395  26.788  29.177  1.00  0.00    -0.248 NA
ATOM     37  C   UNL A   1      39.467  26.660  27.863  1.00  0.00     0.031 C 
ATOM     38  C   UNL A   1      40.115  30.905  30.441  1.00  0.00     0.029 A 
ATOM     39  N   UNL A   1      41.749  29.381  30.579  1.00  0.00    -0.354 N 
ATOM     40  C   UNL A   1      41.383  25.582  28.488  1.00  0.00     0.074 A 
ATOM     41  C   UNL A   1      40.165  25.544  27.710  1.00  0.00     0.031 C 
ATOM     42  C   UNL A   1      41.095  31.430  31.198  1.00  0.00     0.029 A 
ATOM     43  C   UNL A   1      42.152  30.436  31.358  1.00  0.00     0.049 A 
ATOM     44  H   UNL A   1      42.297  28.577  30.429  1.00  0.00     0.167 HD
ATOM     45  C   UNL A   1      42.304  24.592  28.517  1.00  0.00     0.031 A 
ATOM     46  C   UNL A   1      43.237  30.559  32.144  1.00  0.00     0.031 A 
ATOM     47  C   UNL A   1      43.500  24.640  29.311  1.00  0.00     0.049 A 
ATOM     48  C   UNL A   1      44.205  29.412  32.225  1.00  0.00     0.074 A 
ATOM     49  C   UNL A   1      44.495  23.688  29.439  1.00  0.00     0.029 A 
ATOM     50  N   UNL A   1      43.861  25.711  30.118  1.00  0.00    -0.354 N 
ATOM     51  N   UNL A   1      44.172  28.257  31.600  1.00  0.00    -0.248 NA
ATOM     52  C   UNL A   1      45.355  29.580  33.122  1.00  0.00     0.031 C 
ATOM     53  C   UNL A   1      45.437  24.166  30.357  1.00  0.00     0.029 A 
ATOM     54  C   UNL A   1      45.054  25.437  30.761  1.00  0.00     0.049 A 
ATOM     55  H   UNL A   1      43.342  26.541  30.218  1.00  0.00     0.167 HD
ATOM     56  C   UNL A   1      45.304  27.570  32.014  1.00  0.00     0.074 A 
ATOM     57  C   UNL A   1      46.011  28.444  32.930  1.00  0.00     0.031 C 
ATOM     58  C   UNL A   1      45.727  26.329  31.669  1.00  0.00     0.031 A 
BRANCH  45  59
ATOM     59  C   UNL A   1      42.011  23.361  27.710  1.00  0.00    -0.014 A 
ATOM     60  C   UNL A   1      42.537  23.186  26.420  1.00  0.00     0.009 A 
ATOM     61  C   UNL A   1      41.186  22.360  28.249  1.00  0.00     0.009 A 
ATOM     62  C   UNL A   1      42.215  22.050  25.674  1.00  0.00     0.001 A 
ATOM     63  C   UNL A   1      40.887  21.214  27.510  1.00  0.00     0.001 A 
ATOM     64  C   UNL A   1      41.394  21.065  26.220  1.00  0.00     0.000 A 
ENDBRANCH  45  59
BRANCH  46  65
ATOM     65  C   UNL A   1      43.439  31.793  32.944  1.00  0.00    -0.014 A 
ATOM     66  C   UNL A   1      44.164  32.874  32.421  1.00  0.00     0.009 A 
ATOM     67  C   UNL A   1      42.902  31.898  34.238  1.00  0.00     0.009 A 
ATOM     68  C   UNL A   1      44.360  34.028  33.184  1.00  0.00     0.001 A 
ATOM     69  C   UNL A   1      43.079  33.063  34.987  1.00  0.00     0.001 A 
ATOM     70  C   UNL A   1      43.814  34.124  34.463  1.00  0.00     0.000 A 
ENDBRANCH  46  65
BRANCH  58  71
ATOM     71  C   UNL A   1      47.026  25.867  32.259  1.00  0.00    -0.014 A 
ATOM     72  C   UNL A   1      47.064  25.164  33.473  1.00  0.00     0.009 A 
ATOM     73  C   UNL A   1      48.225  26.107  31.570  1.00  0.00     0.009 A 
ATOM     74  C   UNL A   1      48.283  24.738  34.000  1.00  0.00     0.001 A 
ATOM     75  C   UNL A   1      49.439  25.657  32.088  1.00  0.00     0.001 A 
ATOM     76  C   UNL A   1      49.468  24.981  33.306  1.00  0.00     0.000 A 
ENDBRANCH  58  71
ENDBRANCH  32  33
ENDBRANCH  25  27
ENDBRANCH  24  25
ENDBRANCH  23  24
ENDBRANCH   1  23
TORSDOF 16
ENDMDL
