MODEL 1
REMARK VINA RESULT:     -10.0      0.000      0.000
REMARK SMILES Cc1cc(Cl)c(C)c2c1O[C@H](C(F)(F)F)C(C(=O)OCCOC(=O)c1ccc(-c3c4nc(c(-c5ccccc5)c5ccc([nH]5)c(-c5ccccc5)c5nc(c(-c6ccccc6)c6ccc3[nH]6)C=C5)C=C4)cc1)=C2
REMARK SMILES IDX 21 1 20 2 19 3 17 4 18 5 16 6 1 7 2 8 3 9 9 10 4 11 8 12
REMARK SMILES IDX 10 13 5 14 6 15 73 16 11 17 7 18 12 19 13 20 14 21 15 22
REMARK SMILES IDX 22 23 23 24 24 25 25 26 26 27 72 28 27 29 71 30 28 31 29 32
REMARK SMILES IDX 30 33 65 34 31 35 70 36 64 37 66 38 32 39 69 40 63 41 62 42
REMARK SMILES IDX 33 44 55 45 40 46 54 47 41 48 44 49 53 50 67 51 42 52 43 53
REMARK SMILES IDX 52 55 68 56 45 57 34 58 35 59 39 60 36 61 38 62 37 63 56 64
REMARK SMILES IDX 57 65 61 66 58 67 60 68 59 69 46 70 47 71 51 72 48 73 50 74
REMARK SMILES IDX 49 75
REMARK H PARENT 66 43 44 54
REMARK Flexibility Score: inf
ROOT
ATOM      1  C   UNL A   1      41.036  19.826  26.126  1.00  0.00     0.275 C 
ENDROOT
BRANCH   1   2
ATOM      2  C   UNL A   1      42.426  20.016  26.733  1.00  0.00     0.275 C 
BRANCH   2   3
ATOM      3  O   UNL A   1      43.334  20.604  25.775  1.00  0.00    -0.459 OA
BRANCH   3   4
ATOM      4  C   UNL A   1      43.259  21.947  25.643  1.00  0.00     0.338 C 
ATOM      5  O   UNL A   1      42.398  22.578  25.051  1.00  0.00    -0.246 OA
BRANCH   4   6
ATOM      6  C   UNL A   1      44.388  22.596  26.336  1.00  0.00     0.087 C 
ATOM      7  C   UNL A   1      48.869  24.842  27.339  1.00  0.00     0.048 C 
ATOM      8  C   UNL A   1      47.509  24.828  27.978  1.00  0.00    -0.007 A 
ATOM      9  C   UNL A   1      47.284  25.599  29.123  1.00  0.00     0.028 A 
ATOM     10  C   UNL A   1      46.470  24.031  27.481  1.00  0.00     0.131 A 
ATOM     11  C   UNL A   1      46.041  25.595  29.761  1.00  0.00     0.045 A 
ATOM     12  C   UNL A   1      45.206  24.040  28.097  1.00  0.00     0.022 A 
ATOM     13  O   UNL A   1      46.778  23.245  26.402  1.00  0.00    -0.475 OA
ATOM     14  Cl  UNL A   1      45.893  26.592  31.167  1.00  0.00    -0.084 Cl
ATOM     15  C   UNL A   1      44.980  24.819  29.265  1.00  0.00    -0.021 A 
ATOM     16  C   UNL A   1      44.142  23.253  27.475  1.00  0.00     0.027 C 
ATOM     17  C   UNL A   1      45.718  22.606  25.652  1.00  0.00     0.316 C 
ATOM     18  C   UNL A   1      43.635  24.804  29.950  1.00  0.00     0.047 C 
BRANCH  17  19
ATOM     19  C   UNL A   1      45.631  23.250  24.259  1.00  0.00     0.430 C 
ATOM     20  F   UNL A   1      46.853  23.620  23.809  1.00  0.00    -0.167 F 
ATOM     21  F   UNL A   1      45.130  22.386  23.343  1.00  0.00    -0.167 F 
ATOM     22  F   UNL A   1      44.843  24.349  24.251  1.00  0.00    -0.167 F 
ENDBRANCH  17  19
ENDBRANCH   4   6
ENDBRANCH   3   4
ENDBRANCH   2   3
ENDBRANCH   1   2
BRANCH   1  23
ATOM     23  O   UNL A   1      40.056  20.515  26.924  1.00  0.00    -0.458 OA
BRANCH  23  24
ATOM     24  C   UNL A   1      39.317  21.439  26.271  1.00  0.00     0.338 C 
ATOM     25  O   UNL A   1      38.512  21.250  25.376  1.00  0.00    -0.246 OA
BRANCH  24  26
ATOM     26  C   UNL A   1      39.550  22.771  26.851  1.00  0.00     0.060 A 
ATOM     27  C   UNL A   1      39.021  23.884  26.210  1.00  0.00     0.016 A 
ATOM     28  C   UNL A   1      40.448  22.939  27.903  1.00  0.00     0.016 A 
ATOM     29  C   UNL A   1      39.509  25.153  26.502  1.00  0.00     0.010 A 
ATOM     30  C   UNL A   1      40.826  24.232  28.291  1.00  0.00     0.010 A 
ATOM     31  C   UNL A   1      40.415  25.357  27.553  1.00  0.00    -0.014 A 
BRANCH  31  32
ATOM     32  C   UNL A   1      40.966  26.722  27.825  1.00  0.00     0.031 A 
ATOM     33  C   UNL A   1      42.309  27.132  27.262  1.00  0.00     0.074 A 
ATOM     34  C   UNL A   1      40.256  27.631  28.528  1.00  0.00     0.049 A 
ATOM     35  N   UNL A   1      43.035  28.188  27.541  1.00  0.00    -0.248 NA
ATOM     36  C   UNL A   1      42.924  26.236  26.269  1.00  0.00     0.031 C 
ATOM     37  C   UNL A   1      38.914  27.427  29.078  1.00  0.00     0.029 A 
ATOM     38  N   UNL A   1      40.556  28.927  28.878  1.00  0.00    -0.354 N 
ATOM     39  C   UNL A   1      44.214  28.044  26.816  1.00  0.00     0.074 A 
ATOM     40  C   UNL A   1      44.111  26.799  26.087  1.00  0.00     0.031 C 
ATOM     41  C   UNL A   1      38.474  28.576  29.610  1.00  0.00     0.029 A 
ATOM     42  C   UNL A   1      39.548  29.558  29.569  1.00  0.00     0.049 A 
ATOM     43  H   UNL A   1      41.410  29.362  28.656  1.00  0.00     0.167 HD
ATOM     44  C   UNL A   1      45.285  28.873  26.761  1.00  0.00     0.031 A 
ATOM     45  C   UNL A   1      39.498  30.770  30.155  1.00  0.00     0.031 A 
ATOM     46  C   UNL A   1      45.363  30.143  27.432  1.00  0.00     0.049 A 
ATOM     47  C   UNL A   1      40.720  31.641  30.142  1.00  0.00     0.074 A 
ATOM     48  C   UNL A   1      46.408  31.052  27.437  1.00  0.00     0.029 A 
ATOM     49  N   UNL A   1      44.347  30.700  28.193  1.00  0.00    -0.354 N 
ATOM     50  N   UNL A   1      41.865  31.442  29.539  1.00  0.00    -0.248 NA
ATOM     51  C   UNL A   1      40.653  32.886  30.920  1.00  0.00     0.031 C 
ATOM     52  C   UNL A   1      46.042  32.136  28.240  1.00  0.00     0.029 A 
ATOM     53  C   UNL A   1      44.749  31.929  28.688  1.00  0.00     0.049 A 
ATOM     54  H   UNL A   1      43.470  30.282  28.357  1.00  0.00     0.167 HD
ATOM     55  C   UNL A   1      42.656  32.536  29.863  1.00  0.00     0.074 A 
ATOM     56  C   UNL A   1      41.850  33.408  30.691  1.00  0.00     0.031 C 
ATOM     57  C   UNL A   1      43.941  32.786  29.515  1.00  0.00     0.031 A 
BRANCH  44  58
ATOM     58  C   UNL A   1      46.486  28.424  25.974  1.00  0.00    -0.014 A 
ATOM     59  C   UNL A   1      47.750  28.292  26.567  1.00  0.00     0.009 A 
ATOM     60  C   UNL A   1      46.328  28.057  24.626  1.00  0.00     0.009 A 
ATOM     61  C   UNL A   1      48.836  27.824  25.820  1.00  0.00     0.001 A 
ATOM     62  C   UNL A   1      47.407  27.563  23.892  1.00  0.00     0.001 A 
ATOM     63  C   UNL A   1      48.662  27.453  24.487  1.00  0.00     0.000 A 
ENDBRANCH  44  58
BRANCH  45  64
ATOM     64  C   UNL A   1      38.263  31.198  30.867  1.00  0.00    -0.014 A 
ATOM     65  C   UNL A   1      38.081  30.895  32.225  1.00  0.00     0.009 A 
ATOM     66  C   UNL A   1      37.270  31.935  30.200  1.00  0.00     0.009 A 
ATOM     67  C   UNL A   1      36.931  31.318  32.896  1.00  0.00     0.001 A 
ATOM     68  C   UNL A   1      36.139  32.387  30.882  1.00  0.00     0.001 A 
ATOM     69  C   UNL A   1      35.967  32.073  32.228  1.00  0.00     0.000 A 
ENDBRANCH  45  64
BRANCH  57  70
ATOM     70  C   UNL A   1      44.557  34.059  30.016  1.00  0.00    -0.014 A 
ATOM     71  C   UNL A   1      45.235  34.099  31.244  1.00  0.00     0.009 A 
ATOM     72  C   UNL A   1      44.512  35.216  29.224  1.00  0.00     0.009 A 
ATOM     73  C   UNL A   1      45.840  35.281  31.677  1.00  0.00     0.001 A 
ATOM     74  C   UNL A   1      45.139  36.389  29.646  1.00  0.00     0.001 A 
ATOM     75  C   UNL A   1      45.797  36.422  30.875  1.00  0.00     0.000 A 
ENDBRANCH  57  70
ENDBRANCH  31  32
ENDBRANCH  24  26
ENDBRANCH  23  24
ENDBRANCH   1  23
TORSDOF 12
ENDMDL
MODEL 2
REMARK VINA RESULT:      -9.9      5.923     11.286
REMARK SMILES Cc1cc(Cl)c(C)c2c1O[C@H](C(F)(F)F)C(C(=O)OCCOC(=O)c1ccc(-c3c4nc(c(-c5ccccc5)c5ccc([nH]5)c(-c5ccccc5)c5nc(c(-c6ccccc6)c6ccc3[nH]6)C=C5)C=C4)cc1)=C2
REMARK SMILES IDX 21 1 20 2 19 3 17 4 18 5 16 6 1 7 2 8 3 9 9 10 4 11 8 12
REMARK SMILES IDX 10 13 5 14 6 15 73 16 11 17 7 18 12 19 13 20 14 21 15 22
REMARK SMILES IDX 22 23 23 24 24 25 25 26 26 27 72 28 27 29 71 30 28 31 29 32
REMARK SMILES IDX 30 33 65 34 31 35 70 36 64 37 66 38 32 39 69 40 63 41 62 42
REMARK SMILES IDX 33 44 55 45 40 46 54 47 41 48 44 49 53 50 67 51 42 52 43 53
REMARK SMILES IDX 52 55 68 56 45 57 34 58 35 59 39 60 36 61 38 62 37 63 56 64
REMARK SMILES IDX 57 65 61 66 58 67 60 68 59 69 46 70 47 71 51 72 48 73 50 74
REMARK SMILES IDX 49 75
REMARK H PARENT 66 43 44 54
REMARK Flexibility Score: inf
ROOT
ATOM      1  C   UNL A   1      33.269  34.028  28.370  1.00  0.00     0.275 C 
ENDROOT
BRANCH   1   2
ATOM      2  C   UNL A   1      34.219  34.946  29.138  1.00  0.00     0.275 C 
BRANCH   2   3
ATOM      3  O   UNL A   1      34.107  34.734  30.563  1.00  0.00    -0.459 OA
BRANCH   3   4
ATOM      4  C   UNL A   1      34.777  33.667  31.052  1.00  0.00     0.338 C 
ATOM      5  O   UNL A   1      34.458  32.493  30.951  1.00  0.00    -0.246 OA
BRANCH   4   6
ATOM      6  C   UNL A   1      36.001  34.104  31.750  1.00  0.00     0.087 C 
ATOM      7  C   UNL A   1      39.353  35.431  35.372  1.00  0.00     0.048 C 
ATOM      8  C   UNL A   1      39.444  34.891  33.973  1.00  0.00    -0.007 A 
ATOM      9  C   UNL A   1      40.703  34.623  33.424  1.00  0.00     0.028 A 
ATOM     10  C   UNL A   1      38.303  34.686  33.187  1.00  0.00     0.131 A 
ATOM     11  C   UNL A   1      40.831  34.142  32.118  1.00  0.00     0.045 A 
ATOM     12  C   UNL A   1      38.416  34.176  31.882  1.00  0.00     0.022 A 
ATOM     13  O   UNL A   1      37.108  35.038  33.760  1.00  0.00    -0.475 OA
ATOM     14  Cl  UNL A   1      42.441  33.851  31.558  1.00  0.00    -0.084 Cl
ATOM     15  C   UNL A   1      39.696  33.910  31.323  1.00  0.00    -0.021 A 
ATOM     16  C   UNL A   1      37.180  33.904  31.150  1.00  0.00     0.027 C 
ATOM     17  C   UNL A   1      35.867  34.612  33.150  1.00  0.00     0.316 C 
ATOM     18  C   UNL A   1      39.824  33.397  29.909  1.00  0.00     0.047 C 
BRANCH  17  19
ATOM     19  C   UNL A   1      35.187  33.579  34.063  1.00  0.00     0.430 C 
ATOM     20  F   UNL A   1      35.371  33.879  35.370  1.00  0.00    -0.167 F 
ATOM     21  F   UNL A   1      33.848  33.543  33.861  1.00  0.00    -0.167 F 
ATOM     22  F   UNL A   1      35.660  32.328  33.861  1.00  0.00    -0.167 F 
ENDBRANCH  17  19
ENDBRANCH   4   6
ENDBRANCH   3   4
ENDBRANCH   2   3
ENDBRANCH   1   2
BRANCH   1  23
ATOM     23  O   UNL A   1      34.010  33.252  27.410  1.00  0.00    -0.458 OA
BRANCH  23  24
ATOM     24  C   UNL A   1      33.872  31.912  27.512  1.00  0.00     0.338 C 
ATOM     25  O   UNL A   1      32.863  31.251  27.333  1.00  0.00    -0.246 OA
BRANCH  24  26
ATOM     26  C   UNL A   1      35.176  31.294  27.804  1.00  0.00     0.060 A 
ATOM     27  C   UNL A   1      35.226  29.933  28.076  1.00  0.00     0.016 A 
ATOM     28  C   UNL A   1      36.305  32.084  28.004  1.00  0.00     0.016 A 
ATOM     29  C   UNL A   1      36.343  29.390  28.703  1.00  0.00     0.010 A 
ATOM     30  C   UNL A   1      37.479  31.499  28.501  1.00  0.00     0.010 A 
ATOM     31  C   UNL A   1      37.496  30.157  28.921  1.00  0.00    -0.014 A 
BRANCH  31  32
ATOM     32  C   UNL A   1      38.672  29.571  29.638  1.00  0.00     0.031 A 
ATOM     33  C   UNL A   1      38.907  29.874  31.101  1.00  0.00     0.074 A 
ATOM     34  C   UNL A   1      39.515  28.720  29.012  1.00  0.00     0.049 A 
ATOM     35  N   UNL A   1      39.960  29.620  31.840  1.00  0.00    -0.248 NA
ATOM     36  C   UNL A   1      37.826  30.562  31.827  1.00  0.00     0.031 C 
ATOM     37  C   UNL A   1      39.392  28.262  27.626  1.00  0.00     0.029 A 
ATOM     38  N   UNL A   1      40.631  28.062  29.473  1.00  0.00    -0.354 N 
ATOM     39  C   UNL A   1      39.696  30.179  33.087  1.00  0.00     0.074 A 
ATOM     40  C   UNL A   1      38.388  30.788  33.007  1.00  0.00     0.031 C 
ATOM     41  C   UNL A   1      40.330  27.336  27.381  1.00  0.00     0.029 A 
ATOM     42  C   UNL A   1      41.208  27.235  28.538  1.00  0.00     0.049 A 
ATOM     43  H   UNL A   1      40.984  28.173  30.385  1.00  0.00     0.167 HD
ATOM     44  C   UNL A   1      40.474  30.184  34.197  1.00  0.00     0.031 A 
ATOM     45  C   UNL A   1      42.344  26.512  28.574  1.00  0.00     0.031 A 
ATOM     46  C   UNL A   1      41.747  29.522  34.300  1.00  0.00     0.049 A 
ATOM     47  C   UNL A   1      43.223  26.589  29.788  1.00  0.00     0.074 A 
ATOM     48  C   UNL A   1      42.607  29.473  35.385  1.00  0.00     0.029 A 
ATOM     49  N   UNL A   1      42.330  28.768  33.294  1.00  0.00    -0.354 N 
ATOM     50  N   UNL A   1      43.009  27.209  30.921  1.00  0.00    -0.248 NA
ATOM     51  C   UNL A   1      44.517  25.896  29.712  1.00  0.00     0.031 C 
ATOM     52  C   UNL A   1      43.733  28.730  35.018  1.00  0.00     0.029 A 
ATOM     53  C   UNL A   1      43.547  28.268  33.726  1.00  0.00     0.049 A 
ATOM     54  H   UNL A   1      41.937  28.612  32.405  1.00  0.00     0.167 HD
ATOM     55  C   UNL A   1      44.139  26.981  31.695  1.00  0.00     0.074 A 
ATOM     56  C   UNL A   1      45.022  26.142  30.913  1.00  0.00     0.031 C 
ATOM     57  C   UNL A   1      44.421  27.440  32.938  1.00  0.00     0.031 A 
BRANCH  44  58
ATOM     58  C   UNL A   1      39.991  30.959  35.394  1.00  0.00    -0.014 A 
ATOM     59  C   UNL A   1      40.807  31.897  36.044  1.00  0.00     0.009 A 
ATOM     60  C   UNL A   1      38.665  30.795  35.831  1.00  0.00     0.009 A 
ATOM     61  C   UNL A   1      40.311  32.637  37.122  1.00  0.00     0.001 A 
ATOM     62  C   UNL A   1      38.165  31.557  36.888  1.00  0.00     0.001 A 
ATOM     63  C   UNL A   1      38.991  32.472  37.538  1.00  0.00     0.000 A 
ENDBRANCH  44  58
BRANCH  45  64
ATOM     64  C   UNL A   1      42.749  25.707  27.389  1.00  0.00    -0.014 A 
ATOM     65  C   UNL A   1      43.552  26.269  26.386  1.00  0.00     0.009 A 
ATOM     66  C   UNL A   1      42.353  24.365  27.267  1.00  0.00     0.009 A 
ATOM     67  C   UNL A   1      43.948  25.504  25.285  1.00  0.00     0.001 A 
ATOM     68  C   UNL A   1      42.780  23.592  26.185  1.00  0.00     0.001 A 
ATOM     69  C   UNL A   1      43.572  24.164  25.192  1.00  0.00     0.000 A 
ENDBRANCH  45  64
BRANCH  57  70
ATOM     70  C   UNL A   1      45.735  27.035  33.540  1.00  0.00    -0.014 A 
ATOM     71  C   UNL A   1      45.873  25.814  34.217  1.00  0.00     0.009 A 
ATOM     72  C   UNL A   1      46.861  27.855  33.376  1.00  0.00     0.009 A 
ATOM     73  C   UNL A   1      47.111  25.431  34.735  1.00  0.00     0.001 A 
ATOM     74  C   UNL A   1      48.104  27.459  33.871  1.00  0.00     0.001 A 
ATOM     75  C   UNL A   1      48.227  26.250  34.555  1.00  0.00     0.000 A 
ENDBRANCH  57  70
ENDBRANCH  31  32
ENDBRANCH  24  26
ENDBRANCH  23  24
ENDBRANCH   1  23
TORSDOF 12
ENDMDL
MODEL 3
REMARK VINA RESULT:      -9.9      5.988     10.134
REMARK SMILES Cc1cc(Cl)c(C)c2c1O[C@H](C(F)(F)F)C(C(=O)OCCOC(=O)c1ccc(-c3c4nc(c(-c5ccccc5)c5ccc([nH]5)c(-c5ccccc5)c5nc(c(-c6ccccc6)c6ccc3[nH]6)C=C5)C=C4)cc1)=C2
REMARK SMILES IDX 21 1 20 2 19 3 17 4 18 5 16 6 1 7 2 8 3 9 9 10 4 11 8 12
REMARK SMILES IDX 10 13 5 14 6 15 73 16 11 17 7 18 12 19 13 20 14 21 15 22
REMARK SMILES IDX 22 23 23 24 24 25 25 26 26 27 72 28 27 29 71 30 28 31 29 32
REMARK SMILES IDX 30 33 65 34 31 35 70 36 64 37 66 38 32 39 69 40 63 41 62 42
REMARK SMILES IDX 33 44 55 45 40 46 54 47 41 48 44 49 53 50 67 51 42 52 43 53
REMARK SMILES IDX 52 55 68 56 45 57 34 58 35 59 39 60 36 61 38 62 37 63 56 64
REMARK SMILES IDX 57 65 61 66 58 67 60 68 59 69 46 70 47 71 51 72 48 73 50 74
REMARK SMILES IDX 49 75
REMARK H PARENT 66 43 44 54
REMARK Flexibility Score: inf
ROOT
ATOM      1  C   UNL A   1      33.188  33.911  28.302  1.00  0.00     0.275 C 
ENDROOT
BRANCH   1   2
ATOM      2  C   UNL A   1      34.135  34.955  28.893  1.00  0.00     0.275 C 
BRANCH   2   3
ATOM      3  O   UNL A   1      34.122  34.910  30.336  1.00  0.00    -0.459 OA
BRANCH   3   4
ATOM      4  C   UNL A   1      34.713  33.831  30.896  1.00  0.00     0.338 C 
ATOM      5  O   UNL A   1      34.339  32.671  30.822  1.00  0.00    -0.246 OA
BRANCH   4   6
ATOM      6  C   UNL A   1      35.923  34.233  31.637  1.00  0.00     0.087 C 
ATOM      7  C   UNL A   1      39.226  35.321  35.382  1.00  0.00     0.048 C 
ATOM      8  C   UNL A   1      39.336  34.903  33.943  1.00  0.00    -0.007 A 
ATOM      9  C   UNL A   1      40.603  34.709  33.383  1.00  0.00     0.028 A 
ATOM     10  C   UNL A   1      38.204  34.741  33.135  1.00  0.00     0.131 A 
ATOM     11  C   UNL A   1      40.749  34.343  32.042  1.00  0.00     0.045 A 
ATOM     12  C   UNL A   1      38.335  34.345  31.792  1.00  0.00     0.022 A 
ATOM     13  O   UNL A   1      36.999  35.017  33.726  1.00  0.00    -0.475 OA
ATOM     14  Cl  UNL A   1      42.368  34.134  31.471  1.00  0.00    -0.084 Cl
ATOM     15  C   UNL A   1      39.623  34.155  31.221  1.00  0.00    -0.021 A 
ATOM     16  C   UNL A   1      37.110  34.110  31.031  1.00  0.00     0.027 C 
ATOM     17  C   UNL A   1      35.770  34.619  33.073  1.00  0.00     0.316 C 
ATOM     18  C   UNL A   1      39.770  33.766  29.770  1.00  0.00     0.047 C 
BRANCH  17  19
ATOM     19  C   UNL A   1      35.108  33.498  33.892  1.00  0.00     0.430 C 
ATOM     20  F   UNL A   1      33.763  33.507  33.743  1.00  0.00    -0.167 F 
ATOM     21  F   UNL A   1      35.532  32.275  33.493  1.00  0.00    -0.167 F 
ATOM     22  F   UNL A   1      35.373  33.607  35.214  1.00  0.00    -0.167 F 
ENDBRANCH  17  19
ENDBRANCH   4   6
ENDBRANCH   3   4
ENDBRANCH   2   3
ENDBRANCH   1   2
BRANCH   1  23
ATOM     23  O   UNL A   1      33.874  33.142  27.297  1.00  0.00    -0.458 OA
BRANCH  23  24
ATOM     24  C   UNL A   1      33.794  31.800  27.434  1.00  0.00     0.338 C 
ATOM     25  O   UNL A   1      32.822  31.089  27.241  1.00  0.00    -0.246 OA
BRANCH  24  26
ATOM     26  C   UNL A   1      35.113  31.251  27.785  1.00  0.00     0.060 A 
ATOM     27  C   UNL A   1      35.201  29.926  28.192  1.00  0.00     0.016 A 
ATOM     28  C   UNL A   1      36.220  32.088  27.903  1.00  0.00     0.016 A 
ATOM     29  C   UNL A   1      36.331  29.481  28.869  1.00  0.00     0.010 A 
ATOM     30  C   UNL A   1      37.409  31.589  28.455  1.00  0.00     0.010 A 
ATOM     31  C   UNL A   1      37.462  30.297  29.008  1.00  0.00    -0.014 A 
BRANCH  31  32
ATOM     32  C   UNL A   1      38.653  29.820  29.779  1.00  0.00     0.031 A 
ATOM     33  C   UNL A   1      39.723  28.992  29.103  1.00  0.00     0.074 A 
ATOM     34  C   UNL A   1      38.824  30.161  31.075  1.00  0.00     0.049 A 
ATOM     35  N   UNL A   1      40.721  28.331  29.639  1.00  0.00    -0.248 NA
ATOM     36  C   UNL A   1      39.660  28.880  27.636  1.00  0.00     0.031 C 
ATOM     37  C   UNL A   1      37.929  31.014  31.860  1.00  0.00     0.029 A 
ATOM     38  N   UNL A   1      39.834  29.853  31.958  1.00  0.00    -0.354 N 
ATOM     39  C   UNL A   1      41.352  27.673  28.589  1.00  0.00     0.074 A 
ATOM     40  C   UNL A   1      40.627  28.008  27.384  1.00  0.00     0.031 C 
ATOM     41  C   UNL A   1      38.470  31.234  33.066  1.00  0.00     0.029 A 
ATOM     42  C   UNL A   1      39.677  30.430  33.197  1.00  0.00     0.049 A 
ATOM     43  H   UNL A   1      40.595  29.275  31.726  1.00  0.00     0.167 HD
ATOM     44  C   UNL A   1      42.438  26.862  28.624  1.00  0.00     0.031 A 
ATOM     45  C   UNL A   1      40.384  30.293  34.335  1.00  0.00     0.031 A 
ATOM     46  C   UNL A   1      43.202  26.579  29.810  1.00  0.00     0.049 A 
ATOM     47  C   UNL A   1      41.540  29.337  34.368  1.00  0.00     0.074 A 
ATOM     48  C   UNL A   1      44.317  25.769  29.944  1.00  0.00     0.029 A 
ATOM     49  N   UNL A   1      42.949  27.120  31.061  1.00  0.00    -0.354 N 
ATOM     50  N   UNL A   1      42.060  28.640  33.389  1.00  0.00    -0.248 NA
ATOM     51  C   UNL A   1      42.182  29.121  35.672  1.00  0.00     0.031 C 
ATOM     52  C   UNL A   1      44.710  25.782  31.285  1.00  0.00     0.029 A 
ATOM     53  C   UNL A   1      43.875  26.645  31.975  1.00  0.00     0.049 A 
ATOM     54  H   UNL A   1      42.220  27.749  31.268  1.00  0.00     0.167 HD
ATOM     55  C   UNL A   1      43.091  27.904  33.957  1.00  0.00     0.074 A 
ATOM     56  C   UNL A   1      43.142  28.262  35.359  1.00  0.00     0.031 C 
ATOM     57  C   UNL A   1      43.913  27.002  33.368  1.00  0.00     0.031 A 
BRANCH  44  58
ATOM     58  C   UNL A   1      42.857  26.186  27.346  1.00  0.00    -0.014 A 
ATOM     59  C   UNL A   1      43.824  26.746  26.498  1.00  0.00     0.009 A 
ATOM     60  C   UNL A   1      42.320  24.928  27.026  1.00  0.00     0.009 A 
ATOM     61  C   UNL A   1      44.228  26.068  25.344  1.00  0.00     0.001 A 
ATOM     62  C   UNL A   1      42.747  24.240  25.888  1.00  0.00     0.001 A 
ATOM     63  C   UNL A   1      43.695  24.815  25.044  1.00  0.00     0.000 A 
ENDBRANCH  44  58
BRANCH  45  64
ATOM     64  C   UNL A   1      39.971  31.034  35.558  1.00  0.00    -0.014 A 
ATOM     65  C   UNL A   1      40.847  31.940  36.173  1.00  0.00     0.009 A 
ATOM     66  C   UNL A   1      38.688  30.857  36.103  1.00  0.00     0.009 A 
ATOM     67  C   UNL A   1      40.448  32.650  37.309  1.00  0.00     0.001 A 
ATOM     68  C   UNL A   1      38.279  31.595  37.216  1.00  0.00     0.001 A 
ATOM     69  C   UNL A   1      39.162  32.486  37.821  1.00  0.00     0.000 A 
ENDBRANCH  45  64
BRANCH  57  70
ATOM     70  C   UNL A   1      44.948  26.345  34.233  1.00  0.00    -0.014 A 
ATOM     71  C   UNL A   1      46.215  26.923  34.408  1.00  0.00     0.009 A 
ATOM     72  C   UNL A   1      44.633  25.168  34.929  1.00  0.00     0.009 A 
ATOM     73  C   UNL A   1      47.153  26.322  35.249  1.00  0.00     0.001 A 
ATOM     74  C   UNL A   1      45.563  24.584  35.789  1.00  0.00     0.001 A 
ATOM     75  C   UNL A   1      46.824  25.158  35.945  1.00  0.00     0.000 A 
ENDBRANCH  57  70
ENDBRANCH  31  32
ENDBRANCH  24  26
ENDBRANCH  23  24
ENDBRANCH   1  23
TORSDOF 12
ENDMDL
