MODEL 1
REMARK VINA RESULT:     -12.3      0.000      0.000
REMARK SMILES O=C1NC(=O)/C(=C/c2ccc(OCc3cn(-c4ccc(C(=O)OCCOC(=O)c5ccc(-c6c7nc(c(-c8ccccc8)c8ccc([nH]8)c(-c8ccccc8)c8nc(c(-c9ccccc9)c9ccc6[nH]9)C=C8)C=C7)cc5)cc4)nn3)cc2)S1
REMARK SMILES IDX 23 1 21 2 22 3 20 4 17 5 18 6 78 7 19 8 77 9 16 10 14 11
REMARK SMILES IDX 15 12 80 13 79 14 13 15 12 16 11 17 8 18 9 19 82 20 10 21
REMARK SMILES IDX 81 22 7 23 1 24 2 25 3 26 83 27 4 28 6 30 5 31 24 32 25 33
REMARK SMILES IDX 26 34 27 35 28 36 29 37 30 38 76 39 31 40 75 41 32 42 33 43
REMARK SMILES IDX 34 44 69 45 35 46 74 47 68 48 70 49 36 50 73 51 67 52 66 53
REMARK SMILES IDX 37 55 59 56 44 57 58 58 45 59 48 60 57 61 71 62 46 63 47 64
REMARK SMILES IDX 56 66 72 67 49 68 38 69 39 70 43 71 40 72 42 73 41 74 60 75
REMARK SMILES IDX 61 76 65 77 62 78 64 79 63 80 50 81 51 82 55 83 52 84 54 85
REMARK SMILES IDX 53 86
REMARK H PARENT 3 29 70 54 48 65
REMARK Flexibility Score: inf
ROOT
ATOM      1  O   UNL A   1      40.867  20.679  26.303  1.00  0.00    -0.458 OA
ENDROOT
BRANCH   1   2
ATOM      2  C   UNL A   1      39.787  20.051  25.775  1.00  0.00     0.338 C 
ATOM      3  O   UNL A   1      39.705  18.867  25.486  1.00  0.00    -0.246 OA
BRANCH   2   4
ATOM      4  C   UNL A   1      38.645  20.985  25.679  1.00  0.00     0.060 A 
ATOM      5  C   UNL A   1      36.516  22.782  25.707  1.00  0.00     0.066 A 
ATOM      6  C   UNL A   1      37.792  23.205  26.105  1.00  0.00     0.029 A 
ATOM      7  C   UNL A   1      36.318  21.481  25.228  1.00  0.00     0.029 A 
ATOM      8  C   UNL A   1      38.846  22.298  26.119  1.00  0.00     0.018 A 
ATOM      9  C   UNL A   1      37.393  20.589  25.191  1.00  0.00     0.018 A 
BRANCH   5  10
ATOM     10  N   UNL A   1      35.431  23.669  25.873  1.00  0.00    -0.220 N 
ATOM     11  C   UNL A   1      33.927  25.227  25.618  1.00  0.00     0.120 A 
ATOM     12  C   UNL A   1      35.210  24.878  25.252  1.00  0.00     0.144 A 
ATOM     13  N   UNL A   1      33.435  24.263  26.455  1.00  0.00    -0.131 NA
ATOM     14  N   UNL A   1      34.348  23.322  26.599  1.00  0.00    -0.062 NA
BRANCH  11  15
ATOM     15  C   UNL A   1      33.047  26.344  25.159  1.00  0.00     0.289 C 
BRANCH  15  16
ATOM     16  O   UNL A   1      32.504  26.197  23.837  1.00  0.00    -0.487 OA
BRANCH  16  17
ATOM     17  C   UNL A   1      32.422  24.938  23.307  1.00  0.00     0.119 A 
ATOM     18  C   UNL A   1      32.181  22.229  22.596  1.00  0.00    -0.024 A 
ATOM     19  C   UNL A   1      31.183  22.850  23.352  1.00  0.00     0.012 A 
ATOM     20  C   UNL A   1      33.247  22.995  22.122  1.00  0.00     0.012 A 
ATOM     21  C   UNL A   1      31.309  24.197  23.709  1.00  0.00     0.047 A 
ATOM     22  C   UNL A   1      33.351  24.348  22.452  1.00  0.00     0.047 A 
BRANCH  18  23
ATOM     23  C   UNL A   1      32.105  20.801  22.282  1.00  0.00     0.029 C 
ATOM     24  O   UNL A   1      32.830  17.578  26.082  1.00  0.00    -0.261 OA
ATOM     25  C   UNL A   1      32.632  18.159  25.034  1.00  0.00     0.290 C 
ATOM     26  N   UNL A   1      32.476  17.574  23.817  1.00  0.00    -0.282 N 
ATOM     27  S   UNL A   1      32.505  19.899  24.867  1.00  0.00    -0.022 SA
ATOM     28  C   UNL A   1      32.258  18.377  22.740  1.00  0.00     0.265 C 
ATOM     29  H   UNL A   1      32.520  16.596  23.718  1.00  0.00     0.174 HD
ATOM     30  C   UNL A   1      32.260  19.802  23.162  1.00  0.00     0.083 C 
ATOM     31  O   UNL A   1      32.101  17.979  21.596  1.00  0.00    -0.268 OA
ENDBRANCH  18  23
ENDBRANCH  16  17
ENDBRANCH  15  16
ENDBRANCH  11  15
ENDBRANCH   5  10
ENDBRANCH   2   4
ENDBRANCH   1   2
BRANCH   1  32
ATOM     32  C   UNL A   1      41.761  19.829  27.033  1.00  0.00     0.275 C 
BRANCH  32  33
ATOM     33  C   UNL A   1      42.917  19.361  26.160  1.00  0.00     0.275 C 
BRANCH  33  34
ATOM     34  O   UNL A   1      43.105  20.175  25.000  1.00  0.00    -0.458 OA
BRANCH  34  35
ATOM     35  C   UNL A   1      44.318  20.769  24.912  1.00  0.00     0.338 C 
ATOM     36  O   UNL A   1      45.390  20.235  24.681  1.00  0.00    -0.246 OA
BRANCH  35  37
ATOM     37  C   UNL A   1      44.217  22.152  25.394  1.00  0.00     0.060 A 
ATOM     38  C   UNL A   1      45.059  22.558  26.431  1.00  0.00     0.016 A 
ATOM     39  C   UNL A   1      43.131  22.939  24.984  1.00  0.00     0.016 A 
ATOM     40  C   UNL A   1      44.747  23.712  27.128  1.00  0.00     0.010 A 
ATOM     41  C   UNL A   1      42.811  24.079  25.690  1.00  0.00     0.010 A 
ATOM     42  C   UNL A   1      43.593  24.432  26.788  1.00  0.00    -0.014 A 
BRANCH  42  43
ATOM     43  C   UNL A   1      43.339  25.699  27.458  1.00  0.00     0.031 A 
ATOM     44  C   UNL A   1      44.352  26.723  27.104  1.00  0.00     0.074 A 
ATOM     45  C   UNL A   1      42.239  25.964  28.191  1.00  0.00     0.049 A 
ATOM     46  N   UNL A   1      45.212  27.272  27.892  1.00  0.00    -0.248 NA
ATOM     47  C   UNL A   1      44.549  27.047  25.678  1.00  0.00     0.031 C 
ATOM     48  C   UNL A   1      41.064  25.110  28.382  1.00  0.00     0.029 A 
ATOM     49  N   UNL A   1      41.882  27.114  28.836  1.00  0.00    -0.354 N 
ATOM     50  C   UNL A   1      45.916  28.175  27.105  1.00  0.00     0.074 A 
ATOM     51  C   UNL A   1      45.607  27.855  25.736  1.00  0.00     0.031 C 
ATOM     52  C   UNL A   1      40.046  25.852  28.877  1.00  0.00     0.029 A 
ATOM     53  C   UNL A   1      40.529  27.194  29.156  1.00  0.00     0.049 A 
ATOM     54  H   UNL A   1      42.528  27.825  29.056  1.00  0.00     0.167 HD
ATOM     55  C   UNL A   1      46.434  29.306  27.653  1.00  0.00     0.031 A 
ATOM     56  C   UNL A   1      39.847  28.297  29.565  1.00  0.00     0.031 A 
ATOM     57  C   UNL A   1      46.555  29.191  29.086  1.00  0.00     0.049 A 
ATOM     58  C   UNL A   1      40.835  29.278  30.060  1.00  0.00     0.074 A 
ATOM     59  C   UNL A   1      47.207  28.330  29.947  1.00  0.00     0.029 A 
ATOM     60  N   UNL A   1      45.595  29.825  29.834  1.00  0.00    -0.354 N 
ATOM     61  N   UNL A   1      41.514  29.120  31.158  1.00  0.00    -0.248 NA
ATOM     62  C   UNL A   1      41.383  30.237  29.118  1.00  0.00     0.031 C 
ATOM     63  C   UNL A   1      46.317  28.165  31.050  1.00  0.00     0.029 A 
ATOM     64  C   UNL A   1      45.211  28.991  30.849  1.00  0.00     0.049 A 
ATOM     65  H   UNL A   1      45.242  30.730  29.670  1.00  0.00     0.167 HD
ATOM     66  C   UNL A   1      42.788  29.559  30.836  1.00  0.00     0.074 A 
ATOM     67  C   UNL A   1      42.617  30.349  29.616  1.00  0.00     0.031 C 
ATOM     68  C   UNL A   1      43.884  28.993  31.423  1.00  0.00     0.031 A 
BRANCH  55  69
ATOM     69  C   UNL A   1      46.318  30.650  26.967  1.00  0.00    -0.014 A 
ATOM     70  C   UNL A   1      47.446  31.487  26.939  1.00  0.00     0.009 A 
ATOM     71  C   UNL A   1      45.083  31.245  26.638  1.00  0.00     0.009 A 
ATOM     72  C   UNL A   1      47.328  32.859  26.688  1.00  0.00     0.001 A 
ATOM     73  C   UNL A   1      44.967  32.606  26.343  1.00  0.00     0.001 A 
ATOM     74  C   UNL A   1      46.086  33.419  26.400  1.00  0.00     0.000 A 
ENDBRANCH  55  69
BRANCH  56  75
ATOM     75  C   UNL A   1      38.440  28.695  29.322  1.00  0.00    -0.014 A 
ATOM     76  C   UNL A   1      37.568  28.939  30.399  1.00  0.00     0.009 A 
ATOM     77  C   UNL A   1      38.037  29.132  28.049  1.00  0.00     0.009 A 
ATOM     78  C   UNL A   1      36.368  29.643  30.216  1.00  0.00     0.001 A 
ATOM     79  C   UNL A   1      36.837  29.829  27.865  1.00  0.00     0.001 A 
ATOM     80  C   UNL A   1      36.011  30.101  28.952  1.00  0.00     0.000 A 
ENDBRANCH  56  75
BRANCH  68  81
ATOM     81  C   UNL A   1      43.663  28.133  32.643  1.00  0.00    -0.014 A 
ATOM     82  C   UNL A   1      43.210  28.622  33.882  1.00  0.00     0.009 A 
ATOM     83  C   UNL A   1      43.833  26.747  32.501  1.00  0.00     0.009 A 
ATOM     84  C   UNL A   1      42.988  27.753  34.957  1.00  0.00     0.001 A 
ATOM     85  C   UNL A   1      43.585  25.879  33.564  1.00  0.00     0.001 A 
ATOM     86  C   UNL A   1      43.174  26.382  34.795  1.00  0.00     0.000 A 
ENDBRANCH  68  81
ENDBRANCH  42  43
ENDBRANCH  35  37
ENDBRANCH  34  35
ENDBRANCH  33  34
ENDBRANCH  32  33
ENDBRANCH   1  32
TORSDOF 16
ENDMDL
MODEL 2
REMARK VINA RESULT:     -12.2      2.465      4.077
REMARK SMILES O=C1NC(=O)/C(=C/c2ccc(OCc3cn(-c4ccc(C(=O)OCCOC(=O)c5ccc(-c6c7nc(c(-c8ccccc8)c8ccc([nH]8)c(-c8ccccc8)c8nc(c(-c9ccccc9)c9ccc6[nH]9)C=C8)C=C7)cc5)cc4)nn3)cc2)S1
REMARK SMILES IDX 23 1 21 2 22 3 20 4 17 5 18 6 78 7 19 8 77 9 16 10 14 11
REMARK SMILES IDX 15 12 80 13 79 14 13 15 12 16 11 17 8 18 9 19 82 20 10 21
REMARK SMILES IDX 81 22 7 23 1 24 2 25 3 26 83 27 4 28 6 30 5 31 24 32 25 33
REMARK SMILES IDX 26 34 27 35 28 36 29 37 30 38 76 39 31 40 75 41 32 42 33 43
REMARK SMILES IDX 34 44 69 45 35 46 74 47 68 48 70 49 36 50 73 51 67 52 66 53
REMARK SMILES IDX 37 55 59 56 44 57 58 58 45 59 48 60 57 61 71 62 46 63 47 64
REMARK SMILES IDX 56 66 72 67 49 68 38 69 39 70 43 71 40 72 42 73 41 74 60 75
REMARK SMILES IDX 61 76 65 77 62 78 64 79 63 80 50 81 51 82 55 83 52 84 54 85
REMARK SMILES IDX 53 86
REMARK H PARENT 3 29 70 54 48 65
REMARK Flexibility Score: inf
ROOT
ATOM      1  O   UNL A   1      42.623  19.074  25.699  1.00  0.00    -0.458 OA
ENDROOT
BRANCH   1   2
ATOM      2  C   UNL A   1      42.230  20.079  26.520  1.00  0.00     0.338 C 
ATOM      3  O   UNL A   1      42.914  20.636  27.365  1.00  0.00    -0.246 OA
BRANCH   2   4
ATOM      4  C   UNL A   1      40.851  20.503  26.193  1.00  0.00     0.060 A 
ATOM      5  C   UNL A   1      38.234  21.363  25.780  1.00  0.00     0.066 A 
ATOM      6  C   UNL A   1      39.202  22.268  26.238  1.00  0.00     0.029 A 
ATOM      7  C   UNL A   1      38.589  20.046  25.461  1.00  0.00     0.029 A 
ATOM      8  C   UNL A   1      40.501  21.829  26.472  1.00  0.00     0.018 A 
ATOM      9  C   UNL A   1      39.908  19.624  25.645  1.00  0.00     0.018 A 
BRANCH   5  10
ATOM     10  N   UNL A   1      36.890  21.788  25.723  1.00  0.00    -0.220 N 
ATOM     11  C   UNL A   1      35.049  22.958  25.708  1.00  0.00     0.120 A 
ATOM     12  C   UNL A   1      36.339  22.958  26.196  1.00  0.00     0.144 A 
ATOM     13  N   UNL A   1      34.851  21.803  25.003  1.00  0.00    -0.131 NA
ATOM     14  N   UNL A   1      35.970  21.103  25.011  1.00  0.00    -0.062 NA
BRANCH  11  15
ATOM     15  C   UNL A   1      33.990  24.011  25.738  1.00  0.00     0.289 C 
BRANCH  15  16
ATOM     16  O   UNL A   1      33.524  24.452  24.453  1.00  0.00    -0.487 OA
BRANCH  16  17
ATOM     17  C   UNL A   1      32.262  24.972  24.365  1.00  0.00     0.119 A 
ATOM     18  C   UNL A   1      29.820  26.285  23.900  1.00  0.00    -0.024 A 
ATOM     19  C   UNL A   1      30.546  25.751  22.832  1.00  0.00     0.012 A 
ATOM     20  C   UNL A   1      30.276  26.075  25.202  1.00  0.00     0.012 A 
ATOM     21  C   UNL A   1      31.764  25.103  23.066  1.00  0.00     0.047 A 
ATOM     22  C   UNL A   1      31.475  25.397  25.433  1.00  0.00     0.047 A 
BRANCH  18  23
ATOM     23  C   UNL A   1      28.585  27.036  23.666  1.00  0.00     0.029 C 
ATOM     24  O   UNL A   1      29.041  31.613  21.616  1.00  0.00    -0.261 OA
ATOM     25  C   UNL A   1      28.700  30.559  22.112  1.00  0.00     0.290 C 
ATOM     26  N   UNL A   1      27.430  30.218  22.460  1.00  0.00    -0.282 N 
ATOM     27  S   UNL A   1      29.785  29.236  22.491  1.00  0.00    -0.022 SA
ATOM     28  C   UNL A   1      27.220  28.988  23.005  1.00  0.00     0.265 C 
ATOM     29  H   UNL A   1      26.684  30.844  22.321  1.00  0.00     0.174 HD
ATOM     30  C   UNL A   1      28.510  28.260  23.122  1.00  0.00     0.083 C 
ATOM     31  O   UNL A   1      26.132  28.561  23.358  1.00  0.00    -0.268 OA
ENDBRANCH  18  23
ENDBRANCH  16  17
ENDBRANCH  15  16
ENDBRANCH  11  15
ENDBRANCH   5  10
ENDBRANCH   2   4
ENDBRANCH   1   2
BRANCH   1  32
ATOM     32  C   UNL A   1      43.825  18.404  26.099  1.00  0.00     0.275 C 
BRANCH  32  33
ATOM     33  C   UNL A   1      44.951  18.646  25.103  1.00  0.00     0.275 C 
BRANCH  33  34
ATOM     34  O   UNL A   1      45.442  19.988  25.131  1.00  0.00    -0.458 OA
BRANCH  34  35
ATOM     35  C   UNL A   1      44.870  20.821  24.231  1.00  0.00     0.338 C 
ATOM     36  O   UNL A   1      44.645  20.598  23.053  1.00  0.00    -0.246 OA
BRANCH  35  37
ATOM     37  C   UNL A   1      44.776  22.168  24.808  1.00  0.00     0.060 A 
ATOM     38  C   UNL A   1      45.617  22.494  25.875  1.00  0.00     0.016 A 
ATOM     39  C   UNL A   1      43.698  22.990  24.449  1.00  0.00     0.016 A 
ATOM     40  C   UNL A   1      45.310  23.599  26.649  1.00  0.00     0.010 A 
ATOM     41  C   UNL A   1      43.384  24.080  25.231  1.00  0.00     0.010 A 
ATOM     42  C   UNL A   1      44.162  24.351  26.354  1.00  0.00    -0.014 A 
BRANCH  42  43
ATOM     43  C   UNL A   1      43.915  25.569  27.110  1.00  0.00     0.031 A 
ATOM     44  C   UNL A   1      44.928  26.614  26.820  1.00  0.00     0.074 A 
ATOM     45  C   UNL A   1      42.819  25.786  27.865  1.00  0.00     0.049 A 
ATOM     46  N   UNL A   1      45.793  27.107  27.639  1.00  0.00    -0.248 NA
ATOM     47  C   UNL A   1      45.117  27.033  25.418  1.00  0.00     0.031 C 
ATOM     48  C   UNL A   1      41.644  24.923  28.004  1.00  0.00     0.029 A 
ATOM     49  N   UNL A   1      42.468  26.890  28.588  1.00  0.00    -0.354 N 
ATOM     50  C   UNL A   1      46.494  28.060  26.910  1.00  0.00     0.074 A 
ATOM     51  C   UNL A   1      46.177  27.834  25.524  1.00  0.00     0.031 C 
ATOM     52  C   UNL A   1      40.630  25.631  28.555  1.00  0.00     0.029 A 
ATOM     53  C   UNL A   1      41.117  26.951  28.921  1.00  0.00     0.049 A 
ATOM     54  H   UNL A   1      43.116  27.584  28.852  1.00  0.00     0.167 HD
ATOM     55  C   UNL A   1      47.017  29.151  27.531  1.00  0.00     0.031 A 
ATOM     56  C   UNL A   1      40.439  28.024  29.407  1.00  0.00     0.031 A 
ATOM     57  C   UNL A   1      47.146  28.939  28.952  1.00  0.00     0.049 A 
ATOM     58  C   UNL A   1      41.432  28.968  29.962  1.00  0.00     0.074 A 
ATOM     59  C   UNL A   1      47.801  28.021  29.749  1.00  0.00     0.029 A 
ATOM     60  N   UNL A   1      46.192  29.523  29.747  1.00  0.00    -0.354 N 
ATOM     61  N   UNL A   1      42.116  28.735  31.042  1.00  0.00    -0.248 NA
ATOM     62  C   UNL A   1      41.976  29.988  29.083  1.00  0.00     0.031 C 
ATOM     63  C   UNL A   1      46.917  27.782  30.843  1.00  0.00     0.029 A 
ATOM     64  C   UNL A   1      45.812  28.622  30.705  1.00  0.00     0.049 A 
ATOM     65  H   UNL A   1      45.839  30.436  29.645  1.00  0.00     0.167 HD
ATOM     66  C   UNL A   1      43.389  29.193  30.744  1.00  0.00     0.074 A 
ATOM     67  C   UNL A   1      43.213  30.064  29.581  1.00  0.00     0.031 C 
ATOM     68  C   UNL A   1      44.488  28.587  31.285  1.00  0.00     0.031 A 
BRANCH  55  69
ATOM     69  C   UNL A   1      46.900  30.538  26.938  1.00  0.00    -0.014 A 
ATOM     70  C   UNL A   1      48.013  31.392  27.008  1.00  0.00     0.009 A 
ATOM     71  C   UNL A   1      45.666  31.136  26.608  1.00  0.00     0.009 A 
ATOM     72  C   UNL A   1      47.878  32.777  26.851  1.00  0.00     0.001 A 
ATOM     73  C   UNL A   1      45.536  32.511  26.407  1.00  0.00     0.001 A 
ATOM     74  C   UNL A   1      46.637  33.336  26.559  1.00  0.00     0.000 A 
ENDBRANCH  55  69
BRANCH  56  75
ATOM     75  C   UNL A   1      39.031  28.440  29.199  1.00  0.00    -0.014 A 
ATOM     76  C   UNL A   1      38.133  28.492  30.280  1.00  0.00     0.009 A 
ATOM     77  C   UNL A   1      38.649  29.076  28.006  1.00  0.00     0.009 A 
ATOM     78  C   UNL A   1      36.926  29.201  30.188  1.00  0.00     0.001 A 
ATOM     79  C   UNL A   1      37.442  29.780  27.912  1.00  0.00     0.001 A 
ATOM     80  C   UNL A   1      36.589  29.858  29.008  1.00  0.00     0.000 A 
ENDBRANCH  56  75
BRANCH  68  81
ATOM     81  C   UNL A   1      44.272  27.647  32.445  1.00  0.00    -0.014 A 
ATOM     82  C   UNL A   1      44.216  26.246  32.325  1.00  0.00     0.009 A 
ATOM     83  C   UNL A   1      44.218  28.203  33.732  1.00  0.00     0.009 A 
ATOM     84  C   UNL A   1      44.056  25.436  33.456  1.00  0.00     0.001 A 
ATOM     85  C   UNL A   1      44.085  27.395  34.861  1.00  0.00     0.001 A 
ATOM     86  C   UNL A   1      43.993  26.013  34.723  1.00  0.00     0.000 A 
ENDBRANCH  68  81
ENDBRANCH  42  43
ENDBRANCH  35  37
ENDBRANCH  34  35
ENDBRANCH  33  34
ENDBRANCH  32  33
ENDBRANCH   1  32
TORSDOF 16
ENDMDL
MODEL 3
REMARK VINA RESULT:     -12.1      3.527      6.323
REMARK SMILES O=C1NC(=O)/C(=C/c2ccc(OCc3cn(-c4ccc(C(=O)OCCOC(=O)c5ccc(-c6c7nc(c(-c8ccccc8)c8ccc([nH]8)c(-c8ccccc8)c8nc(c(-c9ccccc9)c9ccc6[nH]9)C=C8)C=C7)cc5)cc4)nn3)cc2)S1
REMARK SMILES IDX 23 1 21 2 22 3 20 4 17 5 18 6 78 7 19 8 77 9 16 10 14 11
REMARK SMILES IDX 15 12 80 13 79 14 13 15 12 16 11 17 8 18 9 19 82 20 10 21
REMARK SMILES IDX 81 22 7 23 1 24 2 25 3 26 83 27 4 28 6 30 5 31 24 32 25 33
REMARK SMILES IDX 26 34 27 35 28 36 29 37 30 38 76 39 31 40 75 41 32 42 33 43
REMARK SMILES IDX 34 44 69 45 35 46 74 47 68 48 70 49 36 50 73 51 67 52 66 53
REMARK SMILES IDX 37 55 59 56 44 57 58 58 45 59 48 60 57 61 71 62 46 63 47 64
REMARK SMILES IDX 56 66 72 67 49 68 38 69 39 70 43 71 40 72 42 73 41 74 60 75
REMARK SMILES IDX 61 76 65 77 62 78 64 79 63 80 50 81 51 82 55 83 52 84 54 85
REMARK SMILES IDX 53 86
REMARK H PARENT 3 29 70 54 48 65
REMARK Flexibility Score: inf
ROOT
ATOM      1  O   UNL A   1      48.154  25.250  26.035  1.00  0.00    -0.458 OA
ENDROOT
BRANCH   1   2
ATOM      2  C   UNL A   1      47.412  25.285  24.900  1.00  0.00     0.338 C 
ATOM      3  O   UNL A   1      47.674  25.900  23.878  1.00  0.00    -0.246 OA
BRANCH   2   4
ATOM      4  C   UNL A   1      46.251  24.375  25.017  1.00  0.00     0.060 A 
ATOM      5  C   UNL A   1      44.003  22.778  25.406  1.00  0.00     0.066 A 
ATOM      6  C   UNL A   1      43.850  24.151  25.165  1.00  0.00     0.029 A 
ATOM      7  C   UNL A   1      45.274  22.190  25.382  1.00  0.00     0.029 A 
ATOM      8  C   UNL A   1      44.976  24.951  25.002  1.00  0.00     0.018 A 
ATOM      9  C   UNL A   1      46.398  22.990  25.162  1.00  0.00     0.018 A 
BRANCH   5  10
ATOM     10  N   UNL A   1      42.859  22.024  25.746  1.00  0.00    -0.220 N 
ATOM     11  C   UNL A   1      40.831  21.361  26.201  1.00  0.00     0.120 A 
ATOM     12  C   UNL A   1      41.650  22.470  26.231  1.00  0.00     0.144 A 
ATOM     13  N   UNL A   1      41.559  20.296  25.743  1.00  0.00    -0.131 NA
ATOM     14  N   UNL A   1      42.781  20.706  25.465  1.00  0.00    -0.062 NA
BRANCH  11  15
ATOM     15  C   UNL A   1      39.366  21.218  26.453  1.00  0.00     0.289 C 
BRANCH  15  16
ATOM     16  O   UNL A   1      38.544  21.144  25.277  1.00  0.00    -0.487 OA
BRANCH  16  17
ATOM     17  C   UNL A   1      37.513  22.035  25.150  1.00  0.00     0.119 A 
ATOM     18  C   UNL A   1      35.428  23.915  25.290  1.00  0.00    -0.024 A 
ATOM     19  C   UNL A   1      36.669  24.198  25.865  1.00  0.00     0.012 A 
ATOM     20  C   UNL A   1      35.269  22.731  24.568  1.00  0.00     0.012 A 
ATOM     21  C   UNL A   1      37.704  23.257  25.799  1.00  0.00     0.047 A 
ATOM     22  C   UNL A   1      36.315  21.811  24.475  1.00  0.00     0.047 A 
BRANCH  18  23
ATOM     23  C   UNL A   1      34.310  24.852  25.420  1.00  0.00     0.029 C 
ATOM     24  O   UNL A   1      30.066  23.085  27.474  1.00  0.00    -0.261 OA
ATOM     25  C   UNL A   1      30.968  23.713  26.958  1.00  0.00     0.290 C 
ATOM     26  N   UNL A   1      30.890  24.995  26.512  1.00  0.00    -0.282 N 
ATOM     27  S   UNL A   1      32.582  23.092  26.675  1.00  0.00    -0.022 SA
ATOM     28  C   UNL A   1      32.002  25.553  25.958  1.00  0.00     0.265 C 
ATOM     29  H   UNL A   1      30.052  25.506  26.586  1.00  0.00     0.174 HD
ATOM     30  C   UNL A   1      33.112  24.565  25.949  1.00  0.00     0.083 C 
ATOM     31  O   UNL A   1      32.065  26.691  25.521  1.00  0.00    -0.268 OA
ENDBRANCH  18  23
ENDBRANCH  16  17
ENDBRANCH  15  16
ENDBRANCH  11  15
ENDBRANCH   5  10
ENDBRANCH   2   4
ENDBRANCH   1   2
BRANCH   1  32
ATOM     32  C   UNL A   1      47.627  26.023  27.122  1.00  0.00     0.275 C 
BRANCH  32  33
ATOM     33  C   UNL A   1      47.481  25.179  28.381  1.00  0.00     0.275 C 
BRANCH  33  34
ATOM     34  O   UNL A   1      46.429  25.631  29.237  1.00  0.00    -0.458 OA
BRANCH  34  35
ATOM     35  C   UNL A   1      45.231  25.037  29.026  1.00  0.00     0.338 C 
ATOM     36  O   UNL A   1      45.024  23.935  28.546  1.00  0.00    -0.246 OA
BRANCH  35  37
ATOM     37  C   UNL A   1      44.160  26.022  29.224  1.00  0.00     0.060 A 
ATOM     38  C   UNL A   1      43.471  26.490  28.103  1.00  0.00     0.016 A 
ATOM     39  C   UNL A   1      44.028  26.643  30.475  1.00  0.00     0.016 A 
ATOM     40  C   UNL A   1      42.725  27.649  28.217  1.00  0.00     0.010 A 
ATOM     41  C   UNL A   1      43.299  27.807  30.583  1.00  0.00     0.010 A 
ATOM     42  C   UNL A   1      42.692  28.330  29.444  1.00  0.00    -0.014 A 
BRANCH  42  43
ATOM     43  C   UNL A   1      41.818  29.486  29.575  1.00  0.00     0.031 A 
ATOM     44  C   UNL A   1      42.558  30.760  29.405  1.00  0.00     0.074 A 
ATOM     45  C   UNL A   1      40.476  29.415  29.684  1.00  0.00     0.049 A 
ATOM     46  N   UNL A   1      42.749  31.673  30.296  1.00  0.00    -0.248 NA
ATOM     47  C   UNL A   1      43.322  30.964  28.160  1.00  0.00     0.031 C 
ATOM     48  C   UNL A   1      39.633  28.221  29.599  1.00  0.00     0.029 A 
ATOM     49  N   UNL A   1      39.559  30.424  29.783  1.00  0.00    -0.354 N 
ATOM     50  C   UNL A   1      43.473  32.672  29.656  1.00  0.00     0.074 A 
ATOM     51  C   UNL A   1      43.960  32.103  28.426  1.00  0.00     0.031 C 
ATOM     52  C   UNL A   1      38.345  28.592  29.405  1.00  0.00     0.029 A 
ATOM     53  C   UNL A   1      38.254  30.041  29.480  1.00  0.00     0.049 A 
ATOM     54  H   UNL A   1      39.801  31.342  30.046  1.00  0.00     0.167 HD
ATOM     55  C   UNL A   1      43.338  33.970  30.036  1.00  0.00     0.031 A 
ATOM     56  C   UNL A   1      37.193  30.859  29.252  1.00  0.00     0.031 A 
ATOM     57  C   UNL A   1      42.780  34.076  31.363  1.00  0.00     0.049 A 
ATOM     58  C   UNL A   1      37.515  32.184  29.822  1.00  0.00     0.074 A 
ATOM     59  C   UNL A   1      43.141  33.620  32.615  1.00  0.00     0.029 A 
ATOM     60  N   UNL A   1      41.449  34.400  31.443  1.00  0.00    -0.354 N 
ATOM     61  N   UNL A   1      37.596  32.414  31.099  1.00  0.00    -0.248 NA
ATOM     62  C   UNL A   1      38.168  33.159  28.967  1.00  0.00     0.031 C 
ATOM     63  C   UNL A   1      41.911  33.271  33.251  1.00  0.00     0.029 A 
ATOM     64  C   UNL A   1      40.864  33.608  32.393  1.00  0.00     0.049 A 
ATOM     65  H   UNL A   1      40.990  35.087  30.906  1.00  0.00     0.167 HD
ATOM     66  C   UNL A   1      38.695  33.247  31.226  1.00  0.00     0.074 A 
ATOM     67  C   UNL A   1      38.928  33.771  29.880  1.00  0.00     0.031 C 
ATOM     68  C   UNL A   1      39.480  33.193  32.343  1.00  0.00     0.031 A 
BRANCH  55  69
ATOM     69  C   UNL A   1      43.210  35.088  29.025  1.00  0.00    -0.014 A 
ATOM     70  C   UNL A   1      41.944  35.352  28.475  1.00  0.00     0.009 A 
ATOM     71  C   UNL A   1      44.315  35.665  28.366  1.00  0.00     0.009 A 
ATOM     72  C   UNL A   1      41.804  36.073  27.284  1.00  0.00     0.001 A 
ATOM     73  C   UNL A   1      44.176  36.422  27.201  1.00  0.00     0.001 A 
ATOM     74  C   UNL A   1      42.922  36.599  26.642  1.00  0.00     0.000 A 
ENDBRANCH  55  69
BRANCH  56  75
ATOM     75  C   UNL A   1      36.028  30.685  28.351  1.00  0.00    -0.014 A 
ATOM     76  C   UNL A   1      35.750  29.432  27.773  1.00  0.00     0.009 A 
ATOM     77  C   UNL A   1      35.019  31.662  28.300  1.00  0.00     0.009 A 
ATOM     78  C   UNL A   1      34.492  29.152  27.219  1.00  0.00     0.001 A 
ATOM     79  C   UNL A   1      33.766  31.384  27.742  1.00  0.00     0.001 A 
ATOM     80  C   UNL A   1      33.496  30.124  27.218  1.00  0.00     0.000 A 
ENDBRANCH  56  75
BRANCH  68  81
ATOM     81  C   UNL A   1      38.939  32.461  33.547  1.00  0.00    -0.014 A 
ATOM     82  C   UNL A   1      39.081  31.076  33.758  1.00  0.00     0.009 A 
ATOM     83  C   UNL A   1      38.341  33.226  34.559  1.00  0.00     0.009 A 
ATOM     84  C   UNL A   1      38.589  30.476  34.923  1.00  0.00     0.001 A 
ATOM     85  C   UNL A   1      37.875  32.631  35.732  1.00  0.00     0.001 A 
ATOM     86  C   UNL A   1      37.988  31.255  35.909  1.00  0.00     0.000 A 
ENDBRANCH  68  81
ENDBRANCH  42  43
ENDBRANCH  35  37
ENDBRANCH  34  35
ENDBRANCH  33  34
ENDBRANCH  32  33
ENDBRANCH   1  32
TORSDOF 16
ENDMDL
