MODEL 1
REMARK VINA RESULT:     -11.8      0.000      0.000
REMARK SMILES O=C(CC1(C(=O)OCCOC(=O)c2ccc(-c3c4nc(c(-c5ccccc5)c5ccc([nH]5)c(-c5ccccc5)c5nc(c(-c6ccccc6)c6ccc3[nH]6)C=C5)C=C4)cc2)CCCCC1)Nc1ccc(N2CCOC2=O)cc1
REMARK SMILES IDX 8 1 7 2 5 3 6 4 4 5 61 6 65 7 62 8 64 9 63 10 3 11 2 12 1 13
REMARK SMILES IDX 66 14 67 16 68 17 78 18 69 19 77 20 70 21 71 22 72 23 75 24
REMARK SMILES IDX 73 25 74 26 76 27 9 28 10 29 11 30 12 31 13 32 14 33 60 34
REMARK SMILES IDX 15 35 59 36 16 37 17 38 18 39 53 40 19 41 58 42 52 43 54 44
REMARK SMILES IDX 20 45 57 46 51 47 50 48 21 50 43 51 28 52 42 53 29 54 32 55
REMARK SMILES IDX 41 56 55 57 30 58 31 59 40 61 56 62 33 63 22 64 23 65 27 66
REMARK SMILES IDX 24 67 26 68 25 69 44 70 45 71 49 72 46 73 48 74 47 75 34 76
REMARK SMILES IDX 35 77 39 78 36 79 38 80 37 81
REMARK H PARENT 66 15 54 49 32 60
REMARK Flexibility Score: inf
ROOT
ATOM      1  C   UNL A   1      32.876  29.757  25.285  1.00  0.00     0.274 C 
ENDROOT
BRANCH   1   2
ATOM      2  O   UNL A   1      33.341  28.430  24.999  1.00  0.00    -0.462 OA
BRANCH   2   3
ATOM      3  C   UNL A   1      32.788  27.794  23.945  1.00  0.00     0.312 C 
ATOM      4  O   UNL A   1      32.423  28.351  22.913  1.00  0.00    -0.252 OA
BRANCH   3   5
ATOM      5  C   UNL A   1      32.686  26.278  24.140  1.00  0.00     0.077 C 
ATOM      6  C   UNL A   1      31.447  25.787  23.352  1.00  0.00     0.019 C 
ATOM      7  C   UNL A   1      32.472  25.876  25.629  1.00  0.00     0.019 C 
ATOM      8  C   UNL A   1      30.142  26.355  23.899  1.00  0.00     0.001 C 
ATOM      9  C   UNL A   1      31.140  26.345  26.229  1.00  0.00     0.001 C 
ATOM     10  C   UNL A   1      29.942  25.979  25.362  1.00  0.00     0.000 C 
BRANCH   5  11
ATOM     11  C   UNL A   1      33.930  25.544  23.558  1.00  0.00     0.119 C 
BRANCH  11  12
ATOM     12  C   UNL A   1      33.954  24.036  23.348  1.00  0.00     0.225 C 
ATOM     13  O   UNL A   1      34.258  23.617  22.235  1.00  0.00    -0.275 OA
ATOM     14  N   UNL A   1      33.675  23.218  24.418  1.00  0.00    -0.326 N 
ATOM     15  H   UNL A   1      33.511  23.641  25.291  1.00  0.00     0.169 HD
BRANCH  14  16
ATOM     16  C   UNL A   1      33.613  21.807  24.341  1.00  0.00     0.041 A 
ATOM     17  C   UNL A   1      34.745  21.080  24.703  1.00  0.00     0.028 A 
ATOM     18  C   UNL A   1      32.466  21.111  23.961  1.00  0.00     0.028 A 
ATOM     19  C   UNL A   1      34.678  19.685  24.825  1.00  0.00     0.028 A 
ATOM     20  C   UNL A   1      32.414  19.715  24.015  1.00  0.00     0.028 A 
ATOM     21  C   UNL A   1      33.507  18.993  24.490  1.00  0.00     0.047 A 
BRANCH  21  22
ATOM     22  N   UNL A   1      33.415  17.602  24.664  1.00  0.00    -0.274 N 
ATOM     23  C   UNL A   1      33.009  16.988  25.886  1.00  0.00     0.171 C 
ATOM     24  C   UNL A   1      33.688  16.641  23.711  1.00  0.00     0.414 C 
ATOM     25  C   UNL A   1      32.721  15.570  25.456  1.00  0.00     0.257 C 
ATOM     26  O   UNL A   1      33.434  15.397  24.230  1.00  0.00    -0.447 OA
ATOM     27  O   UNL A   1      34.139  16.802  22.585  1.00  0.00    -0.224 OA
ENDBRANCH  21  22
ENDBRANCH  14  16
ENDBRANCH  11  12
ENDBRANCH   5  11
ENDBRANCH   3   5
ENDBRANCH   2   3
ENDBRANCH   1   2
BRANCH   1  28
ATOM     28  C   UNL A   1      32.469  29.831  26.756  1.00  0.00     0.275 C 
BRANCH  28  29
ATOM     29  O   UNL A   1      33.587  29.511  27.606  1.00  0.00    -0.458 OA
BRANCH  29  30
ATOM     30  C   UNL A   1      34.375  30.564  27.952  1.00  0.00     0.338 C 
ATOM     31  O   UNL A   1      34.025  31.728  28.061  1.00  0.00    -0.246 OA
BRANCH  30  32
ATOM     32  C   UNL A   1      35.737  30.094  28.297  1.00  0.00     0.060 A 
ATOM     33  C   UNL A   1      36.716  30.082  27.295  1.00  0.00     0.016 A 
ATOM     34  C   UNL A   1      36.062  29.675  29.592  1.00  0.00     0.016 A 
ATOM     35  C   UNL A   1      38.030  29.716  27.599  1.00  0.00     0.010 A 
ATOM     36  C   UNL A   1      37.372  29.285  29.890  1.00  0.00     0.010 A 
ATOM     37  C   UNL A   1      38.369  29.322  28.901  1.00  0.00    -0.014 A 
BRANCH  37  38
ATOM     38  C   UNL A   1      39.743  28.844  29.195  1.00  0.00     0.031 A 
ATOM     39  C   UNL A   1      40.677  29.762  29.908  1.00  0.00     0.074 A 
ATOM     40  C   UNL A   1      40.155  27.606  28.864  1.00  0.00     0.049 A 
ATOM     41  N   UNL A   1      41.876  29.517  30.365  1.00  0.00    -0.248 NA
ATOM     42  C   UNL A   1      40.185  31.123  30.173  1.00  0.00     0.031 C 
ATOM     43  C   UNL A   1      39.315  26.595  28.251  1.00  0.00     0.029 A 
ATOM     44  N   UNL A   1      41.371  26.981  28.993  1.00  0.00    -0.354 N 
ATOM     45  C   UNL A   1      42.260  30.671  31.023  1.00  0.00     0.074 A 
ATOM     46  C   UNL A   1      41.195  31.637  30.856  1.00  0.00     0.031 C 
ATOM     47  C   UNL A   1      40.033  25.489  27.999  1.00  0.00     0.029 A 
ATOM     48  C   UNL A   1      41.397  25.714  28.454  1.00  0.00     0.049 A 
ATOM     49  H   UNL A   1      42.149  27.398  29.428  1.00  0.00     0.167 HD
ATOM     50  C   UNL A   1      43.396  30.895  31.723  1.00  0.00     0.031 A 
ATOM     51  C   UNL A   1      42.404  24.827  28.348  1.00  0.00     0.031 A 
ATOM     52  C   UNL A   1      44.489  29.962  31.804  1.00  0.00     0.049 A 
ATOM     53  C   UNL A   1      43.718  25.168  28.990  1.00  0.00     0.074 A 
ATOM     54  C   UNL A   1      45.696  30.106  32.459  1.00  0.00     0.029 A 
ATOM     55  N   UNL A   1      44.519  28.723  31.175  1.00  0.00    -0.354 N 
ATOM     56  N   UNL A   1      44.045  26.236  29.678  1.00  0.00    -0.248 NA
ATOM     57  C   UNL A   1      44.785  24.164  28.886  1.00  0.00     0.031 C 
ATOM     58  C   UNL A   1      46.488  28.990  32.164  1.00  0.00     0.029 A 
ATOM     59  C   UNL A   1      45.745  28.113  31.390  1.00  0.00     0.049 A 
ATOM     60  H   UNL A   1      43.779  28.336  30.655  1.00  0.00     0.167 HD
ATOM     61  C   UNL A   1      45.338  26.013  30.130  1.00  0.00     0.074 A 
ATOM     62  C   UNL A   1      45.726  24.701  29.649  1.00  0.00     0.031 C 
ATOM     63  C   UNL A   1      46.126  26.817  30.885  1.00  0.00     0.031 A 
BRANCH  50  64
ATOM     64  C   UNL A   1      43.511  32.228  32.398  1.00  0.00    -0.014 A 
ATOM     65  C   UNL A   1      44.178  33.300  31.778  1.00  0.00     0.009 A 
ATOM     66  C   UNL A   1      42.976  32.408  33.681  1.00  0.00     0.009 A 
ATOM     67  C   UNL A   1      44.339  34.513  32.450  1.00  0.00     0.001 A 
ATOM     68  C   UNL A   1      43.113  33.630  34.337  1.00  0.00     0.001 A 
ATOM     69  C   UNL A   1      43.804  34.677  33.727  1.00  0.00     0.000 A 
ENDBRANCH  50  64
BRANCH  51  70
ATOM     70  C   UNL A   1      42.213  23.535  27.633  1.00  0.00    -0.014 A 
ATOM     71  C   UNL A   1      42.561  23.396  26.280  1.00  0.00     0.009 A 
ATOM     72  C   UNL A   1      41.638  22.437  28.295  1.00  0.00     0.009 A 
ATOM     73  C   UNL A   1      42.298  22.206  25.596  1.00  0.00     0.001 A 
ATOM     74  C   UNL A   1      41.402  21.238  27.617  1.00  0.00     0.001 A 
ATOM     75  C   UNL A   1      41.720  21.128  26.265  1.00  0.00     0.000 A 
ENDBRANCH  51  70
BRANCH  63  76
ATOM     76  C   UNL A   1      47.479  26.278  31.258  1.00  0.00    -0.014 A 
ATOM     77  C   UNL A   1      48.576  26.379  30.387  1.00  0.00     0.009 A 
ATOM     78  C   UNL A   1      47.659  25.662  32.507  1.00  0.00     0.009 A 
ATOM     79  C   UNL A   1      49.809  25.824  30.736  1.00  0.00     0.001 A 
ATOM     80  C   UNL A   1      48.903  25.147  32.871  1.00  0.00     0.001 A 
ATOM     81  C   UNL A   1      49.972  25.214  31.980  1.00  0.00     0.000 A 
ENDBRANCH  63  76
ENDBRANCH  37  38
ENDBRANCH  30  32
ENDBRANCH  29  30
ENDBRANCH  28  29
ENDBRANCH   1  28
TORSDOF 15
ENDMDL
MODEL 2
REMARK VINA RESULT:     -11.6      2.261      6.926
REMARK SMILES O=C(CC1(C(=O)OCCOC(=O)c2ccc(-c3c4nc(c(-c5ccccc5)c5ccc([nH]5)c(-c5ccccc5)c5nc(c(-c6ccccc6)c6ccc3[nH]6)C=C5)C=C4)cc2)CCCCC1)Nc1ccc(N2CCOC2=O)cc1
REMARK SMILES IDX 8 1 7 2 5 3 6 4 4 5 61 6 65 7 62 8 64 9 63 10 3 11 2 12 1 13
REMARK SMILES IDX 66 14 67 16 68 17 78 18 69 19 77 20 70 21 71 22 72 23 75 24
REMARK SMILES IDX 73 25 74 26 76 27 9 28 10 29 11 30 12 31 13 32 14 33 60 34
REMARK SMILES IDX 15 35 59 36 16 37 17 38 18 39 53 40 19 41 58 42 52 43 54 44
REMARK SMILES IDX 20 45 57 46 51 47 50 48 21 50 43 51 28 52 42 53 29 54 32 55
REMARK SMILES IDX 41 56 55 57 30 58 31 59 40 61 56 62 33 63 22 64 23 65 27 66
REMARK SMILES IDX 24 67 26 68 25 69 44 70 45 71 49 72 46 73 48 74 47 75 34 76
REMARK SMILES IDX 35 77 39 78 36 79 38 80 37 81
REMARK H PARENT 66 15 54 49 32 60
REMARK Flexibility Score: inf
ROOT
ATOM      1  C   UNL A   1      35.509  24.069  25.942  1.00  0.00     0.274 C 
ENDROOT
BRANCH   1   2
ATOM      2  O   UNL A   1      34.988  25.219  25.259  1.00  0.00    -0.462 OA
BRANCH   2   3
ATOM      3  C   UNL A   1      33.648  25.380  25.251  1.00  0.00     0.312 C 
ATOM      4  O   UNL A   1      32.905  25.048  26.170  1.00  0.00    -0.252 OA
BRANCH   3   5
ATOM      5  C   UNL A   1      33.129  26.059  23.980  1.00  0.00     0.077 C 
ATOM      6  C   UNL A   1      33.975  27.335  23.750  1.00  0.00     0.019 C 
ATOM      7  C   UNL A   1      31.643  26.509  24.103  1.00  0.00     0.019 C 
ATOM      8  C   UNL A   1      33.796  28.364  24.861  1.00  0.00     0.001 C 
ATOM      9  C   UNL A   1      31.394  27.604  25.148  1.00  0.00     0.001 C 
ATOM     10  C   UNL A   1      32.339  28.789  24.995  1.00  0.00     0.000 C 
BRANCH   5  11
ATOM     11  C   UNL A   1      33.312  25.146  22.732  1.00  0.00     0.119 C 
BRANCH  11  12
ATOM     12  C   UNL A   1      33.640  23.664  22.855  1.00  0.00     0.225 C 
ATOM     13  O   UNL A   1      34.678  23.261  22.339  1.00  0.00    -0.275 OA
ATOM     14  N   UNL A   1      32.784  22.858  23.570  1.00  0.00    -0.326 N 
ATOM     15  H   UNL A   1      32.012  23.281  24.009  1.00  0.00     0.169 HD
BRANCH  14  16
ATOM     16  C   UNL A   1      32.948  21.461  23.713  1.00  0.00     0.041 A 
ATOM     17  C   UNL A   1      33.894  21.001  24.627  1.00  0.00     0.028 A 
ATOM     18  C   UNL A   1      32.183  20.525  23.018  1.00  0.00     0.028 A 
ATOM     19  C   UNL A   1      33.964  19.638  24.944  1.00  0.00     0.028 A 
ATOM     20  C   UNL A   1      32.296  19.157  23.280  1.00  0.00     0.028 A 
ATOM     21  C   UNL A   1      33.158  18.706  24.278  1.00  0.00     0.047 A 
BRANCH  21  22
ATOM     22  N   UNL A   1      33.183  17.346  24.631  1.00  0.00    -0.274 N 
ATOM     23  C   UNL A   1      32.675  16.846  25.867  1.00  0.00     0.171 C 
ATOM     24  C   UNL A   1      33.680  16.313  23.862  1.00  0.00     0.414 C 
ATOM     25  C   UNL A   1      32.593  15.361  25.605  1.00  0.00     0.257 C 
ATOM     26  O   UNL A   1      33.483  15.122  24.513  1.00  0.00    -0.447 OA
ATOM     27  O   UNL A   1      34.264  16.385  22.789  1.00  0.00    -0.224 OA
ENDBRANCH  21  22
ENDBRANCH  14  16
ENDBRANCH  11  12
ENDBRANCH   5  11
ENDBRANCH   3   5
ENDBRANCH   2   3
ENDBRANCH   1   2
BRANCH   1  28
ATOM     28  C   UNL A   1      36.881  23.731  25.361  1.00  0.00     0.275 C 
BRANCH  28  29
ATOM     29  O   UNL A   1      37.511  22.688  26.131  1.00  0.00    -0.458 OA
BRANCH  29  30
ATOM     30  C   UNL A   1      38.866  22.771  26.223  1.00  0.00     0.338 C 
ATOM     31  O   UNL A   1      39.674  21.966  25.788  1.00  0.00    -0.246 OA
BRANCH  30  32
ATOM     32  C   UNL A   1      39.260  24.056  26.845  1.00  0.00     0.060 A 
ATOM     33  C   UNL A   1      40.036  24.953  26.098  1.00  0.00     0.016 A 
ATOM     34  C   UNL A   1      38.868  24.391  28.145  1.00  0.00     0.016 A 
ATOM     35  C   UNL A   1      40.364  26.206  26.623  1.00  0.00     0.010 A 
ATOM     36  C   UNL A   1      39.218  25.636  28.680  1.00  0.00     0.010 A 
ATOM     37  C   UNL A   1      39.951  26.559  27.915  1.00  0.00    -0.014 A 
BRANCH  37  38
ATOM     38  C   UNL A   1      40.383  27.853  28.501  1.00  0.00     0.031 A 
ATOM     39  C   UNL A   1      41.811  28.010  28.902  1.00  0.00     0.074 A 
ATOM     40  C   UNL A   1      39.536  28.888  28.651  1.00  0.00     0.049 A 
ATOM     41  N   UNL A   1      42.430  29.079  29.325  1.00  0.00    -0.248 NA
ATOM     42  C   UNL A   1      42.662  26.817  28.779  1.00  0.00     0.031 C 
ATOM     43  C   UNL A   1      38.151  28.888  28.219  1.00  0.00     0.029 A 
ATOM     44  N   UNL A   1      39.702  30.134  29.202  1.00  0.00    -0.354 N 
ATOM     45  C   UNL A   1      43.755  28.707  29.461  1.00  0.00     0.074 A 
ATOM     46  C   UNL A   1      43.842  27.299  29.136  1.00  0.00     0.031 C 
ATOM     47  C   UNL A   1      37.562  30.045  28.558  1.00  0.00     0.029 A 
ATOM     48  C   UNL A   1      38.546  30.883  29.227  1.00  0.00     0.049 A 
ATOM     49  H   UNL A   1      40.564  30.462  29.546  1.00  0.00     0.167 HD
ATOM     50  C   UNL A   1      44.808  29.481  29.809  1.00  0.00     0.031 A 
ATOM     51  C   UNL A   1      38.308  32.111  29.722  1.00  0.00     0.031 A 
ATOM     52  C   UNL A   1      44.697  30.855  30.222  1.00  0.00     0.049 A 
ATOM     53  C   UNL A   1      39.469  32.894  30.263  1.00  0.00     0.074 A 
ATOM     54  C   UNL A   1      45.699  31.715  30.626  1.00  0.00     0.029 A 
ATOM     55  N   UNL A   1      43.501  31.556  30.319  1.00  0.00    -0.354 N 
ATOM     56  N   UNL A   1      40.735  32.557  30.317  1.00  0.00    -0.248 NA
ATOM     57  C   UNL A   1      39.181  34.244  30.765  1.00  0.00     0.031 C 
ATOM     58  C   UNL A   1      45.104  32.912  31.041  1.00  0.00     0.029 A 
ATOM     59  C   UNL A   1      43.738  32.826  30.822  1.00  0.00     0.049 A 
ATOM     60  H   UNL A   1      42.618  31.204  30.068  1.00  0.00     0.167 HD
ATOM     61  C   UNL A   1      41.402  33.668  30.812  1.00  0.00     0.074 A 
ATOM     62  C   UNL A   1      40.399  34.693  31.027  1.00  0.00     0.031 C 
ATOM     63  C   UNL A   1      42.727  33.828  31.054  1.00  0.00     0.031 A 
BRANCH  50  64
ATOM     64  C   UNL A   1      46.152  28.817  29.805  1.00  0.00    -0.014 A 
ATOM     65  C   UNL A   1      46.658  28.194  30.959  1.00  0.00     0.009 A 
ATOM     66  C   UNL A   1      46.937  28.841  28.644  1.00  0.00     0.009 A 
ATOM     67  C   UNL A   1      47.941  27.644  30.960  1.00  0.00     0.001 A 
ATOM     68  C   UNL A   1      48.206  28.264  28.639  1.00  0.00     0.001 A 
ATOM     69  C   UNL A   1      48.712  27.677  29.799  1.00  0.00     0.000 A 
ENDBRANCH  50  64
BRANCH  51  70
ATOM     70  C   UNL A   1      36.933  32.685  29.715  1.00  0.00    -0.014 A 
ATOM     71  C   UNL A   1      36.507  33.535  28.682  1.00  0.00     0.009 A 
ATOM     72  C   UNL A   1      36.047  32.415  30.771  1.00  0.00     0.009 A 
ATOM     73  C   UNL A   1      35.247  34.137  28.729  1.00  0.00     0.001 A 
ATOM     74  C   UNL A   1      34.776  32.994  30.802  1.00  0.00     0.001 A 
ATOM     75  C   UNL A   1      34.382  33.866  29.788  1.00  0.00     0.000 A 
ENDBRANCH  51  70
BRANCH  63  76
ATOM     76  C   UNL A   1      43.163  35.177  31.554  1.00  0.00    -0.014 A 
ATOM     77  C   UNL A   1      43.150  35.494  32.922  1.00  0.00     0.009 A 
ATOM     78  C   UNL A   1      43.600  36.147  30.638  1.00  0.00     0.009 A 
ATOM     79  C   UNL A   1      43.511  36.771  33.355  1.00  0.00     0.001 A 
ATOM     80  C   UNL A   1      44.001  37.409  31.078  1.00  0.00     0.001 A 
ATOM     81  C   UNL A   1      43.941  37.725  32.433  1.00  0.00     0.000 A 
ENDBRANCH  63  76
ENDBRANCH  37  38
ENDBRANCH  30  32
ENDBRANCH  29  30
ENDBRANCH  28  29
ENDBRANCH   1  28
TORSDOF 15
ENDMDL
MODEL 3
REMARK VINA RESULT:     -11.2      1.274      5.890
REMARK SMILES O=C(CC1(C(=O)OCCOC(=O)c2ccc(-c3c4nc(c(-c5ccccc5)c5ccc([nH]5)c(-c5ccccc5)c5nc(c(-c6ccccc6)c6ccc3[nH]6)C=C5)C=C4)cc2)CCCCC1)Nc1ccc(N2CCOC2=O)cc1
REMARK SMILES IDX 8 1 7 2 5 3 6 4 4 5 61 6 65 7 62 8 64 9 63 10 3 11 2 12 1 13
REMARK SMILES IDX 66 14 67 16 68 17 78 18 69 19 77 20 70 21 71 22 72 23 75 24
REMARK SMILES IDX 73 25 74 26 76 27 9 28 10 29 11 30 12 31 13 32 14 33 60 34
REMARK SMILES IDX 15 35 59 36 16 37 17 38 18 39 53 40 19 41 58 42 52 43 54 44
REMARK SMILES IDX 20 45 57 46 51 47 50 48 21 50 43 51 28 52 42 53 29 54 32 55
REMARK SMILES IDX 41 56 55 57 30 58 31 59 40 61 56 62 33 63 22 64 23 65 27 66
REMARK SMILES IDX 24 67 26 68 25 69 44 70 45 71 49 72 46 73 48 74 47 75 34 76
REMARK SMILES IDX 35 77 39 78 36 79 38 80 37 81
REMARK H PARENT 66 15 54 49 32 60
REMARK Flexibility Score: inf
ROOT
ATOM      1  C   UNL A   1      33.589  27.526  26.457  1.00  0.00     0.274 C 
ENDROOT
BRANCH   1   2
ATOM      2  O   UNL A   1      32.482  27.198  25.605  1.00  0.00    -0.462 OA
BRANCH   2   3
ATOM      3  C   UNL A   1      32.611  27.472  24.290  1.00  0.00     0.312 C 
ATOM      4  O   UNL A   1      33.133  28.490  23.842  1.00  0.00    -0.252 OA
BRANCH   3   5
ATOM      5  C   UNL A   1      32.067  26.363  23.385  1.00  0.00     0.077 C 
ATOM      6  C   UNL A   1      31.157  27.028  22.323  1.00  0.00     0.019 C 
ATOM      7  C   UNL A   1      31.193  25.331  24.158  1.00  0.00     0.019 C 
ATOM      8  C   UNL A   1      29.927  27.689  22.937  1.00  0.00     0.001 C 
ATOM      9  C   UNL A   1      29.895  25.906  24.738  1.00  0.00     0.001 C 
ATOM     10  C   UNL A   1      29.083  26.683  23.710  1.00  0.00     0.000 C 
BRANCH   5  11
ATOM     11  C   UNL A   1      33.214  25.634  22.625  1.00  0.00     0.119 C 
BRANCH  11  12
ATOM     12  C   UNL A   1      33.304  24.115  22.562  1.00  0.00     0.225 C 
ATOM     13  O   UNL A   1      33.421  23.593  21.458  1.00  0.00    -0.275 OA
ATOM     14  N   UNL A   1      33.293  23.406  23.741  1.00  0.00    -0.326 N 
ATOM     15  H   UNL A   1      33.268  23.913  24.584  1.00  0.00     0.169 HD
BRANCH  14  16
ATOM     16  C   UNL A   1      33.318  21.994  23.815  1.00  0.00     0.041 A 
ATOM     17  C   UNL A   1      34.371  21.391  24.499  1.00  0.00     0.028 A 
ATOM     18  C   UNL A   1      32.321  21.182  23.275  1.00  0.00     0.028 A 
ATOM     19  C   UNL A   1      34.345  20.015  24.763  1.00  0.00     0.028 A 
ATOM     20  C   UNL A   1      32.325  19.798  23.477  1.00  0.00     0.028 A 
ATOM     21  C   UNL A   1      33.316  19.209  24.261  1.00  0.00     0.047 A 
BRANCH  21  22
ATOM     22  N   UNL A   1      33.253  17.839  24.569  1.00  0.00    -0.274 N 
ATOM     23  C   UNL A   1      32.802  17.338  25.826  1.00  0.00     0.171 C 
ATOM     24  C   UNL A   1      33.601  16.798  23.733  1.00  0.00     0.414 C 
ATOM     25  C   UNL A   1      32.575  15.876  25.528  1.00  0.00     0.257 C 
ATOM     26  O   UNL A   1      33.355  15.605  24.361  1.00  0.00    -0.447 OA
ATOM     27  O   UNL A   1      34.103  16.862  22.618  1.00  0.00    -0.224 OA
ENDBRANCH  21  22
ENDBRANCH  14  16
ENDBRANCH  11  12
ENDBRANCH   5  11
ENDBRANCH   3   5
ENDBRANCH   2   3
ENDBRANCH   1   2
BRANCH   1  28
ATOM     28  C   UNL A   1      33.261  28.808  27.220  1.00  0.00     0.275 C 
BRANCH  28  29
ATOM     29  O   UNL A   1      34.052  29.906  26.726  1.00  0.00    -0.458 OA
BRANCH  29  30
ATOM     30  C   UNL A   1      34.494  30.777  27.673  1.00  0.00     0.338 C 
ATOM     31  O   UNL A   1      33.897  31.752  28.099  1.00  0.00    -0.246 OA
BRANCH  30  32
ATOM     32  C   UNL A   1      35.794  30.322  28.221  1.00  0.00     0.060 A 
ATOM     33  C   UNL A   1      35.823  29.774  29.510  1.00  0.00     0.016 A 
ATOM     34  C   UNL A   1      36.976  30.421  27.480  1.00  0.00     0.016 A 
ATOM     35  C   UNL A   1      37.015  29.266  30.032  1.00  0.00     0.010 A 
ATOM     36  C   UNL A   1      38.175  29.935  28.013  1.00  0.00     0.010 A 
ATOM     37  C   UNL A   1      38.199  29.336  29.283  1.00  0.00    -0.014 A 
BRANCH  37  38
ATOM     38  C   UNL A   1      39.479  28.881  29.881  1.00  0.00     0.031 A 
ATOM     39  C   UNL A   1      40.135  27.666  29.317  1.00  0.00     0.074 A 
ATOM     40  C   UNL A   1      40.074  29.546  30.889  1.00  0.00     0.049 A 
ATOM     41  N   UNL A   1      41.303  27.159  29.603  1.00  0.00    -0.248 NA
ATOM     42  C   UNL A   1      39.394  26.949  28.268  1.00  0.00     0.031 C 
ATOM     43  C   UNL A   1      39.583  30.786  31.461  1.00  0.00     0.029 A 
ATOM     44  N   UNL A   1      41.212  29.286  31.612  1.00  0.00    -0.354 N 
ATOM     45  C   UNL A   1      41.467  26.098  28.731  1.00  0.00     0.074 A 
ATOM     46  C   UNL A   1      40.255  25.996  27.946  1.00  0.00     0.031 C 
ATOM     47  C   UNL A   1      40.367  31.166  32.480  1.00  0.00     0.029 A 
ATOM     48  C   UNL A   1      41.438  30.192  32.624  1.00  0.00     0.049 A 
ATOM     49  H   UNL A   1      41.808  28.526  31.425  1.00  0.00     0.167 HD
ATOM     50  C   UNL A   1      42.544  25.293  28.587  1.00  0.00     0.031 A 
ATOM     51  C   UNL A   1      42.407  30.239  33.557  1.00  0.00     0.031 A 
ATOM     52  C   UNL A   1      43.706  25.343  29.436  1.00  0.00     0.049 A 
ATOM     53  C   UNL A   1      43.513  29.226  33.482  1.00  0.00     0.074 A 
ATOM     54  C   UNL A   1      44.836  24.550  29.393  1.00  0.00     0.029 A 
ATOM     55  N   UNL A   1      43.866  26.214  30.505  1.00  0.00    -0.354 N 
ATOM     56  N   UNL A   1      43.695  28.271  32.602  1.00  0.00    -0.248 NA
ATOM     57  C   UNL A   1      44.572  29.326  34.494  1.00  0.00     0.031 C 
ATOM     58  C   UNL A   1      45.646  24.887  30.484  1.00  0.00     0.029 A 
ATOM     59  C   UNL A   1      45.058  25.945  31.160  1.00  0.00     0.049 A 
ATOM     60  H   UNL A   1      43.228  26.918  30.761  1.00  0.00     0.167 HD
ATOM     61  C   UNL A   1      44.911  27.687  32.923  1.00  0.00     0.074 A 
ATOM     62  C   UNL A   1      45.428  28.408  34.071  1.00  0.00     0.031 C 
ATOM     63  C   UNL A   1      45.548  26.656  32.316  1.00  0.00     0.031 A 
BRANCH  50  64
ATOM     64  C   UNL A   1      42.466  24.263  27.501  1.00  0.00    -0.014 A 
ATOM     65  C   UNL A   1      41.891  23.002  27.737  1.00  0.00     0.009 A 
ATOM     66  C   UNL A   1      43.001  24.543  26.236  1.00  0.00     0.009 A 
ATOM     67  C   UNL A   1      41.890  22.029  26.736  1.00  0.00     0.001 A 
ATOM     68  C   UNL A   1      42.972  23.578  25.229  1.00  0.00     0.001 A 
ATOM     69  C   UNL A   1      42.429  22.319  25.483  1.00  0.00     0.000 A 
ENDBRANCH  50  64
BRANCH  51  70
ATOM     70  C   UNL A   1      42.393  31.280  34.622  1.00  0.00    -0.014 A 
ATOM     71  C   UNL A   1      41.751  31.054  35.850  1.00  0.00     0.009 A 
ATOM     72  C   UNL A   1      42.991  32.531  34.398  1.00  0.00     0.009 A 
ATOM     73  C   UNL A   1      41.670  32.067  36.809  1.00  0.00     0.001 A 
ATOM     74  C   UNL A   1      42.934  33.534  35.369  1.00  0.00     0.001 A 
ATOM     75  C   UNL A   1      42.262  33.307  36.568  1.00  0.00     0.000 A 
ENDBRANCH  51  70
BRANCH  63  76
ATOM     76  C   UNL A   1      46.891  26.270  32.871  1.00  0.00    -0.014 A 
ATOM     77  C   UNL A   1      48.076  26.869  32.413  1.00  0.00     0.009 A 
ATOM     78  C   UNL A   1      46.970  25.291  33.874  1.00  0.00     0.009 A 
ATOM     79  C   UNL A   1      49.314  26.455  32.909  1.00  0.00     0.001 A 
ATOM     80  C   UNL A   1      48.205  24.910  34.398  1.00  0.00     0.001 A 
ATOM     81  C   UNL A   1      49.376  25.480  33.905  1.00  0.00     0.000 A 
ENDBRANCH  63  76
ENDBRANCH  37  38
ENDBRANCH  30  32
ENDBRANCH  29  30
ENDBRANCH  28  29
ENDBRANCH   1  28
TORSDOF 15
ENDMDL
