MODEL 1
REMARK VINA RESULT:     -11.4      0.000      0.000
REMARK SMILES CCOc1cccc(C(=O)Nc2ccc(Cl)c(C(=O)OCCOC(=O)c3ccc(-c4c5nc(c(-c6ccccc6)c6ccc([nH]6)c(-c6ccccc6)c6nc(c(-c7ccccc7)c7ccc4[nH]7)C=C6)C=C5)cc3)c2)c1
REMARK SMILES IDX 21 1 20 2 18 3 19 4 17 5 12 6 13 7 74 8 14 9 15 10 16 11
REMARK SMILES IDX 11 12 9 13 10 14 8 16 4 17 5 18 75 19 6 20 7 21 3 22 2 23
REMARK SMILES IDX 1 24 22 25 23 26 24 27 25 28 26 29 27 30 73 31 28 32 72 33
REMARK SMILES IDX 29 34 30 35 31 36 66 37 32 38 71 39 65 40 67 41 33 42 70 43
REMARK SMILES IDX 64 44 63 45 34 47 56 48 41 49 55 50 42 51 45 52 54 53 68 54
REMARK SMILES IDX 43 55 44 56 53 58 69 59 46 60 35 61 36 62 40 63 37 64 39 65
REMARK SMILES IDX 38 66 57 67 58 68 62 69 59 70 61 71 60 72 47 73 48 74 52 75
REMARK SMILES IDX 49 76 51 77 50 78
REMARK H PARENT 11 15 67 46 45 57
REMARK Flexibility Score: inf
ROOT
ATOM      1  C   UNL A   1      31.756  30.824  26.851  1.00  0.00     0.275 C 
ENDROOT
BRANCH   1   2
ATOM      2  O   UNL A   1      31.491  30.279  25.542  1.00  0.00    -0.458 OA
BRANCH   2   3
ATOM      3  C   UNL A   1      32.213  29.187  25.182  1.00  0.00     0.339 C 
ATOM      4  O   UNL A   1      33.433  29.111  25.230  1.00  0.00    -0.246 OA
BRANCH   3   5
ATOM      5  C   UNL A   1      31.306  28.077  24.756  1.00  0.00     0.080 A 
ATOM      6  C   UNL A   1      30.243  25.970  25.319  1.00  0.00     0.042 A 
ATOM      7  C   UNL A   1      29.558  25.963  24.107  1.00  0.00     0.028 A 
ATOM      8  C   UNL A   1      31.237  26.921  25.555  1.00  0.00     0.043 A 
ATOM      9  C   UNL A   1      29.631  27.084  23.292  1.00  0.00     0.023 A 
ATOM     10  C   UNL A   1      30.410  28.182  23.675  1.00  0.00     0.055 A 
ATOM     11  Cl  UNL A   1      30.048  29.642  22.827  1.00  0.00    -0.083 Cl
BRANCH   6  12
ATOM     12  N   UNL A   1      29.761  25.112  26.313  1.00  0.00    -0.322 N 
ATOM     13  C   UNL A   1      30.185  23.856  26.720  1.00  0.00     0.255 C 
ATOM     14  O   UNL A   1      29.529  23.306  27.610  1.00  0.00    -0.269 OA
ATOM     15  H   UNL A   1      28.985  25.460  26.809  1.00  0.00     0.170 HD
BRANCH  13  16
ATOM     16  C   UNL A   1      31.410  23.154  26.211  1.00  0.00     0.043 A 
ATOM     17  C   UNL A   1      32.560  21.429  24.950  1.00  0.00     0.120 A 
ATOM     18  C   UNL A   1      33.765  21.751  25.559  1.00  0.00     0.046 A 
ATOM     19  C   UNL A   1      31.416  22.187  25.203  1.00  0.00     0.060 A 
ATOM     20  C   UNL A   1      33.817  22.831  26.436  1.00  0.00     0.005 A 
ATOM     21  C   UNL A   1      32.641  23.507  26.783  1.00  0.00     0.014 A 
BRANCH  17  22
ATOM     22  O   UNL A   1      32.448  20.222  24.313  1.00  0.00    -0.494 OA
BRANCH  22  23
ATOM     23  C   UNL A   1      32.974  19.115  25.045  1.00  0.00     0.226 C 
ATOM     24  C   UNL A   1      33.798  18.221  24.140  1.00  0.00     0.049 C 
ENDBRANCH  22  23
ENDBRANCH  17  22
ENDBRANCH  13  16
ENDBRANCH   6  12
ENDBRANCH   3   5
ENDBRANCH   2   3
ENDBRANCH   1   2
BRANCH   1  25
ATOM     25  C   UNL A   1      31.501  32.334  26.911  1.00  0.00     0.275 C 
BRANCH  25  26
ATOM     26  O   UNL A   1      32.723  33.083  26.760  1.00  0.00    -0.458 OA
BRANCH  26  27
ATOM     27  C   UNL A   1      33.134  33.746  27.867  1.00  0.00     0.338 C 
ATOM     28  O   UNL A   1      32.480  34.513  28.553  1.00  0.00    -0.246 OA
BRANCH  27  29
ATOM     29  C   UNL A   1      34.437  33.219  28.306  1.00  0.00     0.060 A 
ATOM     30  C   UNL A   1      34.391  32.005  28.981  1.00  0.00     0.016 A 
ATOM     31  C   UNL A   1      35.653  33.888  28.166  1.00  0.00     0.016 A 
ATOM     32  C   UNL A   1      35.550  31.411  29.457  1.00  0.00     0.010 A 
ATOM     33  C   UNL A   1      36.829  33.295  28.670  1.00  0.00     0.010 A 
ATOM     34  C   UNL A   1      36.783  32.038  29.298  1.00  0.00    -0.014 A 
BRANCH  34  35
ATOM     35  C   UNL A   1      37.942  31.371  29.940  1.00  0.00     0.031 A 
ATOM     36  C   UNL A   1      38.169  31.568  31.410  1.00  0.00     0.074 A 
ATOM     37  C   UNL A   1      38.643  30.428  29.281  1.00  0.00     0.049 A 
ATOM     38  N   UNL A   1      39.068  31.030  32.192  1.00  0.00    -0.248 NA
ATOM     39  C   UNL A   1      37.231  32.471  32.095  1.00  0.00     0.031 C 
ATOM     40  C   UNL A   1      38.401  30.000  27.902  1.00  0.00     0.029 A 
ATOM     41  N   UNL A   1      39.673  29.622  29.704  1.00  0.00    -0.354 N 
ATOM     42  C   UNL A   1      38.825  31.548  33.457  1.00  0.00     0.074 A 
ATOM     43  C   UNL A   1      37.691  32.441  33.337  1.00  0.00     0.031 C 
ATOM     44  C   UNL A   1      39.247  29.001  27.600  1.00  0.00     0.029 A 
ATOM     45  C   UNL A   1      40.125  28.753  28.740  1.00  0.00     0.049 A 
ATOM     46  H   UNL A   1      40.051  29.664  30.612  1.00  0.00     0.167 HD
ATOM     47  C   UNL A   1      39.492  31.312  34.611  1.00  0.00     0.031 A 
ATOM     48  C   UNL A   1      41.146  27.874  28.768  1.00  0.00     0.031 A 
ATOM     49  C   UNL A   1      40.625  30.432  34.730  1.00  0.00     0.049 A 
ATOM     50  C   UNL A   1      41.966  27.743  30.024  1.00  0.00     0.074 A 
ATOM     51  C   UNL A   1      41.396  30.164  35.848  1.00  0.00     0.029 A 
ATOM     52  N   UNL A   1      41.153  29.680  33.692  1.00  0.00    -0.354 N 
ATOM     53  N   UNL A   1      41.777  28.291  31.201  1.00  0.00    -0.248 NA
ATOM     54  C   UNL A   1      43.148  26.871  29.952  1.00  0.00     0.031 C 
ATOM     55  C   UNL A   1      42.434  29.304  35.468  1.00  0.00     0.029 A 
ATOM     56  C   UNL A   1      42.263  28.975  34.133  1.00  0.00     0.049 A 
ATOM     57  H   UNL A   1      40.794  29.651  32.775  1.00  0.00     0.167 HD
ATOM     58  C   UNL A   1      42.795  27.808  32.014  1.00  0.00     0.074 A 
ATOM     59  C   UNL A   1      43.586  26.905  31.201  1.00  0.00     0.031 C 
ATOM     60  C   UNL A   1      43.051  28.086  33.317  1.00  0.00     0.031 A 
BRANCH  47  61
ATOM     61  C   UNL A   1      39.069  32.110  35.813  1.00  0.00    -0.014 A 
ATOM     62  C   UNL A   1      39.625  33.364  36.112  1.00  0.00     0.009 A 
ATOM     63  C   UNL A   1      38.100  31.573  36.678  1.00  0.00     0.009 A 
ATOM     64  C   UNL A   1      39.253  34.040  37.276  1.00  0.00     0.001 A 
ATOM     65  C   UNL A   1      37.708  32.267  37.822  1.00  0.00     0.001 A 
ATOM     66  C   UNL A   1      38.294  33.492  38.128  1.00  0.00     0.000 A 
ENDBRANCH  47  61
BRANCH  48  67
ATOM     67  C   UNL A   1      41.501  27.084  27.556  1.00  0.00    -0.014 A 
ATOM     68  C   UNL A   1      41.031  25.774  27.379  1.00  0.00     0.009 A 
ATOM     69  C   UNL A   1      42.370  27.624  26.592  1.00  0.00     0.009 A 
ATOM     70  C   UNL A   1      41.442  25.014  26.281  1.00  0.00     0.001 A 
ATOM     71  C   UNL A   1      42.753  26.873  25.478  1.00  0.00     0.001 A 
ATOM     72  C   UNL A   1      42.299  25.566  25.330  1.00  0.00     0.000 A 
ENDBRANCH  48  67
BRANCH  60  73
ATOM     73  C   UNL A   1      44.210  27.368  33.955  1.00  0.00    -0.014 A 
ATOM     74  C   UNL A   1      45.502  27.918  33.974  1.00  0.00     0.009 A 
ATOM     75  C   UNL A   1      44.002  26.115  34.555  1.00  0.00     0.009 A 
ATOM     76  C   UNL A   1      46.568  27.205  34.527  1.00  0.00     0.001 A 
ATOM     77  C   UNL A   1      45.062  25.421  35.142  1.00  0.00     0.001 A 
ATOM     78  C   UNL A   1      46.347  25.959  35.113  1.00  0.00     0.000 A 
ENDBRANCH  60  73
ENDBRANCH  34  35
ENDBRANCH  27  29
ENDBRANCH  26  27
ENDBRANCH  25  26
ENDBRANCH   1  25
TORSDOF 15
ENDMDL
MODEL 2
REMARK VINA RESULT:     -11.0      4.075      9.511
REMARK SMILES CCOc1cccc(C(=O)Nc2ccc(Cl)c(C(=O)OCCOC(=O)c3ccc(-c4c5nc(c(-c6ccccc6)c6ccc([nH]6)c(-c6ccccc6)c6nc(c(-c7ccccc7)c7ccc4[nH]7)C=C6)C=C5)cc3)c2)c1
REMARK SMILES IDX 21 1 20 2 18 3 19 4 17 5 12 6 13 7 74 8 14 9 15 10 16 11
REMARK SMILES IDX 11 12 9 13 10 14 8 16 4 17 5 18 75 19 6 20 7 21 3 22 2 23
REMARK SMILES IDX 1 24 22 25 23 26 24 27 25 28 26 29 27 30 73 31 28 32 72 33
REMARK SMILES IDX 29 34 30 35 31 36 66 37 32 38 71 39 65 40 67 41 33 42 70 43
REMARK SMILES IDX 64 44 63 45 34 47 56 48 41 49 55 50 42 51 45 52 54 53 68 54
REMARK SMILES IDX 43 55 44 56 53 58 69 59 46 60 35 61 36 62 40 63 37 64 39 65
REMARK SMILES IDX 38 66 57 67 58 68 62 69 59 70 61 71 60 72 47 73 48 74 52 75
REMARK SMILES IDX 49 76 51 77 50 78
REMARK H PARENT 11 15 67 46 45 57
REMARK Flexibility Score: inf
ROOT
ATOM      1  C   UNL A   1      37.592  20.898  24.762  1.00  0.00     0.275 C 
ENDROOT
BRANCH   1   2
ATOM      2  O   UNL A   1      36.506  20.982  25.707  1.00  0.00    -0.458 OA
BRANCH   2   3
ATOM      3  C   UNL A   1      35.875  22.181  25.800  1.00  0.00     0.339 C 
ATOM      4  O   UNL A   1      36.360  23.187  26.299  1.00  0.00    -0.246 OA
BRANCH   3   5
ATOM      5  C   UNL A   1      34.519  22.110  25.172  1.00  0.00     0.080 A 
ATOM      6  C   UNL A   1      32.119  21.968  25.492  1.00  0.00     0.042 A 
ATOM      7  C   UNL A   1      31.906  22.049  24.119  1.00  0.00     0.028 A 
ATOM      8  C   UNL A   1      33.414  21.819  25.992  1.00  0.00     0.043 A 
ATOM      9  C   UNL A   1      32.986  22.313  23.289  1.00  0.00     0.023 A 
ATOM     10  C   UNL A   1      34.269  22.460  23.832  1.00  0.00     0.055 A 
ATOM     11  Cl  UNL A   1      35.403  23.226  22.779  1.00  0.00    -0.083 Cl
BRANCH   6  12
ATOM     12  N   UNL A   1      31.013  22.221  26.310  1.00  0.00    -0.322 N 
ATOM     13  C   UNL A   1      30.423  23.411  26.708  1.00  0.00     0.255 C 
ATOM     14  O   UNL A   1      29.466  23.330  27.483  1.00  0.00    -0.269 OA
ATOM     15  H   UNL A   1      30.577  21.413  26.665  1.00  0.00     0.170 HD
BRANCH  13  16
ATOM     16  C   UNL A   1      30.817  24.774  26.216  1.00  0.00     0.043 A 
ATOM     17  C   UNL A   1      30.507  26.773  24.876  1.00  0.00     0.120 A 
ATOM     18  C   UNL A   1      31.802  27.189  25.151  1.00  0.00     0.046 A 
ATOM     19  C   UNL A   1      29.990  25.627  25.481  1.00  0.00     0.060 A 
ATOM     20  C   UNL A   1      32.585  26.442  26.027  1.00  0.00     0.005 A 
ATOM     21  C   UNL A   1      32.106  25.227  26.531  1.00  0.00     0.014 A 
BRANCH  17  22
ATOM     22  O   UNL A   1      29.844  27.342  23.822  1.00  0.00    -0.494 OA
BRANCH  22  23
ATOM     23  C   UNL A   1      30.105  28.735  23.640  1.00  0.00     0.226 C 
ATOM     24  C   UNL A   1      29.325  29.274  22.459  1.00  0.00     0.049 C 
ENDBRANCH  22  23
ENDBRANCH  17  22
ENDBRANCH  13  16
ENDBRANCH   6  12
ENDBRANCH   3   5
ENDBRANCH   2   3
ENDBRANCH   1   2
BRANCH   1  25
ATOM     25  C   UNL A   1      38.496  19.689  25.027  1.00  0.00     0.275 C 
BRANCH  25  26
ATOM     26  O   UNL A   1      39.149  19.790  26.308  1.00  0.00    -0.458 OA
BRANCH  26  27
ATOM     27  C   UNL A   1      40.500  19.883  26.261  1.00  0.00     0.338 C 
ATOM     28  O   UNL A   1      41.270  19.143  25.673  1.00  0.00    -0.246 OA
BRANCH  27  29
ATOM     29  C   UNL A   1      40.928  21.176  26.820  1.00  0.00     0.060 A 
ATOM     30  C   UNL A   1      40.589  22.293  26.064  1.00  0.00     0.016 A 
ATOM     31  C   UNL A   1      41.700  21.328  27.972  1.00  0.00     0.016 A 
ATOM     32  C   UNL A   1      40.947  23.567  26.476  1.00  0.00     0.010 A 
ATOM     33  C   UNL A   1      42.084  22.623  28.380  1.00  0.00     0.010 A 
ATOM     34  C   UNL A   1      41.686  23.752  27.642  1.00  0.00    -0.014 A 
BRANCH  34  35
ATOM     35  C   UNL A   1      42.110  25.143  27.933  1.00  0.00     0.031 A 
ATOM     36  C   UNL A   1      43.416  25.633  27.382  1.00  0.00     0.074 A 
ATOM     37  C   UNL A   1      41.249  26.024  28.479  1.00  0.00     0.049 A 
ATOM     38  N   UNL A   1      43.952  26.825  27.447  1.00  0.00    -0.248 NA
ATOM     39  C   UNL A   1      44.210  24.651  26.627  1.00  0.00     0.031 C 
ATOM     40  C   UNL A   1      39.874  25.724  28.886  1.00  0.00     0.029 A 
ATOM     41  N   UNL A   1      41.388  27.366  28.740  1.00  0.00    -0.354 N 
ATOM     42  C   UNL A   1      45.158  26.732  26.766  1.00  0.00     0.074 A 
ATOM     43  C   UNL A   1      45.274  25.368  26.294  1.00  0.00     0.031 C 
ATOM     44  C   UNL A   1      39.294  26.852  29.329  1.00  0.00     0.029 A 
ATOM     45  C   UNL A   1      40.267  27.941  29.289  1.00  0.00     0.049 A 
ATOM     46  H   UNL A   1      42.214  27.868  28.552  1.00  0.00     0.167 HD
ATOM     47  C   UNL A   1      46.091  27.692  26.563  1.00  0.00     0.031 A 
ATOM     48  C   UNL A   1      40.059  29.197  29.730  1.00  0.00     0.031 A 
ATOM     49  C   UNL A   1      45.982  29.045  27.039  1.00  0.00     0.049 A 
ATOM     50  C   UNL A   1      41.172  30.205  29.625  1.00  0.00     0.074 A 
ATOM     51  C   UNL A   1      46.897  30.077  26.922  1.00  0.00     0.029 A 
ATOM     52  N   UNL A   1      44.893  29.555  27.728  1.00  0.00    -0.354 N 
ATOM     53  N   UNL A   1      42.343  30.093  29.045  1.00  0.00    -0.248 NA
ATOM     54  C   UNL A   1      40.934  31.517  30.245  1.00  0.00     0.031 C 
ATOM     55  C   UNL A   1      46.390  31.191  27.603  1.00  0.00     0.029 A 
ATOM     56  C   UNL A   1      45.127  30.877  28.076  1.00  0.00     0.049 A 
ATOM     57  H   UNL A   1      44.073  29.052  27.941  1.00  0.00     0.167 HD
ATOM     58  C   UNL A   1      42.966  31.324  29.203  1.00  0.00     0.074 A 
ATOM     59  C   UNL A   1      42.034  32.176  29.914  1.00  0.00     0.031 C 
ATOM     60  C   UNL A   1      44.199  31.715  28.793  1.00  0.00     0.031 A 
BRANCH  47  61
ATOM     61  C   UNL A   1      47.362  27.266  25.881  1.00  0.00    -0.014 A 
ATOM     62  C   UNL A   1      48.468  26.779  26.597  1.00  0.00     0.009 A 
ATOM     63  C   UNL A   1      47.455  27.381  24.484  1.00  0.00     0.009 A 
ATOM     64  C   UNL A   1      49.653  26.461  25.930  1.00  0.00     0.001 A 
ATOM     65  C   UNL A   1      48.629  27.031  23.819  1.00  0.00     0.001 A 
ATOM     66  C   UNL A   1      49.732  26.584  24.542  1.00  0.00     0.000 A 
ENDBRANCH  47  61
BRANCH  48  67
ATOM     67  C   UNL A   1      38.766  29.572  30.369  1.00  0.00    -0.014 A 
ATOM     68  C   UNL A   1      37.767  30.242  29.646  1.00  0.00     0.009 A 
ATOM     69  C   UNL A   1      38.551  29.312  31.733  1.00  0.00     0.009 A 
ATOM     70  C   UNL A   1      36.595  30.666  30.280  1.00  0.00     0.001 A 
ATOM     71  C   UNL A   1      37.365  29.707  32.355  1.00  0.00     0.001 A 
ATOM     72  C   UNL A   1      36.394  30.394  31.632  1.00  0.00     0.000 A 
ENDBRANCH  48  67
BRANCH  60  73
ATOM     73  C   UNL A   1      44.590  33.143  29.067  1.00  0.00    -0.014 A 
ATOM     74  C   UNL A   1      45.272  33.512  30.238  1.00  0.00     0.009 A 
ATOM     75  C   UNL A   1      44.273  34.140  28.130  1.00  0.00     0.009 A 
ATOM     76  C   UNL A   1      45.576  34.852  30.489  1.00  0.00     0.001 A 
ATOM     77  C   UNL A   1      44.612  35.474  28.365  1.00  0.00     0.001 A 
ATOM     78  C   UNL A   1      45.248  35.830  29.552  1.00  0.00     0.000 A 
ENDBRANCH  60  73
ENDBRANCH  34  35
ENDBRANCH  27  29
ENDBRANCH  26  27
ENDBRANCH  25  26
ENDBRANCH   1  25
TORSDOF 15
ENDMDL
MODEL 3
REMARK VINA RESULT:     -11.0      3.904      9.171
REMARK SMILES CCOc1cccc(C(=O)Nc2ccc(Cl)c(C(=O)OCCOC(=O)c3ccc(-c4c5nc(c(-c6ccccc6)c6ccc([nH]6)c(-c6ccccc6)c6nc(c(-c7ccccc7)c7ccc4[nH]7)C=C6)C=C5)cc3)c2)c1
REMARK SMILES IDX 21 1 20 2 18 3 19 4 17 5 12 6 13 7 74 8 14 9 15 10 16 11
REMARK SMILES IDX 11 12 9 13 10 14 8 16 4 17 5 18 75 19 6 20 7 21 3 22 2 23
REMARK SMILES IDX 1 24 22 25 23 26 24 27 25 28 26 29 27 30 73 31 28 32 72 33
REMARK SMILES IDX 29 34 30 35 31 36 66 37 32 38 71 39 65 40 67 41 33 42 70 43
REMARK SMILES IDX 64 44 63 45 34 47 56 48 41 49 55 50 42 51 45 52 54 53 68 54
REMARK SMILES IDX 43 55 44 56 53 58 69 59 46 60 35 61 36 62 40 63 37 64 39 65
REMARK SMILES IDX 38 66 57 67 58 68 62 69 59 70 61 71 60 72 47 73 48 74 52 75
REMARK SMILES IDX 49 76 51 77 50 78
REMARK H PARENT 11 15 67 46 45 57
REMARK Flexibility Score: inf
ROOT
ATOM      1  C   UNL A   1      36.225  22.514  23.959  1.00  0.00     0.275 C 
ENDROOT
BRANCH   1   2
ATOM      2  O   UNL A   1      35.194  22.820  24.919  1.00  0.00    -0.458 OA
BRANCH   2   3
ATOM      3  C   UNL A   1      34.085  22.036  24.889  1.00  0.00     0.339 C 
ATOM      4  O   UNL A   1      34.089  20.818  24.996  1.00  0.00    -0.246 OA
BRANCH   3   5
ATOM      5  C   UNL A   1      32.855  22.875  24.748  1.00  0.00     0.080 A 
ATOM      6  C   UNL A   1      31.369  24.514  25.743  1.00  0.00     0.042 A 
ATOM      7  C   UNL A   1      30.605  24.564  24.581  1.00  0.00     0.028 A 
ATOM      8  C   UNL A   1      32.368  23.549  25.883  1.00  0.00     0.043 A 
ATOM      9  C   UNL A   1      31.055  23.887  23.456  1.00  0.00     0.023 A 
ATOM     10  C   UNL A   1      32.239  23.142  23.511  1.00  0.00     0.055 A 
ATOM     11  Cl  UNL A   1      32.907  22.752  21.967  1.00  0.00    -0.083 Cl
BRANCH   6  12
ATOM     12  N   UNL A   1      31.197  25.567  26.647  1.00  0.00    -0.322 N 
ATOM     13  C   UNL A   1      31.385  26.933  26.505  1.00  0.00     0.255 C 
ATOM     14  O   UNL A   1      31.193  27.631  27.504  1.00  0.00    -0.269 OA
ATOM     15  H   UNL A   1      30.889  25.290  27.540  1.00  0.00     0.170 HD
BRANCH  13  16
ATOM     16  C   UNL A   1      31.733  27.625  25.219  1.00  0.00     0.043 A 
ATOM     17  C   UNL A   1      31.204  28.573  23.048  1.00  0.00     0.120 A 
ATOM     18  C   UNL A   1      32.552  28.662  22.730  1.00  0.00     0.046 A 
ATOM     19  C   UNL A   1      30.804  28.150  24.316  1.00  0.00     0.060 A 
ATOM     20  C   UNL A   1      33.502  28.310  23.686  1.00  0.00     0.005 A 
ATOM     21  C   UNL A   1      33.094  27.767  24.910  1.00  0.00     0.014 A 
BRANCH  17  22
ATOM     22  O   UNL A   1      30.284  28.653  22.038  1.00  0.00    -0.494 OA
BRANCH  22  23
ATOM     23  C   UNL A   1      29.585  29.896  21.971  1.00  0.00     0.226 C 
ATOM     24  C   UNL A   1      28.110  29.694  22.254  1.00  0.00     0.049 C 
ENDBRANCH  22  23
ENDBRANCH  17  22
ENDBRANCH  13  16
ENDBRANCH   6  12
ENDBRANCH   3   5
ENDBRANCH   2   3
ENDBRANCH   1   2
BRANCH   1  25
ATOM     25  C   UNL A   1      37.195  21.443  24.473  1.00  0.00     0.275 C 
BRANCH  25  26
ATOM     26  O   UNL A   1      37.611  21.714  25.826  1.00  0.00    -0.458 OA
BRANCH  26  27
ATOM     27  C   UNL A   1      38.901  21.409  26.104  1.00  0.00     0.338 C 
ATOM     28  O   UNL A   1      39.517  20.417  25.755  1.00  0.00    -0.246 OA
BRANCH  27  29
ATOM     29  C   UNL A   1      39.572  22.582  26.689  1.00  0.00     0.060 A 
ATOM     30  C   UNL A   1      39.172  23.812  26.182  1.00  0.00     0.016 A 
ATOM     31  C   UNL A   1      40.608  22.521  27.623  1.00  0.00     0.016 A 
ATOM     32  C   UNL A   1      39.739  24.991  26.642  1.00  0.00     0.010 A 
ATOM     33  C   UNL A   1      41.201  23.719  28.075  1.00  0.00     0.010 A 
ATOM     34  C   UNL A   1      40.748  24.963  27.601  1.00  0.00    -0.014 A 
BRANCH  34  35
ATOM     35  C   UNL A   1      41.361  26.271  27.941  1.00  0.00     0.031 A 
ATOM     36  C   UNL A   1      42.675  26.640  27.318  1.00  0.00     0.074 A 
ATOM     37  C   UNL A   1      40.657  27.206  28.609  1.00  0.00     0.049 A 
ATOM     38  N   UNL A   1      43.357  27.752  27.413  1.00  0.00    -0.248 NA
ATOM     39  C   UNL A   1      43.285  25.627  26.443  1.00  0.00     0.031 C 
ATOM     40  C   UNL A   1      39.290  27.043  29.106  1.00  0.00     0.029 A 
ATOM     41  N   UNL A   1      40.980  28.500  28.940  1.00  0.00    -0.354 N 
ATOM     42  C   UNL A   1      44.490  27.565  26.633  1.00  0.00     0.074 A 
ATOM     43  C   UNL A   1      44.402  26.234  26.070  1.00  0.00     0.031 C 
ATOM     44  C   UNL A   1      38.887  28.198  29.663  1.00  0.00     0.029 A 
ATOM     45  C   UNL A   1      39.981  29.163  29.612  1.00  0.00     0.049 A 
ATOM     46  H   UNL A   1      41.846  28.912  28.717  1.00  0.00     0.167 HD
ATOM     47  C   UNL A   1      45.517  28.420  26.415  1.00  0.00     0.031 A 
ATOM     48  C   UNL A   1      39.963  30.400  30.145  1.00  0.00     0.031 A 
ATOM     49  C   UNL A   1      45.611  29.739  26.981  1.00  0.00     0.049 A 
ATOM     50  C   UNL A   1      41.182  31.274  30.014  1.00  0.00     0.074 A 
ATOM     51  C   UNL A   1      46.636  30.661  26.855  1.00  0.00     0.029 A 
ATOM     52  N   UNL A   1      44.646  30.324  27.786  1.00  0.00    -0.354 N 
ATOM     53  N   UNL A   1      42.284  31.065  29.335  1.00  0.00    -0.248 NA
ATOM     54  C   UNL A   1      41.153  32.558  30.730  1.00  0.00     0.031 C 
ATOM     55  C   UNL A   1      46.322  31.776  27.642  1.00  0.00     0.029 A 
ATOM     56  C   UNL A   1      45.066  31.581  28.195  1.00  0.00     0.049 A 
ATOM     57  H   UNL A   1      43.788  29.908  28.033  1.00  0.00     0.167 HD
ATOM     58  C   UNL A   1      43.065  32.200  29.518  1.00  0.00     0.074 A 
ATOM     59  C   UNL A   1      42.300  33.103  30.353  1.00  0.00     0.031 C 
ATOM     60  C   UNL A   1      44.304  32.470  29.035  1.00  0.00     0.031 A 
BRANCH  47  61
ATOM     61  C   UNL A   1      46.673  27.896  25.608  1.00  0.00    -0.014 A 
ATOM     62  C   UNL A   1      46.724  28.013  24.210  1.00  0.00     0.009 A 
ATOM     63  C   UNL A   1      47.728  27.250  26.274  1.00  0.00     0.009 A 
ATOM     64  C   UNL A   1      47.783  27.450  23.495  1.00  0.00     0.001 A 
ATOM     65  C   UNL A   1      48.801  26.718  25.559  1.00  0.00     0.001 A 
ATOM     66  C   UNL A   1      48.822  26.807  24.169  1.00  0.00     0.000 A 
ENDBRANCH  47  61
BRANCH  48  67
ATOM     67  C   UNL A   1      38.776  30.880  30.908  1.00  0.00    -0.014 A 
ATOM     68  C   UNL A   1      38.643  30.622  32.281  1.00  0.00     0.009 A 
ATOM     69  C   UNL A   1      37.736  31.552  30.245  1.00  0.00     0.009 A 
ATOM     70  C   UNL A   1      37.484  31.000  32.965  1.00  0.00     0.001 A 
ATOM     71  C   UNL A   1      36.594  31.959  30.939  1.00  0.00     0.001 A 
ATOM     72  C   UNL A   1      36.464  31.673  32.295  1.00  0.00     0.000 A 
ENDBRANCH  48  67
BRANCH  60  73
ATOM     73  C   UNL A   1      44.888  33.819  29.364  1.00  0.00    -0.014 A 
ATOM     74  C   UNL A   1      45.683  34.023  30.504  1.00  0.00     0.009 A 
ATOM     75  C   UNL A   1      44.639  34.907  28.512  1.00  0.00     0.009 A 
ATOM     76  C   UNL A   1      46.168  35.296  30.811  1.00  0.00     0.001 A 
ATOM     77  C   UNL A   1      45.157  36.171  28.801  1.00  0.00     0.001 A 
ATOM     78  C   UNL A   1      45.907  36.368  29.959  1.00  0.00     0.000 A 
ENDBRANCH  60  73
ENDBRANCH  34  35
ENDBRANCH  27  29
ENDBRANCH  26  27
ENDBRANCH  25  26
ENDBRANCH   1  25
TORSDOF 15
ENDMDL
