MODEL 1
REMARK VINA RESULT:     -11.3      0.000      0.000
REMARK SMILES Cc1cccc(C[C@H](C(=O)OCCOC(=O)c2ccc(-c3c4nc(c(-c5ccccc5)c5ccc([nH]5)c(-c5ccccc5)c5nc(c(-c6ccccc6)c6ccc3[nH]6)C=C5)C=C4)cc2)[C@@H]2CCCC[C@@H]2O)c1
REMARK SMILES IDX 12 1 11 2 9 3 10 4 8 5 7 6 6 7 1 8 2 9 3 10 72 11 4 12 5 13
REMARK SMILES IDX 65 14 66 15 70 16 67 17 69 18 68 19 71 20 13 22 14 23 15 24
REMARK SMILES IDX 16 25 17 26 18 27 64 28 19 29 63 30 20 31 21 32 22 33 57 34
REMARK SMILES IDX 23 35 62 36 56 37 58 38 24 39 61 40 55 41 54 42 25 44 47 45
REMARK SMILES IDX 32 46 46 47 33 48 36 49 45 50 59 51 34 52 35 53 44 55 60 56
REMARK SMILES IDX 37 57 26 58 27 59 31 60 28 61 30 62 29 63 48 64 49 65 53 66
REMARK SMILES IDX 50 67 52 68 51 69 38 70 39 71 43 72 40 73 42 74 41 75
REMARK H PARENT 71 21 58 43 36 54
REMARK Flexibility Score: inf
ROOT
ATOM      1  C   UNL A   1      32.900  31.571  27.315  1.00  0.00     0.274 C 
ENDROOT
BRANCH   1   2
ATOM      2  O   UNL A   1      32.610  30.645  26.253  1.00  0.00    -0.462 OA
BRANCH   2   3
ATOM      3  C   UNL A   1      33.446  29.621  25.963  1.00  0.00     0.309 C 
ATOM      4  O   UNL A   1      34.351  29.251  26.694  1.00  0.00    -0.252 OA
BRANCH   3   5
ATOM      5  C   UNL A   1      32.972  28.858  24.706  1.00  0.00     0.109 C 
BRANCH   5   6
ATOM      6  C   UNL A   1      33.929  27.619  24.533  1.00  0.00     0.051 C 
BRANCH   6   7
ATOM      7  C   UNL A   1      33.722  26.434  23.603  1.00  0.00    -0.047 A 
ATOM      8  C   UNL A   1      34.302  22.625  23.539  1.00  0.00     0.044 C 
ATOM      9  C   UNL A   1      33.825  24.006  23.196  1.00  0.00    -0.051 A 
ATOM     10  C   UNL A   1      33.069  24.169  22.033  1.00  0.00     0.003 A 
ATOM     11  C   UNL A   1      34.116  25.135  23.992  1.00  0.00     0.007 A 
ATOM     12  C   UNL A   1      32.738  25.443  21.606  1.00  0.00     0.001 A 
ATOM     13  C   UNL A   1      33.129  26.552  22.359  1.00  0.00     0.004 A 
ENDBRANCH   6   7
ENDBRANCH   5   6
BRANCH   5  14
ATOM     14  C   UNL A   1      31.436  28.771  25.013  1.00  0.00     0.032 C 
ATOM     15  C   UNL A   1      31.039  27.691  26.021  1.00  0.00     0.007 C 
ATOM     16  C   UNL A   1      30.384  28.899  23.900  1.00  0.00     0.118 C 
ATOM     17  C   UNL A   1      30.866  26.346  25.361  1.00  0.00     0.001 C 
ATOM     18  C   UNL A   1      29.729  27.610  23.387  1.00  0.00     0.032 C 
ATOM     19  C   UNL A   1      29.772  26.385  24.307  1.00  0.00     0.003 C 
BRANCH  16  20
ATOM     20  O   UNL A   1      30.783  29.774  22.848  1.00  0.00    -0.393 OA
ATOM     21  H   UNL A   1      31.671  29.529  22.545  1.00  0.00     0.210 HD
ENDBRANCH  16  20
ENDBRANCH   5  14
ENDBRANCH   3   5
ENDBRANCH   2   3
ENDBRANCH   1   2
BRANCH   1  22
ATOM     22  C   UNL A   1      32.457  33.062  27.348  1.00  0.00     0.275 C 
BRANCH  22  23
ATOM     23  O   UNL A   1      32.467  33.957  28.502  1.00  0.00    -0.458 OA
BRANCH  23  24
ATOM     24  C   UNL A   1      33.454  34.536  29.222  1.00  0.00     0.338 C 
ATOM     25  O   UNL A   1      33.346  35.646  29.731  1.00  0.00    -0.246 OA
BRANCH  24  26
ATOM     26  C   UNL A   1      34.657  33.734  29.419  1.00  0.00     0.060 A 
ATOM     27  C   UNL A   1      34.647  32.667  30.330  1.00  0.00     0.016 A 
ATOM     28  C   UNL A   1      35.720  33.950  28.555  1.00  0.00     0.016 A 
ATOM     29  C   UNL A   1      35.686  31.750  30.314  1.00  0.00     0.010 A 
ATOM     30  C   UNL A   1      36.615  32.936  28.372  1.00  0.00     0.010 A 
ATOM     31  C   UNL A   1      36.654  31.903  29.320  1.00  0.00    -0.014 A 
BRANCH  31  32
ATOM     32  C   UNL A   1      38.019  31.455  29.501  1.00  0.00     0.031 A 
ATOM     33  C   UNL A   1      38.462  30.188  28.922  1.00  0.00     0.074 A 
ATOM     34  C   UNL A   1      38.736  32.442  30.094  1.00  0.00     0.049 A 
ATOM     35  N   UNL A   1      39.246  29.365  29.519  1.00  0.00    -0.248 NA
ATOM     36  C   UNL A   1      38.008  29.692  27.616  1.00  0.00     0.031 C 
ATOM     37  C   UNL A   1      40.146  32.684  30.285  1.00  0.00     0.029 A 
ATOM     38  N   UNL A   1      38.141  33.515  30.784  1.00  0.00    -0.354 N 
ATOM     39  C   UNL A   1      39.756  28.565  28.521  1.00  0.00     0.074 A 
ATOM     40  C   UNL A   1      38.805  28.628  27.438  1.00  0.00     0.031 C 
ATOM     41  C   UNL A   1      40.286  33.582  31.290  1.00  0.00     0.029 A 
ATOM     42  C   UNL A   1      38.958  33.885  31.832  1.00  0.00     0.049 A 
ATOM     43  H   UNL A   1      37.280  33.934  30.555  1.00  0.00     0.167 HD
ATOM     44  C   UNL A   1      41.077  28.229  28.560  1.00  0.00     0.031 A 
ATOM     45  C   UNL A   1      38.475  33.596  33.076  1.00  0.00     0.031 A 
ATOM     46  C   UNL A   1      41.733  28.926  29.666  1.00  0.00     0.049 A 
ATOM     47  C   UNL A   1      39.231  32.418  33.636  1.00  0.00     0.074 A 
ATOM     48  C   UNL A   1      42.496  30.082  29.694  1.00  0.00     0.029 A 
ATOM     49  N   UNL A   1      41.297  28.713  30.968  1.00  0.00    -0.354 N 
ATOM     50  N   UNL A   1      39.779  31.482  32.908  1.00  0.00    -0.248 NA
ATOM     51  C   UNL A   1      39.490  32.258  35.058  1.00  0.00     0.031 C 
ATOM     52  C   UNL A   1      42.482  30.586  31.022  1.00  0.00     0.029 A 
ATOM     53  C   UNL A   1      41.688  29.752  31.791  1.00  0.00     0.049 A 
ATOM     54  H   UNL A   1      40.781  27.928  31.264  1.00  0.00     0.167 HD
ATOM     55  C   UNL A   1      40.556  30.687  33.706  1.00  0.00     0.074 A 
ATOM     56  C   UNL A   1      40.314  31.196  35.048  1.00  0.00     0.031 C 
ATOM     57  C   UNL A   1      41.371  29.710  33.212  1.00  0.00     0.031 A 
BRANCH  44  58
ATOM     58  C   UNL A   1      41.836  27.606  27.416  1.00  0.00    -0.014 A 
ATOM     59  C   UNL A   1      42.348  26.300  27.554  1.00  0.00     0.009 A 
ATOM     60  C   UNL A   1      42.033  28.224  26.170  1.00  0.00     0.009 A 
ATOM     61  C   UNL A   1      43.052  25.657  26.530  1.00  0.00     0.001 A 
ATOM     62  C   UNL A   1      42.748  27.588  25.140  1.00  0.00     0.001 A 
ATOM     63  C   UNL A   1      43.258  26.306  25.321  1.00  0.00     0.000 A 
ENDBRANCH  44  58
BRANCH  45  64
ATOM     64  C   UNL A   1      37.006  33.879  33.300  1.00  0.00    -0.014 A 
ATOM     65  C   UNL A   1      36.474  35.116  32.853  1.00  0.00     0.009 A 
ATOM     66  C   UNL A   1      36.088  32.928  33.767  1.00  0.00     0.009 A 
ATOM     67  C   UNL A   1      35.095  35.356  32.791  1.00  0.00     0.001 A 
ATOM     68  C   UNL A   1      34.700  33.182  33.734  1.00  0.00     0.001 A 
ATOM     69  C   UNL A   1      34.206  34.384  33.227  1.00  0.00     0.000 A 
ENDBRANCH  45  64
BRANCH  57  70
ATOM     70  C   UNL A   1      42.048  28.632  34.021  1.00  0.00    -0.014 A 
ATOM     71  C   UNL A   1      41.448  27.423  34.378  1.00  0.00     0.009 A 
ATOM     72  C   UNL A   1      43.422  28.773  34.331  1.00  0.00     0.009 A 
ATOM     73  C   UNL A   1      42.162  26.434  35.061  1.00  0.00     0.001 A 
ATOM     74  C   UNL A   1      44.157  27.761  34.943  1.00  0.00     0.001 A 
ATOM     75  C   UNL A   1      43.518  26.596  35.328  1.00  0.00     0.000 A 
ENDBRANCH  57  70
ENDBRANCH  31  32
ENDBRANCH  24  26
ENDBRANCH  23  24
ENDBRANCH  22  23
ENDBRANCH   1  22
TORSDOF 15
ENDMDL
MODEL 2
REMARK VINA RESULT:     -11.2      1.669      2.595
REMARK SMILES Cc1cccc(C[C@H](C(=O)OCCOC(=O)c2ccc(-c3c4nc(c(-c5ccccc5)c5ccc([nH]5)c(-c5ccccc5)c5nc(c(-c6ccccc6)c6ccc3[nH]6)C=C5)C=C4)cc2)[C@@H]2CCCC[C@@H]2O)c1
REMARK SMILES IDX 12 1 11 2 9 3 10 4 8 5 7 6 6 7 1 8 2 9 3 10 72 11 4 12 5 13
REMARK SMILES IDX 65 14 66 15 70 16 67 17 69 18 68 19 71 20 13 22 14 23 15 24
REMARK SMILES IDX 16 25 17 26 18 27 64 28 19 29 63 30 20 31 21 32 22 33 57 34
REMARK SMILES IDX 23 35 62 36 56 37 58 38 24 39 61 40 55 41 54 42 25 44 47 45
REMARK SMILES IDX 32 46 46 47 33 48 36 49 45 50 59 51 34 52 35 53 44 55 60 56
REMARK SMILES IDX 37 57 26 58 27 59 31 60 28 61 30 62 29 63 48 64 49 65 53 66
REMARK SMILES IDX 50 67 52 68 51 69 38 70 39 71 43 72 40 73 42 74 41 75
REMARK H PARENT 71 21 58 43 36 54
REMARK Flexibility Score: inf
ROOT
ATOM      1  C   UNL A   1      31.991  29.395  24.968  1.00  0.00     0.274 C 
ENDROOT
BRANCH   1   2
ATOM      2  O   UNL A   1      31.270  28.155  24.854  1.00  0.00    -0.462 OA
BRANCH   2   3
ATOM      3  C   UNL A   1      31.597  27.078  25.606  1.00  0.00     0.309 C 
ATOM      4  O   UNL A   1      30.979  26.725  26.598  1.00  0.00    -0.252 OA
BRANCH   3   5
ATOM      5  C   UNL A   1      32.708  26.245  24.928  1.00  0.00     0.109 C 
BRANCH   5   6
ATOM      6  C   UNL A   1      33.411  25.409  26.063  1.00  0.00     0.051 C 
BRANCH   6   7
ATOM      7  C   UNL A   1      34.139  24.084  25.895  1.00  0.00    -0.047 A 
ATOM      8  C   UNL A   1      36.873  22.507  23.683  1.00  0.00     0.044 C 
ATOM      9  C   UNL A   1      35.888  22.744  24.791  1.00  0.00    -0.051 A 
ATOM     10  C   UNL A   1      35.730  21.745  25.754  1.00  0.00     0.003 A 
ATOM     11  C   UNL A   1      35.116  23.923  24.888  1.00  0.00     0.007 A 
ATOM     12  C   UNL A   1      34.729  21.862  26.702  1.00  0.00     0.001 A 
ATOM     13  C   UNL A   1      33.910  22.993  26.712  1.00  0.00     0.004 A 
ENDBRANCH   6   7
ENDBRANCH   5   6
BRANCH   5  14
ATOM     14  C   UNL A   1      31.889  25.634  23.738  1.00  0.00     0.032 C 
ATOM     15  C   UNL A   1      30.701  24.764  24.149  1.00  0.00     0.007 C 
ATOM     16  C   UNL A   1      32.586  25.061  22.493  1.00  0.00     0.118 C 
ATOM     17  C   UNL A   1      31.119  23.345  24.439  1.00  0.00     0.001 C 
ATOM     18  C   UNL A   1      32.709  23.536  22.385  1.00  0.00     0.032 C 
ATOM     19  C   UNL A   1      31.737  22.690  23.215  1.00  0.00     0.003 C 
BRANCH  16  20
ATOM     20  O   UNL A   1      33.795  25.738  22.164  1.00  0.00    -0.393 OA
ATOM     21  H   UNL A   1      34.199  26.089  22.973  1.00  0.00     0.210 HD
ENDBRANCH  16  20
ENDBRANCH   5  14
ENDBRANCH   3   5
ENDBRANCH   2   3
ENDBRANCH   1   2
BRANCH   1  22
ATOM     22  C   UNL A   1      33.190  29.647  25.928  1.00  0.00     0.275 C 
BRANCH  22  23
ATOM     23  O   UNL A   1      33.168  30.392  27.184  1.00  0.00    -0.458 OA
BRANCH  23  24
ATOM     24  C   UNL A   1      33.753  31.538  27.597  1.00  0.00     0.338 C 
ATOM     25  O   UNL A   1      33.164  32.613  27.634  1.00  0.00    -0.246 OA
BRANCH  24  26
ATOM     26  C   UNL A   1      35.131  31.421  28.063  1.00  0.00     0.060 A 
ATOM     27  C   UNL A   1      35.993  32.526  27.986  1.00  0.00     0.016 A 
ATOM     28  C   UNL A   1      35.485  30.261  28.735  1.00  0.00     0.016 A 
ATOM     29  C   UNL A   1      37.198  32.496  28.671  1.00  0.00     0.010 A 
ATOM     30  C   UNL A   1      36.545  30.314  29.593  1.00  0.00     0.010 A 
ATOM     31  C   UNL A   1      37.446  31.381  29.472  1.00  0.00    -0.014 A 
BRANCH  31  32
ATOM     32  C   UNL A   1      38.790  30.922  29.754  1.00  0.00     0.031 A 
ATOM     33  C   UNL A   1      39.332  29.757  29.058  1.00  0.00     0.074 A 
ATOM     34  C   UNL A   1      39.405  31.817  30.567  1.00  0.00     0.049 A 
ATOM     35  N   UNL A   1      40.060  28.862  29.623  1.00  0.00    -0.248 NA
ATOM     36  C   UNL A   1      39.053  29.453  27.648  1.00  0.00     0.031 C 
ATOM     37  C   UNL A   1      40.775  32.040  30.963  1.00  0.00     0.029 A 
ATOM     38  N   UNL A   1      38.704  32.773  31.325  1.00  0.00    -0.354 N 
ATOM     39  C   UNL A   1      40.707  28.219  28.590  1.00  0.00     0.074 A 
ATOM     40  C   UNL A   1      39.893  28.432  27.419  1.00  0.00     0.031 C 
ATOM     41  C   UNL A   1      40.769  32.782  32.097  1.00  0.00     0.029 A 
ATOM     42  C   UNL A   1      39.379  32.993  32.509  1.00  0.00     0.049 A 
ATOM     43  H   UNL A   1      37.866  33.215  31.054  1.00  0.00     0.167 HD
ATOM     44  C   UNL A   1      42.022  27.891  28.743  1.00  0.00     0.031 A 
ATOM     45  C   UNL A   1      38.757  32.522  33.629  1.00  0.00     0.031 A 
ATOM     46  C   UNL A   1      42.521  28.425  30.011  1.00  0.00     0.049 A 
ATOM     47  C   UNL A   1      39.469  31.281  34.102  1.00  0.00     0.074 A 
ATOM     48  C   UNL A   1      43.245  29.570  30.299  1.00  0.00     0.029 A 
ATOM     49  N   UNL A   1      41.936  28.021  31.205  1.00  0.00    -0.354 N 
ATOM     50  N   UNL A   1      40.125  30.465  33.321  1.00  0.00    -0.248 NA
ATOM     51  C   UNL A   1      39.558  30.917  35.507  1.00  0.00     0.031 C 
ATOM     52  C   UNL A   1      43.058  29.875  31.673  1.00  0.00     0.029 A 
ATOM     53  C   UNL A   1      42.199  28.932  32.210  1.00  0.00     0.049 A 
ATOM     54  H   UNL A   1      41.409  27.197  31.319  1.00  0.00     0.167 HD
ATOM     55  C   UNL A   1      40.820  29.568  34.086  1.00  0.00     0.074 A 
ATOM     56  C   UNL A   1      40.404  29.874  35.447  1.00  0.00     0.031 C 
ATOM     57  C   UNL A   1      41.714  28.680  33.560  1.00  0.00     0.031 A 
BRANCH  44  58
ATOM     58  C   UNL A   1      42.929  27.448  27.625  1.00  0.00    -0.014 A 
ATOM     59  C   UNL A   1      42.932  26.094  27.230  1.00  0.00     0.009 A 
ATOM     60  C   UNL A   1      43.757  28.313  26.890  1.00  0.00     0.009 A 
ATOM     61  C   UNL A   1      43.741  25.617  26.193  1.00  0.00     0.001 A 
ATOM     62  C   UNL A   1      44.579  27.837  25.853  1.00  0.00     0.001 A 
ATOM     63  C   UNL A   1      44.572  26.489  25.506  1.00  0.00     0.000 A 
ENDBRANCH  44  58
BRANCH  45  64
ATOM     64  C   UNL A   1      37.264  32.758  33.708  1.00  0.00    -0.014 A 
ATOM     65  C   UNL A   1      36.780  33.782  34.561  1.00  0.00     0.009 A 
ATOM     66  C   UNL A   1      36.328  32.145  32.861  1.00  0.00     0.009 A 
ATOM     67  C   UNL A   1      35.454  34.233  34.508  1.00  0.00     0.001 A 
ATOM     68  C   UNL A   1      34.986  32.579  32.830  1.00  0.00     0.001 A 
ATOM     69  C   UNL A   1      34.557  33.634  33.635  1.00  0.00     0.000 A 
ENDBRANCH  45  64
BRANCH  57  70
ATOM     70  C   UNL A   1      42.314  27.501  34.283  1.00  0.00    -0.014 A 
ATOM     71  C   UNL A   1      41.571  26.485  34.886  1.00  0.00     0.009 A 
ATOM     72  C   UNL A   1      43.718  27.318  34.243  1.00  0.00     0.009 A 
ATOM     73  C   UNL A   1      42.195  25.379  35.469  1.00  0.00     0.001 A 
ATOM     74  C   UNL A   1      44.338  26.182  34.754  1.00  0.00     0.001 A 
ATOM     75  C   UNL A   1      43.574  25.219  35.389  1.00  0.00     0.000 A 
ENDBRANCH  57  70
ENDBRANCH  31  32
ENDBRANCH  24  26
ENDBRANCH  23  24
ENDBRANCH  22  23
ENDBRANCH   1  22
TORSDOF 15
ENDMDL
MODEL 3
REMARK VINA RESULT:     -10.9      3.083      8.279
REMARK SMILES Cc1cccc(C[C@H](C(=O)OCCOC(=O)c2ccc(-c3c4nc(c(-c5ccccc5)c5ccc([nH]5)c(-c5ccccc5)c5nc(c(-c6ccccc6)c6ccc3[nH]6)C=C5)C=C4)cc2)[C@@H]2CCCC[C@@H]2O)c1
REMARK SMILES IDX 12 1 11 2 9 3 10 4 8 5 7 6 6 7 1 8 2 9 3 10 72 11 4 12 5 13
REMARK SMILES IDX 65 14 66 15 70 16 67 17 69 18 68 19 71 20 13 22 14 23 15 24
REMARK SMILES IDX 16 25 17 26 18 27 64 28 19 29 63 30 20 31 21 32 22 33 57 34
REMARK SMILES IDX 23 35 62 36 56 37 58 38 24 39 61 40 55 41 54 42 25 44 47 45
REMARK SMILES IDX 32 46 46 47 33 48 36 49 45 50 59 51 34 52 35 53 44 55 60 56
REMARK SMILES IDX 37 57 26 58 27 59 31 60 28 61 30 62 29 63 48 64 49 65 53 66
REMARK SMILES IDX 50 67 52 68 51 69 38 70 39 71 43 72 40 73 42 74 41 75
REMARK H PARENT 71 21 58 43 36 54
REMARK Flexibility Score: inf
ROOT
ATOM      1  C   UNL A   1      37.189  22.356  24.971  1.00  0.00     0.274 C 
ENDROOT
BRANCH   1   2
ATOM      2  O   UNL A   1      35.798  22.485  24.629  1.00  0.00    -0.462 OA
BRANCH   2   3
ATOM      3  C   UNL A   1      34.823  22.191  25.521  1.00  0.00     0.309 C 
ATOM      4  O   UNL A   1      34.742  21.130  26.119  1.00  0.00    -0.252 OA
BRANCH   3   5
ATOM      5  C   UNL A   1      33.966  23.438  25.836  1.00  0.00     0.109 C 
BRANCH   5   6
ATOM      6  C   UNL A   1      34.639  24.655  25.096  1.00  0.00     0.051 C 
BRANCH   6   7
ATOM      7  C   UNL A   1      34.066  26.056  24.947  1.00  0.00    -0.047 A 
ATOM      8  C   UNL A   1      33.175  29.102  27.133  1.00  0.00     0.044 C 
ATOM      9  C   UNL A   1      33.463  28.225  25.950  1.00  0.00    -0.051 A 
ATOM     10  C   UNL A   1      33.299  28.768  24.674  1.00  0.00     0.003 A 
ATOM     11  C   UNL A   1      33.880  26.882  26.078  1.00  0.00     0.007 A 
ATOM     12  C   UNL A   1      33.410  27.951  23.563  1.00  0.00     0.001 A 
ATOM     13  C   UNL A   1      33.722  26.600  23.723  1.00  0.00     0.004 A 
ENDBRANCH   6   7
ENDBRANCH   5   6
BRANCH   5  14
ATOM     14  C   UNL A   1      32.541  22.867  25.513  1.00  0.00     0.032 C 
ATOM     15  C   UNL A   1      32.370  22.318  24.095  1.00  0.00     0.007 C 
ATOM     16  C   UNL A   1      31.263  23.580  25.984  1.00  0.00     0.118 C 
ATOM     17  C   UNL A   1      32.031  23.407  23.110  1.00  0.00     0.001 C 
ATOM     18  C   UNL A   1      30.490  24.412  24.953  1.00  0.00     0.032 C 
ATOM     19  C   UNL A   1      30.726  24.094  23.472  1.00  0.00     0.003 C 
BRANCH  16  20
ATOM     20  O   UNL A   1      31.422  24.252  27.231  1.00  0.00    -0.393 OA
ATOM     21  H   UNL A   1      31.521  25.203  27.074  1.00  0.00     0.210 HD
ENDBRANCH  16  20
ENDBRANCH   5  14
ENDBRANCH   3   5
ENDBRANCH   2   3
ENDBRANCH   1   2
BRANCH   1  22
ATOM     22  C   UNL A   1      37.992  23.362  25.845  1.00  0.00     0.275 C 
BRANCH  22  23
ATOM     23  O   UNL A   1      39.231  23.100  26.573  1.00  0.00    -0.458 OA
BRANCH  23  24
ATOM     24  C   UNL A   1      40.406  23.761  26.681  1.00  0.00     0.338 C 
ATOM     25  O   UNL A   1      41.468  23.306  26.272  1.00  0.00    -0.246 OA
BRANCH  24  26
ATOM     26  C   UNL A   1      40.337  25.095  27.269  1.00  0.00     0.060 A 
ATOM     27  C   UNL A   1      40.665  26.219  26.496  1.00  0.00     0.016 A 
ATOM     28  C   UNL A   1      39.771  25.213  28.529  1.00  0.00     0.016 A 
ATOM     29  C   UNL A   1      40.340  27.483  26.962  1.00  0.00     0.010 A 
ATOM     30  C   UNL A   1      39.239  26.419  28.885  1.00  0.00     0.010 A 
ATOM     31  C   UNL A   1      39.621  27.554  28.156  1.00  0.00    -0.014 A 
BRANCH  31  32
ATOM     32  C   UNL A   1      39.714  28.696  29.041  1.00  0.00     0.031 A 
ATOM     33  C   UNL A   1      38.637  29.684  29.086  1.00  0.00     0.074 A 
ATOM     34  C   UNL A   1      40.799  28.551  29.843  1.00  0.00     0.049 A 
ATOM     35  N   UNL A   1      38.833  30.950  29.181  1.00  0.00    -0.248 NA
ATOM     36  C   UNL A   1      37.215  29.338  28.965  1.00  0.00     0.031 C 
ATOM     37  C   UNL A   1      41.249  29.197  31.052  1.00  0.00     0.029 A 
ATOM     38  N   UNL A   1      41.856  27.669  29.551  1.00  0.00    -0.354 N 
ATOM     39  C   UNL A   1      37.636  31.467  29.626  1.00  0.00     0.074 A 
ATOM     40  C   UNL A   1      36.626  30.510  29.246  1.00  0.00     0.031 C 
ATOM     41  C   UNL A   1      42.576  28.959  31.187  1.00  0.00     0.029 A 
ATOM     42  C   UNL A   1      43.037  28.212  30.014  1.00  0.00     0.049 A 
ATOM     43  H   UNL A   1      41.767  26.802  29.091  1.00  0.00     0.167 HD
ATOM     44  C   UNL A   1      37.658  32.448  30.573  1.00  0.00     0.031 A 
ATOM     45  C   UNL A   1      43.905  28.626  29.045  1.00  0.00     0.031 A 
ATOM     46  C   UNL A   1      39.033  32.677  31.018  1.00  0.00     0.049 A 
ATOM     47  C   UNL A   1      43.888  30.132  28.981  1.00  0.00     0.074 A 
ATOM     48  C   UNL A   1      39.721  32.221  32.130  1.00  0.00     0.029 A 
ATOM     49  N   UNL A   1      39.994  33.080  30.100  1.00  0.00    -0.354 N 
ATOM     50  N   UNL A   1      42.861  30.871  29.304  1.00  0.00    -0.248 NA
ATOM     51  C   UNL A   1      45.061  30.913  28.621  1.00  0.00     0.031 C 
ATOM     52  C   UNL A   1      41.111  32.318  31.856  1.00  0.00     0.029 A 
ATOM     53  C   UNL A   1      41.264  32.803  30.569  1.00  0.00     0.049 A 
ATOM     54  H   UNL A   1      39.797  33.506  29.234  1.00  0.00     0.167 HD
ATOM     55  C   UNL A   1      43.243  32.185  29.333  1.00  0.00     0.074 A 
ATOM     56  C   UNL A   1      44.621  32.159  28.865  1.00  0.00     0.031 C 
ATOM     57  C   UNL A   1      42.427  33.185  29.779  1.00  0.00     0.031 A 
BRANCH  44  58
ATOM     58  C   UNL A   1      36.454  32.911  31.352  1.00  0.00    -0.014 A 
ATOM     59  C   UNL A   1      35.544  33.807  30.755  1.00  0.00     0.009 A 
ATOM     60  C   UNL A   1      36.133  32.467  32.646  1.00  0.00     0.009 A 
ATOM     61  C   UNL A   1      34.401  34.269  31.417  1.00  0.00     0.001 A 
ATOM     62  C   UNL A   1      34.991  32.935  33.320  1.00  0.00     0.001 A 
ATOM     63  C   UNL A   1      34.127  33.837  32.706  1.00  0.00     0.000 A 
ENDBRANCH  44  58
BRANCH  45  64
ATOM     64  C   UNL A   1      44.066  27.701  27.858  1.00  0.00    -0.014 A 
ATOM     65  C   UNL A   1      43.863  28.222  26.555  1.00  0.00     0.009 A 
ATOM     66  C   UNL A   1      44.573  26.396  27.946  1.00  0.00     0.009 A 
ATOM     67  C   UNL A   1      44.231  27.515  25.403  1.00  0.00     0.001 A 
ATOM     68  C   UNL A   1      44.914  25.672  26.784  1.00  0.00     0.001 A 
ATOM     69  C   UNL A   1      44.764  26.240  25.519  1.00  0.00     0.000 A 
ENDBRANCH  45  64
BRANCH  57  70
ATOM     70  C   UNL A   1      42.666  34.663  29.601  1.00  0.00    -0.014 A 
ATOM     71  C   UNL A   1      43.465  35.438  30.443  1.00  0.00     0.009 A 
ATOM     72  C   UNL A   1      42.172  35.299  28.436  1.00  0.00     0.009 A 
ATOM     73  C   UNL A   1      43.708  36.788  30.171  1.00  0.00     0.001 A 
ATOM     74  C   UNL A   1      42.474  36.621  28.122  1.00  0.00     0.001 A 
ATOM     75  C   UNL A   1      43.227  37.373  29.005  1.00  0.00     0.000 A 
ENDBRANCH  57  70
ENDBRANCH  31  32
ENDBRANCH  24  26
ENDBRANCH  23  24
ENDBRANCH  22  23
ENDBRANCH   1  22
TORSDOF 15
ENDMDL
