MODEL 1
REMARK VINA RESULT:     -12.5      0.000      0.000
REMARK SMILES O=C(OCCOC(=O)[C@H]1CCCCN1c1cc(-c2ccccc2)nc(-c2cccc(Cl)c2)n1)c1ccc(-c2c3nc(c(-c4ccccc4)c4ccc([nH]4)c(-c4ccccc4)c4nc(c(-c5ccccc5)c5ccc2[nH]5)C=C4)C=C3)cc1
REMARK SMILES IDX 4 1 3 2 2 3 1 4 34 5 35 6 81 7 36 8 80 9 37 10 38 11 39 12
REMARK SMILES IDX 74 13 40 14 79 15 73 16 75 17 41 18 78 19 72 20 71 21 42 23
REMARK SMILES IDX 64 24 49 25 63 26 50 27 53 28 62 29 76 30 51 31 52 32 61 34
REMARK SMILES IDX 77 35 54 36 43 37 44 38 48 39 45 40 47 41 46 42 65 43 66 44
REMARK SMILES IDX 70 45 67 46 69 47 68 48 55 49 56 50 60 51 57 52 59 53 58 54
REMARK SMILES IDX 5 55 6 56 7 57 8 58 9 59 10 60 14 61 11 62 13 63 12 64 15 65
REMARK SMILES IDX 16 66 33 67 17 68 25 69 24 70 18 71 19 72 23 73 20 74 22 75
REMARK SMILES IDX 21 76 26 77 27 78 32 79 28 80 30 81 29 82 31 83
REMARK H PARENT 75 22 53 33
REMARK Flexibility Score: inf
ROOT
ATOM      1  C   UNL A   1      36.334  20.677  25.041  1.00  0.00     0.275 C 
ENDROOT
BRANCH   1   2
ATOM      2  O   UNL A   1      37.151  21.530  25.851  1.00  0.00    -0.458 OA
BRANCH   2   3
ATOM      3  C   UNL A   1      38.496  21.498  25.979  1.00  0.00     0.338 C 
ATOM      4  O   UNL A   1      39.091  20.438  25.780  1.00  0.00    -0.246 OA
BRANCH   3   5
ATOM      5  C   UNL A   1      39.277  22.639  26.556  1.00  0.00     0.060 A 
ATOM      6  C   UNL A   1      40.346  22.594  27.452  1.00  0.00     0.016 A 
ATOM      7  C   UNL A   1      38.888  23.894  26.091  1.00  0.00     0.016 A 
ATOM      8  C   UNL A   1      41.065  23.756  27.776  1.00  0.00     0.010 A 
ATOM      9  C   UNL A   1      39.601  25.048  26.390  1.00  0.00     0.010 A 
ATOM     10  C   UNL A   1      40.699  24.990  27.238  1.00  0.00    -0.014 A 
BRANCH  10  11
ATOM     11  C   UNL A   1      41.330  26.247  27.688  1.00  0.00     0.031 A 
ATOM     12  C   UNL A   1      42.699  26.569  27.159  1.00  0.00     0.074 A 
ATOM     13  C   UNL A   1      40.702  27.070  28.548  1.00  0.00     0.049 A 
ATOM     14  N   UNL A   1      43.412  27.651  27.317  1.00  0.00    -0.248 NA
ATOM     15  C   UNL A   1      43.363  25.526  26.354  1.00  0.00     0.031 C 
ATOM     16  C   UNL A   1      39.404  26.818  29.178  1.00  0.00     0.029 A 
ATOM     17  N   UNL A   1      41.071  28.299  29.033  1.00  0.00    -0.354 N 
ATOM     18  C   UNL A   1      44.594  27.415  26.629  1.00  0.00     0.074 A 
ATOM     19  C   UNL A   1      44.548  26.062  26.132  1.00  0.00     0.031 C 
ATOM     20  C   UNL A   1      39.069  27.879  29.936  1.00  0.00     0.029 A 
ATOM     21  C   UNL A   1      40.131  28.879  29.852  1.00  0.00     0.049 A 
ATOM     22  H   UNL A   1      41.931  28.726  28.815  1.00  0.00     0.167 HD
ATOM     23  C   UNL A   1      45.613  28.267  26.382  1.00  0.00     0.031 A 
ATOM     24  C   UNL A   1      40.128  30.091  30.440  1.00  0.00     0.031 A 
ATOM     25  C   UNL A   1      45.654  29.607  26.883  1.00  0.00     0.049 A 
ATOM     26  C   UNL A   1      41.288  31.018  30.171  1.00  0.00     0.074 A 
ATOM     27  C   UNL A   1      46.611  30.579  26.675  1.00  0.00     0.029 A 
ATOM     28  N   UNL A   1      44.685  30.154  27.710  1.00  0.00    -0.354 N 
ATOM     29  N   UNL A   1      42.344  30.828  29.414  1.00  0.00    -0.248 NA
ATOM     30  C   UNL A   1      41.244  32.339  30.817  1.00  0.00     0.031 C 
ATOM     31  C   UNL A   1      46.242  31.706  27.416  1.00  0.00     0.029 A 
ATOM     32  C   UNL A   1      45.026  31.451  28.036  1.00  0.00     0.049 A 
ATOM     33  H   UNL A   1      43.876  29.686  28.021  1.00  0.00     0.167 HD
ATOM     34  C   UNL A   1      43.067  32.012  29.463  1.00  0.00     0.074 A 
ATOM     35  C   UNL A   1      42.321  32.922  30.308  1.00  0.00     0.031 C 
ATOM     36  C   UNL A   1      44.244  32.328  28.866  1.00  0.00     0.031 A 
BRANCH  23  37
ATOM     37  C   UNL A   1      46.734  27.752  25.527  1.00  0.00    -0.014 A 
ATOM     38  C   UNL A   1      47.828  27.081  26.100  1.00  0.00     0.009 A 
ATOM     39  C   UNL A   1      46.720  27.974  24.144  1.00  0.00     0.009 A 
ATOM     40  C   UNL A   1      48.909  26.686  25.311  1.00  0.00     0.001 A 
ATOM     41  C   UNL A   1      47.789  27.549  23.352  1.00  0.00     0.001 A 
ATOM     42  C   UNL A   1      48.887  26.918  23.937  1.00  0.00     0.000 A 
ENDBRANCH  23  37
BRANCH  24  43
ATOM     43  C   UNL A   1      38.991  30.530  31.298  1.00  0.00    -0.014 A 
ATOM     44  C   UNL A   1      38.948  30.192  32.662  1.00  0.00     0.009 A 
ATOM     45  C   UNL A   1      37.911  31.237  30.749  1.00  0.00     0.009 A 
ATOM     46  C   UNL A   1      37.832  30.511  33.441  1.00  0.00     0.001 A 
ATOM     47  C   UNL A   1      36.809  31.582  31.537  1.00  0.00     0.001 A 
ATOM     48  C   UNL A   1      36.763  31.206  32.879  1.00  0.00     0.000 A 
ENDBRANCH  24  43
BRANCH  36  49
ATOM     49  C   UNL A   1      44.768  33.720  29.067  1.00  0.00    -0.014 A 
ATOM     50  C   UNL A   1      45.662  34.019  30.105  1.00  0.00     0.009 A 
ATOM     51  C   UNL A   1      44.421  34.725  28.150  1.00  0.00     0.009 A 
ATOM     52  C   UNL A   1      46.179  35.308  30.235  1.00  0.00     0.001 A 
ATOM     53  C   UNL A   1      44.965  36.003  28.263  1.00  0.00     0.001 A 
ATOM     54  C   UNL A   1      45.837  36.295  29.310  1.00  0.00     0.000 A 
ENDBRANCH  36  49
ENDBRANCH  10  11
ENDBRANCH   3   5
ENDBRANCH   2   3
ENDBRANCH   1   2
BRANCH   1  55
ATOM     55  C   UNL A   1      34.961  21.259  24.687  1.00  0.00     0.274 C 
BRANCH  55  56
ATOM     56  O   UNL A   1      34.999  22.633  24.251  1.00  0.00    -0.461 OA
BRANCH  56  57
ATOM     57  C   UNL A   1      34.352  23.524  25.063  1.00  0.00     0.328 C 
ATOM     58  O   UNL A   1      34.291  23.385  26.285  1.00  0.00    -0.250 OA
BRANCH  57  59
ATOM     59  C   UNL A   1      33.679  24.674  24.258  1.00  0.00     0.193 C 
ATOM     60  C   UNL A   1      33.397  24.202  22.832  1.00  0.00     0.037 C 
ATOM     61  N   UNL A   1      32.420  25.115  24.902  1.00  0.00    -0.343 N 
ATOM     62  C   UNL A   1      32.291  23.149  22.800  1.00  0.00     0.005 C 
ATOM     63  C   UNL A   1      31.307  24.172  24.934  1.00  0.00     0.119 C 
ATOM     64  C   UNL A   1      31.035  23.625  23.531  1.00  0.00     0.022 C 
BRANCH  61  65
ATOM     65  C   UNL A   1      32.122  26.457  25.097  1.00  0.00     0.134 A 
ATOM     66  C   UNL A   1      32.904  27.180  25.989  1.00  0.00     0.076 A 
ATOM     67  N   UNL A   1      31.149  27.055  24.386  1.00  0.00    -0.211 NA
ATOM     68  C   UNL A   1      32.717  28.549  26.058  1.00  0.00     0.076 A 
ATOM     69  C   UNL A   1      30.975  28.384  24.579  1.00  0.00     0.162 A 
ATOM     70  N   UNL A   1      31.743  29.161  25.364  1.00  0.00    -0.228 NA
BRANCH  68  71
ATOM     71  C   UNL A   1      33.631  29.442  26.790  1.00  0.00     0.000 A 
ATOM     72  C   UNL A   1      33.248  30.746  27.137  1.00  0.00     0.010 A 
ATOM     73  C   UNL A   1      34.934  29.035  27.133  1.00  0.00     0.010 A 
ATOM     74  C   UNL A   1      34.125  31.598  27.819  1.00  0.00     0.001 A 
ATOM     75  C   UNL A   1      35.818  29.889  27.799  1.00  0.00     0.001 A 
ATOM     76  C   UNL A   1      35.409  31.170  28.148  1.00  0.00     0.000 A 
ENDBRANCH  68  71
BRANCH  69  77
ATOM     77  C   UNL A   1      29.928  29.082  23.817  1.00  0.00     0.021 A 
ATOM     78  C   UNL A   1      28.920  28.374  23.139  1.00  0.00     0.012 A 
ATOM     79  C   UNL A   1      29.869  30.490  23.793  1.00  0.00     0.032 A 
ATOM     80  C   UNL A   1      27.885  29.043  22.477  1.00  0.00     0.002 A 
ATOM     81  C   UNL A   1      28.847  31.156  23.113  1.00  0.00     0.041 A 
ATOM     82  C   UNL A   1      27.849  30.437  22.461  1.00  0.00     0.020 A 
ATOM     83  Cl  UNL A   1      28.807  32.877  23.099  1.00  0.00    -0.084 Cl
ENDBRANCH  69  77
ENDBRANCH  61  65
ENDBRANCH  57  59
ENDBRANCH  56  57
ENDBRANCH  55  56
ENDBRANCH   1  55
TORSDOF 14
ENDMDL
MODEL 2
REMARK VINA RESULT:     -12.4      0.878      3.062
REMARK SMILES O=C(OCCOC(=O)[C@H]1CCCCN1c1cc(-c2ccccc2)nc(-c2cccc(Cl)c2)n1)c1ccc(-c2c3nc(c(-c4ccccc4)c4ccc([nH]4)c(-c4ccccc4)c4nc(c(-c5ccccc5)c5ccc2[nH]5)C=C4)C=C3)cc1
REMARK SMILES IDX 4 1 3 2 2 3 1 4 34 5 35 6 81 7 36 8 80 9 37 10 38 11 39 12
REMARK SMILES IDX 74 13 40 14 79 15 73 16 75 17 41 18 78 19 72 20 71 21 42 23
REMARK SMILES IDX 64 24 49 25 63 26 50 27 53 28 62 29 76 30 51 31 52 32 61 34
REMARK SMILES IDX 77 35 54 36 43 37 44 38 48 39 45 40 47 41 46 42 65 43 66 44
REMARK SMILES IDX 70 45 67 46 69 47 68 48 55 49 56 50 60 51 57 52 59 53 58 54
REMARK SMILES IDX 5 55 6 56 7 57 8 58 9 59 10 60 14 61 11 62 13 63 12 64 15 65
REMARK SMILES IDX 16 66 33 67 17 68 25 69 24 70 18 71 19 72 23 73 20 74 22 75
REMARK SMILES IDX 21 76 26 77 27 78 32 79 28 80 30 81 29 82 31 83
REMARK H PARENT 75 22 53 33
REMARK Flexibility Score: inf
ROOT
ATOM      1  C   UNL A   1      36.613  20.844  25.009  1.00  0.00     0.275 C 
ENDROOT
BRANCH   1   2
ATOM      2  O   UNL A   1      37.381  21.707  25.857  1.00  0.00    -0.458 OA
BRANCH   2   3
ATOM      3  C   UNL A   1      38.715  21.674  26.070  1.00  0.00     0.338 C 
ATOM      4  O   UNL A   1      39.313  20.604  25.950  1.00  0.00    -0.246 OA
BRANCH   3   5
ATOM      5  C   UNL A   1      39.466  22.833  26.650  1.00  0.00     0.060 A 
ATOM      6  C   UNL A   1      40.508  22.815  27.579  1.00  0.00     0.016 A 
ATOM      7  C   UNL A   1      39.078  24.076  26.152  1.00  0.00     0.016 A 
ATOM      8  C   UNL A   1      41.204  23.990  27.904  1.00  0.00     0.010 A 
ATOM      9  C   UNL A   1      39.770  25.243  26.451  1.00  0.00     0.010 A 
ATOM     10  C   UNL A   1      40.843  25.211  27.334  1.00  0.00    -0.014 A 
BRANCH  10  11
ATOM     11  C   UNL A   1      41.446  26.482  27.780  1.00  0.00     0.031 A 
ATOM     12  C   UNL A   1      42.804  26.835  27.244  1.00  0.00     0.074 A 
ATOM     13  C   UNL A   1      40.804  27.291  28.644  1.00  0.00     0.049 A 
ATOM     14  N   UNL A   1      43.493  27.934  27.398  1.00  0.00    -0.248 NA
ATOM     15  C   UNL A   1      43.488  25.808  26.435  1.00  0.00     0.031 C 
ATOM     16  C   UNL A   1      39.516  27.008  29.281  1.00  0.00     0.029 A 
ATOM     17  N   UNL A   1      41.147  28.527  29.127  1.00  0.00    -0.354 N 
ATOM     18  C   UNL A   1      44.677  27.725  26.704  1.00  0.00     0.074 A 
ATOM     19  C   UNL A   1      44.660  26.372  26.207  1.00  0.00     0.031 C 
ATOM     20  C   UNL A   1      39.161  28.061  30.041  1.00  0.00     0.029 A 
ATOM     21  C   UNL A   1      40.198  29.085  29.951  1.00  0.00     0.049 A 
ATOM     22  H   UNL A   1      41.996  28.975  28.904  1.00  0.00     0.167 HD
ATOM     23  C   UNL A   1      45.674  28.600  26.451  1.00  0.00     0.031 A 
ATOM     24  C   UNL A   1      40.170  30.298  30.539  1.00  0.00     0.031 A 
ATOM     25  C   UNL A   1      45.687  29.941  26.952  1.00  0.00     0.049 A 
ATOM     26  C   UNL A   1      41.307  31.251  30.264  1.00  0.00     0.074 A 
ATOM     27  C   UNL A   1      46.620  30.935  26.739  1.00  0.00     0.029 A 
ATOM     28  N   UNL A   1      44.710  30.465  27.785  1.00  0.00    -0.354 N 
ATOM     29  N   UNL A   1      42.363  31.085  29.502  1.00  0.00    -0.248 NA
ATOM     30  C   UNL A   1      41.236  32.570  30.911  1.00  0.00     0.031 C 
ATOM     31  C   UNL A   1      46.228  32.053  27.482  1.00  0.00     0.029 A 
ATOM     32  C   UNL A   1      45.023  31.770  28.108  1.00  0.00     0.049 A 
ATOM     33  H   UNL A   1      43.914  29.980  28.100  1.00  0.00     0.167 HD
ATOM     34  C   UNL A   1      43.059  32.286  29.546  1.00  0.00     0.074 A 
ATOM     35  C   UNL A   1      42.296  33.178  30.396  1.00  0.00     0.031 C 
ATOM     36  C   UNL A   1      44.225  32.629  28.943  1.00  0.00     0.031 A 
BRANCH  23  37
ATOM     37  C   UNL A   1      46.802  28.112  25.590  1.00  0.00    -0.014 A 
ATOM     38  C   UNL A   1      46.672  28.063  24.191  1.00  0.00     0.009 A 
ATOM     39  C   UNL A   1      47.988  27.657  26.180  1.00  0.00     0.009 A 
ATOM     40  C   UNL A   1      47.690  27.522  23.404  1.00  0.00     0.001 A 
ATOM     41  C   UNL A   1      49.018  27.146  25.388  1.00  0.00     0.001 A 
ATOM     42  C   UNL A   1      48.863  27.067  24.003  1.00  0.00     0.000 A 
ENDBRANCH  23  37
BRANCH  24  43
ATOM     43  C   UNL A   1      39.029  30.709  31.404  1.00  0.00    -0.014 A 
ATOM     44  C   UNL A   1      39.018  30.403  32.775  1.00  0.00     0.009 A 
ATOM     45  C   UNL A   1      37.913  31.359  30.854  1.00  0.00     0.009 A 
ATOM     46  C   UNL A   1      37.900  30.694  33.563  1.00  0.00     0.001 A 
ATOM     47  C   UNL A   1      36.808  31.677  31.650  1.00  0.00     0.001 A 
ATOM     48  C   UNL A   1      36.796  31.331  33.000  1.00  0.00     0.000 A 
ENDBRANCH  24  43
BRANCH  36  49
ATOM     49  C   UNL A   1      44.717  34.033  29.141  1.00  0.00    -0.014 A 
ATOM     50  C   UNL A   1      45.621  34.350  30.166  1.00  0.00     0.009 A 
ATOM     51  C   UNL A   1      44.330  35.033  28.235  1.00  0.00     0.009 A 
ATOM     52  C   UNL A   1      46.108  35.651  30.293  1.00  0.00     0.001 A 
ATOM     53  C   UNL A   1      44.845  36.323  28.344  1.00  0.00     0.001 A 
ATOM     54  C   UNL A   1      45.727  36.633  29.378  1.00  0.00     0.000 A 
ENDBRANCH  36  49
ENDBRANCH  10  11
ENDBRANCH   3   5
ENDBRANCH   2   3
ENDBRANCH   1   2
BRANCH   1  55
ATOM     55  C   UNL A   1      35.118  21.173  24.951  1.00  0.00     0.274 C 
BRANCH  55  56
ATOM     56  O   UNL A   1      34.808  22.381  24.226  1.00  0.00    -0.461 OA
BRANCH  56  57
ATOM     57  C   UNL A   1      34.313  23.407  24.983  1.00  0.00     0.328 C 
ATOM     58  O   UNL A   1      34.317  23.387  26.214  1.00  0.00    -0.250 OA
BRANCH  57  59
ATOM     59  C   UNL A   1      33.713  24.547  24.107  1.00  0.00     0.193 C 
ATOM     60  C   UNL A   1      33.304  23.985  22.747  1.00  0.00     0.037 C 
ATOM     61  N   UNL A   1      32.544  25.173  24.768  1.00  0.00    -0.343 N 
ATOM     62  C   UNL A   1      32.098  23.055  22.867  1.00  0.00     0.005 C 
ATOM     63  C   UNL A   1      31.346  24.359  24.941  1.00  0.00     0.119 C 
ATOM     64  C   UNL A   1      30.940  23.723  23.610  1.00  0.00     0.022 C 
BRANCH  61  65
ATOM     65  C   UNL A   1      32.395  26.551  24.852  1.00  0.00     0.134 A 
ATOM     66  C   UNL A   1      31.382  27.148  24.112  1.00  0.00     0.076 A 
ATOM     67  N   UNL A   1      33.167  27.275  25.683  1.00  0.00    -0.211 NA
ATOM     68  C   UNL A   1      31.127  28.491  24.323  1.00  0.00     0.076 A 
ATOM     69  C   UNL A   1      32.905  28.601  25.764  1.00  0.00     0.162 A 
ATOM     70  N   UNL A   1      31.894  29.233  25.141  1.00  0.00    -0.228 NA
BRANCH  68  71
ATOM     71  C   UNL A   1      29.943  29.173  23.773  1.00  0.00     0.000 A 
ATOM     72  C   UNL A   1      29.780  30.560  23.902  1.00  0.00     0.010 A 
ATOM     73  C   UNL A   1      28.915  28.455  23.133  1.00  0.00     0.010 A 
ATOM     74  C   UNL A   1      28.646  31.203  23.391  1.00  0.00     0.001 A 
ATOM     75  C   UNL A   1      27.774  29.092  22.638  1.00  0.00     0.001 A 
ATOM     76  C   UNL A   1      27.644  30.469  22.761  1.00  0.00     0.000 A 
ENDBRANCH  68  71
BRANCH  69  77
ATOM     77  C   UNL A   1      33.717  29.432  26.666  1.00  0.00     0.021 A 
ATOM     78  C   UNL A   1      34.917  28.954  27.220  1.00  0.00     0.012 A 
ATOM     79  C   UNL A   1      33.345  30.761  26.957  1.00  0.00     0.032 A 
ATOM     80  C   UNL A   1      35.724  29.773  28.018  1.00  0.00     0.002 A 
ATOM     81  C   UNL A   1      34.140  31.569  27.772  1.00  0.00     0.041 A 
ATOM     82  C   UNL A   1      35.333  31.082  28.298  1.00  0.00     0.020 A 
ATOM     83  Cl  UNL A   1      33.653  33.185  28.112  1.00  0.00    -0.084 Cl
ENDBRANCH  69  77
ENDBRANCH  61  65
ENDBRANCH  57  59
ENDBRANCH  56  57
ENDBRANCH  55  56
ENDBRANCH   1  55
TORSDOF 14
ENDMDL
MODEL 3
REMARK VINA RESULT:     -12.4      4.056      9.069
REMARK SMILES O=C(OCCOC(=O)[C@H]1CCCCN1c1cc(-c2ccccc2)nc(-c2cccc(Cl)c2)n1)c1ccc(-c2c3nc(c(-c4ccccc4)c4ccc([nH]4)c(-c4ccccc4)c4nc(c(-c5ccccc5)c5ccc2[nH]5)C=C4)C=C3)cc1
REMARK SMILES IDX 4 1 3 2 2 3 1 4 34 5 35 6 81 7 36 8 80 9 37 10 38 11 39 12
REMARK SMILES IDX 74 13 40 14 79 15 73 16 75 17 41 18 78 19 72 20 71 21 42 23
REMARK SMILES IDX 64 24 49 25 63 26 50 27 53 28 62 29 76 30 51 31 52 32 61 34
REMARK SMILES IDX 77 35 54 36 43 37 44 38 48 39 45 40 47 41 46 42 65 43 66 44
REMARK SMILES IDX 70 45 67 46 69 47 68 48 55 49 56 50 60 51 57 52 59 53 58 54
REMARK SMILES IDX 5 55 6 56 7 57 8 58 9 59 10 60 14 61 11 62 13 63 12 64 15 65
REMARK SMILES IDX 16 66 33 67 17 68 25 69 24 70 18 71 19 72 23 73 20 74 22 75
REMARK SMILES IDX 21 76 26 77 27 78 32 79 28 80 30 81 29 82 31 83
REMARK H PARENT 75 22 53 33
REMARK Flexibility Score: inf
ROOT
ATOM      1  C   UNL A   1      31.795  29.069  25.678  1.00  0.00     0.275 C 
ENDROOT
BRANCH   1   2
ATOM      2  O   UNL A   1      32.828  30.059  25.757  1.00  0.00    -0.458 OA
BRANCH   2   3
ATOM      3  C   UNL A   1      33.156  30.819  26.826  1.00  0.00     0.338 C 
ATOM      4  O   UNL A   1      32.387  31.713  27.182  1.00  0.00    -0.246 OA
BRANCH   3   5
ATOM      5  C   UNL A   1      34.508  30.765  27.467  1.00  0.00     0.060 A 
ATOM      6  C   UNL A   1      35.413  31.807  27.675  1.00  0.00     0.016 A 
ATOM      7  C   UNL A   1      34.867  29.505  27.944  1.00  0.00     0.016 A 
ATOM      8  C   UNL A   1      36.580  31.609  28.431  1.00  0.00     0.010 A 
ATOM      9  C   UNL A   1      36.009  29.300  28.709  1.00  0.00     0.010 A 
ATOM     10  C   UNL A   1      36.879  30.353  28.960  1.00  0.00    -0.014 A 
BRANCH  10  11
ATOM     11  C   UNL A   1      38.173  30.078  29.615  1.00  0.00     0.031 A 
ATOM     12  C   UNL A   1      38.363  30.577  31.020  1.00  0.00     0.074 A 
ATOM     13  C   UNL A   1      39.149  29.410  28.972  1.00  0.00     0.049 A 
ATOM     14  N   UNL A   1      39.358  30.373  31.840  1.00  0.00    -0.248 NA
ATOM     15  C   UNL A   1      37.298  31.435  31.571  1.00  0.00     0.031 C 
ATOM     16  C   UNL A   1      39.095  28.946  27.584  1.00  0.00     0.029 A 
ATOM     17  N   UNL A   1      40.380  28.995  29.411  1.00  0.00    -0.354 N 
ATOM     18  C   UNL A   1      39.029  31.069  32.995  1.00  0.00     0.074 A 
ATOM     19  C   UNL A   1      37.798  31.776  32.744  1.00  0.00     0.031 C 
ATOM     20  C   UNL A   1      40.227  28.276  27.299  1.00  0.00     0.029 A 
ATOM     21  C   UNL A   1      41.088  28.272  28.480  1.00  0.00     0.049 A 
ATOM     22  H   UNL A   1      40.726  29.197  30.311  1.00  0.00     0.167 HD
ATOM     23  C   UNL A   1      39.666  31.079  34.186  1.00  0.00     0.031 A 
ATOM     24  C   UNL A   1      42.283  27.658  28.589  1.00  0.00     0.031 A 
ATOM     25  C   UNL A   1      40.891  30.380  34.427  1.00  0.00     0.049 A 
ATOM     26  C   UNL A   1      42.990  27.704  29.921  1.00  0.00     0.074 A 
ATOM     27  C   UNL A   1      41.617  30.283  35.597  1.00  0.00     0.029 A 
ATOM     28  N   UNL A   1      41.576  29.663  33.458  1.00  0.00    -0.354 N 
ATOM     29  N   UNL A   1      42.606  28.263  31.045  1.00  0.00    -0.248 NA
ATOM     30  C   UNL A   1      44.285  27.012  30.008  1.00  0.00     0.031 C 
ATOM     31  C   UNL A   1      42.769  29.540  35.323  1.00  0.00     0.029 A 
ATOM     32  C   UNL A   1      42.728  29.128  33.999  1.00  0.00     0.049 A 
ATOM     33  H   UNL A   1      41.286  29.553  32.524  1.00  0.00     0.167 HD
ATOM     34  C   UNL A   1      43.589  27.959  31.978  1.00  0.00     0.074 A 
ATOM     35  C   UNL A   1      44.578  27.151  31.294  1.00  0.00     0.031 C 
ATOM     36  C   UNL A   1      43.675  28.312  33.286  1.00  0.00     0.031 A 
BRANCH  23  37
ATOM     37  C   UNL A   1      39.022  31.865  35.291  1.00  0.00    -0.014 A 
ATOM     38  C   UNL A   1      39.252  33.246  35.422  1.00  0.00     0.009 A 
ATOM     39  C   UNL A   1      38.215  31.217  36.234  1.00  0.00     0.009 A 
ATOM     40  C   UNL A   1      38.724  33.952  36.504  1.00  0.00     0.001 A 
ATOM     41  C   UNL A   1      37.662  31.932  37.298  1.00  0.00     0.001 A 
ATOM     42  C   UNL A   1      37.927  33.295  37.440  1.00  0.00     0.000 A 
ENDBRANCH  23  37
BRANCH  24  43
ATOM     43  C   UNL A   1      42.876  26.915  27.442  1.00  0.00    -0.014 A 
ATOM     44  C   UNL A   1      42.673  25.532  27.298  1.00  0.00     0.009 A 
ATOM     45  C   UNL A   1      43.701  27.571  26.514  1.00  0.00     0.009 A 
ATOM     46  C   UNL A   1      43.316  24.817  26.283  1.00  0.00     0.001 A 
ATOM     47  C   UNL A   1      44.320  26.859  25.482  1.00  0.00     0.001 A 
ATOM     48  C   UNL A   1      44.140  25.481  25.376  1.00  0.00     0.000 A 
ENDBRANCH  24  43
BRANCH  36  49
ATOM     49  C   UNL A   1      44.846  27.791  34.066  1.00  0.00    -0.014 A 
ATOM     50  C   UNL A   1      46.029  28.533  34.188  1.00  0.00     0.009 A 
ATOM     51  C   UNL A   1      44.727  26.573  34.755  1.00  0.00     0.009 A 
ATOM     52  C   UNL A   1      47.082  28.052  34.966  1.00  0.00     0.001 A 
ATOM     53  C   UNL A   1      45.768  26.111  35.559  1.00  0.00     0.001 A 
ATOM     54  C   UNL A   1      46.947  26.847  35.657  1.00  0.00     0.000 A 
ENDBRANCH  36  49
ENDBRANCH  10  11
ENDBRANCH   3   5
ENDBRANCH   2   3
ENDBRANCH   1   2
BRANCH   1  55
ATOM     55  C   UNL A   1      31.789  28.060  26.831  1.00  0.00     0.274 C 
BRANCH  55  56
ATOM     56  O   UNL A   1      32.190  26.728  26.450  1.00  0.00    -0.461 OA
BRANCH  56  57
ATOM     57  C   UNL A   1      31.176  25.907  26.040  1.00  0.00     0.328 C 
ATOM     58  O   UNL A   1      30.035  25.980  26.498  1.00  0.00    -0.250 OA
BRANCH  57  59
ATOM     59  C   UNL A   1      31.653  24.863  24.987  1.00  0.00     0.193 C 
ATOM     60  C   UNL A   1      30.893  25.073  23.678  1.00  0.00     0.037 C 
ATOM     61  N   UNL A   1      33.111  24.969  24.748  1.00  0.00    -0.343 N 
ATOM     62  C   UNL A   1      31.308  26.375  22.995  1.00  0.00     0.005 C 
ATOM     63  C   UNL A   1      33.608  26.185  24.111  1.00  0.00     0.119 C 
ATOM     64  C   UNL A   1      32.826  26.467  22.826  1.00  0.00     0.022 C 
BRANCH  61  65
ATOM     65  C   UNL A   1      33.937  23.854  24.721  1.00  0.00     0.134 A 
ATOM     66  C   UNL A   1      35.277  24.019  25.052  1.00  0.00     0.076 A 
ATOM     67  N   UNL A   1      33.436  22.634  24.452  1.00  0.00    -0.211 NA
ATOM     68  C   UNL A   1      36.059  22.887  25.188  1.00  0.00     0.076 A 
ATOM     69  C   UNL A   1      34.293  21.588  24.524  1.00  0.00     0.162 A 
ATOM     70  N   UNL A   1      35.578  21.663  24.913  1.00  0.00    -0.228 NA
BRANCH  68  71
ATOM     71  C   UNL A   1      37.419  22.922  25.752  1.00  0.00     0.000 A 
ATOM     72  C   UNL A   1      38.247  21.790  25.718  1.00  0.00     0.010 A 
ATOM     73  C   UNL A   1      37.923  24.077  26.379  1.00  0.00     0.010 A 
ATOM     74  C   UNL A   1      39.534  21.822  26.269  1.00  0.00     0.001 A 
ATOM     75  C   UNL A   1      39.201  24.107  26.945  1.00  0.00     0.001 A 
ATOM     76  C   UNL A   1      40.009  22.979  26.883  1.00  0.00     0.000 A 
ENDBRANCH  68  71
BRANCH  69  77
ATOM     77  C   UNL A   1      33.787  20.235  24.246  1.00  0.00     0.021 A 
ATOM     78  C   UNL A   1      32.592  20.031  23.534  1.00  0.00     0.012 A 
ATOM     79  C   UNL A   1      34.519  19.095  24.635  1.00  0.00     0.032 A 
ATOM     80  C   UNL A   1      32.153  18.743  23.209  1.00  0.00     0.002 A 
ATOM     81  C   UNL A   1      34.068  17.810  24.328  1.00  0.00     0.041 A 
ATOM     82  C   UNL A   1      32.890  17.629  23.609  1.00  0.00     0.020 A 
ATOM     83  Cl  UNL A   1      34.985  16.439  24.823  1.00  0.00    -0.084 Cl
ENDBRANCH  69  77
ENDBRANCH  61  65
ENDBRANCH  57  59
ENDBRANCH  56  57
ENDBRANCH  55  56
ENDBRANCH   1  55
TORSDOF 14
ENDMDL
