MODEL 1
REMARK VINA RESULT:     -13.6      0.000      0.000
REMARK SMILES CCC[C@@](C)(NC(=O)N1CCN(C)C(=O)C1(C)C)C(=O)OCCOC(=O)c1ccc(-c2c3nc(c(-c4ccccc4)c4ccc([nH]4)c(-c4ccccc4)c4nc(c(-c5ccccc5)c5ccc2[nH]5)C=C4)C=C3)cc1
REMARK SMILES IDX 22 1 21 2 19 3 20 4 4 5 5 6 3 7 2 8 1 9 6 10 7 11 8 13 9 14
REMARK SMILES IDX 10 15 16 16 11 17 14 18 17 19 18 20 12 21 15 22 13 23 23 24
REMARK SMILES IDX 24 25 25 26 26 27 27 28 28 29 74 30 29 31 73 32 30 33 31 34
REMARK SMILES IDX 32 35 67 36 33 37 72 38 66 39 68 40 34 41 71 42 65 43 64 44
REMARK SMILES IDX 35 46 57 47 42 48 56 49 43 50 46 51 55 52 69 53 44 54 45 55
REMARK SMILES IDX 54 57 70 58 47 59 36 60 37 61 41 62 38 63 40 64 39 65 58 66
REMARK SMILES IDX 59 67 63 68 60 69 62 70 61 71 48 72 49 73 53 74 50 75 52 76
REMARK SMILES IDX 51 77
REMARK H PARENT 6 12 68 45 46 56
REMARK Flexibility Score: inf
ROOT
ATOM      1  C   UNL A   1      31.751  30.606  25.764  1.00  0.00     0.274 C 
ENDROOT
BRANCH   1   2
ATOM      2  O   UNL A   1      32.115  29.340  26.828  1.00  0.00    -0.460 OA
BRANCH   2   3
ATOM      3  C   UNL A   1      31.690  28.037  27.225  1.00  0.00     0.331 C 
ATOM      4  O   UNL A   1      31.224  27.835  28.340  1.00  0.00    -0.249 OA
BRANCH   3   5
ATOM      5  C   UNL A   1      31.840  26.722  26.116  1.00  0.00     0.136 C 
ATOM      6  C   UNL A   1      30.972  26.930  24.821  1.00  0.00     0.047 C 
BRANCH   5   7
ATOM      7  C   UNL A   1      33.325  26.742  25.447  1.00  0.00     0.040 C 
BRANCH   7   8
ATOM      8  C   UNL A   1      33.621  27.049  23.968  1.00  0.00    -0.000 C 
ATOM      9  C   UNL A   1      33.896  28.508  23.627  1.00  0.00     0.004 C 
ENDBRANCH   7   8
ENDBRANCH   5   7
BRANCH   5  10
ATOM     10  N   UNL A   1      31.783  25.142  26.611  1.00  0.00    -0.322 N 
ATOM     11  C   UNL A   1      32.241  23.829  26.498  1.00  0.00     0.319 C 
ATOM     12  H   UNL A   1      31.102  25.118  27.322  1.00  0.00     0.166 HD
ATOM     13  O   UNL A   1      31.865  23.031  27.354  1.00  0.00    -0.249 OA
BRANCH  11  14
ATOM     14  N   UNL A   1      32.995  23.441  25.419  1.00  0.00    -0.309 N 
ATOM     15  C   UNL A   1      34.852  23.315  25.251  1.00  0.00     0.144 C 
ATOM     16  C   UNL A   1      32.159  22.532  24.408  1.00  0.00     0.118 C 
ATOM     17  C   UNL A   1      35.617  21.503  24.898  1.00  0.00     0.140 C 
ATOM     18  C   UNL A   1      32.557  20.517  24.886  1.00  0.00     0.247 C 
ATOM     19  C   UNL A   1      30.828  23.387  23.923  1.00  0.00     0.045 C 
ATOM     20  C   UNL A   1      32.914  23.416  23.044  1.00  0.00     0.045 C 
ATOM     21  N   UNL A   1      34.357  20.075  24.910  1.00  0.00    -0.342 N 
ATOM     22  O   UNL A   1      31.935  19.460  24.766  1.00  0.00    -0.272 OA
ATOM     23  C   UNL A   1      34.735  18.681  24.703  1.00  0.00     0.146 C 
ENDBRANCH  11  14
ENDBRANCH   5  10
ENDBRANCH   3   5
ENDBRANCH   2   3
ENDBRANCH   1   2
BRANCH   1  24
ATOM     24  C   UNL A   1      30.798  32.096  26.208  1.00  0.00     0.275 C 
BRANCH  24  25
ATOM     25  O   UNL A   1      31.729  33.451  27.123  1.00  0.00    -0.458 OA
BRANCH  25  26
ATOM     26  C   UNL A   1      33.301  33.811  27.950  1.00  0.00     0.338 C 
ATOM     27  O   UNL A   1      33.507  34.942  28.436  1.00  0.00    -0.246 OA
BRANCH  26  28
ATOM     28  C   UNL A   1      34.697  33.088  28.024  1.00  0.00     0.060 A 
ATOM     29  C   UNL A   1      34.682  31.741  28.354  1.00  0.00     0.016 A 
ATOM     30  C   UNL A   1      35.911  33.744  28.325  1.00  0.00     0.016 A 
ATOM     31  C   UNL A   1      35.797  31.039  28.868  1.00  0.00     0.010 A 
ATOM     32  C   UNL A   1      37.064  33.051  28.805  1.00  0.00     0.010 A 
ATOM     33  C   UNL A   1      37.011  31.684  29.119  1.00  0.00    -0.014 A 
BRANCH  33  34
ATOM     34  C   UNL A   1      38.128  30.968  29.833  1.00  0.00     0.031 A 
ATOM     35  C   UNL A   1      38.363  31.172  31.319  1.00  0.00     0.074 A 
ATOM     36  C   UNL A   1      38.899  30.051  29.210  1.00  0.00     0.049 A 
ATOM     37  N   UNL A   1      39.298  30.668  32.097  1.00  0.00    -0.248 NA
ATOM     38  C   UNL A   1      37.407  32.035  32.026  1.00  0.00     0.031 C 
ATOM     39  C   UNL A   1      38.762  29.639  27.816  1.00  0.00     0.029 A 
ATOM     40  N   UNL A   1      39.950  29.286  29.680  1.00  0.00    -0.354 N 
ATOM     41  C   UNL A   1      39.048  31.160  33.374  1.00  0.00     0.074 A 
ATOM     42  C   UNL A   1      37.879  32.011  33.266  1.00  0.00     0.031 C 
ATOM     43  C   UNL A   1      39.676  28.687  27.548  1.00  0.00     0.029 A 
ATOM     44  C   UNL A   1      40.505  28.459  28.732  1.00  0.00     0.049 A 
ATOM     45  H   UNL A   1      40.270  29.330  30.610  1.00  0.00     0.167 HD
ATOM     46  C   UNL A   1      39.716  30.934  34.536  1.00  0.00     0.031 A 
ATOM     47  C   UNL A   1      41.571  27.631  28.786  1.00  0.00     0.031 A 
ATOM     48  C   UNL A   1      40.881  30.095  34.685  1.00  0.00     0.049 A 
ATOM     49  C   UNL A   1      42.376  27.493  30.053  1.00  0.00     0.074 A 
ATOM     50  C   UNL A   1      41.631  29.853  35.829  1.00  0.00     0.029 A 
ATOM     51  N   UNL A   1      41.463  29.354  33.671  1.00  0.00    -0.354 N 
ATOM     52  N   UNL A   1      42.157  28.010  31.236  1.00  0.00    -0.248 NA
ATOM     53  C   UNL A   1      43.591  26.660  29.986  1.00  0.00     0.031 C 
ATOM     54  C   UNL A   1      42.692  29.005  35.494  1.00  0.00     0.029 A 
ATOM     55  C   UNL A   1      42.575  28.679  34.154  1.00  0.00     0.049 A 
ATOM     56  H   UNL A   1      41.137  29.314  32.743  1.00  0.00     0.167 HD
ATOM     57  C   UNL A   1      43.187  27.552  32.051  1.00  0.00     0.074 A 
ATOM     58  C   UNL A   1      44.024  26.698  31.238  1.00  0.00     0.031 C 
ATOM     59  C   UNL A   1      43.416  27.824  33.359  1.00  0.00     0.031 A 
BRANCH  46  60
ATOM     60  C   UNL A   1      39.230  31.654  35.766  1.00  0.00    -0.014 A 
ATOM     61  C   UNL A   1      39.754  32.900  36.142  1.00  0.00     0.009 A 
ATOM     62  C   UNL A   1      38.187  31.099  36.527  1.00  0.00     0.009 A 
ATOM     63  C   UNL A   1      39.267  33.559  37.274  1.00  0.00     0.001 A 
ATOM     64  C   UNL A   1      37.686  31.771  37.643  1.00  0.00     0.001 A 
ATOM     65  C   UNL A   1      38.233  32.996  38.022  1.00  0.00     0.000 A 
ENDBRANCH  46  60
BRANCH  47  66
ATOM     66  C   UNL A   1      42.003  26.891  27.565  1.00  0.00    -0.014 A 
ATOM     67  C   UNL A   1      42.793  27.508  26.583  1.00  0.00     0.009 A 
ATOM     68  C   UNL A   1      41.573  25.570  27.355  1.00  0.00     0.009 A 
ATOM     69  C   UNL A   1      43.124  26.827  25.409  1.00  0.00     0.001 A 
ATOM     70  C   UNL A   1      41.934  24.880  26.196  1.00  0.00     0.001 A 
ATOM     71  C   UNL A   1      42.700  25.512  25.219  1.00  0.00     0.000 A 
ENDBRANCH  47  66
BRANCH  59  72
ATOM     72  C   UNL A   1      44.603  27.169  34.013  1.00  0.00    -0.014 A 
ATOM     73  C   UNL A   1      45.865  27.786  34.019  1.00  0.00     0.009 A 
ATOM     74  C   UNL A   1      44.453  25.935  34.665  1.00  0.00     0.009 A 
ATOM     75  C   UNL A   1      46.955  27.167  34.638  1.00  0.00     0.001 A 
ATOM     76  C   UNL A   1      45.539  25.329  35.302  1.00  0.00     0.001 A 
ATOM     77  C   UNL A   1      46.791  25.941  35.281  1.00  0.00     0.000 A 
ENDBRANCH  59  72
ENDBRANCH  33  34
ENDBRANCH  26  28
ENDBRANCH  25  26
ENDBRANCH  24  25
ENDBRANCH   1  24
TORSDOF 15
ENDMDL
MODEL 2
REMARK VINA RESULT:     -13.4      4.090      9.579
REMARK SMILES CCC[C@@](C)(NC(=O)N1CCN(C)C(=O)C1(C)C)C(=O)OCCOC(=O)c1ccc(-c2c3nc(c(-c4ccccc4)c4ccc([nH]4)c(-c4ccccc4)c4nc(c(-c5ccccc5)c5ccc2[nH]5)C=C4)C=C3)cc1
REMARK SMILES IDX 22 1 21 2 19 3 20 4 4 5 5 6 3 7 2 8 1 9 6 10 7 11 8 13 9 14
REMARK SMILES IDX 10 15 16 16 11 17 14 18 17 19 18 20 12 21 15 22 13 23 23 24
REMARK SMILES IDX 24 25 25 26 26 27 27 28 28 29 74 30 29 31 73 32 30 33 31 34
REMARK SMILES IDX 32 35 67 36 33 37 72 38 66 39 68 40 34 41 71 42 65 43 64 44
REMARK SMILES IDX 35 46 57 47 42 48 56 49 43 50 46 51 55 52 69 53 44 54 45 55
REMARK SMILES IDX 54 57 70 58 47 59 36 60 37 61 41 62 38 63 40 64 39 65 58 66
REMARK SMILES IDX 59 67 63 68 60 69 62 70 61 71 48 72 49 73 53 74 50 75 52 76
REMARK SMILES IDX 51 77
REMARK H PARENT 6 12 68 45 46 56
REMARK Flexibility Score: inf
ROOT
ATOM      1  C   UNL A   1      36.606  20.702  25.372  1.00  0.00     0.274 C 
ENDROOT
BRANCH   1   2
ATOM      2  O   UNL A   1      36.643  22.181  24.550  1.00  0.00    -0.460 OA
BRANCH   2   3
ATOM      3  C   UNL A   1      36.013  22.905  23.493  1.00  0.00     0.331 C 
ATOM      4  O   UNL A   1      36.547  23.016  22.395  1.00  0.00    -0.249 OA
BRANCH   3   5
ATOM      5  C   UNL A   1      34.475  23.639  23.769  1.00  0.00     0.136 C 
ATOM      6  C   UNL A   1      33.323  22.579  23.916  1.00  0.00     0.047 C 
BRANCH   5   7
ATOM      7  C   UNL A   1      34.440  24.281  25.265  1.00  0.00     0.040 C 
BRANCH   7   8
ATOM      8  C   UNL A   1      33.553  23.779  26.419  1.00  0.00    -0.000 C 
ATOM      9  C   UNL A   1      34.183  22.753  27.352  1.00  0.00     0.004 C 
ENDBRANCH   7   8
ENDBRANCH   5   7
BRANCH   5  10
ATOM     10  N   UNL A   1      33.956  24.949  22.896  1.00  0.00    -0.322 N 
ATOM     11  C   UNL A   1      33.272  26.163  22.842  1.00  0.00     0.319 C 
ATOM     12  H   UNL A   1      34.288  24.798  21.981  1.00  0.00     0.166 HD
ATOM     13  O   UNL A   1      33.374  26.816  21.805  1.00  0.00    -0.249 OA
BRANCH  11  14
ATOM     14  N   UNL A   1      32.447  26.548  23.869  1.00  0.00    -0.309 N 
ATOM     15  C   UNL A   1      32.785  27.713  25.291  1.00  0.00     0.144 C 
ATOM     16  C   UNL A   1      30.907  26.367  23.492  1.00  0.00     0.118 C 
ATOM     17  C   UNL A   1      31.679  29.373  25.396  1.00  0.00     0.140 C 
ATOM     18  C   UNL A   1      30.202  28.223  22.782  1.00  0.00     0.247 C 
ATOM     19  C   UNL A   1      30.655  24.780  23.094  1.00  0.00     0.045 C 
ATOM     20  C   UNL A   1      30.613  25.739  25.145  1.00  0.00     0.045 C 
ATOM     21  N   UNL A   1      30.485  29.645  23.937  1.00  0.00    -0.342 N 
ATOM     22  O   UNL A   1      29.311  28.571  22.004  1.00  0.00    -0.272 OA
ATOM     23  C   UNL A   1      29.620  30.815  23.826  1.00  0.00     0.146 C 
ENDBRANCH  11  14
ENDBRANCH   5  10
ENDBRANCH   3   5
ENDBRANCH   2   3
ENDBRANCH   1   2
BRANCH   1  24
ATOM     24  C   UNL A   1      37.505  19.201  24.854  1.00  0.00     0.275 C 
BRANCH  24  25
ATOM     25  O   UNL A   1      39.301  19.064  25.396  1.00  0.00    -0.458 OA
BRANCH  25  26
ATOM     26  C   UNL A   1      40.592  19.926  26.332  1.00  0.00     0.338 C 
ATOM     27  O   UNL A   1      41.631  19.320  26.668  1.00  0.00    -0.246 OA
BRANCH  26  28
ATOM     28  C   UNL A   1      40.663  21.293  27.107  1.00  0.00     0.060 A 
ATOM     29  C   UNL A   1      40.059  22.384  26.499  1.00  0.00     0.016 A 
ATOM     30  C   UNL A   1      41.686  21.633  28.019  1.00  0.00     0.016 A 
ATOM     31  C   UNL A   1      40.362  23.731  26.808  1.00  0.00     0.010 A 
ATOM     32  C   UNL A   1      41.983  22.982  28.379  1.00  0.00     0.010 A 
ATOM     33  C   UNL A   1      41.344  24.060  27.747  1.00  0.00    -0.014 A 
BRANCH  33  34
ATOM     34  C   UNL A   1      41.782  25.490  27.932  1.00  0.00     0.031 A 
ATOM     35  C   UNL A   1      43.069  26.000  27.309  1.00  0.00     0.074 A 
ATOM     36  C   UNL A   1      41.008  26.394  28.571  1.00  0.00     0.049 A 
ATOM     37  N   UNL A   1      43.625  27.190  27.390  1.00  0.00    -0.248 NA
ATOM     38  C   UNL A   1      43.813  25.056  26.465  1.00  0.00     0.031 C 
ATOM     39  C   UNL A   1      39.693  26.125  29.145  1.00  0.00     0.029 A 
ATOM     40  N   UNL A   1      41.217  27.735  28.832  1.00  0.00    -0.354 N 
ATOM     41  C   UNL A   1      44.783  27.133  26.621  1.00  0.00     0.074 A 
ATOM     42  C   UNL A   1      44.856  25.786  26.088  1.00  0.00     0.031 C 
ATOM     43  C   UNL A   1      39.205  27.263  29.673  1.00  0.00     0.029 A 
ATOM     44  C   UNL A   1      40.193  28.333  29.529  1.00  0.00     0.049 A 
ATOM     45  H   UNL A   1      42.025  28.218  28.545  1.00  0.00     0.167 HD
ATOM     46  C   UNL A   1      45.706  28.098  26.370  1.00  0.00     0.031 A 
ATOM     47  C   UNL A   1      40.061  29.583  30.024  1.00  0.00     0.031 A 
ATOM     48  C   UNL A   1      45.669  29.448  26.879  1.00  0.00     0.049 A 
ATOM     49  C   UNL A   1      41.158  30.602  29.842  1.00  0.00     0.074 A 
ATOM     50  C   UNL A   1      46.594  30.466  26.695  1.00  0.00     0.029 A 
ATOM     51  N   UNL A   1      44.657  29.975  27.662  1.00  0.00    -0.354 N 
ATOM     52  N   UNL A   1      42.271  30.510  29.159  1.00  0.00    -0.248 NA
ATOM     53  C   UNL A   1      40.981  31.901  30.516  1.00  0.00     0.031 C 
ATOM     54  C   UNL A   1      46.165  31.592  27.405  1.00  0.00     0.029 A 
ATOM     55  C   UNL A   1      44.948  31.292  27.991  1.00  0.00     0.049 A 
ATOM     56  H   UNL A   1      43.850  29.487  27.946  1.00  0.00     0.167 HD
ATOM     57  C   UNL A   1      42.912  31.736  29.304  1.00  0.00     0.074 A 
ATOM     58  C   UNL A   1      42.058  32.567  30.124  1.00  0.00     0.031 C 
ATOM     59  C   UNL A   1      44.107  32.131  28.802  1.00  0.00     0.031 A 
BRANCH  46  60
ATOM     60  C   UNL A   1      46.894  27.717  25.526  1.00  0.00    -0.014 A 
ATOM     61  C   UNL A   1      48.046  27.152  26.093  1.00  0.00     0.009 A 
ATOM     62  C   UNL A   1      46.832  27.875  24.131  1.00  0.00     0.009 A 
ATOM     63  C   UNL A   1      49.125  26.784  25.285  1.00  0.00     0.001 A 
ATOM     64  C   UNL A   1      47.901  27.484  23.323  1.00  0.00     0.001 A 
ATOM     65  C   UNL A   1      49.050  26.949  23.901  1.00  0.00     0.000 A 
ENDBRANCH  46  60
BRANCH  47  66
ATOM     66  C   UNL A   1      38.852  29.949  30.815  1.00  0.00    -0.014 A 
ATOM     67  C   UNL A   1      38.792  29.720  32.199  1.00  0.00     0.009 A 
ATOM     68  C   UNL A   1      37.724  30.482  30.169  1.00  0.00     0.009 A 
ATOM     69  C   UNL A   1      37.623  29.996  32.912  1.00  0.00     0.001 A 
ATOM     70  C   UNL A   1      36.569  30.789  30.890  1.00  0.00     0.001 A 
ATOM     71  C   UNL A   1      36.515  30.536  32.260  1.00  0.00     0.000 A 
ENDBRANCH  47  66
BRANCH  59  72
ATOM     72  C   UNL A   1      44.560  33.537  29.095  1.00  0.00    -0.014 A 
ATOM     73  C   UNL A   1      45.364  33.828  30.209  1.00  0.00     0.009 A 
ATOM     74  C   UNL A   1      44.208  34.582  28.225  1.00  0.00     0.009 A 
ATOM     75  C   UNL A   1      45.781  35.138  30.461  1.00  0.00     0.001 A 
ATOM     76  C   UNL A   1      44.645  35.888  28.467  1.00  0.00     0.001 A 
ATOM     77  C   UNL A   1      45.423  36.166  29.589  1.00  0.00     0.000 A 
ENDBRANCH  59  72
ENDBRANCH  33  34
ENDBRANCH  26  28
ENDBRANCH  25  26
ENDBRANCH  24  25
ENDBRANCH   1  24
TORSDOF 15
ENDMDL
MODEL 3
REMARK VINA RESULT:     -13.1      1.268      2.054
REMARK SMILES CCC[C@@](C)(NC(=O)N1CCN(C)C(=O)C1(C)C)C(=O)OCCOC(=O)c1ccc(-c2c3nc(c(-c4ccccc4)c4ccc([nH]4)c(-c4ccccc4)c4nc(c(-c5ccccc5)c5ccc2[nH]5)C=C4)C=C3)cc1
REMARK SMILES IDX 22 1 21 2 19 3 20 4 4 5 5 6 3 7 2 8 1 9 6 10 7 11 8 13 9 14
REMARK SMILES IDX 10 15 16 16 11 17 14 18 17 19 18 20 12 21 15 22 13 23 23 24
REMARK SMILES IDX 24 25 25 26 26 27 27 28 28 29 74 30 29 31 73 32 30 33 31 34
REMARK SMILES IDX 32 35 67 36 33 37 72 38 66 39 68 40 34 41 71 42 65 43 64 44
REMARK SMILES IDX 35 46 57 47 42 48 56 49 43 50 46 51 55 52 69 53 44 54 45 55
REMARK SMILES IDX 54 57 70 58 47 59 36 60 37 61 41 62 38 63 40 64 39 65 58 66
REMARK SMILES IDX 59 67 63 68 60 69 62 70 61 71 48 72 49 73 53 74 50 75 52 76
REMARK SMILES IDX 51 77
REMARK H PARENT 6 12 68 45 46 56
REMARK Flexibility Score: inf
ROOT
ATOM      1  C   UNL A   1      31.885  30.057  25.677  1.00  0.00     0.274 C 
ENDROOT
BRANCH   1   2
ATOM      2  O   UNL A   1      32.656  29.481  24.285  1.00  0.00    -0.460 OA
BRANCH   2   3
ATOM      3  C   UNL A   1      33.502  28.434  23.809  1.00  0.00     0.331 C 
ATOM      4  O   UNL A   1      34.359  28.649  22.959  1.00  0.00    -0.249 OA
BRANCH   3   5
ATOM      5  C   UNL A   1      33.310  26.838  24.438  1.00  0.00     0.136 C 
ATOM      6  C   UNL A   1      33.317  26.810  26.010  1.00  0.00     0.047 C 
BRANCH   5   7
ATOM      7  C   UNL A   1      31.788  26.327  24.169  1.00  0.00     0.040 C 
BRANCH   7   8
ATOM      8  C   UNL A   1      30.572  26.678  25.046  1.00  0.00    -0.000 C 
ATOM      9  C   UNL A   1      30.007  25.548  25.896  1.00  0.00     0.004 C 
ENDBRANCH   7   8
ENDBRANCH   5   7
BRANCH   5  10
ATOM     10  N   UNL A   1      34.146  25.544  23.826  1.00  0.00    -0.322 N 
ATOM     11  C   UNL A   1      34.370  24.169  23.786  1.00  0.00     0.319 C 
ATOM     12  H   UNL A   1      34.791  25.931  23.191  1.00  0.00     0.166 HD
ATOM     13  O   UNL A   1      35.128  23.752  22.912  1.00  0.00    -0.249 OA
BRANCH  11  14
ATOM     14  N   UNL A   1      33.839  23.344  24.746  1.00  0.00    -0.309 N 
ATOM     15  C   UNL A   1      32.181  22.483  24.787  1.00  0.00     0.144 C 
ATOM     16  C   UNL A   1      34.974  22.674  25.645  1.00  0.00     0.118 C 
ATOM     17  C   UNL A   1      32.189  20.485  24.804  1.00  0.00     0.140 C 
ATOM     18  C   UNL A   1      35.391  20.773  24.833  1.00  0.00     0.247 C 
ATOM     19  C   UNL A   1      35.870  23.883  26.334  1.00  0.00     0.045 C 
ATOM     20  C   UNL A   1      33.948  22.954  27.088  1.00  0.00     0.045 C 
ATOM     21  N   UNL A   1      33.907  19.680  24.637  1.00  0.00    -0.342 N 
ATOM     22  O   UNL A   1      36.378  20.035  24.818  1.00  0.00    -0.272 OA
ATOM     23  C   UNL A   1      34.107  18.234  24.599  1.00  0.00     0.146 C 
ENDBRANCH  11  14
ENDBRANCH   5  10
ENDBRANCH   3   5
ENDBRANCH   2   3
ENDBRANCH   1   2
BRANCH   1  24
ATOM     24  C   UNL A   1      30.872  31.572  25.754  1.00  0.00     0.275 C 
BRANCH  24  25
ATOM     25  O   UNL A   1      31.482  32.938  26.895  1.00  0.00    -0.458 OA
BRANCH  25  26
ATOM     26  C   UNL A   1      32.948  33.521  27.787  1.00  0.00     0.338 C 
ATOM     27  O   UNL A   1      32.971  34.673  28.268  1.00  0.00    -0.246 OA
BRANCH  26  28
ATOM     28  C   UNL A   1      34.426  33.002  27.932  1.00  0.00     0.060 A 
ATOM     29  C   UNL A   1      34.599  31.627  27.996  1.00  0.00     0.016 A 
ATOM     30  C   UNL A   1      35.469  33.744  28.530  1.00  0.00     0.016 A 
ATOM     31  C   UNL A   1      35.747  30.997  28.530  1.00  0.00     0.010 A 
ATOM     32  C   UNL A   1      36.656  33.135  29.038  1.00  0.00     0.010 A 
ATOM     33  C   UNL A   1      36.797  31.739  29.078  1.00  0.00    -0.014 A 
BRANCH  33  34
ATOM     34  C   UNL A   1      37.926  31.053  29.804  1.00  0.00     0.031 A 
ATOM     35  C   UNL A   1      38.166  31.299  31.283  1.00  0.00     0.074 A 
ATOM     36  C   UNL A   1      38.702  30.128  29.200  1.00  0.00     0.049 A 
ATOM     37  N   UNL A   1      39.111  30.826  32.068  1.00  0.00    -0.248 NA
ATOM     38  C   UNL A   1      37.205  32.171  31.973  1.00  0.00     0.031 C 
ATOM     39  C   UNL A   1      38.561  29.678  27.819  1.00  0.00     0.029 A 
ATOM     40  N   UNL A   1      39.763  29.387  29.685  1.00  0.00    -0.354 N 
ATOM     41  C   UNL A   1      38.864  31.348  33.334  1.00  0.00     0.074 A 
ATOM     42  C   UNL A   1      37.685  32.184  33.210  1.00  0.00     0.031 C 
ATOM     43  C   UNL A   1      39.483  28.729  27.571  1.00  0.00     0.029 A 
ATOM     44  C   UNL A   1      40.322  28.541  28.755  1.00  0.00     0.049 A 
ATOM     45  H   UNL A   1      40.088  29.458  30.611  1.00  0.00     0.167 HD
ATOM     46  C   UNL A   1      39.541  31.160  34.497  1.00  0.00     0.031 A 
ATOM     47  C   UNL A   1      41.396  27.725  28.824  1.00  0.00     0.031 A 
ATOM     48  C   UNL A   1      40.715  30.337  34.661  1.00  0.00     0.049 A 
ATOM     49  C   UNL A   1      42.210  27.629  30.090  1.00  0.00     0.074 A 
ATOM     50  C   UNL A   1      41.474  30.133  35.806  1.00  0.00     0.029 A 
ATOM     51  N   UNL A   1      41.299  29.576  33.663  1.00  0.00    -0.354 N 
ATOM     52  N   UNL A   1      41.992  28.174  31.260  1.00  0.00    -0.248 NA
ATOM     53  C   UNL A   1      43.433  26.807  30.038  1.00  0.00     0.031 C 
ATOM     54  C   UNL A   1      42.542  29.288  35.487  1.00  0.00     0.029 A 
ATOM     55  C   UNL A   1      42.421  28.925  34.157  1.00  0.00     0.049 A 
ATOM     56  H   UNL A   1      40.968  29.508  32.738  1.00  0.00     0.167 HD
ATOM     57  C   UNL A   1      43.032  27.749  32.081  1.00  0.00     0.074 A 
ATOM     58  C   UNL A   1      43.873  26.883  31.286  1.00  0.00     0.031 C 
ATOM     59  C   UNL A   1      43.265  28.058  33.380  1.00  0.00     0.031 A 
BRANCH  46  60
ATOM     60  C   UNL A   1      39.054  31.908  35.710  1.00  0.00    -0.014 A 
ATOM     61  C   UNL A   1      38.151  31.330  36.615  1.00  0.00     0.009 A 
ATOM     62  C   UNL A   1      39.557  33.192  35.980  1.00  0.00     0.009 A 
ATOM     63  C   UNL A   1      37.736  32.037  37.747  1.00  0.00     0.001 A 
ATOM     64  C   UNL A   1      39.158  33.886  37.123  1.00  0.00     0.001 A 
ATOM     65  C   UNL A   1      38.241  33.312  38.001  1.00  0.00     0.000 A 
ENDBRANCH  46  60
BRANCH  47  66
ATOM     66  C   UNL A   1      41.829  26.957  27.622  1.00  0.00    -0.014 A 
ATOM     67  C   UNL A   1      42.648  27.542  26.642  1.00  0.00     0.009 A 
ATOM     68  C   UNL A   1      41.371  25.644  27.423  1.00  0.00     0.009 A 
ATOM     69  C   UNL A   1      42.980  26.836  25.483  1.00  0.00     0.001 A 
ATOM     70  C   UNL A   1      41.732  24.929  26.280  1.00  0.00     0.001 A 
ATOM     71  C   UNL A   1      42.528  25.528  25.306  1.00  0.00     0.000 A 
ENDBRANCH  47  66
BRANCH  59  72
ATOM     72  C   UNL A   1      44.463  27.433  34.044  1.00  0.00    -0.014 A 
ATOM     73  C   UNL A   1      45.709  28.082  34.063  1.00  0.00     0.009 A 
ATOM     74  C   UNL A   1      44.339  26.193  34.692  1.00  0.00     0.009 A 
ATOM     75  C   UNL A   1      46.809  27.490  34.690  1.00  0.00     0.001 A 
ATOM     76  C   UNL A   1      45.434  25.614  35.339  1.00  0.00     0.001 A 
ATOM     77  C   UNL A   1      46.670  26.259  35.330  1.00  0.00     0.000 A 
ENDBRANCH  59  72
ENDBRANCH  33  34
ENDBRANCH  26  28
ENDBRANCH  25  26
ENDBRANCH  24  25
ENDBRANCH   1  24
TORSDOF 15
ENDMDL
