MODEL 1
REMARK VINA RESULT:     -10.7      0.000      0.000
REMARK SMILES CCc1ccc2c(c1)C=C(C(=O)OCCOC(=O)c1ccc(-c3c4nc(c(-c5ccccc5)c5ccc([nH]5)c(-c5ccccc5)c5nc(c(-c6ccccc6)c6ccc3[nH]6)C=C5)C=C4)cc1)[C@H](C(F)(F)F)O2
REMARK SMILES IDX 15 1 14 2 13 3 11 4 12 5 10 6 3 7 4 8 8 9 5 10 7 11 6 12
REMARK SMILES IDX 9 13 72 14 67 15 2 16 1 17 68 18 69 19 70 20 71 21 16 22
REMARK SMILES IDX 17 23 18 24 19 25 20 26 66 27 21 28 65 29 22 30 23 31 24 32
REMARK SMILES IDX 59 33 25 34 64 35 58 36 60 37 26 38 63 39 57 40 56 41 27 43
REMARK SMILES IDX 49 44 34 45 48 46 35 47 38 48 47 49 61 50 36 51 37 52 46 54
REMARK SMILES IDX 62 55 39 56 28 57 29 58 33 59 30 60 32 61 31 62 50 63 51 64
REMARK SMILES IDX 55 65 52 66 54 67 53 68 40 69 41 70 45 71 42 72 44 73 43 74
REMARK H PARENT 60 42 38 53
REMARK Flexibility Score: inf
ROOT
ATOM      1  C   UNL A   1      32.700  29.915  26.829  1.00  0.00     0.275 C 
ENDROOT
BRANCH   1   2
ATOM      2  C   UNL A   1      32.127  28.528  27.139  1.00  0.00     0.275 C 
BRANCH   2   3
ATOM      3  O   UNL A   1      31.786  27.807  25.936  1.00  0.00    -0.459 OA
BRANCH   3   4
ATOM      4  C   UNL A   1      31.641  26.462  26.066  1.00  0.00     0.338 C 
ATOM      5  O   UNL A   1      30.743  25.910  26.669  1.00  0.00    -0.246 OA
BRANCH   4   6
ATOM      6  C   UNL A   1      32.701  25.718  25.339  1.00  0.00     0.087 C 
ATOM      7  C   UNL A   1      36.912  23.333  25.139  1.00  0.00    -0.047 A 
ATOM      8  C   UNL A   1      36.667  23.045  23.790  1.00  0.00     0.007 A 
ATOM      9  C   UNL A   1      35.975  24.092  25.862  1.00  0.00     0.015 A 
ATOM     10  C   UNL A   1      35.477  23.451  23.192  1.00  0.00     0.047 A 
ATOM     11  C   UNL A   1      34.781  24.508  25.262  1.00  0.00     0.018 A 
ATOM     12  C   UNL A   1      34.535  24.158  23.934  1.00  0.00     0.128 A 
ATOM     13  C   UNL A   1      33.758  25.229  26.013  1.00  0.00     0.027 C 
ATOM     14  O   UNL A   1      33.338  24.401  23.325  1.00  0.00    -0.475 OA
ATOM     15  C   UNL A   1      32.584  25.536  23.832  1.00  0.00     0.316 C 
BRANCH   7  16
ATOM     16  C   UNL A   1      38.123  22.753  25.827  1.00  0.00     0.032 C 
ATOM     17  C   UNL A   1      38.302  21.285  25.459  1.00  0.00     0.009 C 
ENDBRANCH   7  16
BRANCH  15  18
ATOM     18  C   UNL A   1      31.181  25.458  23.197  1.00  0.00     0.430 C 
ATOM     19  F   UNL A   1      30.502  26.622  23.308  1.00  0.00    -0.167 F 
ATOM     20  F   UNL A   1      31.286  25.234  21.859  1.00  0.00    -0.167 F 
ATOM     21  F   UNL A   1      30.430  24.458  23.706  1.00  0.00    -0.167 F 
ENDBRANCH  15  18
ENDBRANCH   4   6
ENDBRANCH   3   4
ENDBRANCH   2   3
ENDBRANCH   1   2
BRANCH   1  22
ATOM     22  O   UNL A   1      34.138  29.921  26.902  1.00  0.00    -0.458 OA
BRANCH  22  23
ATOM     23  C   UNL A   1      34.656  30.700  27.883  1.00  0.00     0.338 C 
ATOM     24  O   UNL A   1      34.091  31.597  28.486  1.00  0.00    -0.246 OA
BRANCH  23  25
ATOM     25  C   UNL A   1      35.970  30.169  28.294  1.00  0.00     0.060 A 
ATOM     26  C   UNL A   1      36.967  30.152  27.316  1.00  0.00     0.016 A 
ATOM     27  C   UNL A   1      36.238  29.693  29.576  1.00  0.00     0.016 A 
ATOM     28  C   UNL A   1      38.262  29.745  27.630  1.00  0.00     0.010 A 
ATOM     29  C   UNL A   1      37.526  29.226  29.879  1.00  0.00     0.010 A 
ATOM     30  C   UNL A   1      38.548  29.269  28.913  1.00  0.00    -0.014 A 
BRANCH  30  31
ATOM     31  C   UNL A   1      39.895  28.725  29.204  1.00  0.00     0.031 A 
ATOM     32  C   UNL A   1      40.888  29.580  29.937  1.00  0.00     0.074 A 
ATOM     33  C   UNL A   1      40.221  27.466  28.859  1.00  0.00     0.049 A 
ATOM     34  N   UNL A   1      42.135  29.327  30.240  1.00  0.00    -0.248 NA
ATOM     35  C   UNL A   1      40.404  30.890  30.401  1.00  0.00     0.031 C 
ATOM     36  C   UNL A   1      39.318  26.496  28.241  1.00  0.00     0.029 A 
ATOM     37  N   UNL A   1      41.410  26.790  28.983  1.00  0.00    -0.354 N 
ATOM     38  C   UNL A   1      42.587  30.443  30.931  1.00  0.00     0.074 A 
ATOM     39  C   UNL A   1      41.485  31.381  30.989  1.00  0.00     0.031 C 
ATOM     40  C   UNL A   1      39.994  25.354  28.021  1.00  0.00     0.029 A 
ATOM     41  C   UNL A   1      41.383  25.527  28.443  1.00  0.00     0.049 A 
ATOM     42  H   UNL A   1      42.206  27.173  29.417  1.00  0.00     0.167 HD
ATOM     43  C   UNL A   1      43.811  30.671  31.462  1.00  0.00     0.031 A 
ATOM     44  C   UNL A   1      42.376  24.630  28.275  1.00  0.00     0.031 A 
ATOM     45  C   UNL A   1      44.920  29.759  31.370  1.00  0.00     0.049 A 
ATOM     46  C   UNL A   1      43.769  24.971  28.742  1.00  0.00     0.074 A 
ATOM     47  C   UNL A   1      46.207  29.916  31.852  1.00  0.00     0.029 A 
ATOM     48  N   UNL A   1      44.876  28.525  30.739  1.00  0.00    -0.354 N 
ATOM     49  N   UNL A   1      44.191  26.031  29.388  1.00  0.00    -0.248 NA
ATOM     50  C   UNL A   1      44.826  23.990  28.451  1.00  0.00     0.031 C 
ATOM     51  C   UNL A   1      46.961  28.808  31.457  1.00  0.00     0.029 A 
ATOM     52  C   UNL A   1      46.124  27.927  30.789  1.00  0.00     0.049 A 
ATOM     53  H   UNL A   1      44.078  28.133  30.319  1.00  0.00     0.167 HD
ATOM     54  C   UNL A   1      45.549  25.829  29.607  1.00  0.00     0.074 A 
ATOM     55  C   UNL A   1      45.879  24.540  29.039  1.00  0.00     0.031 C 
ATOM     56  C   UNL A   1      46.442  26.640  30.226  1.00  0.00     0.031 A 
BRANCH  43  57
ATOM     57  C   UNL A   1      44.031  31.994  32.140  1.00  0.00    -0.014 A 
ATOM     58  C   UNL A   1      44.473  33.117  31.424  1.00  0.00     0.009 A 
ATOM     59  C   UNL A   1      43.766  32.121  33.511  1.00  0.00     0.009 A 
ATOM     60  C   UNL A   1      44.676  34.334  32.079  1.00  0.00     0.001 A 
ATOM     61  C   UNL A   1      43.942  33.345  34.157  1.00  0.00     0.001 A 
ATOM     62  C   UNL A   1      44.407  34.448  33.443  1.00  0.00     0.000 A 
ENDBRANCH  43  57
BRANCH  44  63
ATOM     63  C   UNL A   1      42.118  23.338  27.582  1.00  0.00    -0.014 A 
ATOM     64  C   UNL A   1      41.626  22.228  28.288  1.00  0.00     0.009 A 
ATOM     65  C   UNL A   1      42.423  23.191  26.220  1.00  0.00     0.009 A 
ATOM     66  C   UNL A   1      41.479  20.992  27.651  1.00  0.00     0.001 A 
ATOM     67  C   UNL A   1      42.243  21.963  25.577  1.00  0.00     0.001 A 
ATOM     68  C   UNL A   1      41.785  20.862  26.297  1.00  0.00     0.000 A 
ENDBRANCH  44  63
BRANCH  56  69
ATOM     69  C   UNL A   1      47.856  26.145  30.365  1.00  0.00    -0.014 A 
ATOM     70  C   UNL A   1      48.766  26.217  29.298  1.00  0.00     0.009 A 
ATOM     71  C   UNL A   1      48.301  25.656  31.603  1.00  0.00     0.009 A 
ATOM     72  C   UNL A   1      50.084  25.784  29.464  1.00  0.00     0.001 A 
ATOM     73  C   UNL A   1      49.628  25.255  31.775  1.00  0.00     0.001 A 
ATOM     74  C   UNL A   1      50.516  25.312  30.704  1.00  0.00     0.000 A 
ENDBRANCH  56  69
ENDBRANCH  30  31
ENDBRANCH  23  25
ENDBRANCH  22  23
ENDBRANCH   1  22
TORSDOF 13
ENDMDL
MODEL 2
REMARK VINA RESULT:     -10.5      2.340      7.732
REMARK SMILES CCc1ccc2c(c1)C=C(C(=O)OCCOC(=O)c1ccc(-c3c4nc(c(-c5ccccc5)c5ccc([nH]5)c(-c5ccccc5)c5nc(c(-c6ccccc6)c6ccc3[nH]6)C=C5)C=C4)cc1)[C@H](C(F)(F)F)O2
REMARK SMILES IDX 15 1 14 2 13 3 11 4 12 5 10 6 3 7 4 8 8 9 5 10 7 11 6 12
REMARK SMILES IDX 9 13 72 14 67 15 2 16 1 17 68 18 69 19 70 20 71 21 16 22
REMARK SMILES IDX 17 23 18 24 19 25 20 26 66 27 21 28 65 29 22 30 23 31 24 32
REMARK SMILES IDX 59 33 25 34 64 35 58 36 60 37 26 38 63 39 57 40 56 41 27 43
REMARK SMILES IDX 49 44 34 45 48 46 35 47 38 48 47 49 61 50 36 51 37 52 46 54
REMARK SMILES IDX 62 55 39 56 28 57 29 58 33 59 30 60 32 61 31 62 50 63 51 64
REMARK SMILES IDX 55 65 52 66 54 67 53 68 40 69 41 70 45 71 42 72 44 73 43 74
REMARK H PARENT 60 42 38 53
REMARK Flexibility Score: inf
ROOT
ATOM      1  C   UNL A   1      37.329  23.339  24.717  1.00  0.00     0.275 C 
ENDROOT
BRANCH   1   2
ATOM      2  C   UNL A   1      36.426  22.291  24.060  1.00  0.00     0.275 C 
BRANCH   2   3
ATOM      3  O   UNL A   1      35.032  22.523  24.354  1.00  0.00    -0.459 OA
BRANCH   3   4
ATOM      4  C   UNL A   1      34.439  23.542  23.679  1.00  0.00     0.338 C 
ATOM      5  O   UNL A   1      34.441  23.675  22.471  1.00  0.00    -0.246 OA
BRANCH   4   6
ATOM      6  C   UNL A   1      33.736  24.477  24.593  1.00  0.00     0.087 C 
ATOM      7  C   UNL A   1      33.341  28.679  26.969  1.00  0.00    -0.047 A 
ATOM      8  C   UNL A   1      32.071  28.290  27.415  1.00  0.00     0.007 A 
ATOM      9  C   UNL A   1      34.083  27.805  26.155  1.00  0.00     0.015 A 
ATOM     10  C   UNL A   1      31.525  27.077  27.001  1.00  0.00     0.047 A 
ATOM     11  C   UNL A   1      33.539  26.583  25.742  1.00  0.00     0.018 A 
ATOM     12  C   UNL A   1      32.250  26.245  26.153  1.00  0.00     0.128 A 
ATOM     13  C   UNL A   1      34.257  25.694  24.834  1.00  0.00     0.027 C 
ATOM     14  O   UNL A   1      31.598  25.143  25.679  1.00  0.00    -0.475 OA
ATOM     15  C   UNL A   1      32.441  24.035  25.260  1.00  0.00     0.316 C 
BRANCH   7  16
ATOM     16  C   UNL A   1      33.861  30.059  27.285  1.00  0.00     0.032 C 
ATOM     17  C   UNL A   1      32.767  31.105  27.100  1.00  0.00     0.009 C 
ENDBRANCH   7  16
BRANCH  15  18
ATOM     18  C   UNL A   1      31.528  23.033  24.526  1.00  0.00     0.430 C 
ATOM     19  F   UNL A   1      31.973  21.761  24.631  1.00  0.00    -0.167 F 
ATOM     20  F   UNL A   1      30.292  23.025  25.094  1.00  0.00    -0.167 F 
ATOM     21  F   UNL A   1      31.360  23.336  23.221  1.00  0.00    -0.167 F 
ENDBRANCH  15  18
ENDBRANCH   4   6
ENDBRANCH   3   4
ENDBRANCH   2   3
ENDBRANCH   1   2
BRANCH   1  22
ATOM     22  O   UNL A   1      37.706  22.953  26.051  1.00  0.00    -0.458 OA
BRANCH  22  23
ATOM     23  C   UNL A   1      39.039  22.952  26.291  1.00  0.00     0.338 C 
ATOM     24  O   UNL A   1      39.847  22.104  25.949  1.00  0.00    -0.246 OA
BRANCH  23  25
ATOM     25  C   UNL A   1      39.442  24.254  26.855  1.00  0.00     0.060 A 
ATOM     26  C   UNL A   1      39.017  24.525  28.158  1.00  0.00     0.016 A 
ATOM     27  C   UNL A   1      40.197  25.193  26.155  1.00  0.00     0.016 A 
ATOM     28  C   UNL A   1      39.415  25.693  28.805  1.00  0.00     0.010 A 
ATOM     29  C   UNL A   1      40.549  26.397  26.783  1.00  0.00     0.010 A 
ATOM     30  C   UNL A   1      40.176  26.643  28.117  1.00  0.00    -0.014 A 
BRANCH  30  31
ATOM     31  C   UNL A   1      40.493  27.934  28.771  1.00  0.00     0.031 A 
ATOM     32  C   UNL A   1      41.851  28.136  29.377  1.00  0.00     0.074 A 
ATOM     33  C   UNL A   1      39.595  28.937  28.790  1.00  0.00     0.049 A 
ATOM     34  N   UNL A   1      42.317  29.159  30.047  1.00  0.00    -0.248 NA
ATOM     35  C   UNL A   1      42.818  27.043  29.189  1.00  0.00     0.031 C 
ATOM     36  C   UNL A   1      38.282  28.912  28.147  1.00  0.00     0.029 A 
ATOM     37  N   UNL A   1      39.660  30.177  29.378  1.00  0.00    -0.354 N 
ATOM     38  C   UNL A   1      43.630  28.835  30.362  1.00  0.00     0.074 A 
ATOM     39  C   UNL A   1      43.882  27.515  29.822  1.00  0.00     0.031 C 
ATOM     40  C   UNL A   1      37.657  30.077  28.393  1.00  0.00     0.029 A 
ATOM     41  C   UNL A   1      38.505  30.909  29.244  1.00  0.00     0.049 A 
ATOM     42  H   UNL A   1      40.457  30.509  29.850  1.00  0.00     0.167 HD
ATOM     43  C   UNL A   1      44.541  29.566  31.045  1.00  0.00     0.031 A 
ATOM     44  C   UNL A   1      38.162  32.098  29.779  1.00  0.00     0.031 A 
ATOM     45  C   UNL A   1      44.280  30.860  31.618  1.00  0.00     0.049 A 
ATOM     46  C   UNL A   1      39.143  32.824  30.663  1.00  0.00     0.074 A 
ATOM     47  C   UNL A   1      45.133  31.665  32.353  1.00  0.00     0.029 A 
ATOM     48  N   UNL A   1      43.070  31.531  31.534  1.00  0.00    -0.354 N 
ATOM     49  N   UNL A   1      40.381  32.509  30.962  1.00  0.00    -0.248 NA
ATOM     50  C   UNL A   1      38.678  34.071  31.289  1.00  0.00     0.031 C 
ATOM     51  C   UNL A   1      44.420  32.792  32.770  1.00  0.00     0.029 A 
ATOM     52  C   UNL A   1      43.143  32.723  32.235  1.00  0.00     0.049 A 
ATOM     53  H   UNL A   1      42.277  31.208  31.048  1.00  0.00     0.167 HD
ATOM     54  C   UNL A   1      40.848  33.532  31.781  1.00  0.00     0.074 A 
ATOM     55  C   UNL A   1      39.768  34.484  31.920  1.00  0.00     0.031 C 
ATOM     56  C   UNL A   1      42.065  33.669  32.363  1.00  0.00     0.031 A 
BRANCH  43  57
ATOM     57  C   UNL A   1      45.893  28.950  31.264  1.00  0.00    -0.014 A 
ATOM     58  C   UNL A   1      46.944  29.153  30.356  1.00  0.00     0.009 A 
ATOM     59  C   UNL A   1      46.124  28.175  32.411  1.00  0.00     0.009 A 
ATOM     60  C   UNL A   1      48.191  28.562  30.579  1.00  0.00     0.001 A 
ATOM     61  C   UNL A   1      47.378  27.612  32.645  1.00  0.00     0.001 A 
ATOM     62  C   UNL A   1      48.407  27.797  31.725  1.00  0.00     0.000 A 
ENDBRANCH  43  57
BRANCH  44  63
ATOM     63  C   UNL A   1      36.804  32.665  29.551  1.00  0.00    -0.014 A 
ATOM     64  C   UNL A   1      35.753  32.399  30.443  1.00  0.00     0.009 A 
ATOM     65  C   UNL A   1      36.538  33.428  28.403  1.00  0.00     0.009 A 
ATOM     66  C   UNL A   1      34.460  32.854  30.171  1.00  0.00     0.001 A 
ATOM     67  C   UNL A   1      35.251  33.911  28.150  1.00  0.00     0.001 A 
ATOM     68  C   UNL A   1      34.211  33.612  29.027  1.00  0.00     0.000 A 
ENDBRANCH  44  63
BRANCH  56  69
ATOM     69  C   UNL A   1      42.317  34.913  33.171  1.00  0.00    -0.014 A 
ATOM     70  C   UNL A   1      41.901  35.016  34.508  1.00  0.00     0.009 A 
ATOM     71  C   UNL A   1      43.037  35.975  32.601  1.00  0.00     0.009 A 
ATOM     72  C   UNL A   1      42.180  36.168  35.247  1.00  0.00     0.001 A 
ATOM     73  C   UNL A   1      43.343  37.112  33.353  1.00  0.00     0.001 A 
ATOM     74  C   UNL A   1      42.907  37.210  34.673  1.00  0.00     0.000 A 
ENDBRANCH  56  69
ENDBRANCH  30  31
ENDBRANCH  23  25
ENDBRANCH  22  23
ENDBRANCH   1  22
TORSDOF 13
ENDMDL
MODEL 3
REMARK VINA RESULT:     -10.5      4.180      6.863
REMARK SMILES CCc1ccc2c(c1)C=C(C(=O)OCCOC(=O)c1ccc(-c3c4nc(c(-c5ccccc5)c5ccc([nH]5)c(-c5ccccc5)c5nc(c(-c6ccccc6)c6ccc3[nH]6)C=C5)C=C4)cc1)[C@H](C(F)(F)F)O2
REMARK SMILES IDX 15 1 14 2 13 3 11 4 12 5 10 6 3 7 4 8 8 9 5 10 7 11 6 12
REMARK SMILES IDX 9 13 72 14 67 15 2 16 1 17 68 18 69 19 70 20 71 21 16 22
REMARK SMILES IDX 17 23 18 24 19 25 20 26 66 27 21 28 65 29 22 30 23 31 24 32
REMARK SMILES IDX 59 33 25 34 64 35 58 36 60 37 26 38 63 39 57 40 56 41 27 43
REMARK SMILES IDX 49 44 34 45 48 46 35 47 38 48 47 49 61 50 36 51 37 52 46 54
REMARK SMILES IDX 62 55 39 56 28 57 29 58 33 59 30 60 32 61 31 62 50 63 51 64
REMARK SMILES IDX 55 65 52 66 54 67 53 68 40 69 41 70 45 71 42 72 44 73 43 74
REMARK H PARENT 60 42 38 53
REMARK Flexibility Score: inf
ROOT
ATOM      1  C   UNL A   1      34.748  33.014  27.820  1.00  0.00     0.275 C 
ENDROOT
BRANCH   1   2
ATOM      2  C   UNL A   1      33.907  34.238  28.195  1.00  0.00     0.275 C 
BRANCH   2   3
ATOM      3  O   UNL A   1      34.416  34.900  29.372  1.00  0.00    -0.459 OA
BRANCH   3   4
ATOM      4  C   UNL A   1      33.626  34.848  30.477  1.00  0.00     0.338 C 
ATOM      5  O   UNL A   1      32.426  35.039  30.488  1.00  0.00    -0.246 OA
BRANCH   4   6
ATOM      6  C   UNL A   1      34.396  34.483  31.692  1.00  0.00     0.087 C 
ATOM      7  C   UNL A   1      37.645  31.797  34.076  1.00  0.00    -0.047 A 
ATOM      8  C   UNL A   1      37.490  32.628  35.194  1.00  0.00     0.007 A 
ATOM      9  C   UNL A   1      36.892  32.052  32.917  1.00  0.00     0.015 A 
ATOM     10  C   UNL A   1      36.645  33.733  35.132  1.00  0.00     0.047 A 
ATOM     11  C   UNL A   1      36.037  33.159  32.854  1.00  0.00     0.018 A 
ATOM     12  C   UNL A   1      35.943  34.003  33.961  1.00  0.00     0.128 A 
ATOM     13  C   UNL A   1      35.303  33.491  31.637  1.00  0.00     0.027 C 
ATOM     14  O   UNL A   1      35.246  35.176  33.927  1.00  0.00    -0.475 OA
ATOM     15  C   UNL A   1      34.132  35.229  32.993  1.00  0.00     0.316 C 
BRANCH   7  16
ATOM     16  C   UNL A   1      38.681  30.700  34.090  1.00  0.00     0.032 C 
ATOM     17  C   UNL A   1      40.016  31.222  34.605  1.00  0.00     0.009 C 
ENDBRANCH   7  16
BRANCH  15  18
ATOM     18  C   UNL A   1      33.673  36.699  32.930  1.00  0.00     0.430 C 
ATOM     19  F   UNL A   1      34.101  37.322  31.809  1.00  0.00    -0.167 F 
ATOM     20  F   UNL A   1      32.314  36.761  32.874  1.00  0.00    -0.167 F 
ATOM     21  F   UNL A   1      34.056  37.416  34.008  1.00  0.00    -0.167 F 
ENDBRANCH  15  18
ENDBRANCH   4   6
ENDBRANCH   3   4
ENDBRANCH   2   3
ENDBRANCH   1   2
BRANCH   1  22
ATOM     22  O   UNL A   1      34.447  31.887  28.663  1.00  0.00    -0.458 OA
BRANCH  22  23
ATOM     23  C   UNL A   1      34.664  30.675  28.096  1.00  0.00     0.338 C 
ATOM     24  O   UNL A   1      33.982  30.129  27.245  1.00  0.00    -0.246 OA
BRANCH  23  25
ATOM     25  C   UNL A   1      35.992  30.172  28.495  1.00  0.00     0.060 A 
ATOM     26  C   UNL A   1      36.965  30.124  27.494  1.00  0.00     0.016 A 
ATOM     27  C   UNL A   1      36.296  29.749  29.788  1.00  0.00     0.016 A 
ATOM     28  C   UNL A   1      38.271  29.740  27.792  1.00  0.00     0.010 A 
ATOM     29  C   UNL A   1      37.595  29.304  30.077  1.00  0.00     0.010 A 
ATOM     30  C   UNL A   1      38.592  29.317  29.086  1.00  0.00    -0.014 A 
BRANCH  30  31
ATOM     31  C   UNL A   1      39.951  28.796  29.364  1.00  0.00     0.031 A 
ATOM     32  C   UNL A   1      40.930  29.660  30.104  1.00  0.00     0.074 A 
ATOM     33  C   UNL A   1      40.300  27.548  29.001  1.00  0.00     0.049 A 
ATOM     34  N   UNL A   1      42.183  29.428  30.400  1.00  0.00    -0.248 NA
ATOM     35  C   UNL A   1      40.423  30.954  30.588  1.00  0.00     0.031 C 
ATOM     36  C   UNL A   1      39.414  26.568  28.374  1.00  0.00     0.029 A 
ATOM     37  N   UNL A   1      41.502  26.893  29.112  1.00  0.00    -0.354 N 
ATOM     38  C   UNL A   1      42.616  30.543  31.103  1.00  0.00     0.074 A 
ATOM     39  C   UNL A   1      41.496  31.459  31.178  1.00  0.00     0.031 C 
ATOM     40  C   UNL A   1      40.111  25.443  28.138  1.00  0.00     0.029 A 
ATOM     41  C   UNL A   1      41.498  25.637  28.556  1.00  0.00     0.049 A 
ATOM     42  H   UNL A   1      42.292  27.286  29.549  1.00  0.00     0.167 HD
ATOM     43  C   UNL A   1      43.838  30.789  31.633  1.00  0.00     0.031 A 
ATOM     44  C   UNL A   1      42.507  24.762  28.373  1.00  0.00     0.031 A 
ATOM     45  C   UNL A   1      44.963  29.899  31.524  1.00  0.00     0.049 A 
ATOM     46  C   UNL A   1      43.895  25.124  28.839  1.00  0.00     0.074 A 
ATOM     47  C   UNL A   1      46.249  30.075  32.004  1.00  0.00     0.029 A 
ATOM     48  N   UNL A   1      44.941  28.673  30.878  1.00  0.00    -0.354 N 
ATOM     49  N   UNL A   1      44.299  26.184  29.497  1.00  0.00    -0.248 NA
ATOM     50  C   UNL A   1      44.969  24.168  28.531  1.00  0.00     0.031 C 
ATOM     51  C   UNL A   1      47.023  28.987  31.591  1.00  0.00     0.029 A 
ATOM     52  C   UNL A   1      46.201  28.098  30.915  1.00  0.00     0.049 A 
ATOM     53  H   UNL A   1      44.149  28.271  30.456  1.00  0.00     0.167 HD
ATOM     54  C   UNL A   1      45.661  26.006  29.709  1.00  0.00     0.074 A 
ATOM     55  C   UNL A   1      46.014  24.731  29.123  1.00  0.00     0.031 C 
ATOM     56  C   UNL A   1      46.541  26.825  30.335  1.00  0.00     0.031 A 
BRANCH  43  57
ATOM     57  C   UNL A   1      44.035  32.106  32.326  1.00  0.00    -0.014 A 
ATOM     58  C   UNL A   1      43.800  32.250  33.703  1.00  0.00     0.009 A 
ATOM     59  C   UNL A   1      44.488  33.213  31.593  1.00  0.00     0.009 A 
ATOM     60  C   UNL A   1      43.984  33.488  34.323  1.00  0.00     0.001 A 
ATOM     61  C   UNL A   1      44.700  34.441  32.221  1.00  0.00     0.001 A 
ATOM     62  C   UNL A   1      44.438  34.580  33.583  1.00  0.00     0.000 A 
ENDBRANCH  43  57
BRANCH  44  63
ATOM     63  C   UNL A   1      42.271  23.474  27.665  1.00  0.00    -0.014 A 
ATOM     64  C   UNL A   1      42.505  23.357  26.285  1.00  0.00     0.009 A 
ATOM     65  C   UNL A   1      41.751  22.369  28.357  1.00  0.00     0.009 A 
ATOM     66  C   UNL A   1      42.190  22.174  25.611  1.00  0.00     0.001 A 
ATOM     67  C   UNL A   1      41.468  21.176  27.687  1.00  0.00     0.001 A 
ATOM     68  C   UNL A   1      41.675  21.085  26.312  1.00  0.00     0.000 A 
ENDBRANCH  44  63
BRANCH  56  69
ATOM     69  C   UNL A   1      47.965  26.356  30.461  1.00  0.00    -0.014 A 
ATOM     70  C   UNL A   1      48.425  25.711  31.621  1.00  0.00     0.009 A 
ATOM     71  C   UNL A   1      48.844  26.507  29.377  1.00  0.00     0.009 A 
ATOM     72  C   UNL A   1      49.742  25.252  31.698  1.00  0.00     0.001 A 
ATOM     73  C   UNL A   1      50.150  26.018  29.445  1.00  0.00     0.001 A 
ATOM     74  C   UNL A   1      50.600  25.398  30.609  1.00  0.00     0.000 A 
ENDBRANCH  56  69
ENDBRANCH  30  31
ENDBRANCH  23  25
ENDBRANCH  22  23
ENDBRANCH   1  22
TORSDOF 13
ENDMDL
