MODEL 1
REMARK VINA RESULT:     -12.1      0.000      0.000
REMARK SMILES C[C@H](C(=O)OCCOC(=O)c1ccc(-c2c3nc(c(-c4ccccc4)c4ccc([nH]4)c(-c4ccccc4)c4nc(c(-c5ccccc5)c5ccc2[nH]5)C=C4)C=C3)cc1)c1ccc2c3cc(Cl)ccc3n(C(=O)c3ccc(Cl)cc3)c2c1
REMARK SMILES IDX 6 1 5 2 3 3 4 4 2 5 1 6 59 7 60 8 81 9 61 10 80 11 62 12
REMARK SMILES IDX 70 13 63 14 69 15 64 16 68 17 65 18 67 19 66 20 71 21 72 22
REMARK SMILES IDX 73 23 74 24 79 25 75 26 78 27 76 28 77 29 7 30 8 31 9 32
REMARK SMILES IDX 10 33 11 34 12 35 58 36 13 37 57 38 14 39 15 40 16 41 51 42
REMARK SMILES IDX 17 43 56 44 50 45 52 46 18 47 55 48 49 49 48 50 19 52 41 53
REMARK SMILES IDX 26 54 40 55 27 56 30 57 39 58 53 59 28 60 29 61 38 63 54 64
REMARK SMILES IDX 31 65 20 66 21 67 25 68 22 69 24 70 23 71 42 72 43 73 47 74
REMARK SMILES IDX 44 75 46 76 45 77 32 78 33 79 37 80 34 81 36 82 35 83
REMARK H PARENT 52 51 30 62
REMARK Flexibility Score: inf
ROOT
ATOM      1  C   UNL A   1      35.296  20.732  25.161  1.00  0.00     0.274 C 
ENDROOT
BRANCH   1   2
ATOM      2  O   UNL A   1      35.366  22.124  25.524  1.00  0.00    -0.462 OA
BRANCH   2   3
ATOM      3  C   UNL A   1      34.625  23.009  24.797  1.00  0.00     0.313 C 
ATOM      4  O   UNL A   1      35.052  23.638  23.836  1.00  0.00    -0.252 OA
BRANCH   3   5
ATOM      5  C   UNL A   1      33.212  23.180  25.372  1.00  0.00     0.126 C 
ATOM      6  C   UNL A   1      33.222  23.199  26.904  1.00  0.00     0.025 C 
BRANCH   5   7
ATOM      7  C   UNL A   1      32.438  24.338  24.747  1.00  0.00    -0.032 A 
ATOM      8  C   UNL A   1      31.727  24.263  23.549  1.00  0.00     0.005 A 
ATOM      9  C   UNL A   1      32.417  25.542  25.468  1.00  0.00     0.032 A 
ATOM     10  C   UNL A   1      31.011  25.372  23.064  1.00  0.00     0.011 A 
ATOM     11  C   UNL A   1      31.695  26.650  24.990  1.00  0.00     0.057 A 
ATOM     12  C   UNL A   1      30.989  26.581  23.796  1.00  0.00     0.008 A 
ATOM     13  N   UNL A   1      31.482  27.908  25.567  1.00  0.00    -0.276 N 
ATOM     14  C   UNL A   1      30.402  27.862  23.580  1.00  0.00     0.009 A 
ATOM     15  C   UNL A   1      30.765  28.689  24.653  1.00  0.00     0.057 A 
ATOM     16  C   UNL A   1      29.630  28.392  22.523  1.00  0.00     0.031 A 
ATOM     17  C   UNL A   1      30.450  30.063  24.637  1.00  0.00     0.029 A 
ATOM     18  C   UNL A   1      29.282  29.742  22.538  1.00  0.00     0.041 A 
ATOM     19  C   UNL A   1      29.695  30.570  23.574  1.00  0.00     0.023 A 
ATOM     20  Cl  UNL A   1      28.362  30.396  21.238  1.00  0.00    -0.084 Cl
BRANCH  13  21
ATOM     21  C   UNL A   1      31.983  28.269  26.845  1.00  0.00     0.262 C 
ATOM     22  O   UNL A   1      31.427  27.743  27.813  1.00  0.00    -0.268 OA
BRANCH  21  23
ATOM     23  C   UNL A   1      33.063  29.242  27.180  1.00  0.00     0.040 A 
ATOM     24  C   UNL A   1      32.684  30.595  27.307  1.00  0.00     0.015 A 
ATOM     25  C   UNL A   1      34.422  28.920  27.250  1.00  0.00     0.015 A 
ATOM     26  C   UNL A   1      33.630  31.594  27.536  1.00  0.00     0.021 A 
ATOM     27  C   UNL A   1      35.369  29.921  27.515  1.00  0.00     0.021 A 
ATOM     28  C   UNL A   1      34.970  31.250  27.655  1.00  0.00     0.041 A 
ATOM     29  Cl  UNL A   1      36.140  32.476  27.951  1.00  0.00    -0.084 Cl
ENDBRANCH  21  23
ENDBRANCH  13  21
ENDBRANCH   5   7
ENDBRANCH   3   5
ENDBRANCH   2   3
ENDBRANCH   1   2
BRANCH   1  30
ATOM     30  C   UNL A   1      36.704  20.167  24.994  1.00  0.00     0.275 C 
BRANCH  30  31
ATOM     31  O   UNL A   1      37.649  21.234  25.170  1.00  0.00    -0.458 OA
BRANCH  31  32
ATOM     32  C   UNL A   1      38.817  20.911  25.762  1.00  0.00     0.338 C 
ATOM     33  O   UNL A   1      39.316  19.800  25.893  1.00  0.00    -0.246 OA
BRANCH  32  34
ATOM     34  C   UNL A   1      39.439  22.142  26.263  1.00  0.00     0.060 A 
ATOM     35  C   UNL A   1      38.897  23.378  25.914  1.00  0.00     0.016 A 
ATOM     36  C   UNL A   1      40.602  22.073  27.024  1.00  0.00     0.016 A 
ATOM     37  C   UNL A   1      39.541  24.556  26.278  1.00  0.00     0.010 A 
ATOM     38  C   UNL A   1      41.213  23.256  27.449  1.00  0.00     0.010 A 
ATOM     39  C   UNL A   1      40.703  24.508  27.057  1.00  0.00    -0.014 A 
BRANCH  39  40
ATOM     40  C   UNL A   1      41.419  25.757  27.422  1.00  0.00     0.031 A 
ATOM     41  C   UNL A   1      40.777  26.737  28.366  1.00  0.00     0.074 A 
ATOM     42  C   UNL A   1      42.639  26.021  26.916  1.00  0.00     0.049 A 
ATOM     43  N   UNL A   1      41.150  27.952  28.679  1.00  0.00    -0.248 NA
ATOM     44  C   UNL A   1      39.546  26.292  29.040  1.00  0.00     0.031 C 
ATOM     45  C   UNL A   1      43.406  25.138  26.036  1.00  0.00     0.029 A 
ATOM     46  N   UNL A   1      43.451  27.118  27.075  1.00  0.00    -0.354 N 
ATOM     47  C   UNL A   1      40.172  28.436  29.540  1.00  0.00     0.074 A 
ATOM     48  C   UNL A   1      39.191  27.384  29.703  1.00  0.00     0.031 C 
ATOM     49  C   UNL A   1      44.586  25.714  25.754  1.00  0.00     0.029 A 
ATOM     50  C   UNL A   1      44.628  27.036  26.371  1.00  0.00     0.049 A 
ATOM     51  H   UNL A   1      43.212  27.889  27.638  1.00  0.00     0.167 HD
ATOM     52  C   UNL A   1      40.096  29.649  30.135  1.00  0.00     0.031 A 
ATOM     53  C   UNL A   1      45.615  27.937  26.209  1.00  0.00     0.031 A 
ATOM     54  C   UNL A   1      41.088  30.682  30.004  1.00  0.00     0.049 A 
ATOM     55  C   UNL A   1      45.489  29.290  26.849  1.00  0.00     0.074 A 
ATOM     56  C   UNL A   1      41.104  31.941  30.578  1.00  0.00     0.029 A 
ATOM     57  N   UNL A   1      42.249  30.567  29.256  1.00  0.00    -0.354 N 
ATOM     58  N   UNL A   1      44.535  29.752  27.620  1.00  0.00    -0.248 NA
ATOM     59  C   UNL A   1      46.569  30.250  26.581  1.00  0.00     0.031 C 
ATOM     60  C   UNL A   1      42.260  32.603  30.148  1.00  0.00     0.029 A 
ATOM     61  C   UNL A   1      42.981  31.738  29.341  1.00  0.00     0.049 A 
ATOM     62  H   UNL A   1      42.512  29.772  28.740  1.00  0.00     0.167 HD
ATOM     63  C   UNL A   1      44.905  31.052  27.938  1.00  0.00     0.074 A 
ATOM     64  C   UNL A   1      46.178  31.298  27.293  1.00  0.00     0.031 C 
ATOM     65  C   UNL A   1      44.245  31.964  28.692  1.00  0.00     0.031 A 
BRANCH  52  66
ATOM     66  C   UNL A   1      38.870  29.942  30.951  1.00  0.00    -0.014 A 
ATOM     67  C   UNL A   1      37.703  30.453  30.365  1.00  0.00     0.009 A 
ATOM     68  C   UNL A   1      38.879  29.670  32.329  1.00  0.00     0.009 A 
ATOM     69  C   UNL A   1      36.577  30.714  31.151  1.00  0.00     0.001 A 
ATOM     70  C   UNL A   1      37.744  29.909  33.106  1.00  0.00     0.001 A 
ATOM     71  C   UNL A   1      36.598  30.438  32.518  1.00  0.00     0.000 A 
ENDBRANCH  52  66
BRANCH  53  72
ATOM     72  C   UNL A   1      46.794  27.603  25.369  1.00  0.00    -0.014 A 
ATOM     73  C   UNL A   1      46.788  27.879  23.993  1.00  0.00     0.009 A 
ATOM     74  C   UNL A   1      47.928  27.004  25.938  1.00  0.00     0.009 A 
ATOM     75  C   UNL A   1      47.892  27.548  23.203  1.00  0.00     0.001 A 
ATOM     76  C   UNL A   1      49.040  26.700  25.150  1.00  0.00     0.001 A 
ATOM     77  C   UNL A   1      49.018  26.966  23.783  1.00  0.00     0.000 A 
ENDBRANCH  53  72
BRANCH  65  78
ATOM     78  C   UNL A   1      44.906  33.298  28.881  1.00  0.00    -0.014 A 
ATOM     79  C   UNL A   1      44.625  34.373  28.024  1.00  0.00     0.009 A 
ATOM     80  C   UNL A   1      45.797  33.488  29.948  1.00  0.00     0.009 A 
ATOM     81  C   UNL A   1      45.248  35.607  28.217  1.00  0.00     0.001 A 
ATOM     82  C   UNL A   1      46.402  34.729  30.150  1.00  0.00     0.001 A 
ATOM     83  C   UNL A   1      46.133  35.785  29.280  1.00  0.00     0.000 A 
ENDBRANCH  65  78
ENDBRANCH  39  40
ENDBRANCH  32  34
ENDBRANCH  31  32
ENDBRANCH  30  31
ENDBRANCH   1  30
TORSDOF 14
ENDMDL
MODEL 2
REMARK VINA RESULT:     -11.7      3.454      4.400
REMARK SMILES C[C@H](C(=O)OCCOC(=O)c1ccc(-c2c3nc(c(-c4ccccc4)c4ccc([nH]4)c(-c4ccccc4)c4nc(c(-c5ccccc5)c5ccc2[nH]5)C=C4)C=C3)cc1)c1ccc2c3cc(Cl)ccc3n(C(=O)c3ccc(Cl)cc3)c2c1
REMARK SMILES IDX 6 1 5 2 3 3 4 4 2 5 1 6 59 7 60 8 81 9 61 10 80 11 62 12
REMARK SMILES IDX 70 13 63 14 69 15 64 16 68 17 65 18 67 19 66 20 71 21 72 22
REMARK SMILES IDX 73 23 74 24 79 25 75 26 78 27 76 28 77 29 7 30 8 31 9 32
REMARK SMILES IDX 10 33 11 34 12 35 58 36 13 37 57 38 14 39 15 40 16 41 51 42
REMARK SMILES IDX 17 43 56 44 50 45 52 46 18 47 55 48 49 49 48 50 19 52 41 53
REMARK SMILES IDX 26 54 40 55 27 56 30 57 39 58 53 59 28 60 29 61 38 63 54 64
REMARK SMILES IDX 31 65 20 66 21 67 25 68 22 69 24 70 23 71 42 72 43 73 47 74
REMARK SMILES IDX 44 75 46 76 45 77 32 78 33 79 37 80 34 81 36 82 35 83
REMARK H PARENT 52 51 30 62
REMARK Flexibility Score: inf
ROOT
ATOM      1  C   UNL A   1      36.840  22.031  24.248  1.00  0.00     0.274 C 
ENDROOT
BRANCH   1   2
ATOM      2  O   UNL A   1      35.402  21.954  24.206  1.00  0.00    -0.462 OA
BRANCH   2   3
ATOM      3  C   UNL A   1      34.719  23.048  23.759  1.00  0.00     0.313 C 
ATOM      4  O   UNL A   1      35.064  23.732  22.804  1.00  0.00    -0.252 OA
BRANCH   3   5
ATOM      5  C   UNL A   1      33.505  23.364  24.644  1.00  0.00     0.126 C 
ATOM      6  C   UNL A   1      33.896  23.481  26.122  1.00  0.00     0.025 C 
BRANCH   5   7
ATOM      7  C   UNL A   1      32.670  24.536  24.133  1.00  0.00    -0.032 A 
ATOM      8  C   UNL A   1      31.964  24.542  22.930  1.00  0.00     0.005 A 
ATOM      9  C   UNL A   1      32.583  25.659  24.970  1.00  0.00     0.032 A 
ATOM     10  C   UNL A   1      31.190  25.654  22.553  1.00  0.00     0.011 A 
ATOM     11  C   UNL A   1      31.803  26.769  24.601  1.00  0.00     0.057 A 
ATOM     12  C   UNL A   1      31.103  26.781  23.402  1.00  0.00     0.008 A 
ATOM     13  N   UNL A   1      31.522  27.949  25.299  1.00  0.00    -0.276 N 
ATOM     14  C   UNL A   1      30.448  28.044  23.311  1.00  0.00     0.009 A 
ATOM     15  C   UNL A   1      30.765  28.778  24.464  1.00  0.00     0.057 A 
ATOM     16  C   UNL A   1      29.649  28.635  22.307  1.00  0.00     0.031 A 
ATOM     17  C   UNL A   1      30.377  30.128  24.582  1.00  0.00     0.029 A 
ATOM     18  C   UNL A   1      29.228  29.956  22.455  1.00  0.00     0.041 A 
ATOM     19  C   UNL A   1      29.596  30.698  23.570  1.00  0.00     0.023 A 
ATOM     20  Cl  UNL A   1      28.274  30.686  21.221  1.00  0.00    -0.084 Cl
BRANCH  13  21
ATOM     21  C   UNL A   1      32.003  28.207  26.610  1.00  0.00     0.262 C 
ATOM     22  O   UNL A   1      31.407  27.636  27.527  1.00  0.00    -0.268 OA
BRANCH  21  23
ATOM     23  C   UNL A   1      33.103  29.121  27.034  1.00  0.00     0.040 A 
ATOM     24  C   UNL A   1      32.754  30.464  27.289  1.00  0.00     0.015 A 
ATOM     25  C   UNL A   1      34.455  28.764  27.071  1.00  0.00     0.015 A 
ATOM     26  C   UNL A   1      33.722  31.416  27.611  1.00  0.00     0.021 A 
ATOM     27  C   UNL A   1      35.424  29.714  27.429  1.00  0.00     0.021 A 
ATOM     28  C   UNL A   1      35.054  31.033  27.695  1.00  0.00     0.041 A 
ATOM     29  Cl  UNL A   1      36.250  32.198  28.104  1.00  0.00    -0.084 Cl
ENDBRANCH  21  23
ENDBRANCH  13  21
ENDBRANCH   5   7
ENDBRANCH   3   5
ENDBRANCH   2   3
ENDBRANCH   1   2
BRANCH   1  30
ATOM     30  C   UNL A   1      37.408  20.780  24.911  1.00  0.00     0.275 C 
BRANCH  30  31
ATOM     31  O   UNL A   1      38.420  21.178  25.849  1.00  0.00    -0.458 OA
BRANCH  31  32
ATOM     32  C   UNL A   1      39.556  20.452  25.851  1.00  0.00     0.338 C 
ATOM     33  O   UNL A   1      39.689  19.256  25.620  1.00  0.00    -0.246 OA
BRANCH  32  34
ATOM     34  C   UNL A   1      40.673  21.339  26.194  1.00  0.00     0.060 A 
ATOM     35  C   UNL A   1      41.979  20.850  26.147  1.00  0.00     0.016 A 
ATOM     36  C   UNL A   1      40.423  22.637  26.628  1.00  0.00     0.016 A 
ATOM     37  C   UNL A   1      43.040  21.637  26.583  1.00  0.00     0.010 A 
ATOM     38  C   UNL A   1      41.495  23.452  27.002  1.00  0.00     0.010 A 
ATOM     39  C   UNL A   1      42.810  22.951  27.008  1.00  0.00    -0.014 A 
BRANCH  39  40
ATOM     40  C   UNL A   1      43.930  23.788  27.510  1.00  0.00     0.031 A 
ATOM     41  C   UNL A   1      44.171  23.902  28.990  1.00  0.00     0.074 A 
ATOM     42  C   UNL A   1      44.733  24.446  26.651  1.00  0.00     0.049 A 
ATOM     43  N   UNL A   1      44.976  24.705  29.639  1.00  0.00    -0.248 NA
ATOM     44  C   UNL A   1      43.394  23.000  29.856  1.00  0.00     0.031 C 
ATOM     45  C   UNL A   1      44.653  24.381  25.191  1.00  0.00     0.029 A 
ATOM     46  N   UNL A   1      45.781  25.300  26.889  1.00  0.00    -0.354 N 
ATOM     47  C   UNL A   1      44.763  24.444  30.987  1.00  0.00     0.074 A 
ATOM     48  C   UNL A   1      43.755  23.408  31.065  1.00  0.00     0.031 C 
ATOM     49  C   UNL A   1      45.626  25.141  24.663  1.00  0.00     0.029 A 
ATOM     50  C   UNL A   1      46.350  25.802  25.744  1.00  0.00     0.049 A 
ATOM     51  H   UNL A   1      46.095  25.531  27.792  1.00  0.00     0.167 HD
ATOM     52  C   UNL A   1      45.350  25.020  32.062  1.00  0.00     0.031 A 
ATOM     53  C   UNL A   1      47.321  26.720  25.579  1.00  0.00     0.031 A 
ATOM     54  C   UNL A   1      46.377  26.023  31.987  1.00  0.00     0.049 A 
ATOM     55  C   UNL A   1      47.930  27.373  26.788  1.00  0.00     0.074 A 
ATOM     56  C   UNL A   1      47.041  26.659  33.021  1.00  0.00     0.029 A 
ATOM     57  N   UNL A   1      46.901  26.525  30.806  1.00  0.00    -0.354 N 
ATOM     58  N   UNL A   1      47.683  27.153  28.056  1.00  0.00    -0.248 NA
ATOM     59  C   UNL A   1      48.938  28.413  26.539  1.00  0.00     0.031 C 
ATOM     60  C   UNL A   1      47.943  27.573  32.467  1.00  0.00     0.029 A 
ATOM     61  C   UNL A   1      47.869  27.473  31.087  1.00  0.00     0.049 A 
ATOM     62  H   UNL A   1      46.625  26.249  29.903  1.00  0.00     0.167 HD
ATOM     63  C   UNL A   1      48.513  28.018  28.756  1.00  0.00     0.074 A 
ATOM     64  C   UNL A   1      49.283  28.752  27.773  1.00  0.00     0.031 C 
ATOM     65  C   UNL A   1      48.623  28.194  30.095  1.00  0.00     0.031 A 
BRANCH  52  66
ATOM     66  C   UNL A   1      44.858  24.608  33.420  1.00  0.00    -0.014 A 
ATOM     67  C   UNL A   1      43.784  25.261  34.042  1.00  0.00     0.009 A 
ATOM     68  C   UNL A   1      45.466  23.523  34.072  1.00  0.00     0.009 A 
ATOM     69  C   UNL A   1      43.348  24.855  35.306  1.00  0.00     0.001 A 
ATOM     70  C   UNL A   1      45.012  23.103  35.324  1.00  0.00     0.001 A 
ATOM     71  C   UNL A   1      43.960  23.774  35.942  1.00  0.00     0.000 A 
ENDBRANCH  52  66
BRANCH  53  72
ATOM     72  C   UNL A   1      47.751  27.110  24.212  1.00  0.00    -0.014 A 
ATOM     73  C   UNL A   1      47.019  28.055  23.478  1.00  0.00     0.009 A 
ATOM     74  C   UNL A   1      48.893  26.535  23.633  1.00  0.00     0.009 A 
ATOM     75  C   UNL A   1      47.415  28.406  22.186  1.00  0.00     0.001 A 
ATOM     76  C   UNL A   1      49.302  26.909  22.351  1.00  0.00     0.001 A 
ATOM     77  C   UNL A   1      48.559  27.838  21.626  1.00  0.00     0.000 A 
ENDBRANCH  53  72
BRANCH  65  78
ATOM     78  C   UNL A   1      49.632  29.198  30.570  1.00  0.00    -0.014 A 
ATOM     79  C   UNL A   1      50.963  28.827  30.817  1.00  0.00     0.009 A 
ATOM     80  C   UNL A   1      49.252  30.538  30.741  1.00  0.00     0.009 A 
ATOM     81  C   UNL A   1      51.887  29.775  31.257  1.00  0.00     0.001 A 
ATOM     82  C   UNL A   1      50.184  31.487  31.160  1.00  0.00     0.001 A 
ATOM     83  C   UNL A   1      51.499  31.105  31.425  1.00  0.00     0.000 A 
ENDBRANCH  65  78
ENDBRANCH  39  40
ENDBRANCH  32  34
ENDBRANCH  31  32
ENDBRANCH  30  31
ENDBRANCH   1  30
TORSDOF 14
ENDMDL
MODEL 3
REMARK VINA RESULT:     -11.5      3.868      8.128
REMARK SMILES C[C@H](C(=O)OCCOC(=O)c1ccc(-c2c3nc(c(-c4ccccc4)c4ccc([nH]4)c(-c4ccccc4)c4nc(c(-c5ccccc5)c5ccc2[nH]5)C=C4)C=C3)cc1)c1ccc2c3cc(Cl)ccc3n(C(=O)c3ccc(Cl)cc3)c2c1
REMARK SMILES IDX 6 1 5 2 3 3 4 4 2 5 1 6 59 7 60 8 81 9 61 10 80 11 62 12
REMARK SMILES IDX 70 13 63 14 69 15 64 16 68 17 65 18 67 19 66 20 71 21 72 22
REMARK SMILES IDX 73 23 74 24 79 25 75 26 78 27 76 28 77 29 7 30 8 31 9 32
REMARK SMILES IDX 10 33 11 34 12 35 58 36 13 37 57 38 14 39 15 40 16 41 51 42
REMARK SMILES IDX 17 43 56 44 50 45 52 46 18 47 55 48 49 49 48 50 19 52 41 53
REMARK SMILES IDX 26 54 40 55 27 56 30 57 39 58 53 59 28 60 29 61 38 63 54 64
REMARK SMILES IDX 31 65 20 66 21 67 25 68 22 69 24 70 23 71 42 72 43 73 47 74
REMARK SMILES IDX 44 75 46 76 45 77 32 78 33 79 37 80 34 81 36 82 35 83
REMARK H PARENT 52 51 30 62
REMARK Flexibility Score: inf
ROOT
ATOM      1  C   UNL A   1      42.716  21.498  25.770  1.00  0.00     0.274 C 
ENDROOT
BRANCH   1   2
ATOM      2  O   UNL A   1      41.562  22.360  25.764  1.00  0.00    -0.462 OA
BRANCH   2   3
ATOM      3  C   UNL A   1      40.792  22.400  26.890  1.00  0.00     0.313 C 
ATOM      4  O   UNL A   1      41.092  21.862  27.949  1.00  0.00    -0.252 OA
BRANCH   3   5
ATOM      5  C   UNL A   1      39.467  23.138  26.652  1.00  0.00     0.126 C 
ATOM      6  C   UNL A   1      39.672  24.422  25.840  1.00  0.00     0.025 C 
BRANCH   5   7
ATOM      7  C   UNL A   1      38.359  22.238  26.110  1.00  0.00    -0.032 A 
ATOM      8  C   UNL A   1      38.528  20.900  25.753  1.00  0.00     0.005 A 
ATOM      9  C   UNL A   1      37.078  22.803  26.018  1.00  0.00     0.032 A 
ATOM     10  C   UNL A   1      37.442  20.133  25.296  1.00  0.00     0.011 A 
ATOM     11  C   UNL A   1      35.988  22.036  25.570  1.00  0.00     0.057 A 
ATOM     12  C   UNL A   1      36.152  20.705  25.208  1.00  0.00     0.008 A 
ATOM     13  N   UNL A   1      34.632  22.367  25.464  1.00  0.00    -0.276 N 
ATOM     14  C   UNL A   1      34.881  20.228  24.775  1.00  0.00     0.009 A 
ATOM     15  C   UNL A   1      33.964  21.284  24.882  1.00  0.00     0.057 A 
ATOM     16  C   UNL A   1      34.455  18.988  24.250  1.00  0.00     0.031 A 
ATOM     17  C   UNL A   1      32.653  21.148  24.381  1.00  0.00     0.029 A 
ATOM     18  C   UNL A   1      33.143  18.847  23.802  1.00  0.00     0.041 A 
ATOM     19  C   UNL A   1      32.256  19.914  23.854  1.00  0.00     0.023 A 
ATOM     20  Cl  UNL A   1      32.629  17.343  23.140  1.00  0.00    -0.084 Cl
BRANCH  13  21
ATOM     21  C   UNL A   1      34.109  23.628  25.856  1.00  0.00     0.262 C 
ATOM     22  O   UNL A   1      33.664  23.697  27.004  1.00  0.00    -0.268 OA
BRANCH  21  23
ATOM     23  C   UNL A   1      33.978  24.874  25.045  1.00  0.00     0.040 A 
ATOM     24  C   UNL A   1      33.862  26.087  25.754  1.00  0.00     0.015 A 
ATOM     25  C   UNL A   1      33.839  24.898  23.654  1.00  0.00     0.015 A 
ATOM     26  C   UNL A   1      33.652  27.297  25.093  1.00  0.00     0.021 A 
ATOM     27  C   UNL A   1      33.663  26.120  22.985  1.00  0.00     0.021 A 
ATOM     28  C   UNL A   1      33.569  27.311  23.707  1.00  0.00     0.041 A 
ATOM     29  Cl  UNL A   1      33.324  28.800  22.884  1.00  0.00    -0.084 Cl
ENDBRANCH  21  23
ENDBRANCH  13  21
ENDBRANCH   5   7
ENDBRANCH   3   5
ENDBRANCH   2   3
ENDBRANCH   1   2
BRANCH   1  30
ATOM     30  C   UNL A   1      43.856  22.153  24.996  1.00  0.00     0.275 C 
BRANCH  30  31
ATOM     31  O   UNL A   1      43.472  23.496  24.663  1.00  0.00    -0.458 OA
BRANCH  31  32
ATOM     32  C   UNL A   1      44.331  24.472  25.019  1.00  0.00     0.338 C 
ATOM     33  O   UNL A   1      45.473  24.658  24.617  1.00  0.00    -0.246 OA
BRANCH  32  34
ATOM     34  C   UNL A   1      43.675  25.326  26.017  1.00  0.00     0.060 A 
ATOM     35  C   UNL A   1      43.680  26.710  25.847  1.00  0.00     0.016 A 
ATOM     36  C   UNL A   1      43.115  24.759  27.157  1.00  0.00     0.016 A 
ATOM     37  C   UNL A   1      43.171  27.542  26.839  1.00  0.00     0.010 A 
ATOM     38  C   UNL A   1      42.542  25.590  28.123  1.00  0.00     0.010 A 
ATOM     39  C   UNL A   1      42.588  26.989  27.986  1.00  0.00    -0.014 A 
BRANCH  39  40
ATOM     40  C   UNL A   1      42.074  27.868  29.068  1.00  0.00     0.031 A 
ATOM     41  C   UNL A   1      42.857  28.015  30.344  1.00  0.00     0.074 A 
ATOM     42  C   UNL A   1      40.913  28.534  28.917  1.00  0.00     0.049 A 
ATOM     43  N   UNL A   1      42.509  28.590  31.468  1.00  0.00    -0.248 NA
ATOM     44  C   UNL A   1      44.208  27.430  30.360  1.00  0.00     0.031 C 
ATOM     45  C   UNL A   1      40.079  28.530  27.715  1.00  0.00     0.029 A 
ATOM     46  N   UNL A   1      40.235  29.349  29.790  1.00  0.00    -0.354 N 
ATOM     47  C   UNL A   1      43.572  28.386  32.340  1.00  0.00     0.074 A 
ATOM     48  C   UNL A   1      44.578  27.639  31.616  1.00  0.00     0.031 C 
ATOM     49  C   UNL A   1      39.016  29.326  27.915  1.00  0.00     0.029 A 
ATOM     50  C   UNL A   1      39.055  29.835  29.282  1.00  0.00     0.049 A 
ATOM     51  H   UNL A   1      40.562  29.565  30.693  1.00  0.00     0.167 HD
ATOM     52  C   UNL A   1      43.695  28.782  33.629  1.00  0.00     0.031 A 
ATOM     53  C   UNL A   1      38.093  30.577  29.861  1.00  0.00     0.031 A 
ATOM     54  C   UNL A   1      42.713  29.555  34.338  1.00  0.00     0.049 A 
ATOM     55  C   UNL A   1      38.235  30.971  31.304  1.00  0.00     0.074 A 
ATOM     56  C   UNL A   1      42.753  30.014  35.643  1.00  0.00     0.029 A 
ATOM     57  N   UNL A   1      41.518  29.999  33.794  1.00  0.00    -0.354 N 
ATOM     58  N   UNL A   1      39.222  30.729  32.131  1.00  0.00    -0.248 NA
ATOM     59  C   UNL A   1      37.120  31.725  31.895  1.00  0.00     0.031 C 
ATOM     60  C   UNL A   1      41.564  30.706  35.901  1.00  0.00     0.029 A 
ATOM     61  C   UNL A   1      40.805  30.713  34.742  1.00  0.00     0.049 A 
ATOM     62  H   UNL A   1      41.220  29.830  32.872  1.00  0.00     0.167 HD
ATOM     63  C   UNL A   1      38.853  31.311  33.337  1.00  0.00     0.074 A 
ATOM     64  C   UNL A   1      37.562  31.932  33.128  1.00  0.00     0.031 C 
ATOM     65  C   UNL A   1      39.522  31.323  34.515  1.00  0.00     0.031 A 
BRANCH  52  66
ATOM     66  C   UNL A   1      44.924  28.341  34.371  1.00  0.00    -0.014 A 
ATOM     67  C   UNL A   1      44.907  27.230  35.225  1.00  0.00     0.009 A 
ATOM     68  C   UNL A   1      46.128  29.040  34.184  1.00  0.00     0.009 A 
ATOM     69  C   UNL A   1      46.067  26.843  35.902  1.00  0.00     0.001 A 
ATOM     70  C   UNL A   1      47.291  28.637  34.842  1.00  0.00     0.001 A 
ATOM     71  C   UNL A   1      47.258  27.545  35.706  1.00  0.00     0.000 A 
ENDBRANCH  52  66
BRANCH  53  72
ATOM     72  C   UNL A   1      36.885  30.962  29.087  1.00  0.00    -0.014 A 
ATOM     73  C   UNL A   1      36.678  32.296  28.706  1.00  0.00     0.009 A 
ATOM     74  C   UNL A   1      35.931  29.997  28.728  1.00  0.00     0.009 A 
ATOM     75  C   UNL A   1      35.533  32.658  27.994  1.00  0.00     0.001 A 
ATOM     76  C   UNL A   1      34.801  30.357  27.991  1.00  0.00     0.001 A 
ATOM     77  C   UNL A   1      34.599  31.687  27.632  1.00  0.00     0.000 A 
ENDBRANCH  53  72
BRANCH  65  78
ATOM     78  C   UNL A   1      38.879  32.056  35.656  1.00  0.00    -0.014 A 
ATOM     79  C   UNL A   1      38.106  31.376  36.610  1.00  0.00     0.009 A 
ATOM     80  C   UNL A   1      39.076  33.438  35.794  1.00  0.00     0.009 A 
ATOM     81  C   UNL A   1      37.518  32.075  37.665  1.00  0.00     0.001 A 
ATOM     82  C   UNL A   1      38.504  34.130  36.862  1.00  0.00     0.001 A 
ATOM     83  C   UNL A   1      37.719  33.449  37.792  1.00  0.00     0.000 A 
ENDBRANCH  65  78
ENDBRANCH  39  40
ENDBRANCH  32  34
ENDBRANCH  31  32
ENDBRANCH  30  31
ENDBRANCH   1  30
TORSDOF 14
ENDMDL
