MODEL 1
REMARK VINA RESULT:     -10.1      0.000      0.000
REMARK SMILES O=C(NCCC1=CCCCC1)C1=C(C(=O)OCCOC(=O)c2ccc(-c3c4nc(c(-c5ccccc5)c5ccc([nH]5)c(-c5ccccc5)c5nc(c(-c6ccccc6)c6ccc3[nH]6)C=C5)C=C4)cc2)CCCC1
REMARK SMILES IDX 17 1 16 2 14 3 15 4 13 5 12 6 73 7 70 8 72 9 71 10 2 11 1 12
REMARK SMILES IDX 3 13 4 15 5 16 6 17 7 18 11 19 8 20 10 21 9 22 18 23 19 24
REMARK SMILES IDX 20 25 21 26 22 27 23 28 69 29 24 30 68 31 25 32 26 33 27 34
REMARK SMILES IDX 62 35 28 36 67 37 61 38 63 39 29 40 66 41 60 42 59 43 30 45
REMARK SMILES IDX 52 46 37 47 51 48 38 49 41 50 50 51 64 52 39 53 40 54 49 56
REMARK SMILES IDX 65 57 42 58 31 59 32 60 36 61 33 62 35 63 34 64 53 65 54 66
REMARK SMILES IDX 58 67 55 68 57 69 56 70 43 71 44 72 48 73 45 74 47 75 46 76
REMARK H PARENT 3 14 63 44 41 55
REMARK Flexibility Score: inf
ROOT
ATOM      1  C   UNL A   1      35.337  23.713  24.532  1.00  0.00     0.275 C 
ENDROOT
BRANCH   1   2
ATOM      2  O   UNL A   1      34.649  24.964  24.343  1.00  0.00    -0.459 OA
BRANCH   2   3
ATOM      3  C   UNL A   1      33.998  25.116  23.168  1.00  0.00     0.334 C 
ATOM      4  O   UNL A   1      34.021  24.341  22.223  1.00  0.00    -0.247 OA
BRANCH   3   5
ATOM      5  C   UNL A   1      33.206  26.371  23.134  1.00  0.00     0.046 C 
ATOM      6  C   UNL A   1      31.910  26.424  23.503  1.00  0.00     0.027 C 
ATOM      7  C   UNL A   1      31.089  27.688  23.413  1.00  0.00     0.042 C 
ATOM      8  C   UNL A   1      33.977  27.613  22.763  1.00  0.00     0.044 C 
ATOM      9  C   UNL A   1      31.801  28.841  22.702  1.00  0.00     0.005 C 
ATOM     10  C   UNL A   1      33.261  28.914  23.122  1.00  0.00     0.005 C 
BRANCH   6  11
ATOM     11  C   UNL A   1      31.153  25.244  23.992  1.00  0.00     0.247 C 
ATOM     12  O   UNL A   1      30.453  24.594  23.222  1.00  0.00    -0.270 OA
ATOM     13  N   UNL A   1      31.179  24.935  25.317  1.00  0.00    -0.352 N 
ATOM     14  H   UNL A   1      30.631  24.156  25.566  1.00  0.00     0.163 HD
BRANCH  13  15
ATOM     15  C   UNL A   1      31.879  25.563  26.432  1.00  0.00     0.120 C 
BRANCH  15  16
ATOM     16  C   UNL A   1      31.259  26.901  26.845  1.00  0.00     0.052 C 
BRANCH  16  17
ATOM     17  C   UNL A   1      32.253  28.043  26.856  1.00  0.00    -0.072 C 
ATOM     18  C   UNL A   1      33.563  27.824  26.635  1.00  0.00    -0.028 C 
ATOM     19  C   UNL A   1      31.712  29.428  27.133  1.00  0.00     0.031 C 
ATOM     20  C   UNL A   1      34.605  28.902  26.657  1.00  0.00     0.027 C 
ATOM     21  C   UNL A   1      32.712  30.550  26.833  1.00  0.00     0.005 C 
ATOM     22  C   UNL A   1      34.113  30.189  27.314  1.00  0.00     0.004 C 
ENDBRANCH  16  17
ENDBRANCH  15  16
ENDBRANCH  13  15
ENDBRANCH   6  11
ENDBRANCH   3   5
ENDBRANCH   2   3
ENDBRANCH   1   2
BRANCH   1  23
ATOM     23  C   UNL A   1      36.315  23.776  25.703  1.00  0.00     0.275 C 
BRANCH  23  24
ATOM     24  O   UNL A   1      37.669  23.785  25.219  1.00  0.00    -0.458 OA
BRANCH  24  25
ATOM     25  C   UNL A   1      38.584  23.283  26.076  1.00  0.00     0.338 C 
ATOM     26  O   UNL A   1      38.909  22.120  26.238  1.00  0.00    -0.246 OA
BRANCH  25  27
ATOM     27  C   UNL A   1      39.259  24.391  26.759  1.00  0.00     0.060 A 
ATOM     28  C   UNL A   1      38.963  24.600  28.105  1.00  0.00     0.016 A 
ATOM     29  C   UNL A   1      40.042  25.301  26.056  1.00  0.00     0.016 A 
ATOM     30  C   UNL A   1      39.389  25.749  28.753  1.00  0.00     0.010 A 
ATOM     31  C   UNL A   1      40.511  26.440  26.717  1.00  0.00     0.010 A 
ATOM     32  C   UNL A   1      40.156  26.686  28.058  1.00  0.00    -0.014 A 
BRANCH  32  33
ATOM     33  C   UNL A   1      40.485  27.983  28.692  1.00  0.00     0.031 A 
ATOM     34  C   UNL A   1      41.867  28.192  29.237  1.00  0.00     0.074 A 
ATOM     35  C   UNL A   1      39.579  28.975  28.745  1.00  0.00     0.049 A 
ATOM     36  N   UNL A   1      42.312  29.135  30.024  1.00  0.00    -0.248 NA
ATOM     37  C   UNL A   1      42.883  27.198  28.848  1.00  0.00     0.031 C 
ATOM     38  C   UNL A   1      38.243  28.942  28.149  1.00  0.00     0.029 A 
ATOM     39  N   UNL A   1      39.653  30.211  29.334  1.00  0.00    -0.354 N 
ATOM     40  C   UNL A   1      43.640  28.817  30.274  1.00  0.00     0.074 A 
ATOM     41  C   UNL A   1      43.936  27.605  29.543  1.00  0.00     0.031 C 
ATOM     42  C   UNL A   1      37.625  30.108  28.397  1.00  0.00     0.029 A 
ATOM     43  C   UNL A   1      38.490  30.933  29.234  1.00  0.00     0.049 A 
ATOM     44  H   UNL A   1      40.461  30.547  29.784  1.00  0.00     0.167 HD
ATOM     45  C   UNL A   1      44.525  29.472  31.061  1.00  0.00     0.031 A 
ATOM     46  C   UNL A   1      38.144  32.104  29.800  1.00  0.00     0.031 A 
ATOM     47  C   UNL A   1      44.226  30.691  31.760  1.00  0.00     0.049 A 
ATOM     48  C   UNL A   1      39.121  32.786  30.717  1.00  0.00     0.074 A 
ATOM     49  C   UNL A   1      45.031  31.417  32.619  1.00  0.00     0.029 A 
ATOM     50  N   UNL A   1      43.024  31.374  31.659  1.00  0.00    -0.354 N 
ATOM     51  N   UNL A   1      40.339  32.424  31.041  1.00  0.00    -0.248 NA
ATOM     52  C   UNL A   1      38.666  34.023  31.364  1.00  0.00     0.031 C 
ATOM     53  C   UNL A   1      44.305  32.531  33.056  1.00  0.00     0.029 A 
ATOM     54  C   UNL A   1      43.064  32.515  32.439  1.00  0.00     0.049 A 
ATOM     55  H   UNL A   1      42.256  31.089  31.113  1.00  0.00     0.167 HD
ATOM     56  C   UNL A   1      40.801  33.393  31.920  1.00  0.00     0.074 A 
ATOM     57  C   UNL A   1      39.737  34.367  32.067  1.00  0.00     0.031 C 
ATOM     58  C   UNL A   1      41.995  33.470  32.555  1.00  0.00     0.031 A 
BRANCH  45  59
ATOM     59  C   UNL A   1      45.873  28.843  31.249  1.00  0.00    -0.014 A 
ATOM     60  C   UNL A   1      46.131  27.958  32.306  1.00  0.00     0.009 A 
ATOM     61  C   UNL A   1      46.903  29.141  30.343  1.00  0.00     0.009 A 
ATOM     62  C   UNL A   1      47.404  27.405  32.468  1.00  0.00     0.001 A 
ATOM     63  C   UNL A   1      48.168  28.572  30.495  1.00  0.00     0.001 A 
ATOM     64  C   UNL A   1      48.419  27.710  31.561  1.00  0.00     0.000 A 
ENDBRANCH  45  59
BRANCH  46  65
ATOM     65  C   UNL A   1      36.791  32.670  29.570  1.00  0.00    -0.014 A 
ATOM     66  C   UNL A   1      36.526  33.452  28.435  1.00  0.00     0.009 A 
ATOM     67  C   UNL A   1      35.755  32.428  30.485  1.00  0.00     0.009 A 
ATOM     68  C   UNL A   1      35.254  33.991  28.231  1.00  0.00     0.001 A 
ATOM     69  C   UNL A   1      34.478  32.947  30.265  1.00  0.00     0.001 A 
ATOM     70  C   UNL A   1      34.229  33.734  29.141  1.00  0.00     0.000 A 
ENDBRANCH  46  65
BRANCH  58  71
ATOM     71  C   UNL A   1      42.225  34.666  33.429  1.00  0.00    -0.014 A 
ATOM     72  C   UNL A   1      42.839  35.822  32.926  1.00  0.00     0.009 A 
ATOM     73  C   UNL A   1      41.775  34.648  34.758  1.00  0.00     0.009 A 
ATOM     74  C   UNL A   1      43.018  36.935  33.749  1.00  0.00     0.001 A 
ATOM     75  C   UNL A   1      41.940  35.768  35.572  1.00  0.00     0.001 A 
ATOM     76  C   UNL A   1      42.566  36.908  35.069  1.00  0.00     0.000 A 
ENDBRANCH  58  71
ENDBRANCH  32  33
ENDBRANCH  25  27
ENDBRANCH  24  25
ENDBRANCH  23  24
ENDBRANCH   1  23
TORSDOF 15
ENDMDL
MODEL 2
REMARK VINA RESULT:     -10.0      3.358      8.070
REMARK SMILES O=C(NCCC1=CCCCC1)C1=C(C(=O)OCCOC(=O)c2ccc(-c3c4nc(c(-c5ccccc5)c5ccc([nH]5)c(-c5ccccc5)c5nc(c(-c6ccccc6)c6ccc3[nH]6)C=C5)C=C4)cc2)CCCC1
REMARK SMILES IDX 17 1 16 2 14 3 15 4 13 5 12 6 73 7 70 8 72 9 71 10 2 11 1 12
REMARK SMILES IDX 3 13 4 15 5 16 6 17 7 18 11 19 8 20 10 21 9 22 18 23 19 24
REMARK SMILES IDX 20 25 21 26 22 27 23 28 69 29 24 30 68 31 25 32 26 33 27 34
REMARK SMILES IDX 62 35 28 36 67 37 61 38 63 39 29 40 66 41 60 42 59 43 30 45
REMARK SMILES IDX 52 46 37 47 51 48 38 49 41 50 50 51 64 52 39 53 40 54 49 56
REMARK SMILES IDX 65 57 42 58 31 59 32 60 36 61 33 62 35 63 34 64 53 65 54 66
REMARK SMILES IDX 58 67 55 68 57 69 56 70 43 71 44 72 48 73 45 74 47 75 46 76
REMARK H PARENT 3 14 63 44 41 55
REMARK Flexibility Score: inf
ROOT
ATOM      1  C   UNL A   1      33.844  29.703  26.990  1.00  0.00     0.275 C 
ENDROOT
BRANCH   1   2
ATOM      2  O   UNL A   1      33.260  29.731  25.673  1.00  0.00    -0.459 OA
BRANCH   2   3
ATOM      3  C   UNL A   1      31.914  29.844  25.620  1.00  0.00     0.334 C 
ATOM      4  O   UNL A   1      31.267  30.870  25.779  1.00  0.00    -0.247 OA
BRANCH   3   5
ATOM      5  C   UNL A   1      31.262  28.543  25.326  1.00  0.00     0.046 C 
ATOM      6  C   UNL A   1      30.852  28.198  24.088  1.00  0.00     0.027 C 
ATOM      7  C   UNL A   1      30.137  26.900  23.799  1.00  0.00     0.042 C 
ATOM      8  C   UNL A   1      31.187  27.581  26.484  1.00  0.00     0.044 C 
ATOM      9  C   UNL A   1      29.763  26.106  25.054  1.00  0.00     0.005 C 
ATOM     10  C   UNL A   1      30.893  26.140  26.070  1.00  0.00     0.005 C 
BRANCH   6  11
ATOM     11  C   UNL A   1      31.024  29.072  22.900  1.00  0.00     0.247 C 
ATOM     12  O   UNL A   1      30.077  29.725  22.468  1.00  0.00    -0.270 OA
ATOM     13  N   UNL A   1      32.216  29.083  22.244  1.00  0.00    -0.352 N 
ATOM     14  H   UNL A   1      32.241  29.667  21.452  1.00  0.00     0.163 HD
BRANCH  13  15
ATOM     15  C   UNL A   1      33.463  28.377  22.515  1.00  0.00     0.120 C 
BRANCH  15  16
ATOM     16  C   UNL A   1      33.441  26.926  22.027  1.00  0.00     0.052 C 
BRANCH  16  17
ATOM     17  C   UNL A   1      33.539  25.915  23.151  1.00  0.00    -0.072 C 
ATOM     18  C   UNL A   1      34.083  26.248  24.337  1.00  0.00    -0.028 C 
ATOM     19  C   UNL A   1      33.008  24.526  22.879  1.00  0.00     0.031 C 
ATOM     20  C   UNL A   1      34.234  25.293  25.482  1.00  0.00     0.027 C 
ATOM     21  C   UNL A   1      32.867  23.664  24.138  1.00  0.00     0.005 C 
ATOM     22  C   UNL A   1      34.065  23.834  25.065  1.00  0.00     0.004 C 
ENDBRANCH  16  17
ENDBRANCH  15  16
ENDBRANCH  13  15
ENDBRANCH   6  11
ENDBRANCH   3   5
ENDBRANCH   2   3
ENDBRANCH   1   2
BRANCH   1  23
ATOM     23  C   UNL A   1      33.820  31.081  27.648  1.00  0.00     0.275 C 
BRANCH  23  24
ATOM     24  O   UNL A   1      35.161  31.549  27.870  1.00  0.00    -0.458 OA
BRANCH  24  25
ATOM     25  C   UNL A   1      35.667  31.278  29.092  1.00  0.00     0.338 C 
ATOM     26  O   UNL A   1      35.219  31.590  30.181  1.00  0.00    -0.246 OA
BRANCH  25  27
ATOM     27  C   UNL A   1      36.845  30.416  28.942  1.00  0.00     0.060 A 
ATOM     28  C   UNL A   1      37.441  29.926  30.102  1.00  0.00     0.016 A 
ATOM     29  C   UNL A   1      37.443  30.225  27.701  1.00  0.00     0.016 A 
ATOM     30  C   UNL A   1      38.674  29.293  30.050  1.00  0.00     0.010 A 
ATOM     31  C   UNL A   1      38.665  29.548  27.639  1.00  0.00     0.010 A 
ATOM     32  C   UNL A   1      39.303  29.111  28.817  1.00  0.00    -0.014 A 
BRANCH  32  33
ATOM     33  C   UNL A   1      40.681  28.577  28.766  1.00  0.00     0.031 A 
ATOM     34  C   UNL A   1      41.828  29.504  29.047  1.00  0.00     0.074 A 
ATOM     35  C   UNL A   1      40.909  27.276  28.511  1.00  0.00     0.049 A 
ATOM     36  N   UNL A   1      43.106  29.325  28.839  1.00  0.00    -0.248 NA
ATOM     37  C   UNL A   1      41.486  30.810  29.636  1.00  0.00     0.031 C 
ATOM     38  C   UNL A   1      39.881  26.249  28.338  1.00  0.00     0.029 A 
ATOM     39  N   UNL A   1      42.090  26.598  28.356  1.00  0.00    -0.354 N 
ATOM     40  C   UNL A   1      43.714  30.516  29.212  1.00  0.00     0.074 A 
ATOM     41  C   UNL A   1      42.670  31.404  29.676  1.00  0.00     0.031 C 
ATOM     42  C   UNL A   1      40.477  25.069  28.106  1.00  0.00     0.029 A 
ATOM     43  C   UNL A   1      41.921  25.274  28.037  1.00  0.00     0.049 A 
ATOM     44  H   UNL A   1      42.973  27.020  28.462  1.00  0.00     0.167 HD
ATOM     45  C   UNL A   1      45.026  30.842  29.154  1.00  0.00     0.031 A 
ATOM     46  C   UNL A   1      42.826  24.345  27.676  1.00  0.00     0.031 A 
ATOM     47  C   UNL A   1      46.056  29.941  28.717  1.00  0.00     0.049 A 
ATOM     48  C   UNL A   1      44.271  24.743  27.560  1.00  0.00     0.074 A 
ATOM     49  C   UNL A   1      47.411  30.177  28.575  1.00  0.00     0.029 A 
ATOM     50  N   UNL A   1      45.839  28.616  28.370  1.00  0.00    -0.354 N 
ATOM     51  N   UNL A   1      44.829  25.904  27.807  1.00  0.00    -0.248 NA
ATOM     52  C   UNL A   1      45.205  23.710  27.094  1.00  0.00     0.031 C 
ATOM     53  C   UNL A   1      48.012  28.998  28.120  1.00  0.00     0.029 A 
ATOM     54  C   UNL A   1      47.035  28.020  28.015  1.00  0.00     0.049 A 
ATOM     55  H   UNL A   1      44.963  28.167  28.375  1.00  0.00     0.167 HD
ATOM     56  C   UNL A   1      46.180  25.739  27.537  1.00  0.00     0.074 A 
ATOM     57  C   UNL A   1      46.360  24.362  27.122  1.00  0.00     0.031 C 
ATOM     58  C   UNL A   1      47.183  26.646  27.619  1.00  0.00     0.031 A 
BRANCH  45  59
ATOM     59  C   UNL A   1      45.401  32.248  29.514  1.00  0.00    -0.014 A 
ATOM     60  C   UNL A   1      45.783  32.597  30.817  1.00  0.00     0.009 A 
ATOM     61  C   UNL A   1      45.375  33.242  28.522  1.00  0.00     0.009 A 
ATOM     62  C   UNL A   1      46.106  33.921  31.126  1.00  0.00     0.001 A 
ATOM     63  C   UNL A   1      45.718  34.559  28.829  1.00  0.00     0.001 A 
ATOM     64  C   UNL A   1      46.076  34.899  30.132  1.00  0.00     0.000 A 
ENDBRANCH  45  59
BRANCH  46  65
ATOM     65  C   UNL A   1      42.383  22.970  27.333  1.00  0.00    -0.014 A 
ATOM     66  C   UNL A   1      42.107  22.618  26.004  1.00  0.00     0.009 A 
ATOM     67  C   UNL A   1      42.236  22.000  28.337  1.00  0.00     0.009 A 
ATOM     68  C   UNL A   1      41.679  21.326  25.689  1.00  0.00     0.001 A 
ATOM     69  C   UNL A   1      41.834  20.702  28.017  1.00  0.00     0.001 A 
ATOM     70  C   UNL A   1      41.549  20.368  26.694  1.00  0.00     0.000 A 
ENDBRANCH  46  65
BRANCH  58  71
ATOM     71  C   UNL A   1      48.564  26.164  27.293  1.00  0.00    -0.014 A 
ATOM     72  C   UNL A   1      49.100  26.320  26.006  1.00  0.00     0.009 A 
ATOM     73  C   UNL A   1      49.353  25.592  28.302  1.00  0.00     0.009 A 
ATOM     74  C   UNL A   1      50.399  25.890  25.731  1.00  0.00     0.001 A 
ATOM     75  C   UNL A   1      50.657  25.179  28.028  1.00  0.00     0.001 A 
ATOM     76  C   UNL A   1      51.177  25.323  26.742  1.00  0.00     0.000 A 
ENDBRANCH  58  71
ENDBRANCH  32  33
ENDBRANCH  25  27
ENDBRANCH  24  25
ENDBRANCH  23  24
ENDBRANCH   1  23
TORSDOF 15
ENDMDL
MODEL 3
REMARK VINA RESULT:     -10.0      3.350      4.721
REMARK SMILES O=C(NCCC1=CCCCC1)C1=C(C(=O)OCCOC(=O)c2ccc(-c3c4nc(c(-c5ccccc5)c5ccc([nH]5)c(-c5ccccc5)c5nc(c(-c6ccccc6)c6ccc3[nH]6)C=C5)C=C4)cc2)CCCC1
REMARK SMILES IDX 17 1 16 2 14 3 15 4 13 5 12 6 73 7 70 8 72 9 71 10 2 11 1 12
REMARK SMILES IDX 3 13 4 15 5 16 6 17 7 18 11 19 8 20 10 21 9 22 18 23 19 24
REMARK SMILES IDX 20 25 21 26 22 27 23 28 69 29 24 30 68 31 25 32 26 33 27 34
REMARK SMILES IDX 62 35 28 36 67 37 61 38 63 39 29 40 66 41 60 42 59 43 30 45
REMARK SMILES IDX 52 46 37 47 51 48 38 49 41 50 50 51 64 52 39 53 40 54 49 56
REMARK SMILES IDX 65 57 42 58 31 59 32 60 36 61 33 62 35 63 34 64 53 65 54 66
REMARK SMILES IDX 58 67 55 68 57 69 56 70 43 71 44 72 48 73 45 74 47 75 46 76
REMARK H PARENT 3 14 63 44 41 55
REMARK Flexibility Score: inf
ROOT
ATOM      1  C   UNL A   1      37.317  19.799  25.002  1.00  0.00     0.275 C 
ENDROOT
BRANCH   1   2
ATOM      2  O   UNL A   1      37.081  21.079  24.382  1.00  0.00    -0.459 OA
BRANCH   2   3
ATOM      3  C   UNL A   1      36.225  21.905  25.027  1.00  0.00     0.334 C 
ATOM      4  O   UNL A   1      36.401  22.416  26.123  1.00  0.00    -0.247 OA
BRANCH   3   5
ATOM      5  C   UNL A   1      34.994  22.151  24.234  1.00  0.00     0.046 C 
ATOM      6  C   UNL A   1      33.839  21.493  24.461  1.00  0.00     0.027 C 
ATOM      7  C   UNL A   1      32.604  21.701  23.617  1.00  0.00     0.042 C 
ATOM      8  C   UNL A   1      35.087  23.268  23.225  1.00  0.00     0.044 C 
ATOM      9  C   UNL A   1      32.836  22.579  22.385  1.00  0.00     0.005 C 
ATOM     10  C   UNL A   1      33.730  23.761  22.725  1.00  0.00     0.005 C 
BRANCH   6  11
ATOM     11  C   UNL A   1      33.678  20.475  25.529  1.00  0.00     0.247 C 
ATOM     12  O   UNL A   1      33.664  19.279  25.249  1.00  0.00    -0.270 OA
ATOM     13  N   UNL A   1      33.465  20.878  26.811  1.00  0.00    -0.352 N 
ATOM     14  H   UNL A   1      33.341  20.144  27.456  1.00  0.00     0.163 HD
BRANCH  13  15
ATOM     15  C   UNL A   1      33.387  22.213  27.394  1.00  0.00     0.120 C 
BRANCH  15  16
ATOM     16  C   UNL A   1      32.041  22.895  27.138  1.00  0.00     0.052 C 
BRANCH  16  17
ATOM     17  C   UNL A   1      32.159  24.160  26.314  1.00  0.00    -0.072 C 
ATOM     18  C   UNL A   1      33.326  24.824  26.226  1.00  0.00    -0.028 C 
ATOM     19  C   UNL A   1      30.911  24.643  25.608  1.00  0.00     0.031 C 
ATOM     20  C   UNL A   1      33.508  26.094  25.450  1.00  0.00     0.027 C 
ATOM     21  C   UNL A   1      31.178  25.738  24.569  1.00  0.00     0.005 C 
ATOM     22  C   UNL A   1      32.184  26.761  25.086  1.00  0.00     0.004 C 
ENDBRANCH  16  17
ENDBRANCH  15  16
ENDBRANCH  13  15
ENDBRANCH   6  11
ENDBRANCH   3   5
ENDBRANCH   2   3
ENDBRANCH   1   2
BRANCH   1  23
ATOM     23  C   UNL A   1      38.788  19.610  25.365  1.00  0.00     0.275 C 
BRANCH  23  24
ATOM     24  O   UNL A   1      39.379  20.872  25.720  1.00  0.00    -0.458 OA
BRANCH  24  25
ATOM     25  C   UNL A   1      40.170  20.845  26.813  1.00  0.00     0.338 C 
ATOM     26  O   UNL A   1      40.683  19.880  27.351  1.00  0.00    -0.246 OA
BRANCH  25  27
ATOM     27  C   UNL A   1      40.437  22.221  27.245  1.00  0.00     0.060 A 
ATOM     28  C   UNL A   1      39.692  23.241  26.658  1.00  0.00     0.016 A 
ATOM     29  C   UNL A   1      41.503  22.516  28.088  1.00  0.00     0.016 A 
ATOM     30  C   UNL A   1      40.037  24.571  26.851  1.00  0.00     0.010 A 
ATOM     31  C   UNL A   1      41.827  23.856  28.322  1.00  0.00     0.010 A 
ATOM     32  C   UNL A   1      41.118  24.888  27.675  1.00  0.00    -0.014 A 
BRANCH  32  33
ATOM     33  C   UNL A   1      41.587  26.288  27.766  1.00  0.00     0.031 A 
ATOM     34  C   UNL A   1      42.847  26.677  27.049  1.00  0.00     0.074 A 
ATOM     35  C   UNL A   1      40.882  27.210  28.445  1.00  0.00     0.049 A 
ATOM     36  N   UNL A   1      43.564  27.763  27.168  1.00  0.00    -0.248 NA
ATOM     37  C   UNL A   1      43.371  25.708  26.071  1.00  0.00     0.031 C 
ATOM     38  C   UNL A   1      39.585  26.989  29.086  1.00  0.00     0.029 A 
ATOM     39  N   UNL A   1      41.165  28.526  28.706  1.00  0.00    -0.354 N 
ATOM     40  C   UNL A   1      44.655  27.582  26.329  1.00  0.00     0.074 A 
ATOM     41  C   UNL A   1      44.498  26.293  25.692  1.00  0.00     0.031 C 
ATOM     42  C   UNL A   1      39.181  28.134  29.661  1.00  0.00     0.029 A 
ATOM     43  C   UNL A   1      40.226  29.140  29.496  1.00  0.00     0.049 A 
ATOM     44  H   UNL A   1      41.965  28.985  28.361  1.00  0.00     0.167 HD
ATOM     45  C   UNL A   1      45.703  28.414  26.125  1.00  0.00     0.031 A 
ATOM     46  C   UNL A   1      40.234  30.359  30.066  1.00  0.00     0.031 A 
ATOM     47  C   UNL A   1      45.834  29.705  26.743  1.00  0.00     0.049 A 
ATOM     48  C   UNL A   1      41.433  31.244  29.875  1.00  0.00     0.074 A 
ATOM     49  C   UNL A   1      46.872  30.612  26.644  1.00  0.00     0.029 A 
ATOM     50  N   UNL A   1      44.874  30.277  27.564  1.00  0.00    -0.354 N 
ATOM     51  N   UNL A   1      42.516  31.024  29.169  1.00  0.00    -0.248 NA
ATOM     52  C   UNL A   1      41.422  32.534  30.578  1.00  0.00     0.031 C 
ATOM     53  C   UNL A   1      46.550  31.728  27.424  1.00  0.00     0.029 A 
ATOM     54  C   UNL A   1      45.295  31.527  27.978  1.00  0.00     0.049 A 
ATOM     55  H   UNL A   1      44.020  29.856  27.815  1.00  0.00     0.167 HD
ATOM     56  C   UNL A   1      43.310  32.151  29.333  1.00  0.00     0.074 A 
ATOM     57  C   UNL A   1      42.577  33.059  30.193  1.00  0.00     0.031 C 
ATOM     58  C   UNL A   1      44.538  32.411  28.824  1.00  0.00     0.031 A 
BRANCH  45  59
ATOM     59  C   UNL A   1      46.812  27.919  25.246  1.00  0.00    -0.014 A 
ATOM     60  C   UNL A   1      47.882  27.173  25.761  1.00  0.00     0.009 A 
ATOM     61  C   UNL A   1      46.778  28.203  23.871  1.00  0.00     0.009 A 
ATOM     62  C   UNL A   1      48.912  26.744  24.919  1.00  0.00     0.001 A 
ATOM     63  C   UNL A   1      47.797  27.756  23.029  1.00  0.00     0.001 A 
ATOM     64  C   UNL A   1      48.867  27.034  23.555  1.00  0.00     0.000 A 
ENDBRANCH  45  59
BRANCH  46  65
ATOM     65  C   UNL A   1      39.100  30.785  30.926  1.00  0.00    -0.014 A 
ATOM     66  C   UNL A   1      39.097  30.496  32.299  1.00  0.00     0.009 A 
ATOM     67  C   UNL A   1      38.015  31.485  30.376  1.00  0.00     0.009 A 
ATOM     68  C   UNL A   1      38.022  30.889  33.100  1.00  0.00     0.001 A 
ATOM     69  C   UNL A   1      36.955  31.899  31.184  1.00  0.00     0.001 A 
ATOM     70  C   UNL A   1      36.955  31.595  32.544  1.00  0.00     0.000 A 
ENDBRANCH  46  65
BRANCH  58  71
ATOM     71  C   UNL A   1      45.142  33.744  29.150  1.00  0.00    -0.014 A 
ATOM     72  C   UNL A   1      45.965  33.908  30.274  1.00  0.00     0.009 A 
ATOM     73  C   UNL A   1      44.922  34.832  28.293  1.00  0.00     0.009 A 
ATOM     74  C   UNL A   1      46.541  35.151  30.544  1.00  0.00     0.001 A 
ATOM     75  C   UNL A   1      45.513  36.067  28.556  1.00  0.00     0.001 A 
ATOM     76  C   UNL A   1      46.317  36.227  29.684  1.00  0.00     0.000 A 
ENDBRANCH  58  71
ENDBRANCH  32  33
ENDBRANCH  25  27
ENDBRANCH  24  25
ENDBRANCH  23  24
ENDBRANCH   1  23
TORSDOF 15
ENDMDL
