MODEL 1
REMARK VINA RESULT:      -8.7      0.000      0.000
REMARK SMILES C[C@@H](C(=O)OCCOC(=O)c1ccc(-c2c3nc(c(-c4ccccc4)c4ccc([nH]4)c(-c4ccccc4)c4nc(c(-c5ccccc5)c5ccc2[nH]5)C=C4)C=C3)cc1)c1ccc(-c2ccn(C(F)F)c(=O)c2)cc1
REMARK SMILES IDX 6 1 5 2 3 3 4 4 2 5 1 6 59 7 60 8 74 9 61 10 73 11 62 12
REMARK SMILES IDX 63 13 64 14 72 15 65 16 70 17 66 18 71 19 67 20 68 21 69 22
REMARK SMILES IDX 7 23 8 24 9 25 10 26 11 27 12 28 58 29 13 30 57 31 14 32
REMARK SMILES IDX 15 33 16 34 51 35 17 36 56 37 50 38 52 39 18 40 55 41 49 42
REMARK SMILES IDX 48 43 19 45 41 46 26 47 40 48 27 49 30 50 39 51 53 52 28 53
REMARK SMILES IDX 29 54 38 56 54 57 31 58 20 59 21 60 25 61 22 62 24 63 23 64
REMARK SMILES IDX 42 65 43 66 47 67 44 68 46 69 45 70 32 71 33 72 37 73 34 74
REMARK SMILES IDX 36 75 35 76
REMARK H PARENT 52 44 30 55
REMARK Flexibility Score: inf
ROOT
ATOM      1  C   UNL A   1      45.533  20.322  24.237  1.00  0.00     0.274 C 
ENDROOT
BRANCH   1   2
ATOM      2  O   UNL A   1      46.425  21.108  25.058  1.00  0.00    -0.462 OA
BRANCH   2   3
ATOM      3  C   UNL A   1      45.958  22.296  25.535  1.00  0.00     0.313 C 
ATOM      4  O   UNL A   1      45.497  22.433  26.663  1.00  0.00    -0.252 OA
BRANCH   3   5
ATOM      5  C   UNL A   1      46.006  23.421  24.477  1.00  0.00     0.126 C 
ATOM      6  C   UNL A   1      47.279  23.337  23.620  1.00  0.00     0.025 C 
BRANCH   5   7
ATOM      7  C   UNL A   1      45.750  24.819  25.069  1.00  0.00    -0.034 A 
ATOM      8  C   UNL A   1      44.475  25.412  25.119  1.00  0.00     0.005 A 
ATOM      9  C   UNL A   1      46.824  25.564  25.590  1.00  0.00     0.005 A 
ATOM     10  C   UNL A   1      44.290  26.708  25.625  1.00  0.00     0.009 A 
ATOM     11  C   UNL A   1      46.643  26.866  26.081  1.00  0.00     0.009 A 
ATOM     12  C   UNL A   1      45.374  27.453  26.095  1.00  0.00    -0.018 A 
BRANCH  12  13
ATOM     13  C   UNL A   1      45.203  28.870  26.482  1.00  0.00    -0.011 A 
ATOM     14  C   UNL A   1      43.987  29.345  27.112  1.00  0.00     0.027 A 
ATOM     15  C   UNL A   1      46.170  29.761  26.204  1.00  0.00     0.080 A 
ATOM     16  C   UNL A   1      43.781  30.648  27.324  1.00  0.00     0.095 A 
ATOM     17  C   UNL A   1      45.978  31.218  26.479  1.00  0.00     0.255 A 
ATOM     18  N   UNL A   1      44.744  31.580  26.997  1.00  0.00    -0.258 N 
ATOM     19  O   UNL A   1      46.895  31.989  26.213  1.00  0.00    -0.269 OA
BRANCH  18  20
ATOM     20  C   UNL A   1      44.479  32.984  27.190  1.00  0.00     0.451 C 
ATOM     21  F   UNL A   1      43.867  33.517  26.102  1.00  0.00    -0.185 F 
ATOM     22  F   UNL A   1      43.664  33.177  28.259  1.00  0.00    -0.185 F 
ENDBRANCH  18  20
ENDBRANCH  12  13
ENDBRANCH   5   7
ENDBRANCH   3   5
ENDBRANCH   2   3
ENDBRANCH   1   2
BRANCH   1  23
ATOM     23  C   UNL A   1      44.499  19.603  25.102  1.00  0.00     0.275 C 
BRANCH  23  24
ATOM     24  O   UNL A   1      43.197  20.158  24.856  1.00  0.00    -0.458 OA
BRANCH  24  25
ATOM     25  C   UNL A   1      42.278  19.971  25.828  1.00  0.00     0.338 C 
ATOM     26  O   UNL A   1      41.679  18.951  26.116  1.00  0.00    -0.246 OA
BRANCH  25  27
ATOM     27  C   UNL A   1      42.172  21.214  26.602  1.00  0.00     0.060 A 
ATOM     28  C   UNL A   1      42.078  22.407  25.894  1.00  0.00     0.016 A 
ATOM     29  C   UNL A   1      42.256  21.222  27.994  1.00  0.00     0.016 A 
ATOM     30  C   UNL A   1      42.111  23.619  26.568  1.00  0.00     0.010 A 
ATOM     31  C   UNL A   1      42.254  22.448  28.676  1.00  0.00     0.010 A 
ATOM     32  C   UNL A   1      42.215  23.661  27.965  1.00  0.00    -0.014 A 
BRANCH  32  33
ATOM     33  C   UNL A   1      42.389  24.979  28.633  1.00  0.00     0.031 A 
ATOM     34  C   UNL A   1      43.774  25.458  28.988  1.00  0.00     0.074 A 
ATOM     35  C   UNL A   1      41.351  25.830  28.752  1.00  0.00     0.049 A 
ATOM     36  N   UNL A   1      44.142  26.599  29.520  1.00  0.00    -0.248 NA
ATOM     37  C   UNL A   1      44.894  24.562  28.658  1.00  0.00     0.031 C 
ATOM     38  C   UNL A   1      39.989  25.571  28.285  1.00  0.00     0.029 A 
ATOM     39  N   UNL A   1      41.301  27.120  29.224  1.00  0.00    -0.354 N 
ATOM     40  C   UNL A   1      45.526  26.534  29.631  1.00  0.00     0.074 A 
ATOM     41  C   UNL A   1      45.935  25.255  29.095  1.00  0.00     0.031 C 
ATOM     42  C   UNL A   1      39.266  26.697  28.401  1.00  0.00     0.029 A 
ATOM     43  C   UNL A   1      40.086  27.730  29.026  1.00  0.00     0.049 A 
ATOM     44  H   UNL A   1      42.064  27.563  29.662  1.00  0.00     0.167 HD
ATOM     45  C   UNL A   1      46.384  27.452  30.136  1.00  0.00     0.031 A 
ATOM     46  C   UNL A   1      39.675  28.979  29.316  1.00  0.00     0.031 A 
ATOM     47  C   UNL A   1      46.001  28.740  30.647  1.00  0.00     0.049 A 
ATOM     48  C   UNL A   1      40.617  29.928  29.998  1.00  0.00     0.074 A 
ATOM     49  C   UNL A   1      46.803  29.714  31.215  1.00  0.00     0.029 A 
ATOM     50  N   UNL A   1      44.710  29.234  30.646  1.00  0.00    -0.354 N 
ATOM     51  N   UNL A   1      41.909  29.815  30.192  1.00  0.00    -0.248 NA
ATOM     52  C   UNL A   1      40.033  31.170  30.528  1.00  0.00     0.031 C 
ATOM     53  C   UNL A   1      45.989  30.792  31.581  1.00  0.00     0.029 A 
ATOM     54  C   UNL A   1      44.690  30.503  31.198  1.00  0.00     0.049 A 
ATOM     55  H   UNL A   1      43.920  28.755  30.303  1.00  0.00     0.167 HD
ATOM     56  C   UNL A   1      42.287  30.966  30.873  1.00  0.00     0.074 A 
ATOM     57  C   UNL A   1      41.101  31.783  31.017  1.00  0.00     0.031 C 
ATOM     58  C   UNL A   1      43.510  31.310  31.342  1.00  0.00     0.031 A 
BRANCH  45  59
ATOM     59  C   UNL A   1      47.831  27.066  30.219  1.00  0.00    -0.014 A 
ATOM     60  C   UNL A   1      48.321  26.272  31.266  1.00  0.00     0.009 A 
ATOM     61  C   UNL A   1      48.709  27.481  29.205  1.00  0.00     0.009 A 
ATOM     62  C   UNL A   1      49.672  25.921  31.307  1.00  0.00     0.001 A 
ATOM     63  C   UNL A   1      50.053  27.112  29.239  1.00  0.00     0.001 A 
ATOM     64  C   UNL A   1      50.535  26.339  30.293  1.00  0.00     0.000 A 
ENDBRANCH  45  59
BRANCH  46  65
ATOM     65  C   UNL A   1      38.290  29.417  28.994  1.00  0.00    -0.014 A 
ATOM     66  C   UNL A   1      37.265  29.268  29.941  1.00  0.00     0.009 A 
ATOM     67  C   UNL A   1      37.977  29.941  27.730  1.00  0.00     0.009 A 
ATOM     68  C   UNL A   1      35.952  29.620  29.620  1.00  0.00     0.001 A 
ATOM     69  C   UNL A   1      36.669  30.319  27.424  1.00  0.00     0.001 A 
ATOM     70  C   UNL A   1      35.655  30.149  28.365  1.00  0.00     0.000 A 
ENDBRANCH  46  65
BRANCH  58  71
ATOM     71  C   UNL A   1      43.637  32.636  32.038  1.00  0.00    -0.014 A 
ATOM     72  C   UNL A   1      43.910  33.808  31.316  1.00  0.00     0.009 A 
ATOM     73  C   UNL A   1      43.441  32.718  33.425  1.00  0.00     0.009 A 
ATOM     74  C   UNL A   1      44.009  35.035  31.977  1.00  0.00     0.001 A 
ATOM     75  C   UNL A   1      43.517  33.950  34.078  1.00  0.00     0.001 A 
ATOM     76  C   UNL A   1      43.808  35.106  33.355  1.00  0.00     0.000 A 
ENDBRANCH  58  71
ENDBRANCH  32  33
ENDBRANCH  25  27
ENDBRANCH  24  25
ENDBRANCH  23  24
ENDBRANCH   1  23
TORSDOF 14
ENDMDL
MODEL 2
REMARK VINA RESULT:      -8.6      4.433      9.038
REMARK SMILES C[C@@H](C(=O)OCCOC(=O)c1ccc(-c2c3nc(c(-c4ccccc4)c4ccc([nH]4)c(-c4ccccc4)c4nc(c(-c5ccccc5)c5ccc2[nH]5)C=C4)C=C3)cc1)c1ccc(-c2ccn(C(F)F)c(=O)c2)cc1
REMARK SMILES IDX 6 1 5 2 3 3 4 4 2 5 1 6 59 7 60 8 74 9 61 10 73 11 62 12
REMARK SMILES IDX 63 13 64 14 72 15 65 16 70 17 66 18 71 19 67 20 68 21 69 22
REMARK SMILES IDX 7 23 8 24 9 25 10 26 11 27 12 28 58 29 13 30 57 31 14 32
REMARK SMILES IDX 15 33 16 34 51 35 17 36 56 37 50 38 52 39 18 40 55 41 49 42
REMARK SMILES IDX 48 43 19 45 41 46 26 47 40 48 27 49 30 50 39 51 53 52 28 53
REMARK SMILES IDX 29 54 38 56 54 57 31 58 20 59 21 60 25 61 22 62 24 63 23 64
REMARK SMILES IDX 42 65 43 66 47 67 44 68 46 69 45 70 32 71 33 72 37 73 34 74
REMARK SMILES IDX 36 75 35 76
REMARK H PARENT 52 44 30 55
REMARK Flexibility Score: inf
ROOT
ATOM      1  C   UNL A   1      35.043  21.971  24.163  1.00  0.00     0.274 C 
ENDROOT
BRANCH   1   2
ATOM      2  O   UNL A   1      33.649  21.610  24.282  1.00  0.00    -0.462 OA
BRANCH   2   3
ATOM      3  C   UNL A   1      32.966  22.089  25.359  1.00  0.00     0.313 C 
ATOM      4  O   UNL A   1      33.113  21.656  26.497  1.00  0.00    -0.252 OA
BRANCH   3   5
ATOM      5  C   UNL A   1      31.938  23.178  24.973  1.00  0.00     0.126 C 
ATOM      6  C   UNL A   1      31.632  23.158  23.468  1.00  0.00     0.025 C 
BRANCH   5   7
ATOM      7  C   UNL A   1      32.306  24.574  25.511  1.00  0.00    -0.034 A 
ATOM      8  C   UNL A   1      31.376  25.430  26.127  1.00  0.00     0.005 A 
ATOM      9  C   UNL A   1      33.628  25.041  25.393  1.00  0.00     0.005 A 
ATOM     10  C   UNL A   1      31.741  26.714  26.563  1.00  0.00     0.009 A 
ATOM     11  C   UNL A   1      33.990  26.330  25.814  1.00  0.00     0.009 A 
ATOM     12  C   UNL A   1      33.046  27.182  26.396  1.00  0.00    -0.018 A 
BRANCH  12  13
ATOM     13  C   UNL A   1      33.390  28.585  26.712  1.00  0.00    -0.011 A 
ATOM     14  C   UNL A   1      34.702  28.953  27.206  1.00  0.00     0.027 A 
ATOM     15  C   UNL A   1      32.457  29.545  26.592  1.00  0.00     0.080 A 
ATOM     16  C   UNL A   1      34.959  30.195  27.627  1.00  0.00     0.095 A 
ATOM     17  C   UNL A   1      32.741  30.952  27.014  1.00  0.00     0.255 A 
ATOM     18  N   UNL A   1      33.995  31.180  27.558  1.00  0.00    -0.258 N 
ATOM     19  O   UNL A   1      31.858  31.792  26.877  1.00  0.00    -0.269 OA
BRANCH  18  20
ATOM     20  C   UNL A   1      34.280  32.499  28.066  1.00  0.00     0.451 C 
ATOM     21  F   UNL A   1      34.284  32.508  29.422  1.00  0.00    -0.185 F 
ATOM     22  F   UNL A   1      35.500  32.923  27.646  1.00  0.00    -0.185 F 
ENDBRANCH  18  20
ENDBRANCH  12  13
ENDBRANCH   5   7
ENDBRANCH   3   5
ENDBRANCH   2   3
ENDBRANCH   1   2
BRANCH   1  23
ATOM     23  C   UNL A   1      35.933  20.895  24.782  1.00  0.00     0.275 C 
BRANCH  23  24
ATOM     24  O   UNL A   1      36.738  21.477  25.821  1.00  0.00    -0.458 OA
BRANCH  24  25
ATOM     25  C   UNL A   1      38.065  21.231  25.751  1.00  0.00     0.338 C 
ATOM     26  O   UNL A   1      38.629  20.253  25.297  1.00  0.00    -0.246 OA
BRANCH  25  27
ATOM     27  C   UNL A   1      38.775  22.422  26.232  1.00  0.00     0.060 A 
ATOM     28  C   UNL A   1      38.140  23.651  26.097  1.00  0.00     0.016 A 
ATOM     29  C   UNL A   1      40.079  22.351  26.724  1.00  0.00     0.016 A 
ATOM     30  C   UNL A   1      38.815  24.821  26.409  1.00  0.00     0.010 A 
ATOM     31  C   UNL A   1      40.748  23.533  27.073  1.00  0.00     0.010 A 
ATOM     32  C   UNL A   1      40.132  24.784  26.887  1.00  0.00    -0.014 A 
BRANCH  32  33
ATOM     33  C   UNL A   1      40.865  26.066  27.074  1.00  0.00     0.031 A 
ATOM     34  C   UNL A   1      40.371  27.065  28.089  1.00  0.00     0.074 A 
ATOM     35  C   UNL A   1      42.063  26.262  26.491  1.00  0.00     0.049 A 
ATOM     36  N   UNL A   1      40.900  28.212  28.443  1.00  0.00    -0.248 NA
ATOM     37  C   UNL A   1      39.156  26.709  28.838  1.00  0.00     0.031 C 
ATOM     38  C   UNL A   1      42.750  25.301  25.627  1.00  0.00     0.029 A 
ATOM     39  N   UNL A   1      42.956  27.300  26.607  1.00  0.00    -0.354 N 
ATOM     40  C   UNL A   1      40.054  28.731  29.417  1.00  0.00     0.074 A 
ATOM     41  C   UNL A   1      38.993  27.770  29.615  1.00  0.00     0.031 C 
ATOM     42  C   UNL A   1      43.990  25.749  25.374  1.00  0.00     0.029 A 
ATOM     43  C   UNL A   1      44.159  27.063  25.987  1.00  0.00     0.049 A 
ATOM     44  H   UNL A   1      42.751  28.135  27.089  1.00  0.00     0.167 HD
ATOM     45  C   UNL A   1      40.149  29.904  30.088  1.00  0.00     0.031 A 
ATOM     46  C   UNL A   1      45.272  27.817  25.916  1.00  0.00     0.031 A 
ATOM     47  C   UNL A   1      41.211  30.859  29.928  1.00  0.00     0.049 A 
ATOM     48  C   UNL A   1      45.290  29.172  26.563  1.00  0.00     0.074 A 
ATOM     49  C   UNL A   1      41.359  32.091  30.540  1.00  0.00     0.029 A 
ATOM     50  N   UNL A   1      42.306  30.686  29.103  1.00  0.00    -0.354 N 
ATOM     51  N   UNL A   1      44.434  29.699  27.404  1.00  0.00    -0.248 NA
ATOM     52  C   UNL A   1      46.421  30.049  26.223  1.00  0.00     0.031 C 
ATOM     53  C   UNL A   1      42.538  32.677  30.063  1.00  0.00     0.029 A 
ATOM     54  C   UNL A   1      43.141  31.786  29.191  1.00  0.00     0.049 A 
ATOM     55  H   UNL A   1      42.469  29.897  28.535  1.00  0.00     0.167 HD
ATOM     56  C   UNL A   1      44.921  30.969  27.687  1.00  0.00     0.074 A 
ATOM     57  C   UNL A   1      46.166  31.117  26.965  1.00  0.00     0.031 C 
ATOM     58  C   UNL A   1      44.377  31.931  28.470  1.00  0.00     0.031 A 
BRANCH  45  59
ATOM     59  C   UNL A   1      39.027  30.251  31.022  1.00  0.00    -0.014 A 
ATOM     60  C   UNL A   1      37.868  30.897  30.570  1.00  0.00     0.009 A 
ATOM     61  C   UNL A   1      39.127  29.888  32.375  1.00  0.00     0.009 A 
ATOM     62  C   UNL A   1      36.837  31.195  31.465  1.00  0.00     0.001 A 
ATOM     63  C   UNL A   1      38.088  30.171  33.261  1.00  0.00     0.001 A 
ATOM     64  C   UNL A   1      36.947  30.830  32.807  1.00  0.00     0.000 A 
ENDBRANCH  45  59
BRANCH  46  65
ATOM     65  C   UNL A   1      46.471  27.334  25.180  1.00  0.00    -0.014 A 
ATOM     66  C   UNL A   1      47.340  26.407  25.775  1.00  0.00     0.009 A 
ATOM     67  C   UNL A   1      46.778  27.829  23.902  1.00  0.00     0.009 A 
ATOM     68  C   UNL A   1      48.500  26.000  25.112  1.00  0.00     0.001 A 
ATOM     69  C   UNL A   1      47.922  27.396  23.230  1.00  0.00     0.001 A 
ATOM     70  C   UNL A   1      48.787  26.490  23.840  1.00  0.00     0.000 A 
ENDBRANCH  46  65
BRANCH  58  71
ATOM     71  C   UNL A   1      45.132  33.221  28.609  1.00  0.00    -0.014 A 
ATOM     72  C   UNL A   1      44.869  34.308  27.761  1.00  0.00     0.009 A 
ATOM     73  C   UNL A   1      46.089  33.364  29.625  1.00  0.00     0.009 A 
ATOM     74  C   UNL A   1      45.570  35.507  27.915  1.00  0.00     0.001 A 
ATOM     75  C   UNL A   1      46.770  34.572  29.791  1.00  0.00     0.001 A 
ATOM     76  C   UNL A   1      46.516  35.639  28.931  1.00  0.00     0.000 A 
ENDBRANCH  58  71
ENDBRANCH  32  33
ENDBRANCH  25  27
ENDBRANCH  24  25
ENDBRANCH  23  24
ENDBRANCH   1  23
TORSDOF 14
ENDMDL
MODEL 3
REMARK VINA RESULT:      -8.6      5.951     10.188
REMARK SMILES C[C@@H](C(=O)OCCOC(=O)c1ccc(-c2c3nc(c(-c4ccccc4)c4ccc([nH]4)c(-c4ccccc4)c4nc(c(-c5ccccc5)c5ccc2[nH]5)C=C4)C=C3)cc1)c1ccc(-c2ccn(C(F)F)c(=O)c2)cc1
REMARK SMILES IDX 6 1 5 2 3 3 4 4 2 5 1 6 59 7 60 8 74 9 61 10 73 11 62 12
REMARK SMILES IDX 63 13 64 14 72 15 65 16 70 17 66 18 71 19 67 20 68 21 69 22
REMARK SMILES IDX 7 23 8 24 9 25 10 26 11 27 12 28 58 29 13 30 57 31 14 32
REMARK SMILES IDX 15 33 16 34 51 35 17 36 56 37 50 38 52 39 18 40 55 41 49 42
REMARK SMILES IDX 48 43 19 45 41 46 26 47 40 48 27 49 30 50 39 51 53 52 28 53
REMARK SMILES IDX 29 54 38 56 54 57 31 58 20 59 21 60 25 61 22 62 24 63 23 64
REMARK SMILES IDX 42 65 43 66 47 67 44 68 46 69 45 70 32 71 33 72 37 73 34 74
REMARK SMILES IDX 36 75 35 76
REMARK H PARENT 52 44 30 55
REMARK Flexibility Score: inf
ROOT
ATOM      1  C   UNL A   1      34.628  20.517  25.380  1.00  0.00     0.274 C 
ENDROOT
BRANCH   1   2
ATOM      2  O   UNL A   1      34.296  21.898  25.644  1.00  0.00    -0.462 OA
BRANCH   2   3
ATOM      3  C   UNL A   1      33.361  22.484  24.845  1.00  0.00     0.313 C 
ATOM      4  O   UNL A   1      32.225  22.044  24.703  1.00  0.00    -0.252 OA
BRANCH   3   5
ATOM      5  C   UNL A   1      33.914  23.713  24.087  1.00  0.00     0.126 C 
ATOM      6  C   UNL A   1      35.138  24.311  24.798  1.00  0.00     0.025 C 
BRANCH   5   7
ATOM      7  C   UNL A   1      32.829  24.751  23.746  1.00  0.00    -0.034 A 
ATOM      8  C   UNL A   1      32.386  24.996  22.434  1.00  0.00     0.005 A 
ATOM      9  C   UNL A   1      32.237  25.507  24.774  1.00  0.00     0.005 A 
ATOM     10  C   UNL A   1      31.427  25.984  22.158  1.00  0.00     0.009 A 
ATOM     11  C   UNL A   1      31.291  26.505  24.498  1.00  0.00     0.009 A 
ATOM     12  C   UNL A   1      30.884  26.759  23.185  1.00  0.00    -0.018 A 
BRANCH  12  13
ATOM     13  C   UNL A   1      29.993  27.899  22.878  1.00  0.00    -0.011 A 
ATOM     14  C   UNL A   1      30.505  29.133  22.314  1.00  0.00     0.027 A 
ATOM     15  C   UNL A   1      28.684  27.822  23.170  1.00  0.00     0.080 A 
ATOM     16  C   UNL A   1      29.722  30.207  22.177  1.00  0.00     0.095 A 
ATOM     17  C   UNL A   1      27.782  29.000  22.977  1.00  0.00     0.255 A 
ATOM     18  N   UNL A   1      28.387  30.159  22.520  1.00  0.00    -0.258 N 
ATOM     19  O   UNL A   1      26.592  28.875  23.253  1.00  0.00    -0.269 OA
BRANCH  18  20
ATOM     20  C   UNL A   1      27.575  31.346  22.410  1.00  0.00     0.451 C 
ATOM     21  F   UNL A   1      27.308  31.868  23.633  1.00  0.00    -0.185 F 
ATOM     22  F   UNL A   1      28.213  32.299  21.684  1.00  0.00    -0.185 F 
ENDBRANCH  18  20
ENDBRANCH  12  13
ENDBRANCH   5   7
ENDBRANCH   3   5
ENDBRANCH   2   3
ENDBRANCH   1   2
BRANCH   1  23
ATOM     23  C   UNL A   1      36.098  20.383  24.987  1.00  0.00     0.275 C 
BRANCH  23  24
ATOM     24  O   UNL A   1      36.885  21.320  25.740  1.00  0.00    -0.458 OA
BRANCH  24  25
ATOM     25  C   UNL A   1      38.218  21.097  25.757  1.00  0.00     0.338 C 
ATOM     26  O   UNL A   1      38.825  20.118  25.366  1.00  0.00    -0.246 OA
BRANCH  25  27
ATOM     27  C   UNL A   1      38.877  22.315  26.247  1.00  0.00     0.060 A 
ATOM     28  C   UNL A   1      38.294  23.536  25.929  1.00  0.00     0.016 A 
ATOM     29  C   UNL A   1      40.095  22.267  26.926  1.00  0.00     0.016 A 
ATOM     30  C   UNL A   1      38.943  24.720  26.248  1.00  0.00     0.010 A 
ATOM     31  C   UNL A   1      40.732  23.466  27.279  1.00  0.00     0.010 A 
ATOM     32  C   UNL A   1      40.176  24.705  26.913  1.00  0.00    -0.014 A 
BRANCH  32  33
ATOM     33  C   UNL A   1      40.902  25.989  27.109  1.00  0.00     0.031 A 
ATOM     34  C   UNL A   1      40.421  26.966  28.152  1.00  0.00     0.074 A 
ATOM     35  C   UNL A   1      42.087  26.206  26.505  1.00  0.00     0.049 A 
ATOM     36  N   UNL A   1      40.948  28.111  28.516  1.00  0.00    -0.248 NA
ATOM     37  C   UNL A   1      39.224  26.586  28.919  1.00  0.00     0.031 C 
ATOM     38  C   UNL A   1      42.763  25.267  25.609  1.00  0.00     0.029 A 
ATOM     39  N   UNL A   1      42.972  27.251  26.622  1.00  0.00    -0.354 N 
ATOM     40  C   UNL A   1      40.118  28.605  29.517  1.00  0.00     0.074 A 
ATOM     41  C   UNL A   1      39.069  27.631  29.718  1.00  0.00     0.031 C 
ATOM     42  C   UNL A   1      43.994  25.730  25.340  1.00  0.00     0.029 A 
ATOM     43  C   UNL A   1      44.165  27.035  25.973  1.00  0.00     0.049 A 
ATOM     44  H   UNL A   1      42.771  28.074  27.123  1.00  0.00     0.167 HD
ATOM     45  C   UNL A   1      40.216  29.766  30.206  1.00  0.00     0.031 A 
ATOM     46  C   UNL A   1      45.270  27.800  25.892  1.00  0.00     0.031 A 
ATOM     47  C   UNL A   1      41.267  30.733  30.042  1.00  0.00     0.049 A 
ATOM     48  C   UNL A   1      45.290  29.143  26.564  1.00  0.00     0.074 A 
ATOM     49  C   UNL A   1      41.418  31.956  30.673  1.00  0.00     0.029 A 
ATOM     50  N   UNL A   1      42.346  30.585  29.191  1.00  0.00    -0.354 N 
ATOM     51  N   UNL A   1      44.447  29.647  27.432  1.00  0.00    -0.248 NA
ATOM     52  C   UNL A   1      46.406  30.036  26.217  1.00  0.00     0.031 C 
ATOM     53  C   UNL A   1      42.581  32.560  30.183  1.00  0.00     0.029 A 
ATOM     54  C   UNL A   1      43.174  31.690  29.283  1.00  0.00     0.049 A 
ATOM     55  H   UNL A   1      42.504  29.808  28.607  1.00  0.00     0.167 HD
ATOM     56  C   UNL A   1      44.929  30.917  27.727  1.00  0.00     0.074 A 
ATOM     57  C   UNL A   1      46.158  31.088  26.983  1.00  0.00     0.031 C 
ATOM     58  C   UNL A   1      44.393  31.859  28.539  1.00  0.00     0.031 A 
BRANCH  45  59
ATOM     59  C   UNL A   1      39.112  30.087  31.170  1.00  0.00    -0.014 A 
ATOM     60  C   UNL A   1      39.210  29.770  32.532  1.00  0.00     0.009 A 
ATOM     61  C   UNL A   1      37.967  30.752  30.701  1.00  0.00     0.009 A 
ATOM     62  C   UNL A   1      38.168  30.093  33.404  1.00  0.00     0.001 A 
ATOM     63  C   UNL A   1      36.938  31.090  31.578  1.00  0.00     0.001 A 
ATOM     64  C   UNL A   1      37.035  30.755  32.927  1.00  0.00     0.000 A 
ENDBRANCH  45  59
BRANCH  46  65
ATOM     65  C   UNL A   1      46.457  27.341  25.123  1.00  0.00    -0.014 A 
ATOM     66  C   UNL A   1      46.794  27.960  23.910  1.00  0.00     0.009 A 
ATOM     67  C   UNL A   1      47.229  26.257  25.570  1.00  0.00     0.009 A 
ATOM     68  C   UNL A   1      47.871  27.491  23.153  1.00  0.00     0.001 A 
ATOM     69  C   UNL A   1      48.322  25.810  24.826  1.00  0.00     0.001 A 
ATOM     70  C   UNL A   1      48.637  26.421  23.614  1.00  0.00     0.000 A 
ENDBRANCH  46  65
BRANCH  58  71
ATOM     71  C   UNL A   1      45.141  33.153  28.686  1.00  0.00    -0.014 A 
ATOM     72  C   UNL A   1      44.837  34.259  27.878  1.00  0.00     0.009 A 
ATOM     73  C   UNL A   1      46.132  33.279  29.671  1.00  0.00     0.009 A 
ATOM     74  C   UNL A   1      45.531  35.461  28.039  1.00  0.00     0.001 A 
ATOM     75  C   UNL A   1      46.806  34.489  29.846  1.00  0.00     0.001 A 
ATOM     76  C   UNL A   1      46.511  35.576  29.025  1.00  0.00     0.000 A 
ENDBRANCH  58  71
ENDBRANCH  32  33
ENDBRANCH  25  27
ENDBRANCH  24  25
ENDBRANCH  23  24
ENDBRANCH   1  23
TORSDOF 14
ENDMDL
