MODEL 1
REMARK VINA RESULT:     -11.4      0.000      0.000
REMARK SMILES CCOc1ccc(-c2cc(Cl)cc3c2O[C@H](C(F)(F)F)C(C(=O)OCCOC(=O)c2ccc(-c4c5nc(c(-c6ccccc6)c6ccc([nH]6)c(-c6ccccc6)c6nc(c(-c7ccccc7)c7ccc4[nH]7)C=C6)C=C5)cc2)=C3)cc1
REMARK SMILES IDX 25 1 24 2 22 3 23 4 21 5 8 6 9 7 14 8 10 9 13 10 15 11 11 12
REMARK SMILES IDX 12 13 78 14 16 15 7 16 4 17 5 18 80 19 6 20 79 21 3 22 2 23
REMARK SMILES IDX 1 24 17 25 18 26 19 27 20 28 26 29 27 30 28 31 29 32 30 33
REMARK SMILES IDX 31 34 77 35 32 36 76 37 33 38 34 39 35 40 70 41 36 42 75 43
REMARK SMILES IDX 69 44 71 45 37 46 74 47 68 48 67 49 38 51 60 52 45 53 59 54
REMARK SMILES IDX 46 55 49 56 58 57 72 58 47 59 48 60 57 62 73 63 50 64 39 65
REMARK SMILES IDX 40 66 44 67 41 68 43 69 42 70 61 71 62 72 66 73 63 74 65 75
REMARK SMILES IDX 64 76 51 77 52 78 56 79 53 80 55 81 54 82
REMARK H PARENT 71 50 49 61
REMARK Flexibility Score: inf
ROOT
ATOM      1  C   UNL A   1      36.004  22.276  24.358  1.00  0.00     0.275 C 
ENDROOT
BRANCH   1   2
ATOM      2  O   UNL A   1      35.345  23.526  24.691  1.00  0.00    -0.459 OA
BRANCH   2   3
ATOM      3  C   UNL A   1      34.360  23.381  25.615  1.00  0.00     0.338 C 
ATOM      4  O   UNL A   1      34.558  23.269  26.821  1.00  0.00    -0.246 OA
BRANCH   3   5
ATOM      5  C   UNL A   1      32.980  23.401  25.058  1.00  0.00     0.087 C 
ATOM      6  C   UNL A   1      31.595  27.018  23.909  1.00  0.00     0.026 A 
ATOM      7  C   UNL A   1      32.425  27.846  24.700  1.00  0.00     0.033 A 
ATOM      8  C   UNL A   1      31.643  25.667  24.261  1.00  0.00     0.135 A 
ATOM      9  C   UNL A   1      33.067  27.415  25.865  1.00  0.00     0.042 A 
ATOM     10  C   UNL A   1      32.063  25.309  25.567  1.00  0.00     0.019 A 
ATOM     11  O   UNL A   1      31.563  24.620  23.346  1.00  0.00    -0.475 OA
ATOM     12  Cl  UNL A   1      34.256  28.329  26.695  1.00  0.00    -0.084 Cl
ATOM     13  C   UNL A   1      32.768  26.181  26.376  1.00  0.00     0.032 A 
ATOM     14  C   UNL A   1      32.074  23.881  25.927  1.00  0.00     0.027 C 
ATOM     15  C   UNL A   1      32.637  23.573  23.587  1.00  0.00     0.316 C 
BRANCH   6  16
ATOM     16  C   UNL A   1      30.605  27.768  23.071  1.00  0.00    -0.014 A 
ATOM     17  C   UNL A   1      28.580  29.686  22.358  1.00  0.00     0.119 A 
ATOM     18  C   UNL A   1      29.908  29.844  21.953  1.00  0.00     0.047 A 
ATOM     19  C   UNL A   1      28.244  28.533  23.051  1.00  0.00     0.047 A 
ATOM     20  C   UNL A   1      30.901  28.886  22.279  1.00  0.00     0.013 A 
ATOM     21  C   UNL A   1      29.238  27.595  23.393  1.00  0.00     0.013 A 
BRANCH  17  22
ATOM     22  O   UNL A   1      27.695  30.647  21.954  1.00  0.00    -0.494 OA
BRANCH  22  23
ATOM     23  C   UNL A   1      28.196  31.960  21.674  1.00  0.00     0.226 C 
ATOM     24  C   UNL A   1      27.918  32.398  20.242  1.00  0.00     0.049 C 
ENDBRANCH  22  23
ENDBRANCH  17  22
ENDBRANCH   6  16
BRANCH  15  25
ATOM     25  C   UNL A   1      32.175  22.188  23.113  1.00  0.00     0.430 C 
ATOM     26  F   UNL A   1      32.854  21.785  22.012  1.00  0.00    -0.167 F 
ATOM     27  F   UNL A   1      32.325  21.241  24.060  1.00  0.00    -0.167 F 
ATOM     28  F   UNL A   1      30.857  22.205  22.775  1.00  0.00    -0.167 F 
ENDBRANCH  15  25
ENDBRANCH   3   5
ENDBRANCH   2   3
ENDBRANCH   1   2
BRANCH   1  29
ATOM     29  C   UNL A   1      37.375  22.109  25.023  1.00  0.00     0.275 C 
BRANCH  29  30
ATOM     30  O   UNL A   1      37.773  23.290  25.744  1.00  0.00    -0.458 OA
BRANCH  30  31
ATOM     31  C   UNL A   1      39.032  23.238  26.233  1.00  0.00     0.338 C 
ATOM     32  O   UNL A   1      39.800  22.285  26.136  1.00  0.00    -0.246 OA
BRANCH  31  33
ATOM     33  C   UNL A   1      39.457  24.536  26.815  1.00  0.00     0.060 A 
ATOM     34  C   UNL A   1      38.956  24.837  28.077  1.00  0.00     0.016 A 
ATOM     35  C   UNL A   1      40.302  25.462  26.186  1.00  0.00     0.016 A 
ATOM     36  C   UNL A   1      39.343  26.015  28.717  1.00  0.00     0.010 A 
ATOM     37  C   UNL A   1      40.694  26.651  26.851  1.00  0.00     0.010 A 
ATOM     38  C   UNL A   1      40.250  26.929  28.150  1.00  0.00    -0.014 A 
BRANCH  38  39
ATOM     39  C   UNL A   1      40.631  28.134  28.976  1.00  0.00     0.031 A 
ATOM     40  C   UNL A   1      39.621  29.232  29.154  1.00  0.00     0.074 A 
ATOM     41  C   UNL A   1      41.744  28.197  29.746  1.00  0.00     0.049 A 
ATOM     42  N   UNL A   1      39.621  30.226  30.005  1.00  0.00    -0.248 NA
ATOM     43  C   UNL A   1      38.452  29.196  28.261  1.00  0.00     0.031 C 
ATOM     44  C   UNL A   1      42.799  27.203  29.763  1.00  0.00     0.029 A 
ATOM     45  N   UNL A   1      42.131  29.068  30.746  1.00  0.00    -0.354 N 
ATOM     46  C   UNL A   1      38.453  30.927  29.758  1.00  0.00     0.074 A 
ATOM     47  C   UNL A   1      37.753  30.228  28.700  1.00  0.00     0.031 C 
ATOM     48  C   UNL A   1      43.580  27.373  30.840  1.00  0.00     0.029 A 
ATOM     49  C   UNL A   1      43.215  28.626  31.485  1.00  0.00     0.049 A 
ATOM     50  H   UNL A   1      41.677  29.925  30.918  1.00  0.00     0.167 HD
ATOM     51  C   UNL A   1      38.020  32.080  30.317  1.00  0.00     0.031 A 
ATOM     52  C   UNL A   1      43.873  29.169  32.534  1.00  0.00     0.031 A 
ATOM     53  C   UNL A   1      38.752  32.860  31.276  1.00  0.00     0.049 A 
ATOM     54  C   UNL A   1      43.481  30.550  32.989  1.00  0.00     0.074 A 
ATOM     55  C   UNL A   1      38.423  34.098  31.799  1.00  0.00     0.029 A 
ATOM     56  N   UNL A   1      39.970  32.503  31.830  1.00  0.00    -0.354 N 
ATOM     57  N   UNL A   1      42.413  31.242  32.685  1.00  0.00    -0.248 NA
ATOM     58  C   UNL A   1      44.399  31.236  33.912  1.00  0.00     0.031 C 
ATOM     59  C   UNL A   1      39.479  34.526  32.608  1.00  0.00     0.029 A 
ATOM     60  C   UNL A   1      40.425  33.518  32.659  1.00  0.00     0.049 A 
ATOM     61  H   UNL A   1      40.442  31.655  31.661  1.00  0.00     0.167 HD
ATOM     62  C   UNL A   1      42.517  32.431  33.394  1.00  0.00     0.074 A 
ATOM     63  C   UNL A   1      43.743  32.361  34.160  1.00  0.00     0.031 C 
ATOM     64  C   UNL A   1      41.657  33.477  33.408  1.00  0.00     0.031 A 
BRANCH  51  65
ATOM     65  C   UNL A   1      36.738  32.630  29.770  1.00  0.00    -0.014 A 
ATOM     66  C   UNL A   1      36.674  33.205  28.493  1.00  0.00     0.009 A 
ATOM     67  C   UNL A   1      35.591  32.610  30.576  1.00  0.00     0.009 A 
ATOM     68  C   UNL A   1      35.486  33.784  28.047  1.00  0.00     0.001 A 
ATOM     69  C   UNL A   1      34.398  33.167  30.118  1.00  0.00     0.001 A 
ATOM     70  C   UNL A   1      34.350  33.763  28.859  1.00  0.00     0.000 A 
ENDBRANCH  51  65
BRANCH  52  71
ATOM     71  C   UNL A   1      45.013  28.473  33.211  1.00  0.00    -0.014 A 
ATOM     72  C   UNL A   1      46.330  28.631  32.743  1.00  0.00     0.009 A 
ATOM     73  C   UNL A   1      44.792  27.584  34.275  1.00  0.00     0.009 A 
ATOM     74  C   UNL A   1      47.386  27.904  33.307  1.00  0.00     0.001 A 
ATOM     75  C   UNL A   1      45.854  26.893  34.867  1.00  0.00     0.001 A 
ATOM     76  C   UNL A   1      47.147  27.043  34.375  1.00  0.00     0.000 A 
ENDBRANCH  52  71
BRANCH  64  77
ATOM     77  C   UNL A   1      41.985  34.639  34.304  1.00  0.00    -0.014 A 
ATOM     78  C   UNL A   1      41.657  34.637  35.669  1.00  0.00     0.009 A 
ATOM     79  C   UNL A   1      42.678  35.741  33.777  1.00  0.00     0.009 A 
ATOM     80  C   UNL A   1      41.991  35.726  36.479  1.00  0.00     0.001 A 
ATOM     81  C   UNL A   1      43.040  36.812  34.595  1.00  0.00     0.001 A 
ATOM     82  C   UNL A   1      42.688  36.808  35.942  1.00  0.00     0.000 A 
ENDBRANCH  64  77
ENDBRANCH  38  39
ENDBRANCH  31  33
ENDBRANCH  30  31
ENDBRANCH  29  30
ENDBRANCH   1  29
TORSDOF 15
ENDMDL
MODEL 2
REMARK VINA RESULT:     -11.2      4.229      7.777
REMARK SMILES CCOc1ccc(-c2cc(Cl)cc3c2O[C@H](C(F)(F)F)C(C(=O)OCCOC(=O)c2ccc(-c4c5nc(c(-c6ccccc6)c6ccc([nH]6)c(-c6ccccc6)c6nc(c(-c7ccccc7)c7ccc4[nH]7)C=C6)C=C5)cc2)=C3)cc1
REMARK SMILES IDX 25 1 24 2 22 3 23 4 21 5 8 6 9 7 14 8 10 9 13 10 15 11 11 12
REMARK SMILES IDX 12 13 78 14 16 15 7 16 4 17 5 18 80 19 6 20 79 21 3 22 2 23
REMARK SMILES IDX 1 24 17 25 18 26 19 27 20 28 26 29 27 30 28 31 29 32 30 33
REMARK SMILES IDX 31 34 77 35 32 36 76 37 33 38 34 39 35 40 70 41 36 42 75 43
REMARK SMILES IDX 69 44 71 45 37 46 74 47 68 48 67 49 38 51 60 52 45 53 59 54
REMARK SMILES IDX 46 55 49 56 58 57 72 58 47 59 48 60 57 62 73 63 50 64 39 65
REMARK SMILES IDX 40 66 44 67 41 68 43 69 42 70 61 71 62 72 66 73 63 74 65 75
REMARK SMILES IDX 64 76 51 77 52 78 56 79 53 80 55 81 54 82
REMARK H PARENT 71 50 49 61
REMARK Flexibility Score: inf
ROOT
ATOM      1  C   UNL A   1      38.946  20.519  25.476  1.00  0.00     0.275 C 
ENDROOT
BRANCH   1   2
ATOM      2  O   UNL A   1      37.740  20.258  24.712  1.00  0.00    -0.459 OA
BRANCH   2   3
ATOM      3  C   UNL A   1      36.701  21.059  25.064  1.00  0.00     0.338 C 
ATOM      4  O   UNL A   1      35.619  20.645  25.467  1.00  0.00    -0.246 OA
BRANCH   3   5
ATOM      5  C   UNL A   1      36.980  22.517  24.959  1.00  0.00     0.087 C 
ATOM      6  C   UNL A   1      33.742  24.915  24.662  1.00  0.00     0.026 A 
ATOM      7  C   UNL A   1      32.808  23.981  24.158  1.00  0.00     0.033 A 
ATOM      8  C   UNL A   1      35.064  24.462  24.639  1.00  0.00     0.135 A 
ATOM      9  C   UNL A   1      33.167  22.805  23.492  1.00  0.00     0.042 A 
ATOM     10  C   UNL A   1      35.422  23.427  23.740  1.00  0.00     0.019 A 
ATOM     11  O   UNL A   1      36.008  24.763  25.618  1.00  0.00    -0.475 OA
ATOM     12  Cl  UNL A   1      32.062  21.558  23.091  1.00  0.00    -0.084 Cl
ATOM     13  C   UNL A   1      34.479  22.601  23.157  1.00  0.00     0.032 A 
ATOM     14  C   UNL A   1      36.828  22.987  23.709  1.00  0.00     0.027 C 
ATOM     15  C   UNL A   1      36.766  23.527  26.074  1.00  0.00     0.316 C 
BRANCH   6  16
ATOM     16  C   UNL A   1      33.194  26.299  24.828  1.00  0.00    -0.014 A 
ATOM     17  C   UNL A   1      31.516  28.602  24.416  1.00  0.00     0.119 A 
ATOM     18  C   UNL A   1      31.378  27.794  25.547  1.00  0.00     0.047 A 
ATOM     19  C   UNL A   1      32.541  28.311  23.529  1.00  0.00     0.047 A 
ATOM     20  C   UNL A   1      32.222  26.676  25.766  1.00  0.00     0.013 A 
ATOM     21  C   UNL A   1      33.363  27.186  23.738  1.00  0.00     0.013 A 
BRANCH  17  22
ATOM     22  O   UNL A   1      30.679  29.679  24.324  1.00  0.00    -0.494 OA
BRANCH  22  23
ATOM     23  C   UNL A   1      29.816  29.777  23.183  1.00  0.00     0.226 C 
ATOM     24  C   UNL A   1      28.921  28.556  23.022  1.00  0.00     0.049 C 
ENDBRANCH  22  23
ENDBRANCH  17  22
ENDBRANCH   6  16
BRANCH  15  25
ATOM     25  C   UNL A   1      38.172  23.894  26.567  1.00  0.00     0.430 C 
ATOM     26  F   UNL A   1      38.928  22.790  26.788  1.00  0.00    -0.167 F 
ATOM     27  F   UNL A   1      38.836  24.681  25.696  1.00  0.00    -0.167 F 
ATOM     28  F   UNL A   1      38.113  24.569  27.746  1.00  0.00    -0.167 F 
ENDBRANCH  15  25
ENDBRANCH   3   5
ENDBRANCH   2   3
ENDBRANCH   1   2
BRANCH   1  29
ATOM     29  C   UNL A   1      39.765  19.259  25.780  1.00  0.00     0.275 C 
BRANCH  29  30
ATOM     30  O   UNL A   1      41.019  19.246  25.071  1.00  0.00    -0.458 OA
BRANCH  30  31
ATOM     31  C   UNL A   1      42.102  19.120  25.871  1.00  0.00     0.338 C 
ATOM     32  O   UNL A   1      42.779  18.106  26.006  1.00  0.00    -0.246 OA
BRANCH  31  33
ATOM     33  C   UNL A   1      42.479  20.410  26.502  1.00  0.00     0.060 A 
ATOM     34  C   UNL A   1      43.094  21.342  25.674  1.00  0.00     0.016 A 
ATOM     35  C   UNL A   1      42.270  20.737  27.850  1.00  0.00     0.016 A 
ATOM     36  C   UNL A   1      43.437  22.599  26.175  1.00  0.00     0.010 A 
ATOM     37  C   UNL A   1      42.617  22.021  28.344  1.00  0.00     0.010 A 
ATOM     38  C   UNL A   1      43.172  22.991  27.500  1.00  0.00    -0.014 A 
BRANCH  38  39
ATOM     39  C   UNL A   1      43.540  24.401  27.896  1.00  0.00     0.031 A 
ATOM     40  C   UNL A   1      44.932  24.888  27.607  1.00  0.00     0.074 A 
ATOM     41  C   UNL A   1      42.639  25.328  28.298  1.00  0.00     0.049 A 
ATOM     42  N   UNL A   1      45.399  26.110  27.622  1.00  0.00    -0.248 NA
ATOM     43  C   UNL A   1      45.921  23.861  27.243  1.00  0.00     0.031 C 
ATOM     44  C   UNL A   1      41.239  25.065  28.564  1.00  0.00     0.029 A 
ATOM     45  N   UNL A   1      42.724  26.699  28.448  1.00  0.00    -0.354 N 
ATOM     46  C   UNL A   1      46.732  26.002  27.261  1.00  0.00     0.074 A 
ATOM     47  C   UNL A   1      46.991  24.600  27.002  1.00  0.00     0.031 C 
ATOM     48  C   UNL A   1      40.552  26.216  28.620  1.00  0.00     0.029 A 
ATOM     49  C   UNL A   1      41.498  27.322  28.609  1.00  0.00     0.049 A 
ATOM     50  H   UNL A   1      43.578  27.188  28.441  1.00  0.00     0.167 HD
ATOM     51  C   UNL A   1      47.677  26.968  27.201  1.00  0.00     0.031 A 
ATOM     52  C   UNL A   1      41.162  28.621  28.769  1.00  0.00     0.031 A 
ATOM     53  C   UNL A   1      47.479  28.342  27.573  1.00  0.00     0.049 A 
ATOM     54  C   UNL A   1      42.265  29.637  28.901  1.00  0.00     0.074 A 
ATOM     55  C   UNL A   1      48.424  29.350  27.646  1.00  0.00     0.029 A 
ATOM     56  N   UNL A   1      46.273  28.895  27.967  1.00  0.00    -0.354 N 
ATOM     57  N   UNL A   1      43.540  29.504  28.637  1.00  0.00    -0.248 NA
ATOM     58  C   UNL A   1      41.887  30.977  29.378  1.00  0.00     0.031 C 
ATOM     59  C   UNL A   1      47.805  30.493  28.159  1.00  0.00     0.029 A 
ATOM     60  C   UNL A   1      46.457  30.222  28.324  1.00  0.00     0.049 A 
ATOM     61  H   UNL A   1      45.412  28.417  27.990  1.00  0.00     0.167 HD
ATOM     62  C   UNL A   1      44.112  30.742  28.893  1.00  0.00     0.074 A 
ATOM     63  C   UNL A   1      43.044  31.622  29.314  1.00  0.00     0.031 C 
ATOM     64  C   UNL A   1      45.411  31.106  28.772  1.00  0.00     0.031 A 
BRANCH  51  65
ATOM     65  C   UNL A   1      49.059  26.509  26.850  1.00  0.00    -0.014 A 
ATOM     66  C   UNL A   1      49.556  26.618  25.543  1.00  0.00     0.009 A 
ATOM     67  C   UNL A   1      49.851  25.913  27.842  1.00  0.00     0.009 A 
ATOM     68  C   UNL A   1      50.815  26.103  25.230  1.00  0.00     0.001 A 
ATOM     69  C   UNL A   1      51.118  25.422  27.532  1.00  0.00     0.001 A 
ATOM     70  C   UNL A   1      51.594  25.508  26.224  1.00  0.00     0.000 A 
ENDBRANCH  51  65
BRANCH  52  71
ATOM     71  C   UNL A   1      39.737  29.071  28.883  1.00  0.00    -0.014 A 
ATOM     72  C   UNL A   1      39.077  29.054  30.125  1.00  0.00     0.009 A 
ATOM     73  C   UNL A   1      39.000  29.442  27.748  1.00  0.00     0.009 A 
ATOM     74  C   UNL A   1      37.717  29.375  30.221  1.00  0.00     0.001 A 
ATOM     75  C   UNL A   1      37.654  29.807  27.852  1.00  0.00     0.001 A 
ATOM     76  C   UNL A   1      37.010  29.760  29.085  1.00  0.00     0.000 A 
ENDBRANCH  52  71
BRANCH  64  77
ATOM     77  C   UNL A   1      45.766  32.537  29.073  1.00  0.00    -0.014 A 
ATOM     78  C   UNL A   1      46.180  32.943  30.352  1.00  0.00     0.009 A 
ATOM     79  C   UNL A   1      45.727  33.488  28.041  1.00  0.00     0.009 A 
ATOM     80  C   UNL A   1      46.519  34.276  30.595  1.00  0.00     0.001 A 
ATOM     81  C   UNL A   1      46.099  34.811  28.278  1.00  0.00     0.001 A 
ATOM     82  C   UNL A   1      46.485  35.207  29.556  1.00  0.00     0.000 A 
ENDBRANCH  64  77
ENDBRANCH  38  39
ENDBRANCH  31  33
ENDBRANCH  30  31
ENDBRANCH  29  30
ENDBRANCH   1  29
TORSDOF 15
ENDMDL
MODEL 3
REMARK VINA RESULT:     -11.2      3.084      7.225
REMARK SMILES CCOc1ccc(-c2cc(Cl)cc3c2O[C@H](C(F)(F)F)C(C(=O)OCCOC(=O)c2ccc(-c4c5nc(c(-c6ccccc6)c6ccc([nH]6)c(-c6ccccc6)c6nc(c(-c7ccccc7)c7ccc4[nH]7)C=C6)C=C5)cc2)=C3)cc1
REMARK SMILES IDX 25 1 24 2 22 3 23 4 21 5 8 6 9 7 14 8 10 9 13 10 15 11 11 12
REMARK SMILES IDX 12 13 78 14 16 15 7 16 4 17 5 18 80 19 6 20 79 21 3 22 2 23
REMARK SMILES IDX 1 24 17 25 18 26 19 27 20 28 26 29 27 30 28 31 29 32 30 33
REMARK SMILES IDX 31 34 77 35 32 36 76 37 33 38 34 39 35 40 70 41 36 42 75 43
REMARK SMILES IDX 69 44 71 45 37 46 74 47 68 48 67 49 38 51 60 52 45 53 59 54
REMARK SMILES IDX 46 55 49 56 58 57 72 58 47 59 48 60 57 62 73 63 50 64 39 65
REMARK SMILES IDX 40 66 44 67 41 68 43 69 42 70 61 71 62 72 66 73 63 74 65 75
REMARK SMILES IDX 64 76 51 77 52 78 56 79 53 80 55 81 54 82
REMARK H PARENT 71 50 49 61
REMARK Flexibility Score: inf
ROOT
ATOM      1  C   UNL A   1      33.458  29.237  24.594  1.00  0.00     0.275 C 
ENDROOT
BRANCH   1   2
ATOM      2  O   UNL A   1      33.324  28.040  23.785  1.00  0.00    -0.459 OA
BRANCH   2   3
ATOM      3  C   UNL A   1      33.273  26.900  24.522  1.00  0.00     0.338 C 
ATOM      4  O   UNL A   1      33.982  26.679  25.499  1.00  0.00    -0.246 OA
BRANCH   3   5
ATOM      5  C   UNL A   1      32.246  25.919  24.075  1.00  0.00     0.087 C 
ATOM      6  C   UNL A   1      33.214  22.023  24.527  1.00  0.00     0.026 A 
ATOM      7  C   UNL A   1      34.624  22.136  24.552  1.00  0.00     0.033 A 
ATOM      8  C   UNL A   1      32.560  23.189  24.119  1.00  0.00     0.135 A 
ATOM      9  C   UNL A   1      35.326  23.220  24.017  1.00  0.00     0.042 A 
ATOM     10  C   UNL A   1      33.268  24.141  23.344  1.00  0.00     0.019 A 
ATOM     11  O   UNL A   1      31.340  23.619  24.636  1.00  0.00    -0.475 OA
ATOM     12  Cl  UNL A   1      37.003  23.483  24.251  1.00  0.00    -0.084 Cl
ATOM     13  C   UNL A   1      34.650  24.157  23.283  1.00  0.00     0.032 A 
ATOM     14  C   UNL A   1      32.550  25.347  22.897  1.00  0.00     0.027 C 
ATOM     15  C   UNL A   1      31.369  25.094  25.002  1.00  0.00     0.316 C 
BRANCH   6  16
ATOM     16  C   UNL A   1      32.712  20.615  24.634  1.00  0.00    -0.014 A 
ATOM     17  C   UNL A   1      32.683  17.742  24.453  1.00  0.00     0.119 A 
ATOM     18  C   UNL A   1      32.822  18.394  25.682  1.00  0.00     0.047 A 
ATOM     19  C   UNL A   1      32.478  18.520  23.324  1.00  0.00     0.047 A 
ATOM     20  C   UNL A   1      32.809  19.808  25.775  1.00  0.00     0.013 A 
ATOM     21  C   UNL A   1      32.489  19.925  23.418  1.00  0.00     0.013 A 
BRANCH  17  22
ATOM     22  O   UNL A   1      32.667  16.376  24.479  1.00  0.00    -0.494 OA
BRANCH  22  23
ATOM     23  C   UNL A   1      33.445  15.704  25.478  1.00  0.00     0.226 C 
ATOM     24  C   UNL A   1      34.931  15.683  25.145  1.00  0.00     0.049 C 
ENDBRANCH  22  23
ENDBRANCH  17  22
ENDBRANCH   6  16
BRANCH  15  25
ATOM     25  C   UNL A   1      29.969  25.714  24.898  1.00  0.00     0.430 C 
ATOM     26  F   UNL A   1      29.305  25.272  23.803  1.00  0.00    -0.167 F 
ATOM     27  F   UNL A   1      29.206  25.450  25.978  1.00  0.00    -0.167 F 
ATOM     28  F   UNL A   1      30.045  27.068  24.789  1.00  0.00    -0.167 F 
ENDBRANCH  15  25
ENDBRANCH   3   5
ENDBRANCH   2   3
ENDBRANCH   1   2
BRANCH   1  29
ATOM     29  C   UNL A   1      32.154  29.669  25.274  1.00  0.00     0.275 C 
BRANCH  29  30
ATOM     30  O   UNL A   1      32.300  29.774  26.703  1.00  0.00    -0.458 OA
BRANCH  30  31
ATOM     31  C   UNL A   1      32.902  30.915  27.111  1.00  0.00     0.338 C 
ATOM     32  O   UNL A   1      32.377  32.023  27.163  1.00  0.00    -0.246 OA
BRANCH  31  33
ATOM     33  C   UNL A   1      34.273  30.667  27.624  1.00  0.00     0.060 A 
ATOM     34  C   UNL A   1      35.097  31.782  27.738  1.00  0.00     0.016 A 
ATOM     35  C   UNL A   1      34.782  29.412  27.983  1.00  0.00     0.016 A 
ATOM     36  C   UNL A   1      36.385  31.645  28.257  1.00  0.00     0.010 A 
ATOM     37  C   UNL A   1      36.091  29.288  28.517  1.00  0.00     0.010 A 
ATOM     38  C   UNL A   1      36.902  30.415  28.701  1.00  0.00    -0.014 A 
BRANCH  38  39
ATOM     39  C   UNL A   1      38.289  30.417  29.299  1.00  0.00     0.031 A 
ATOM     40  C   UNL A   1      38.452  30.833  30.733  1.00  0.00     0.074 A 
ATOM     41  C   UNL A   1      39.368  29.865  28.696  1.00  0.00     0.049 A 
ATOM     42  N   UNL A   1      39.481  30.679  31.526  1.00  0.00    -0.248 NA
ATOM     43  C   UNL A   1      37.298  31.499  31.356  1.00  0.00     0.031 C 
ATOM     44  C   UNL A   1      39.389  29.348  27.342  1.00  0.00     0.029 A 
ATOM     45  N   UNL A   1      40.626  29.537  29.165  1.00  0.00    -0.354 N 
ATOM     46  C   UNL A   1      39.098  31.219  32.742  1.00  0.00     0.074 A 
ATOM     47  C   UNL A   1      37.731  31.676  32.593  1.00  0.00     0.031 C 
ATOM     48  C   UNL A   1      40.476  28.585  27.152  1.00  0.00     0.029 A 
ATOM     49  C   UNL A   1      41.351  28.729  28.306  1.00  0.00     0.049 A 
ATOM     50  H   UNL A   1      40.974  29.850  30.031  1.00  0.00     0.167 HD
ATOM     51  C   UNL A   1      39.827  31.376  33.871  1.00  0.00     0.031 A 
ATOM     52  C   UNL A   1      42.588  28.191  28.404  1.00  0.00     0.031 A 
ATOM     53  C   UNL A   1      41.219  31.048  34.007  1.00  0.00     0.049 A 
ATOM     54  C   UNL A   1      43.440  28.563  29.588  1.00  0.00     0.074 A 
ATOM     55  C   UNL A   1      42.050  31.287  35.087  1.00  0.00     0.029 A 
ATOM     56  N   UNL A   1      41.996  30.447  33.031  1.00  0.00    -0.354 N 
ATOM     57  N   UNL A   1      43.086  29.150  30.703  1.00  0.00    -0.248 NA
ATOM     58  C   UNL A   1      44.870  28.221  29.517  1.00  0.00     0.031 C 
ATOM     59  C   UNL A   1      43.347  30.903  34.735  1.00  0.00     0.029 A 
ATOM     60  C   UNL A   1      43.307  30.344  33.469  1.00  0.00     0.049 A 
ATOM     61  H   UNL A   1      41.666  30.138  32.156  1.00  0.00     0.167 HD
ATOM     62  C   UNL A   1      44.238  29.228  31.473  1.00  0.00     0.074 A 
ATOM     63  C   UNL A   1      45.300  28.610  30.709  1.00  0.00     0.031 C 
ATOM     64  C   UNL A   1      44.384  29.758  32.711  1.00  0.00     0.031 A 
BRANCH  51  65
ATOM     65  C   UNL A   1      39.138  32.076  35.001  1.00  0.00    -0.014 A 
ATOM     66  C   UNL A   1      38.470  31.361  36.007  1.00  0.00     0.009 A 
ATOM     67  C   UNL A   1      39.121  33.478  35.025  1.00  0.00     0.009 A 
ATOM     68  C   UNL A   1      37.766  32.045  36.999  1.00  0.00     0.001 A 
ATOM     69  C   UNL A   1      38.439  34.158  36.032  1.00  0.00     0.001 A 
ATOM     70  C   UNL A   1      37.753  33.440  37.011  1.00  0.00     0.000 A 
ENDBRANCH  51  65
BRANCH  52  71
ATOM     71  C   UNL A   1      43.156  27.295  27.347  1.00  0.00    -0.014 A 
ATOM     72  C   UNL A   1      43.973  27.818  26.327  1.00  0.00     0.009 A 
ATOM     73  C   UNL A   1      42.828  25.932  27.297  1.00  0.00     0.009 A 
ATOM     74  C   UNL A   1      44.423  27.004  25.279  1.00  0.00     0.001 A 
ATOM     75  C   UNL A   1      43.316  25.111  26.275  1.00  0.00     0.001 A 
ATOM     76  C   UNL A   1      44.101  25.650  25.260  1.00  0.00     0.000 A 
ENDBRANCH  52  71
BRANCH  64  77
ATOM     77  C   UNL A   1      45.743  29.675  33.350  1.00  0.00    -0.014 A 
ATOM     78  C   UNL A   1      46.688  30.705  33.214  1.00  0.00     0.009 A 
ATOM     79  C   UNL A   1      46.066  28.561  34.141  1.00  0.00     0.009 A 
ATOM     80  C   UNL A   1      47.937  30.606  33.834  1.00  0.00     0.001 A 
ATOM     81  C   UNL A   1      47.301  28.481  34.787  1.00  0.00     0.001 A 
ATOM     82  C   UNL A   1      48.238  29.498  34.625  1.00  0.00     0.000 A 
ENDBRANCH  64  77
ENDBRANCH  38  39
ENDBRANCH  31  33
ENDBRANCH  30  31
ENDBRANCH  29  30
ENDBRANCH   1  29
TORSDOF 15
ENDMDL
