MODEL 1
REMARK VINA RESULT:     -10.1      0.000      0.000
REMARK SMILES C[C@]([NH2+]Cc1nc(-c2ccsc2)no1)(C(=O)OCCOC(=O)c1ccc(-c2c3nc(c(-c4ccccc4)c4ccc([nH]4)c(-c4ccccc4)c4nc(c(-c5ccccc5)c5ccc2[nH]5)C=C4)C=C3)cc1)C(F)(F)F
REMARK SMILES IDX 18 1 17 2 15 3 16 4 2 5 1 6 71 7 72 8 73 9 74 10 3 11 4 14
REMARK SMILES IDX 5 15 6 16 14 17 7 18 13 19 8 20 9 21 12 22 10 23 11 24 19 25
REMARK SMILES IDX 20 26 21 27 22 28 23 29 24 30 70 31 25 32 69 33 26 34 27 35
REMARK SMILES IDX 28 36 63 37 29 38 68 39 62 40 64 41 30 42 67 43 61 44 60 45
REMARK SMILES IDX 31 47 53 48 38 49 52 50 39 51 42 52 51 53 65 54 40 55 41 56
REMARK SMILES IDX 50 58 66 59 43 60 32 61 33 62 37 63 34 64 36 65 35 66 54 67
REMARK SMILES IDX 55 68 59 69 56 70 58 71 57 72 44 73 45 74 49 75 46 76 48 77
REMARK SMILES IDX 47 78
REMARK H PARENT 3 12 3 13 64 46 42 57
REMARK Flexibility Score: inf
ROOT
ATOM      1  C   UNL A   1      31.434  27.996  26.656  1.00  0.00     0.274 C 
ENDROOT
BRANCH   1   2
ATOM      2  O   UNL A   1      32.527  27.125  26.287  1.00  0.00    -0.457 OA
BRANCH   2   3
ATOM      3  C   UNL A   1      32.198  25.831  25.970  1.00  0.00     0.377 C 
ATOM      4  O   UNL A   1      31.456  25.138  26.655  1.00  0.00    -0.244 OA
BRANCH   3   5
ATOM      5  C   UNL A   1      32.970  25.334  24.734  1.00  0.00     0.287 C 
ATOM      6  C   UNL A   1      33.957  26.458  24.375  1.00  0.00     0.103 C 
BRANCH   5   7
ATOM      7  C   UNL A   1      33.788  24.094  25.190  1.00  0.00     0.455 C 
ATOM      8  F   UNL A   1      34.097  24.141  26.503  1.00  0.00    -0.164 F 
ATOM      9  F   UNL A   1      33.044  22.965  25.021  1.00  0.00    -0.164 F 
ATOM     10  F   UNL A   1      34.924  23.893  24.495  1.00  0.00    -0.164 F 
ENDBRANCH   5   7
BRANCH   5  11
ATOM     11  N   UNL A   1      31.993  25.110  23.597  1.00  0.00    -0.317 N 
ATOM     12  H   UNL A   1      31.051  25.062  23.987  1.00  0.00     0.347 HD
ATOM     13  H   UNL A   1      32.270  24.244  23.134  1.00  0.00     0.347 HD
BRANCH  11  14
ATOM     14  C   UNL A   1      32.016  26.167  22.576  1.00  0.00     0.363 C 
BRANCH  14  15
ATOM     15  C   UNL A   1      30.846  27.096  22.603  1.00  0.00     0.282 A 
ATOM     16  N   UNL A   1      30.646  28.264  22.031  1.00  0.00    -0.186 NA
ATOM     17  O   UNL A   1      29.861  26.753  23.488  1.00  0.00    -0.333 OA
ATOM     18  C   UNL A   1      29.499  28.693  22.658  1.00  0.00     0.203 A 
ATOM     19  N   UNL A   1      28.971  27.821  23.528  1.00  0.00    -0.057 NA
BRANCH  18  20
ATOM     20  C   UNL A   1      28.969  30.040  22.447  1.00  0.00     0.033 A 
ATOM     21  C   UNL A   1      28.612  30.921  23.511  1.00  0.00     0.024 A 
ATOM     22  C   UNL A   1      28.745  30.609  21.210  1.00  0.00     0.077 A 
ATOM     23  C   UNL A   1      28.145  32.131  23.043  1.00  0.00     0.065 A 
ATOM     24  S   UNL A   1      28.110  32.193  21.332  1.00  0.00    -0.152 S 
ENDBRANCH  18  20
ENDBRANCH  14  15
ENDBRANCH  11  14
ENDBRANCH   5  11
ENDBRANCH   3   5
ENDBRANCH   2   3
ENDBRANCH   1   2
BRANCH   1  25
ATOM     25  C   UNL A   1      31.431  29.254  25.789  1.00  0.00     0.275 C 
BRANCH  25  26
ATOM     26  O   UNL A   1      32.750  29.819  25.802  1.00  0.00    -0.458 OA
BRANCH  26  27
ATOM     27  C   UNL A   1      32.948  30.846  26.658  1.00  0.00     0.338 C 
ATOM     28  O   UNL A   1      32.182  31.772  26.883  1.00  0.00    -0.246 OA
BRANCH  27  29
ATOM     29  C   UNL A   1      34.265  30.684  27.311  1.00  0.00     0.060 A 
ATOM     30  C   UNL A   1      34.823  29.415  27.463  1.00  0.00     0.016 A 
ATOM     31  C   UNL A   1      34.924  31.790  27.849  1.00  0.00     0.016 A 
ATOM     32  C   UNL A   1      35.990  29.234  28.200  1.00  0.00     0.010 A 
ATOM     33  C   UNL A   1      36.145  31.617  28.517  1.00  0.00     0.010 A 
ATOM     34  C   UNL A   1      36.676  30.332  28.730  1.00  0.00    -0.014 A 
BRANCH  34  35
ATOM     35  C   UNL A   1      37.902  30.123  29.555  1.00  0.00     0.031 A 
ATOM     36  C   UNL A   1      39.105  29.436  28.962  1.00  0.00     0.074 A 
ATOM     37  C   UNL A   1      37.970  30.583  30.821  1.00  0.00     0.049 A 
ATOM     38  N   UNL A   1      40.202  29.030  29.553  1.00  0.00    -0.248 NA
ATOM     39  C   UNL A   1      39.067  29.156  27.516  1.00  0.00     0.031 C 
ATOM     40  C   UNL A   1      36.913  31.314  31.523  1.00  0.00     0.029 A 
ATOM     41  N   UNL A   1      38.991  30.518  31.741  1.00  0.00    -0.354 N 
ATOM     42  C   UNL A   1      40.952  28.396  28.569  1.00  0.00     0.074 A 
ATOM     43  C   UNL A   1      40.188  28.471  27.342  1.00  0.00     0.031 C 
ATOM     44  C   UNL A   1      37.358  31.677  32.736  1.00  0.00     0.029 A 
ATOM     45  C   UNL A   1      38.699  31.136  32.933  1.00  0.00     0.049 A 
ATOM     46  H   UNL A   1      39.849  30.073  31.562  1.00  0.00     0.167 HD
ATOM     47  C   UNL A   1      42.166  27.805  28.674  1.00  0.00     0.031 A 
ATOM     48  C   UNL A   1      39.411  31.234  34.071  1.00  0.00     0.031 A 
ATOM     49  C   UNL A   1      42.957  27.771  29.875  1.00  0.00     0.049 A 
ATOM     50  C   UNL A   1      40.753  30.566  34.165  1.00  0.00     0.074 A 
ATOM     51  C   UNL A   1      44.191  27.175  30.079  1.00  0.00     0.029 A 
ATOM     52  N   UNL A   1      42.607  28.383  31.066  1.00  0.00    -0.354 N 
ATOM     53  N   UNL A   1      41.405  29.892  33.250  1.00  0.00    -0.248 NA
ATOM     54  C   UNL A   1      41.447  30.657  35.458  1.00  0.00     0.031 C 
ATOM     55  C   UNL A   1      44.578  27.410  31.404  1.00  0.00     0.029 A 
ATOM     56  C   UNL A   1      43.601  28.182  32.009  1.00  0.00     0.049 A 
ATOM     57  H   UNL A   1      41.775  28.887  31.220  1.00  0.00     0.167 HD
ATOM     58  C   UNL A   1      42.581  29.473  33.857  1.00  0.00     0.074 A 
ATOM     59  C   UNL A   1      42.571  30.000  35.206  1.00  0.00     0.031 C 
ATOM     60  C   UNL A   1      43.573  28.704  33.348  1.00  0.00     0.031 A 
BRANCH  47  61
ATOM     61  C   UNL A   1      42.704  27.110  27.455  1.00  0.00    -0.014 A 
ATOM     62  C   UNL A   1      43.468  27.795  26.499  1.00  0.00     0.009 A 
ATOM     63  C   UNL A   1      42.475  25.735  27.288  1.00  0.00     0.009 A 
ATOM     64  C   UNL A   1      43.972  27.120  25.385  1.00  0.00     0.001 A 
ATOM     65  C   UNL A   1      42.999  25.058  26.186  1.00  0.00     0.001 A 
ATOM     66  C   UNL A   1      43.741  25.752  25.233  1.00  0.00     0.000 A 
ENDBRANCH  47  61
BRANCH  48  67
ATOM     67  C   UNL A   1      38.847  31.952  35.244  1.00  0.00    -0.014 A 
ATOM     68  C   UNL A   1      38.969  33.345  35.357  1.00  0.00     0.009 A 
ATOM     69  C   UNL A   1      38.195  31.242  36.264  1.00  0.00     0.009 A 
ATOM     70  C   UNL A   1      38.465  34.009  36.479  1.00  0.00     0.001 A 
ATOM     71  C   UNL A   1      37.667  31.911  37.369  1.00  0.00     0.001 A 
ATOM     72  C   UNL A   1      37.810  33.294  37.479  1.00  0.00     0.000 A 
ENDBRANCH  48  67
BRANCH  60  73
ATOM     73  C   UNL A   1      44.727  28.400  34.257  1.00  0.00    -0.014 A 
ATOM     74  C   UNL A   1      44.723  27.256  35.071  1.00  0.00     0.009 A 
ATOM     75  C   UNL A   1      45.835  29.261  34.294  1.00  0.00     0.009 A 
ATOM     76  C   UNL A   1      45.790  27.001  35.933  1.00  0.00     0.001 A 
ATOM     77  C   UNL A   1      46.910  28.991  35.142  1.00  0.00     0.001 A 
ATOM     78  C   UNL A   1      46.883  27.868  35.967  1.00  0.00     0.000 A 
ENDBRANCH  60  73
ENDBRANCH  34  35
ENDBRANCH  27  29
ENDBRANCH  26  27
ENDBRANCH  25  26
ENDBRANCH   1  25
TORSDOF 16
ENDMDL
MODEL 2
REMARK VINA RESULT:     -10.1      3.848      8.438
REMARK SMILES C[C@]([NH2+]Cc1nc(-c2ccsc2)no1)(C(=O)OCCOC(=O)c1ccc(-c2c3nc(c(-c4ccccc4)c4ccc([nH]4)c(-c4ccccc4)c4nc(c(-c5ccccc5)c5ccc2[nH]5)C=C4)C=C3)cc1)C(F)(F)F
REMARK SMILES IDX 18 1 17 2 15 3 16 4 2 5 1 6 71 7 72 8 73 9 74 10 3 11 4 14
REMARK SMILES IDX 5 15 6 16 14 17 7 18 13 19 8 20 9 21 12 22 10 23 11 24 19 25
REMARK SMILES IDX 20 26 21 27 22 28 23 29 24 30 70 31 25 32 69 33 26 34 27 35
REMARK SMILES IDX 28 36 63 37 29 38 68 39 62 40 64 41 30 42 67 43 61 44 60 45
REMARK SMILES IDX 31 47 53 48 38 49 52 50 39 51 42 52 51 53 65 54 40 55 41 56
REMARK SMILES IDX 50 58 66 59 43 60 32 61 33 62 37 63 34 64 36 65 35 66 54 67
REMARK SMILES IDX 55 68 59 69 56 70 58 71 57 72 44 73 45 74 49 75 46 76 48 77
REMARK SMILES IDX 47 78
REMARK H PARENT 3 12 3 13 64 46 42 57
REMARK Flexibility Score: inf
ROOT
ATOM      1  C   UNL A   1      34.518  20.613  25.272  1.00  0.00     0.274 C 
ENDROOT
BRANCH   1   2
ATOM      2  O   UNL A   1      33.969  21.438  24.220  1.00  0.00    -0.457 OA
BRANCH   2   3
ATOM      3  C   UNL A   1      32.959  22.294  24.579  1.00  0.00     0.377 C 
ATOM      4  O   UNL A   1      31.820  21.924  24.835  1.00  0.00    -0.244 OA
BRANCH   3   5
ATOM      5  C   UNL A   1      33.405  23.766  24.495  1.00  0.00     0.287 C 
ATOM      6  C   UNL A   1      34.480  23.941  25.581  1.00  0.00     0.103 C 
BRANCH   5   7
ATOM      7  C   UNL A   1      34.079  23.949  23.107  1.00  0.00     0.455 C 
ATOM      8  F   UNL A   1      34.166  25.247  22.749  1.00  0.00    -0.164 F 
ATOM      9  F   UNL A   1      35.360  23.486  23.154  1.00  0.00    -0.164 F 
ATOM     10  F   UNL A   1      33.481  23.273  22.107  1.00  0.00    -0.164 F 
ENDBRANCH   5   7
BRANCH   5  11
ATOM     11  N   UNL A   1      32.217  24.661  24.785  1.00  0.00    -0.317 N 
ATOM     12  H   UNL A   1      31.373  24.192  24.453  1.00  0.00     0.347 HD
ATOM     13  H   UNL A   1      32.387  25.545  24.306  1.00  0.00     0.347 HD
BRANCH  11  14
ATOM     14  C   UNL A   1      32.041  24.974  26.210  1.00  0.00     0.363 C 
BRANCH  14  15
ATOM     15  C   UNL A   1      32.168  26.422  26.558  1.00  0.00     0.282 A 
ATOM     16  N   UNL A   1      33.160  27.272  26.403  1.00  0.00    -0.186 NA
ATOM     17  O   UNL A   1      31.135  26.928  27.297  1.00  0.00    -0.333 OA
ATOM     18  C   UNL A   1      32.734  28.343  27.153  1.00  0.00     0.203 A 
ATOM     19  N   UNL A   1      31.519  28.203  27.698  1.00  0.00    -0.057 NA
BRANCH  18  20
ATOM     20  C   UNL A   1      33.600  29.496  27.402  1.00  0.00     0.033 A 
ATOM     21  C   UNL A   1      34.993  29.386  27.695  1.00  0.00     0.024 A 
ATOM     22  C   UNL A   1      33.178  30.809  27.394  1.00  0.00     0.077 A 
ATOM     23  C   UNL A   1      35.579  30.620  27.882  1.00  0.00     0.065 A 
ATOM     24  S   UNL A   1      34.452  31.900  27.735  1.00  0.00    -0.152 S 
ENDBRANCH  18  20
ENDBRANCH  14  15
ENDBRANCH  11  14
ENDBRANCH   5  11
ENDBRANCH   3   5
ENDBRANCH   2   3
ENDBRANCH   1   2
BRANCH   1  25
ATOM     25  C   UNL A   1      35.982  20.280  24.986  1.00  0.00     0.275 C 
BRANCH  25  26
ATOM     26  O   UNL A   1      36.803  21.303  25.567  1.00  0.00    -0.458 OA
BRANCH  26  27
ATOM     27  C   UNL A   1      38.127  21.037  25.633  1.00  0.00     0.338 C 
ATOM     28  O   UNL A   1      38.682  19.992  25.321  1.00  0.00    -0.246 OA
BRANCH  27  29
ATOM     29  C   UNL A   1      38.836  22.229  26.145  1.00  0.00     0.060 A 
ATOM     30  C   UNL A   1      38.324  23.505  25.911  1.00  0.00     0.016 A 
ATOM     31  C   UNL A   1      40.060  22.092  26.800  1.00  0.00     0.016 A 
ATOM     32  C   UNL A   1      39.052  24.639  26.262  1.00  0.00     0.010 A 
ATOM     33  C   UNL A   1      40.752  23.233  27.230  1.00  0.00     0.010 A 
ATOM     34  C   UNL A   1      40.272  24.523  26.937  1.00  0.00    -0.014 A 
BRANCH  34  35
ATOM     35  C   UNL A   1      41.064  25.743  27.269  1.00  0.00     0.031 A 
ATOM     36  C   UNL A   1      40.546  26.726  28.288  1.00  0.00     0.074 A 
ATOM     37  C   UNL A   1      42.268  25.962  26.702  1.00  0.00     0.049 A 
ATOM     38  N   UNL A   1      41.009  27.911  28.605  1.00  0.00    -0.248 NA
ATOM     39  C   UNL A   1      39.345  26.333  29.043  1.00  0.00     0.031 C 
ATOM     40  C   UNL A   1      42.931  25.081  25.739  1.00  0.00     0.029 A 
ATOM     41  N   UNL A   1      43.161  26.993  26.874  1.00  0.00    -0.354 N 
ATOM     42  C   UNL A   1      40.124  28.425  29.545  1.00  0.00     0.074 A 
ATOM     43  C   UNL A   1      39.097  27.426  29.750  1.00  0.00     0.031 C 
ATOM     44  C   UNL A   1      44.144  25.579  25.449  1.00  0.00     0.029 A 
ATOM     45  C   UNL A   1      44.313  26.853  26.139  1.00  0.00     0.049 A 
ATOM     46  H   UNL A   1      42.992  27.759  27.468  1.00  0.00     0.167 HD
ATOM     47  C   UNL A   1      40.160  29.621  30.181  1.00  0.00     0.031 A 
ATOM     48  C   UNL A   1      45.377  27.667  26.005  1.00  0.00     0.031 A 
ATOM     49  C   UNL A   1      41.203  30.599  30.025  1.00  0.00     0.049 A 
ATOM     50  C   UNL A   1      45.391  28.989  26.717  1.00  0.00     0.074 A 
ATOM     51  C   UNL A   1      41.311  31.847  30.615  1.00  0.00     0.029 A 
ATOM     52  N   UNL A   1      42.333  30.426  29.246  1.00  0.00    -0.354 N 
ATOM     53  N   UNL A   1      44.499  29.498  27.531  1.00  0.00    -0.248 NA
ATOM     54  C   UNL A   1      46.553  29.858  26.474  1.00  0.00     0.031 C 
ATOM     55  C   UNL A   1      42.500  32.440  30.174  1.00  0.00     0.029 A 
ATOM     56  C   UNL A   1      43.147  31.543  29.340  1.00  0.00     0.049 A 
ATOM     57  H   UNL A   1      42.531  29.627  28.705  1.00  0.00     0.167 HD
ATOM     58  C   UNL A   1      44.988  30.747  27.891  1.00  0.00     0.074 A 
ATOM     59  C   UNL A   1      46.271  30.904  27.238  1.00  0.00     0.031 C 
ATOM     60  C   UNL A   1      44.414  31.689  28.679  1.00  0.00     0.031 A 
BRANCH  47  61
ATOM     61  C   UNL A   1      39.009  29.955  31.088  1.00  0.00    -0.014 A 
ATOM     62  C   UNL A   1      38.995  29.554  32.432  1.00  0.00     0.009 A 
ATOM     63  C   UNL A   1      37.943  30.724  30.594  1.00  0.00     0.009 A 
ATOM     64  C   UNL A   1      37.922  29.895  33.258  1.00  0.00     0.001 A 
ATOM     65  C   UNL A   1      36.883  31.083  31.427  1.00  0.00     0.001 A 
ATOM     66  C   UNL A   1      36.870  30.663  32.756  1.00  0.00     0.000 A 
ENDBRANCH  47  61
BRANCH  48  67
ATOM     67  C   UNL A   1      46.503  27.283  25.114  1.00  0.00    -0.014 A 
ATOM     68  C   UNL A   1      47.382  26.251  25.476  1.00  0.00     0.009 A 
ATOM     69  C   UNL A   1      46.711  27.959  23.901  1.00  0.00     0.009 A 
ATOM     70  C   UNL A   1      48.457  25.918  24.649  1.00  0.00     0.001 A 
ATOM     71  C   UNL A   1      47.769  27.603  23.063  1.00  0.00     0.001 A 
ATOM     72  C   UNL A   1      48.646  26.589  23.441  1.00  0.00     0.000 A 
ENDBRANCH  48  67
BRANCH  60  73
ATOM     73  C   UNL A   1      45.182  32.962  28.879  1.00  0.00    -0.014 A 
ATOM     74  C   UNL A   1      46.111  33.086  29.924  1.00  0.00     0.009 A 
ATOM     75  C   UNL A   1      44.982  34.044  28.010  1.00  0.00     0.009 A 
ATOM     76  C   UNL A   1      46.798  34.286  30.116  1.00  0.00     0.001 A 
ATOM     77  C   UNL A   1      45.686  35.236  28.192  1.00  0.00     0.001 A 
ATOM     78  C   UNL A   1      46.586  35.359  29.250  1.00  0.00     0.000 A 
ENDBRANCH  60  73
ENDBRANCH  34  35
ENDBRANCH  27  29
ENDBRANCH  26  27
ENDBRANCH  25  26
ENDBRANCH   1  25
TORSDOF 16
ENDMDL
MODEL 3
REMARK VINA RESULT:     -10.0      3.943      8.059
REMARK SMILES C[C@]([NH2+]Cc1nc(-c2ccsc2)no1)(C(=O)OCCOC(=O)c1ccc(-c2c3nc(c(-c4ccccc4)c4ccc([nH]4)c(-c4ccccc4)c4nc(c(-c5ccccc5)c5ccc2[nH]5)C=C4)C=C3)cc1)C(F)(F)F
REMARK SMILES IDX 18 1 17 2 15 3 16 4 2 5 1 6 71 7 72 8 73 9 74 10 3 11 4 14
REMARK SMILES IDX 5 15 6 16 14 17 7 18 13 19 8 20 9 21 12 22 10 23 11 24 19 25
REMARK SMILES IDX 20 26 21 27 22 28 23 29 24 30 70 31 25 32 69 33 26 34 27 35
REMARK SMILES IDX 28 36 63 37 29 38 68 39 62 40 64 41 30 42 67 43 61 44 60 45
REMARK SMILES IDX 31 47 53 48 38 49 52 50 39 51 42 52 51 53 65 54 40 55 41 56
REMARK SMILES IDX 50 58 66 59 43 60 32 61 33 62 37 63 34 64 36 65 35 66 54 67
REMARK SMILES IDX 55 68 59 69 56 70 58 71 57 72 44 73 45 74 49 75 46 76 48 77
REMARK SMILES IDX 47 78
REMARK H PARENT 3 12 3 13 64 46 42 57
REMARK Flexibility Score: inf
ROOT
ATOM      1  C   UNL A   1      37.861  21.031  25.025  1.00  0.00     0.274 C 
ENDROOT
BRANCH   1   2
ATOM      2  O   UNL A   1      36.720  21.430  25.818  1.00  0.00    -0.457 OA
BRANCH   2   3
ATOM      3  C   UNL A   1      35.483  21.153  25.294  1.00  0.00     0.377 C 
ATOM      4  O   UNL A   1      35.189  20.075  24.794  1.00  0.00    -0.244 OA
BRANCH   3   5
ATOM      5  C   UNL A   1      34.572  22.395  25.301  1.00  0.00     0.287 C 
ATOM      6  C   UNL A   1      35.305  23.449  26.147  1.00  0.00     0.103 C 
BRANCH   5   7
ATOM      7  C   UNL A   1      34.506  22.906  23.835  1.00  0.00     0.455 C 
ATOM      8  F   UNL A   1      34.448  24.254  23.767  1.00  0.00    -0.164 F 
ATOM      9  F   UNL A   1      35.641  22.547  23.171  1.00  0.00    -0.164 F 
ATOM     10  F   UNL A   1      33.484  22.402  23.117  1.00  0.00    -0.164 F 
ENDBRANCH   5   7
BRANCH   5  11
ATOM     11  N   UNL A   1      33.248  22.035  25.944  1.00  0.00    -0.317 N 
ATOM     12  H   UNL A   1      33.361  21.147  26.436  1.00  0.00     0.347 HD
ATOM     13  H   UNL A   1      32.558  21.981  25.194  1.00  0.00     0.347 HD
BRANCH  11  14
ATOM     14  C   UNL A   1      32.760  23.035  26.903  1.00  0.00     0.363 C 
BRANCH  14  15
ATOM     15  C   UNL A   1      31.737  23.981  26.362  1.00  0.00     0.282 A 
ATOM     16  N   UNL A   1      31.757  24.785  25.320  1.00  0.00    -0.186 NA
ATOM     17  O   UNL A   1      30.641  24.160  27.160  1.00  0.00    -0.333 OA
ATOM     18  C   UNL A   1      30.635  25.550  25.533  1.00  0.00     0.203 A 
ATOM     19  N   UNL A   1      29.915  25.210  26.609  1.00  0.00    -0.057 NA
BRANCH  18  20
ATOM     20  C   UNL A   1      30.324  26.704  24.689  1.00  0.00     0.033 A 
ATOM     21  C   UNL A   1      29.204  26.755  23.806  1.00  0.00     0.024 A 
ATOM     22  C   UNL A   1      31.072  27.862  24.637  1.00  0.00     0.077 A 
ATOM     23  C   UNL A   1      29.134  27.954  23.130  1.00  0.00     0.065 A 
ATOM     24  S   UNL A   1      30.427  29.001  23.534  1.00  0.00    -0.152 S 
ENDBRANCH  18  20
ENDBRANCH  14  15
ENDBRANCH  11  14
ENDBRANCH   5  11
ENDBRANCH   3   5
ENDBRANCH   2   3
ENDBRANCH   1   2
BRANCH   1  25
ATOM     25  C   UNL A   1      39.155  21.207  25.816  1.00  0.00     0.275 C 
BRANCH  25  26
ATOM     26  O   UNL A   1      39.732  19.912  26.041  1.00  0.00    -0.458 OA
BRANCH  26  27
ATOM     27  C   UNL A   1      41.082  19.850  26.020  1.00  0.00     0.338 C 
ATOM     28  O   UNL A   1      41.768  18.926  25.606  1.00  0.00    -0.246 OA
BRANCH  27  29
ATOM     29  C   UNL A   1      41.633  21.103  26.580  1.00  0.00     0.060 A 
ATOM     30  C   UNL A   1      41.711  21.280  27.961  1.00  0.00     0.016 A 
ATOM     31  C   UNL A   1      42.009  22.146  25.734  1.00  0.00     0.016 A 
ATOM     32  C   UNL A   1      42.093  22.505  28.501  1.00  0.00     0.010 A 
ATOM     33  C   UNL A   1      42.477  23.351  26.278  1.00  0.00     0.010 A 
ATOM     34  C   UNL A   1      42.493  23.557  27.669  1.00  0.00    -0.014 A 
BRANCH  34  35
ATOM     35  C   UNL A   1      42.859  24.880  28.257  1.00  0.00     0.031 A 
ATOM     36  C   UNL A   1      41.790  25.906  28.533  1.00  0.00     0.074 A 
ATOM     37  C   UNL A   1      44.136  25.159  28.590  1.00  0.00     0.049 A 
ATOM     38  N   UNL A   1      41.919  27.158  28.899  1.00  0.00    -0.248 NA
ATOM     39  C   UNL A   1      40.392  25.474  28.366  1.00  0.00     0.031 C 
ATOM     40  C   UNL A   1      45.277  24.255  28.436  1.00  0.00     0.029 A 
ATOM     41  N   UNL A   1      44.684  26.288  29.153  1.00  0.00    -0.354 N 
ATOM     42  C   UNL A   1      40.629  27.675  28.944  1.00  0.00     0.074 A 
ATOM     43  C   UNL A   1      39.731  26.603  28.571  1.00  0.00     0.031 C 
ATOM     44  C   UNL A   1      46.374  24.840  28.941  1.00  0.00     0.029 A 
ATOM     45  C   UNL A   1      46.036  26.190  29.380  1.00  0.00     0.049 A 
ATOM     46  H   UNL A   1      44.159  27.090  29.372  1.00  0.00     0.167 HD
ATOM     47  C   UNL A   1      40.227  28.927  29.267  1.00  0.00     0.031 A 
ATOM     48  C   UNL A   1      46.916  27.089  29.857  1.00  0.00     0.031 A 
ATOM     49  C   UNL A   1      41.105  29.984  29.692  1.00  0.00     0.049 A 
ATOM     50  C   UNL A   1      46.446  28.473  30.204  1.00  0.00     0.074 A 
ATOM     51  C   UNL A   1      40.787  31.292  30.019  1.00  0.00     0.029 A 
ATOM     52  N   UNL A   1      42.469  29.847  29.877  1.00  0.00    -0.354 N 
ATOM     53  N   UNL A   1      45.235  28.971  30.151  1.00  0.00    -0.248 NA
ATOM     54  C   UNL A   1      47.472  29.425  30.656  1.00  0.00     0.031 C 
ATOM     55  C   UNL A   1      41.966  31.952  30.383  1.00  0.00     0.029 A 
ATOM     56  C   UNL A   1      43.009  31.044  30.316  1.00  0.00     0.049 A 
ATOM     57  H   UNL A   1      42.982  29.020  29.720  1.00  0.00     0.167 HD
ATOM     58  C   UNL A   1      45.354  30.293  30.558  1.00  0.00     0.074 A 
ATOM     59  C   UNL A   1      46.747  30.510  30.889  1.00  0.00     0.031 C 
ATOM     60  C   UNL A   1      44.396  31.248  30.632  1.00  0.00     0.031 A 
BRANCH  47  61
ATOM     61  C   UNL A   1      38.761  29.236  29.141  1.00  0.00    -0.014 A 
ATOM     62  C   UNL A   1      37.886  29.091  30.227  1.00  0.00     0.009 A 
ATOM     63  C   UNL A   1      38.262  29.720  27.922  1.00  0.00     0.009 A 
ATOM     64  C   UNL A   1      36.532  29.404  30.087  1.00  0.00     0.001 A 
ATOM     65  C   UNL A   1      36.913  30.054  27.791  1.00  0.00     0.001 A 
ATOM     66  C   UNL A   1      36.049  29.889  28.872  1.00  0.00     0.000 A 
ENDBRANCH  47  61
BRANCH  48  67
ATOM     67  C   UNL A   1      48.353  26.731  29.986  1.00  0.00    -0.014 A 
ATOM     68  C   UNL A   1      49.206  26.785  28.874  1.00  0.00     0.009 A 
ATOM     69  C   UNL A   1      48.873  26.320  31.223  1.00  0.00     0.009 A 
ATOM     70  C   UNL A   1      50.548  26.415  28.995  1.00  0.00     0.001 A 
ATOM     71  C   UNL A   1      50.221  25.980  31.348  1.00  0.00     0.001 A 
ATOM     72  C   UNL A   1      51.056  26.019  30.232  1.00  0.00     0.000 A 
ENDBRANCH  48  67
BRANCH  60  73
ATOM     73  C   UNL A   1      44.830  32.606  31.098  1.00  0.00    -0.014 A 
ATOM     74  C   UNL A   1      44.826  32.935  32.463  1.00  0.00     0.009 A 
ATOM     75  C   UNL A   1      45.256  33.564  30.166  1.00  0.00     0.009 A 
ATOM     76  C   UNL A   1      45.206  34.212  32.881  1.00  0.00     0.001 A 
ATOM     77  C   UNL A   1      45.654  34.833  30.589  1.00  0.00     0.001 A 
ATOM     78  C   UNL A   1      45.620  35.159  31.944  1.00  0.00     0.000 A 
ENDBRANCH  60  73
ENDBRANCH  34  35
ENDBRANCH  27  29
ENDBRANCH  26  27
ENDBRANCH  25  26
ENDBRANCH   1  25
TORSDOF 16
ENDMDL
