MODEL 1
REMARK VINA RESULT:     -11.3      0.000      0.000
REMARK SMILES C[C@H]1Oc2ccccc2C=C1/C=C/C(=O)N[C@H](C(=O)OCCOC(=O)c1ccc(-c2c3nc(c(-c4ccccc4)c4ccc([nH]4)c(-c4ccccc4)c4nc(c(-c5ccccc5)c5ccc2[nH]5)C=C4)C=C3)cc1)c1ccccc1
REMARK SMILES IDX 21 1 20 2 18 3 19 4 17 5 16 6 14 7 15 8 13 10 12 11 11 12
REMARK SMILES IDX 1 13 2 14 3 15 4 16 10 17 5 18 9 19 6 20 8 21 7 22 74 23
REMARK SMILES IDX 75 24 79 25 76 26 78 27 77 28 22 29 23 30 24 31 25 32 26 33
REMARK SMILES IDX 27 34 73 35 28 36 72 37 29 38 30 39 31 40 66 41 32 42 71 43
REMARK SMILES IDX 65 44 67 45 33 46 70 47 64 48 63 49 34 51 56 52 41 53 55 54
REMARK SMILES IDX 42 55 45 56 54 57 68 58 43 59 44 60 53 62 69 63 46 64 35 65
REMARK SMILES IDX 36 66 40 67 37 68 39 69 38 70 57 71 58 72 62 73 59 74 61 75
REMARK SMILES IDX 60 76 47 77 48 78 52 79 49 80 51 81 50 82
REMARK H PARENT 16 9 67 50 45 61
REMARK Flexibility Score: inf
ROOT
ATOM      1  C   UNL A   1      32.218  29.772  26.383  1.00  0.00     0.274 C 
ENDROOT
BRANCH   1   2
ATOM      2  O   UNL A   1      32.582  29.770  24.986  1.00  0.00    -0.460 OA
BRANCH   2   3
ATOM      3  C   UNL A   1      32.829  28.542  24.443  1.00  0.00     0.333 C 
ATOM      4  O   UNL A   1      33.933  28.148  24.077  1.00  0.00    -0.249 OA
BRANCH   3   5
ATOM      5  C   UNL A   1      31.544  27.696  24.307  1.00  0.00     0.223 C 
BRANCH   5   6
ATOM      6  N   UNL A   1      31.414  27.429  22.861  1.00  0.00    -0.335 N 
ATOM      7  C   UNL A   1      31.791  26.405  22.060  1.00  0.00     0.244 C 
ATOM      8  O   UNL A   1      31.472  26.419  20.874  1.00  0.00    -0.270 OA
ATOM      9  H   UNL A   1      30.954  28.152  22.375  1.00  0.00     0.165 HD
BRANCH   7  10
ATOM     10  C   UNL A   1      32.723  25.364  22.541  1.00  0.00     0.071 C 
ATOM     11  C   UNL A   1      32.401  24.087  22.779  1.00  0.00     0.013 C 
BRANCH  11  12
ATOM     12  C   UNL A   1      33.307  23.107  23.365  1.00  0.00    -0.007 C 
ATOM     13  C   UNL A   1      32.091  20.986  22.646  1.00  0.00     0.058 C 
ATOM     14  C   UNL A   1      32.700  21.778  23.804  1.00  0.00     0.200 C 
ATOM     15  O   UNL A   1      33.571  20.863  24.499  1.00  0.00    -0.485 OA
ATOM     16  C   UNL A   1      34.909  21.123  24.507  1.00  0.00     0.127 A 
ATOM     17  C   UNL A   1      34.616  23.360  23.510  1.00  0.00     0.019 C 
ATOM     18  C   UNL A   1      35.725  20.106  25.006  1.00  0.00     0.047 A 
ATOM     19  C   UNL A   1      35.469  22.322  24.068  1.00  0.00     0.017 A 
ATOM     20  C   UNL A   1      37.106  20.284  25.067  1.00  0.00     0.004 A 
ATOM     21  C   UNL A   1      36.852  22.508  24.155  1.00  0.00     0.012 A 
ATOM     22  C   UNL A   1      37.669  21.489  24.649  1.00  0.00     0.001 A 
ENDBRANCH  11  12
ENDBRANCH   7  10
ENDBRANCH   5   6
BRANCH   5  23
ATOM     23  C   UNL A   1      31.549  26.470  25.209  1.00  0.00    -0.014 A 
ATOM     24  C   UNL A   1      32.691  26.034  25.904  1.00  0.00     0.006 A 
ATOM     25  C   UNL A   1      30.374  25.708  25.343  1.00  0.00     0.006 A 
ATOM     26  C   UNL A   1      32.678  24.854  26.653  1.00  0.00     0.000 A 
ATOM     27  C   UNL A   1      30.352  24.544  26.117  1.00  0.00     0.000 A 
ATOM     28  C   UNL A   1      31.508  24.108  26.759  1.00  0.00     0.000 A 
ENDBRANCH   5  23
ENDBRANCH   3   5
ENDBRANCH   2   3
ENDBRANCH   1   2
BRANCH   1  29
ATOM     29  C   UNL A   1      33.404  29.365  27.253  1.00  0.00     0.275 C 
BRANCH  29  30
ATOM     30  O   UNL A   1      34.417  30.381  27.175  1.00  0.00    -0.458 OA
BRANCH  30  31
ATOM     31  C   UNL A   1      35.020  30.705  28.342  1.00  0.00     0.338 C 
ATOM     32  O   UNL A   1      34.579  31.408  29.234  1.00  0.00    -0.246 OA
BRANCH  31  33
ATOM     33  C   UNL A   1      36.346  30.064  28.393  1.00  0.00     0.060 A 
ATOM     34  C   UNL A   1      37.170  30.091  27.271  1.00  0.00     0.016 A 
ATOM     35  C   UNL A   1      36.818  29.524  29.587  1.00  0.00     0.016 A 
ATOM     36  C   UNL A   1      38.457  29.551  27.350  1.00  0.00     0.010 A 
ATOM     37  C   UNL A   1      38.144  29.107  29.694  1.00  0.00     0.010 A 
ATOM     38  C   UNL A   1      38.975  29.083  28.573  1.00  0.00    -0.014 A 
BRANCH  38  39
ATOM     39  C   UNL A   1      40.374  28.577  28.673  1.00  0.00     0.031 A 
ATOM     40  C   UNL A   1      40.714  27.146  28.332  1.00  0.00     0.074 A 
ATOM     41  C   UNL A   1      41.355  29.410  29.081  1.00  0.00     0.049 A 
ATOM     42  N   UNL A   1      41.894  26.581  28.251  1.00  0.00    -0.248 NA
ATOM     43  C   UNL A   1      39.599  26.216  28.087  1.00  0.00     0.031 C 
ATOM     44  C   UNL A   1      41.158  30.783  29.551  1.00  0.00     0.029 A 
ATOM     45  N   UNL A   1      42.717  29.236  29.132  1.00  0.00    -0.354 N 
ATOM     46  C   UNL A   1      41.656  25.242  27.967  1.00  0.00     0.074 A 
ATOM     47  C   UNL A   1      40.225  25.056  27.967  1.00  0.00     0.031 C 
ATOM     48  C   UNL A   1      42.355  31.357  29.744  1.00  0.00     0.029 A 
ATOM     49  C   UNL A   1      43.403  30.385  29.448  1.00  0.00     0.049 A 
ATOM     50  H   UNL A   1      43.159  28.373  28.958  1.00  0.00     0.167 HD
ATOM     51  C   UNL A   1      42.542  24.258  27.684  1.00  0.00     0.031 A 
ATOM     52  C   UNL A   1      44.726  30.645  29.459  1.00  0.00     0.031 A 
ATOM     53  C   UNL A   1      43.964  24.448  27.632  1.00  0.00     0.049 A 
ATOM     54  C   UNL A   1      45.694  29.562  29.070  1.00  0.00     0.074 A 
ATOM     55  C   UNL A   1      44.940  23.536  27.269  1.00  0.00     0.029 A 
ATOM     56  N   UNL A   1      44.613  25.632  27.944  1.00  0.00    -0.354 N 
ATOM     57  N   UNL A   1      45.445  28.331  28.696  1.00  0.00    -0.248 NA
ATOM     58  C   UNL A   1      47.123  29.909  29.087  1.00  0.00     0.031 C 
ATOM     59  C   UNL A   1      46.183  24.157  27.401  1.00  0.00     0.029 A 
ATOM     60  C   UNL A   1      45.978  25.469  27.794  1.00  0.00     0.049 A 
ATOM     61  H   UNL A   1      44.169  26.463  28.229  1.00  0.00     0.167 HD
ATOM     62  C   UNL A   1      46.680  27.761  28.419  1.00  0.00     0.074 A 
ATOM     63  C   UNL A   1      47.678  28.787  28.646  1.00  0.00     0.031 C 
ATOM     64  C   UNL A   1      46.960  26.499  28.016  1.00  0.00     0.031 A 
BRANCH  51  65
ATOM     65  C   UNL A   1      41.999  22.893  27.359  1.00  0.00    -0.014 A 
ATOM     66  C   UNL A   1      41.598  22.588  26.048  1.00  0.00     0.009 A 
ATOM     67  C   UNL A   1      41.814  21.932  28.366  1.00  0.00     0.009 A 
ATOM     68  C   UNL A   1      41.022  21.350  25.754  1.00  0.00     0.001 A 
ATOM     69  C   UNL A   1      41.268  20.683  28.063  1.00  0.00     0.001 A 
ATOM     70  C   UNL A   1      40.865  20.396  26.760  1.00  0.00     0.000 A 
ENDBRANCH  51  65
BRANCH  52  71
ATOM     71  C   UNL A   1      45.199  32.020  29.770  1.00  0.00    -0.014 A 
ATOM     72  C   UNL A   1      45.497  32.929  28.742  1.00  0.00     0.009 A 
ATOM     73  C   UNL A   1      45.401  32.413  31.102  1.00  0.00     0.009 A 
ATOM     74  C   UNL A   1      46.004  34.196  29.044  1.00  0.00     0.001 A 
ATOM     75  C   UNL A   1      45.882  33.691  31.401  1.00  0.00     0.001 A 
ATOM     76  C   UNL A   1      46.191  34.577  30.371  1.00  0.00     0.000 A 
ENDBRANCH  52  71
BRANCH  64  77
ATOM     77  C   UNL A   1      48.397  26.133  27.780  1.00  0.00    -0.014 A 
ATOM     78  C   UNL A   1      48.949  26.276  26.497  1.00  0.00     0.009 A 
ATOM     79  C   UNL A   1      49.162  25.530  28.789  1.00  0.00     0.009 A 
ATOM     80  C   UNL A   1      50.234  25.805  26.223  1.00  0.00     0.001 A 
ATOM     81  C   UNL A   1      50.457  25.083  28.518  1.00  0.00     0.001 A 
ATOM     82  C   UNL A   1      50.987  25.211  27.235  1.00  0.00     0.000 A 
ENDBRANCH  64  77
ENDBRANCH  38  39
ENDBRANCH  31  33
ENDBRANCH  30  31
ENDBRANCH  29  30
ENDBRANCH   1  29
TORSDOF 15
ENDMDL
MODEL 2
REMARK VINA RESULT:     -11.3      4.060      9.025
REMARK SMILES C[C@H]1Oc2ccccc2C=C1/C=C/C(=O)N[C@H](C(=O)OCCOC(=O)c1ccc(-c2c3nc(c(-c4ccccc4)c4ccc([nH]4)c(-c4ccccc4)c4nc(c(-c5ccccc5)c5ccc2[nH]5)C=C4)C=C3)cc1)c1ccccc1
REMARK SMILES IDX 21 1 20 2 18 3 19 4 17 5 16 6 14 7 15 8 13 10 12 11 11 12
REMARK SMILES IDX 1 13 2 14 3 15 4 16 10 17 5 18 9 19 6 20 8 21 7 22 74 23
REMARK SMILES IDX 75 24 79 25 76 26 78 27 77 28 22 29 23 30 24 31 25 32 26 33
REMARK SMILES IDX 27 34 73 35 28 36 72 37 29 38 30 39 31 40 66 41 32 42 71 43
REMARK SMILES IDX 65 44 67 45 33 46 70 47 64 48 63 49 34 51 56 52 41 53 55 54
REMARK SMILES IDX 42 55 45 56 54 57 68 58 43 59 44 60 53 62 69 63 46 64 35 65
REMARK SMILES IDX 36 66 40 67 37 68 39 69 38 70 57 71 58 72 62 73 59 74 61 75
REMARK SMILES IDX 60 76 47 77 48 78 52 79 49 80 51 81 50 82
REMARK H PARENT 16 9 67 50 45 61
REMARK Flexibility Score: inf
ROOT
ATOM      1  C   UNL A   1      36.099  23.256  24.541  1.00  0.00     0.274 C 
ENDROOT
BRANCH   1   2
ATOM      2  O   UNL A   1      35.152  22.172  24.418  1.00  0.00    -0.460 OA
BRANCH   2   3
ATOM      3  C   UNL A   1      33.919  22.403  24.956  1.00  0.00     0.333 C 
ATOM      4  O   UNL A   1      33.716  23.013  26.003  1.00  0.00    -0.249 OA
BRANCH   3   5
ATOM      5  C   UNL A   1      32.788  21.779  24.110  1.00  0.00     0.223 C 
BRANCH   5   6
ATOM      6  N   UNL A   1      32.957  22.354  22.762  1.00  0.00    -0.335 N 
ATOM      7  C   UNL A   1      33.094  23.617  22.293  1.00  0.00     0.244 C 
ATOM      8  O   UNL A   1      33.303  23.795  21.096  1.00  0.00    -0.270 OA
ATOM      9  H   UNL A   1      32.975  21.673  22.051  1.00  0.00     0.165 HD
BRANCH   7  10
ATOM     10  C   UNL A   1      32.824  24.784  23.157  1.00  0.00     0.071 C 
ATOM     11  C   UNL A   1      32.769  26.057  22.744  1.00  0.00     0.013 C 
BRANCH  11  12
ATOM     12  C   UNL A   1      32.617  27.202  23.632  1.00  0.00    -0.007 C 
ATOM     13  C   UNL A   1      30.072  27.253  23.758  1.00  0.00     0.058 C 
ATOM     14  C   UNL A   1      31.352  28.040  23.471  1.00  0.00     0.200 C 
ATOM     15  O   UNL A   1      31.265  29.243  24.260  1.00  0.00    -0.485 OA
ATOM     16  C   UNL A   1      32.176  29.433  25.256  1.00  0.00     0.127 A 
ATOM     17  C   UNL A   1      33.546  27.507  24.550  1.00  0.00     0.019 C 
ATOM     18  C   UNL A   1      31.923  30.500  26.120  1.00  0.00     0.047 A 
ATOM     19  C   UNL A   1      33.312  28.643  25.427  1.00  0.00     0.017 A 
ATOM     20  C   UNL A   1      32.807  30.781  27.161  1.00  0.00     0.004 A 
ATOM     21  C   UNL A   1      34.210  28.943  26.457  1.00  0.00     0.012 A 
ATOM     22  C   UNL A   1      33.955  30.007  27.324  1.00  0.00     0.001 A 
ENDBRANCH  11  12
ENDBRANCH   7  10
ENDBRANCH   5   6
BRANCH   5  23
ATOM     23  C   UNL A   1      32.769  20.258  24.184  1.00  0.00    -0.014 A 
ATOM     24  C   UNL A   1      32.573  19.438  23.059  1.00  0.00     0.006 A 
ATOM     25  C   UNL A   1      32.923  19.626  25.432  1.00  0.00     0.006 A 
ATOM     26  C   UNL A   1      32.473  18.049  23.181  1.00  0.00     0.000 A 
ATOM     27  C   UNL A   1      32.854  18.235  25.550  1.00  0.00     0.000 A 
ATOM     28  C   UNL A   1      32.614  17.447  24.427  1.00  0.00     0.000 A 
ENDBRANCH   5  23
ENDBRANCH   3   5
ENDBRANCH   2   3
ENDBRANCH   1   2
BRANCH   1  29
ATOM     29  C   UNL A   1      37.252  22.866  25.462  1.00  0.00     0.275 C 
BRANCH  29  30
ATOM     30  O   UNL A   1      38.107  24.003  25.654  1.00  0.00    -0.458 OA
BRANCH  30  31
ATOM     31  C   UNL A   1      39.261  23.769  26.322  1.00  0.00     0.338 C 
ATOM     32  O   UNL A   1      39.992  22.800  26.219  1.00  0.00    -0.246 OA
BRANCH  31  33
ATOM     33  C   UNL A   1      39.529  24.898  27.231  1.00  0.00     0.060 A 
ATOM     34  C   UNL A   1      40.248  25.998  26.772  1.00  0.00     0.016 A 
ATOM     35  C   UNL A   1      38.977  24.913  28.510  1.00  0.00     0.016 A 
ATOM     36  C   UNL A   1      40.430  27.099  27.615  1.00  0.00     0.010 A 
ATOM     37  C   UNL A   1      39.052  26.063  29.294  1.00  0.00     0.010 A 
ATOM     38  C   UNL A   1      39.805  27.162  28.875  1.00  0.00    -0.014 A 
BRANCH  38  39
ATOM     39  C   UNL A   1      39.939  28.368  29.740  1.00  0.00     0.031 A 
ATOM     40  C   UNL A   1      38.942  29.500  29.666  1.00  0.00     0.074 A 
ATOM     41  C   UNL A   1      40.973  28.456  30.603  1.00  0.00     0.049 A 
ATOM     42  N   UNL A   1      38.846  30.560  30.431  1.00  0.00    -0.248 NA
ATOM     43  C   UNL A   1      37.947  29.466  28.581  1.00  0.00     0.031 C 
ATOM     44  C   UNL A   1      42.075  27.495  30.704  1.00  0.00     0.029 A 
ATOM     45  N   UNL A   1      41.249  29.378  31.584  1.00  0.00    -0.354 N 
ATOM     46  C   UNL A   1      37.804  31.315  29.907  1.00  0.00     0.074 A 
ATOM     47  C   UNL A   1      37.347  30.638  28.717  1.00  0.00     0.031 C 
ATOM     48  C   UNL A   1      42.846  27.820  31.753  1.00  0.00     0.029 A 
ATOM     49  C   UNL A   1      42.318  29.029  32.376  1.00  0.00     0.049 A 
ATOM     50  H   UNL A   1      40.731  30.205  31.710  1.00  0.00     0.167 HD
ATOM     51  C   UNL A   1      37.240  32.445  30.393  1.00  0.00     0.031 A 
ATOM     52  C   UNL A   1      42.800  29.594  33.502  1.00  0.00     0.031 A 
ATOM     53  C   UNL A   1      37.657  33.095  31.603  1.00  0.00     0.049 A 
ATOM     54  C   UNL A   1      42.116  30.807  34.070  1.00  0.00     0.074 A 
ATOM     55  C   UNL A   1      37.092  34.195  32.226  1.00  0.00     0.029 A 
ATOM     56  N   UNL A   1      38.733  32.699  32.380  1.00  0.00    -0.354 N 
ATOM     57  N   UNL A   1      41.062  31.443  33.622  1.00  0.00    -0.248 NA
ATOM     58  C   UNL A   1      42.677  31.368  35.308  1.00  0.00     0.031 C 
ATOM     59  C   UNL A   1      37.854  34.490  33.358  1.00  0.00     0.029 A 
ATOM     60  C   UNL A   1      38.858  33.542  33.469  1.00  0.00     0.049 A 
ATOM     61  H   UNL A   1      39.320  31.933  32.186  1.00  0.00     0.167 HD
ATOM     62  C   UNL A   1      40.824  32.468  34.527  1.00  0.00     0.074 A 
ATOM     63  C   UNL A   1      41.830  32.357  35.563  1.00  0.00     0.031 C 
ATOM     64  C   UNL A   1      39.858  33.417  34.497  1.00  0.00     0.031 A 
BRANCH  51  65
ATOM     65  C   UNL A   1      36.076  33.031  29.641  1.00  0.00    -0.014 A 
ATOM     66  C   UNL A   1      34.768  32.858  30.121  1.00  0.00     0.009 A 
ATOM     67  C   UNL A   1      36.267  33.691  28.416  1.00  0.00     0.009 A 
ATOM     68  C   UNL A   1      33.677  33.332  29.390  1.00  0.00     0.001 A 
ATOM     69  C   UNL A   1      35.176  34.193  27.703  1.00  0.00     0.001 A 
ATOM     70  C   UNL A   1      33.882  34.006  28.186  1.00  0.00     0.000 A 
ENDBRANCH  51  65
BRANCH  52  71
ATOM     71  C   UNL A   1      43.941  28.956  34.210  1.00  0.00    -0.014 A 
ATOM     72  C   UNL A   1      45.255  29.409  34.013  1.00  0.00     0.009 A 
ATOM     73  C   UNL A   1      43.723  27.853  35.052  1.00  0.00     0.009 A 
ATOM     74  C   UNL A   1      46.328  28.760  34.631  1.00  0.00     0.001 A 
ATOM     75  C   UNL A   1      44.795  27.224  35.690  1.00  0.00     0.001 A 
ATOM     76  C   UNL A   1      46.097  27.673  35.472  1.00  0.00     0.000 A 
ENDBRANCH  52  71
BRANCH  64  77
ATOM     77  C   UNL A   1      39.818  34.421  35.613  1.00  0.00    -0.014 A 
ATOM     78  C   UNL A   1      40.620  35.571  35.544  1.00  0.00     0.009 A 
ATOM     79  C   UNL A   1      39.089  34.166  36.785  1.00  0.00     0.009 A 
ATOM     80  C   UNL A   1      40.709  36.439  36.633  1.00  0.00     0.001 A 
ATOM     81  C   UNL A   1      39.161  35.050  37.863  1.00  0.00     0.001 A 
ATOM     82  C   UNL A   1      39.977  36.179  37.791  1.00  0.00     0.000 A 
ENDBRANCH  64  77
ENDBRANCH  38  39
ENDBRANCH  31  33
ENDBRANCH  30  31
ENDBRANCH  29  30
ENDBRANCH   1  29
TORSDOF 15
ENDMDL
MODEL 3
REMARK VINA RESULT:     -11.3      2.819      8.230
REMARK SMILES C[C@H]1Oc2ccccc2C=C1/C=C/C(=O)N[C@H](C(=O)OCCOC(=O)c1ccc(-c2c3nc(c(-c4ccccc4)c4ccc([nH]4)c(-c4ccccc4)c4nc(c(-c5ccccc5)c5ccc2[nH]5)C=C4)C=C3)cc1)c1ccccc1
REMARK SMILES IDX 21 1 20 2 18 3 19 4 17 5 16 6 14 7 15 8 13 10 12 11 11 12
REMARK SMILES IDX 1 13 2 14 3 15 4 16 10 17 5 18 9 19 6 20 8 21 7 22 74 23
REMARK SMILES IDX 75 24 79 25 76 26 78 27 77 28 22 29 23 30 24 31 25 32 26 33
REMARK SMILES IDX 27 34 73 35 28 36 72 37 29 38 30 39 31 40 66 41 32 42 71 43
REMARK SMILES IDX 65 44 67 45 33 46 70 47 64 48 63 49 34 51 56 52 41 53 55 54
REMARK SMILES IDX 42 55 45 56 54 57 68 58 43 59 44 60 53 62 69 63 46 64 35 65
REMARK SMILES IDX 36 66 40 67 37 68 39 69 38 70 57 71 58 72 62 73 59 74 61 75
REMARK SMILES IDX 60 76 47 77 48 78 52 79 49 80 51 81 50 82
REMARK H PARENT 16 9 67 50 45 61
REMARK Flexibility Score: inf
ROOT
ATOM      1  C   UNL A   1      36.210  22.770  24.410  1.00  0.00     0.274 C 
ENDROOT
BRANCH   1   2
ATOM      2  O   UNL A   1      35.156  21.784  24.371  1.00  0.00    -0.460 OA
BRANCH   2   3
ATOM      3  C   UNL A   1      33.953  22.188  24.874  1.00  0.00     0.333 C 
ATOM      4  O   UNL A   1      33.811  22.861  25.892  1.00  0.00    -0.249 OA
BRANCH   3   5
ATOM      5  C   UNL A   1      32.766  21.675  24.030  1.00  0.00     0.223 C 
BRANCH   5   6
ATOM      6  N   UNL A   1      32.958  22.276  22.696  1.00  0.00    -0.335 N 
ATOM      7  C   UNL A   1      33.236  23.529  22.264  1.00  0.00     0.244 C 
ATOM      8  O   UNL A   1      33.422  23.726  21.067  1.00  0.00    -0.270 OA
ATOM      9  H   UNL A   1      32.865  21.625  21.963  1.00  0.00     0.165 HD
BRANCH   7  10
ATOM     10  C   UNL A   1      33.144  24.687  23.177  1.00  0.00     0.071 C 
ATOM     11  C   UNL A   1      32.434  25.799  22.947  1.00  0.00     0.013 C 
BRANCH  11  12
ATOM     12  C   UNL A   1      32.453  26.977  23.806  1.00  0.00    -0.007 C 
ATOM     13  C   UNL A   1      29.939  27.363  23.976  1.00  0.00     0.058 C 
ATOM     14  C   UNL A   1      31.304  27.968  23.645  1.00  0.00     0.200 C 
ATOM     15  O   UNL A   1      31.392  29.192  24.402  1.00  0.00    -0.485 OA
ATOM     16  C   UNL A   1      32.340  29.285  25.376  1.00  0.00     0.127 A 
ATOM     17  C   UNL A   1      33.432  27.180  24.699  1.00  0.00     0.019 C 
ATOM     18  C   UNL A   1      32.247  30.397  26.215  1.00  0.00     0.047 A 
ATOM     19  C   UNL A   1      33.367  28.358  25.549  1.00  0.00     0.017 A 
ATOM     20  C   UNL A   1      33.182  30.587  27.232  1.00  0.00     0.004 A 
ATOM     21  C   UNL A   1      34.317  28.564  26.554  1.00  0.00     0.012 A 
ATOM     22  C   UNL A   1      34.222  29.673  27.396  1.00  0.00     0.001 A 
ENDBRANCH  11  12
ENDBRANCH   7  10
ENDBRANCH   5   6
BRANCH   5  23
ATOM     23  C   UNL A   1      32.634  20.158  24.061  1.00  0.00    -0.014 A 
ATOM     24  C   UNL A   1      32.691  19.408  25.249  1.00  0.00     0.006 A 
ATOM     25  C   UNL A   1      32.479  19.455  22.852  1.00  0.00     0.006 A 
ATOM     26  C   UNL A   1      32.654  18.011  25.226  1.00  0.00     0.000 A 
ATOM     27  C   UNL A   1      32.411  18.059  22.833  1.00  0.00     0.000 A 
ATOM     28  C   UNL A   1      32.515  17.336  24.018  1.00  0.00     0.000 A 
ENDBRANCH   5  23
ENDBRANCH   3   5
ENDBRANCH   2   3
ENDBRANCH   1   2
BRANCH   1  29
ATOM     29  C   UNL A   1      37.472  22.189  25.044  1.00  0.00     0.275 C 
BRANCH  29  30
ATOM     30  O   UNL A   1      37.981  23.115  26.015  1.00  0.00    -0.458 OA
BRANCH  30  31
ATOM     31  C   UNL A   1      39.289  22.976  26.336  1.00  0.00     0.338 C 
ATOM     32  O   UNL A   1      39.991  21.995  26.170  1.00  0.00    -0.246 OA
BRANCH  31  33
ATOM     33  C   UNL A   1      39.772  24.230  26.940  1.00  0.00     0.060 A 
ATOM     34  C   UNL A   1      40.353  25.205  26.133  1.00  0.00     0.016 A 
ATOM     35  C   UNL A   1      39.557  24.487  28.292  1.00  0.00     0.016 A 
ATOM     36  C   UNL A   1      40.738  26.425  26.699  1.00  0.00     0.010 A 
ATOM     37  C   UNL A   1      39.822  25.749  28.819  1.00  0.00     0.010 A 
ATOM     38  C   UNL A   1      40.445  26.728  28.042  1.00  0.00    -0.014 A 
BRANCH  38  39
ATOM     39  C   UNL A   1      40.788  28.057  28.624  1.00  0.00     0.031 A 
ATOM     40  C   UNL A   1      39.739  29.128  28.802  1.00  0.00     0.074 A 
ATOM     41  C   UNL A   1      42.062  28.312  28.992  1.00  0.00     0.049 A 
ATOM     42  N   UNL A   1      39.846  30.290  29.400  1.00  0.00    -0.248 NA
ATOM     43  C   UNL A   1      38.413  28.893  28.207  1.00  0.00     0.031 C 
ATOM     44  C   UNL A   1      43.201  27.418  28.776  1.00  0.00     0.029 A 
ATOM     45  N   UNL A   1      42.606  29.384  29.660  1.00  0.00    -0.354 N 
ATOM     46  C   UNL A   1      38.618  30.918  29.234  1.00  0.00     0.074 A 
ATOM     47  C   UNL A   1      37.805  30.050  28.416  1.00  0.00     0.031 C 
ATOM     48  C   UNL A   1      44.282  27.927  29.387  1.00  0.00     0.029 A 
ATOM     49  C   UNL A   1      43.924  29.199  30.006  1.00  0.00     0.049 A 
ATOM     50  H   UNL A   1      42.101  30.202  29.871  1.00  0.00     0.167 HD
ATOM     51  C   UNL A   1      38.181  32.089  29.752  1.00  0.00     0.031 A 
ATOM     52  C   UNL A   1      44.745  29.947  30.771  1.00  0.00     0.031 A 
ATOM     53  C   UNL A   1      38.968  32.933  30.608  1.00  0.00     0.049 A 
ATOM     54  C   UNL A   1      44.223  31.208  31.400  1.00  0.00     0.074 A 
ATOM     55  C   UNL A   1      38.586  34.094  31.255  1.00  0.00     0.029 A 
ATOM     56  N   UNL A   1      40.291  32.699  30.944  1.00  0.00    -0.354 N 
ATOM     57  N   UNL A   1      43.023  31.731  31.324  1.00  0.00    -0.248 NA
ATOM     58  C   UNL A   1      45.160  31.974  32.236  1.00  0.00     0.031 C 
ATOM     59  C   UNL A   1      39.692  34.587  31.950  1.00  0.00     0.029 A 
ATOM     60  C   UNL A   1      40.745  33.703  31.779  1.00  0.00     0.049 A 
ATOM     61  H   UNL A   1      40.827  31.933  30.635  1.00  0.00     0.167 HD
ATOM     62  C   UNL A   1      43.056  32.874  32.110  1.00  0.00     0.074 A 
ATOM     63  C   UNL A   1      44.387  32.960  32.674  1.00  0.00     0.031 C 
ATOM     64  C   UNL A   1      42.069  33.773  32.339  1.00  0.00     0.031 A 
BRANCH  51  65
ATOM     65  C   UNL A   1      36.769  32.511  29.449  1.00  0.00    -0.014 A 
ATOM     66  C   UNL A   1      36.484  33.222  28.272  1.00  0.00     0.009 A 
ATOM     67  C   UNL A   1      35.732  32.272  30.365  1.00  0.00     0.009 A 
ATOM     68  C   UNL A   1      35.191  33.684  28.020  1.00  0.00     0.001 A 
ATOM     69  C   UNL A   1      34.433  32.706  30.095  1.00  0.00     0.001 A 
ATOM     70  C   UNL A   1      34.165  33.419  28.928  1.00  0.00     0.000 A 
ENDBRANCH  51  65
BRANCH  52  71
ATOM     71  C   UNL A   1      46.124  29.466  31.050  1.00  0.00    -0.014 A 
ATOM     72  C   UNL A   1      46.394  28.661  32.168  1.00  0.00     0.009 A 
ATOM     73  C   UNL A   1      47.189  29.852  30.220  1.00  0.00     0.009 A 
ATOM     74  C   UNL A   1      47.704  28.269  32.458  1.00  0.00     0.001 A 
ATOM     75  C   UNL A   1      48.493  29.436  30.497  1.00  0.00     0.001 A 
ATOM     76  C   UNL A   1      48.750  28.652  31.620  1.00  0.00     0.000 A 
ENDBRANCH  52  71
BRANCH  64  77
ATOM     77  C   UNL A   1      42.367  34.935  33.243  1.00  0.00    -0.014 A 
ATOM     78  C   UNL A   1      41.870  34.940  34.557  1.00  0.00     0.009 A 
ATOM     79  C   UNL A   1      43.025  36.075  32.758  1.00  0.00     0.009 A 
ATOM     80  C   UNL A   1      42.008  36.071  35.361  1.00  0.00     0.001 A 
ATOM     81  C   UNL A   1      43.184  37.196  33.575  1.00  0.00     0.001 A 
ATOM     82  C   UNL A   1      42.668  37.197  34.871  1.00  0.00     0.000 A 
ENDBRANCH  64  77
ENDBRANCH  38  39
ENDBRANCH  31  33
ENDBRANCH  30  31
ENDBRANCH  29  30
ENDBRANCH   1  29
TORSDOF 15
ENDMDL
