MODEL 1
REMARK VINA RESULT:     -10.0      0.000      0.000
REMARK SMILES CC[C@@H](C)C[C@@H](C)NC(=O)NC1(CC(=O)OCCOC(=O)c2ccc(-c3c4nc(c(-c5ccccc5)c5ccc([nH]5)c(-c5ccccc5)c5nc(c(-c6ccccc6)c6ccc3[nH]6)C=C5)C=C4)cc2)CCC1
REMARK SMILES IDX 14 1 15 2 13 3 12 4 70 5 72 6 71 7 11 8 8 9 9 10 10 12 6 14
REMARK SMILES IDX 7 15 5 16 3 17 4 18 2 19 1 20 16 21 17 22 18 23 19 24 20 25
REMARK SMILES IDX 21 26 22 27 23 28 69 29 24 30 68 31 25 32 26 33 27 34 62 35
REMARK SMILES IDX 28 36 67 37 61 38 63 39 29 40 66 41 60 42 59 43 30 45 52 46
REMARK SMILES IDX 37 47 51 48 38 49 41 50 50 51 64 52 39 53 40 54 49 56 65 57
REMARK SMILES IDX 42 58 31 59 32 60 36 61 33 62 35 63 34 64 53 65 54 66 58 67
REMARK SMILES IDX 55 68 57 69 56 70 43 71 44 72 48 73 45 74 47 75 46 76
REMARK H PARENT 8 11 11 13 63 44 41 55
REMARK Flexibility Score: inf
ROOT
ATOM      1  C   UNL A   1      31.324  28.734  23.234  1.00  0.00     0.308 C 
ATOM      2  O   UNL A   1      31.009  28.753  22.073  1.00  0.00    -0.252 OA
ENDROOT
BRANCH   1   3
ATOM      3  C   UNL A   1      30.421  27.850  23.986  1.00  0.00     0.151 C 
BRANCH   3   4
ATOM      4  C   UNL A   1      31.155  26.572  24.032  1.00  0.00     0.052 C 
ATOM      5  C   UNL A   1      30.367  25.225  24.016  1.00  0.00     0.029 C 
ATOM      6  C   UNL A   1      31.378  26.251  25.557  1.00  0.00     0.029 C 
ATOM      7  C   UNL A   1      30.021  25.498  25.494  1.00  0.00     0.005 C 
BRANCH   4   8
ATOM      8  N   UNL A   1      32.304  26.595  23.064  1.00  0.00    -0.332 N 
ATOM      9  N   UNL A   1      33.865  24.643  22.641  1.00  0.00    -0.336 N 
ATOM     10  C   UNL A   1      33.294  25.869  22.512  1.00  0.00     0.315 C 
ATOM     11  H   UNL A   1      34.227  24.535  21.732  1.00  0.00     0.165 HD
ATOM     12  O   UNL A   1      33.682  26.538  21.534  1.00  0.00    -0.249 OA
ATOM     13  H   UNL A   1      32.354  27.501  22.684  1.00  0.00     0.165 HD
BRANCH   9  14
ATOM     14  C   UNL A   1      34.373  23.171  23.324  1.00  0.00     0.081 C 
ATOM     15  C   UNL A   1      33.565  23.023  24.646  1.00  0.00     0.031 C 
BRANCH  14  16
ATOM     16  C   UNL A   1      35.933  22.869  23.797  1.00  0.00     0.028 C 
BRANCH  16  17
ATOM     17  C   UNL A   1      36.485  22.709  25.318  1.00  0.00    -0.013 C 
ATOM     18  C   UNL A   1      37.571  23.789  25.536  1.00  0.00     0.008 C 
BRANCH  17  19
ATOM     19  C   UNL A   1      37.124  21.360  25.753  1.00  0.00    -0.000 C 
ATOM     20  C   UNL A   1      37.549  20.292  24.768  1.00  0.00     0.004 C 
ENDBRANCH  17  19
ENDBRANCH  16  17
ENDBRANCH  14  16
ENDBRANCH   9  14
ENDBRANCH   4   8
ENDBRANCH   3   4
ENDBRANCH   1   3
BRANCH   1  21
ATOM     21  O   UNL A   1      32.458  29.147  23.893  1.00  0.00    -0.462 OA
BRANCH  21  22
ATOM     22  C   UNL A   1      32.953  29.638  25.236  1.00  0.00     0.274 C 
BRANCH  22  23
ATOM     23  C   UNL A   1      33.872  28.835  26.293  1.00  0.00     0.275 C 
BRANCH  23  24
ATOM     24  O   UNL A   1      33.936  29.174  27.730  1.00  0.00    -0.458 OA
BRANCH  24  25
ATOM     25  C   UNL A   1      34.669  30.312  28.045  1.00  0.00     0.338 C 
ATOM     26  O   UNL A   1      34.148  31.412  28.196  1.00  0.00    -0.246 OA
BRANCH  25  27
ATOM     27  C   UNL A   1      36.156  30.110  28.363  1.00  0.00     0.060 A 
ATOM     28  C   UNL A   1      37.177  30.255  27.425  1.00  0.00     0.016 A 
ATOM     29  C   UNL A   1      36.541  29.560  29.598  1.00  0.00     0.016 A 
ATOM     30  C   UNL A   1      38.423  29.635  27.574  1.00  0.00     0.010 A 
ATOM     31  C   UNL A   1      37.859  29.089  29.820  1.00  0.00     0.010 A 
ATOM     32  C   UNL A   1      38.807  29.073  28.785  1.00  0.00    -0.014 A 
BRANCH  32  33
ATOM     33  C   UNL A   1      40.190  28.539  28.976  1.00  0.00     0.031 A 
ATOM     34  C   UNL A   1      41.332  29.458  29.319  1.00  0.00     0.074 A 
ATOM     35  C   UNL A   1      40.437  27.221  28.811  1.00  0.00     0.049 A 
ATOM     36  N   UNL A   1      42.622  29.269  29.183  1.00  0.00    -0.248 NA
ATOM     37  C   UNL A   1      40.976  30.764  29.897  1.00  0.00     0.031 C 
ATOM     38  C   UNL A   1      39.426  26.179  28.606  1.00  0.00     0.029 A 
ATOM     39  N   UNL A   1      41.627  26.532  28.750  1.00  0.00    -0.354 N 
ATOM     40  C   UNL A   1      43.229  30.452  29.594  1.00  0.00     0.074 A 
ATOM     41  C   UNL A   1      42.165  31.344  30.011  1.00  0.00     0.031 C 
ATOM     42  C   UNL A   1      40.031  25.000  28.410  1.00  0.00     0.029 A 
ATOM     43  C   UNL A   1      41.468  25.220  28.365  1.00  0.00     0.049 A 
ATOM     44  H   UNL A   1      42.499  26.936  28.958  1.00  0.00     0.167 HD
ATOM     45  C   UNL A   1      44.548  30.766  29.596  1.00  0.00     0.031 A 
ATOM     46  C   UNL A   1      42.359  24.313  27.927  1.00  0.00     0.031 A 
ATOM     47  C   UNL A   1      45.588  29.855  29.184  1.00  0.00     0.049 A 
ATOM     48  C   UNL A   1      43.799  24.710  27.817  1.00  0.00     0.074 A 
ATOM     49  C   UNL A   1      46.956  30.070  29.116  1.00  0.00     0.029 A 
ATOM     50  N   UNL A   1      45.370  28.548  28.775  1.00  0.00    -0.354 N 
ATOM     51  N   UNL A   1      44.360  25.858  28.109  1.00  0.00    -0.248 NA
ATOM     52  C   UNL A   1      44.727  23.695  27.304  1.00  0.00     0.031 C 
ATOM     53  C   UNL A   1      47.556  28.906  28.621  1.00  0.00     0.029 A 
ATOM     54  C   UNL A   1      46.572  27.949  28.435  1.00  0.00     0.049 A 
ATOM     55  H   UNL A   1      44.489  28.109  28.733  1.00  0.00     0.167 HD
ATOM     56  C   UNL A   1      45.711  25.696  27.842  1.00  0.00     0.074 A 
ATOM     57  C   UNL A   1      45.884  24.337  27.372  1.00  0.00     0.031 C 
ATOM     58  C   UNL A   1      46.718  26.593  27.975  1.00  0.00     0.031 A 
BRANCH  45  59
ATOM     59  C   UNL A   1      44.940  32.169  29.979  1.00  0.00    -0.014 A 
ATOM     60  C   UNL A   1      45.278  32.514  31.296  1.00  0.00     0.009 A 
ATOM     61  C   UNL A   1      45.008  33.161  28.985  1.00  0.00     0.009 A 
ATOM     62  C   UNL A   1      45.640  33.827  31.615  1.00  0.00     0.001 A 
ATOM     63  C   UNL A   1      45.395  34.465  29.300  1.00  0.00     0.001 A 
ATOM     64  C   UNL A   1      45.701  34.800  30.618  1.00  0.00     0.000 A 
ENDBRANCH  45  59
BRANCH  46  65
ATOM     65  C   UNL A   1      41.889  22.976  27.473  1.00  0.00    -0.014 A 
ATOM     66  C   UNL A   1      41.883  21.884  28.350  1.00  0.00     0.009 A 
ATOM     67  C   UNL A   1      41.414  22.796  26.161  1.00  0.00     0.009 A 
ATOM     68  C   UNL A   1      41.422  20.636  27.923  1.00  0.00     0.001 A 
ATOM     69  C   UNL A   1      40.924  21.555  25.747  1.00  0.00     0.001 A 
ATOM     70  C   UNL A   1      40.935  20.475  26.626  1.00  0.00     0.000 A 
ENDBRANCH  46  65
BRANCH  58  71
ATOM     71  C   UNL A   1      48.102  26.104  27.661  1.00  0.00    -0.014 A 
ATOM     72  C   UNL A   1      48.868  25.419  28.614  1.00  0.00     0.009 A 
ATOM     73  C   UNL A   1      48.630  26.314  26.377  1.00  0.00     0.009 A 
ATOM     74  C   UNL A   1      50.153  24.978  28.296  1.00  0.00     0.001 A 
ATOM     75  C   UNL A   1      49.904  25.850  26.054  1.00  0.00     0.001 A 
ATOM     76  C   UNL A   1      50.668  25.189  27.016  1.00  0.00     0.000 A 
ENDBRANCH  58  71
ENDBRANCH  32  33
ENDBRANCH  25  27
ENDBRANCH  24  25
ENDBRANCH  23  24
ENDBRANCH  22  23
ENDBRANCH  21  22
ENDBRANCH   1  21
TORSDOF 17
ENDMDL
MODEL 2
REMARK VINA RESULT:      -9.8      2.494      7.283
REMARK SMILES CC[C@@H](C)C[C@@H](C)NC(=O)NC1(CC(=O)OCCOC(=O)c2ccc(-c3c4nc(c(-c5ccccc5)c5ccc([nH]5)c(-c5ccccc5)c5nc(c(-c6ccccc6)c6ccc3[nH]6)C=C5)C=C4)cc2)CCC1
REMARK SMILES IDX 14 1 15 2 13 3 12 4 70 5 72 6 71 7 11 8 8 9 9 10 10 12 6 14
REMARK SMILES IDX 7 15 5 16 3 17 4 18 2 19 1 20 16 21 17 22 18 23 19 24 20 25
REMARK SMILES IDX 21 26 22 27 23 28 69 29 24 30 68 31 25 32 26 33 27 34 62 35
REMARK SMILES IDX 28 36 67 37 61 38 63 39 29 40 66 41 60 42 59 43 30 45 52 46
REMARK SMILES IDX 37 47 51 48 38 49 41 50 50 51 64 52 39 53 40 54 49 56 65 57
REMARK SMILES IDX 42 58 31 59 32 60 36 61 33 62 35 63 34 64 53 65 54 66 58 67
REMARK SMILES IDX 55 68 57 69 56 70 43 71 44 72 48 73 45 74 47 75 46 76
REMARK H PARENT 8 11 11 13 63 44 41 55
REMARK Flexibility Score: inf
ROOT
ATOM      1  C   UNL A   1      33.618  23.345  21.986  1.00  0.00     0.308 C 
ATOM      2  O   UNL A   1      33.325  23.293  20.820  1.00  0.00    -0.252 OA
ENDROOT
BRANCH   1   3
ATOM      3  C   UNL A   1      32.415  23.177  22.815  1.00  0.00     0.151 C 
BRANCH   3   4
ATOM      4  C   UNL A   1      32.147  24.540  23.307  1.00  0.00     0.052 C 
ATOM      5  C   UNL A   1      32.327  24.868  24.821  1.00  0.00     0.029 C 
ATOM      6  C   UNL A   1      30.607  24.593  23.632  1.00  0.00     0.029 C 
ATOM      7  C   UNL A   1      30.995  24.128  25.062  1.00  0.00     0.005 C 
BRANCH   4   8
ATOM      8  N   UNL A   1      32.787  25.557  22.404  1.00  0.00    -0.332 N 
ATOM      9  N   UNL A   1      32.398  28.057  22.550  1.00  0.00    -0.336 N 
ATOM     10  C   UNL A   1      32.917  26.870  22.140  1.00  0.00     0.315 C 
ATOM     11  H   UNL A   1      33.148  28.651  22.318  1.00  0.00     0.165 HD
ATOM     12  O   UNL A   1      33.887  26.952  21.362  1.00  0.00    -0.249 OA
ATOM     13  H   UNL A   1      33.324  25.067  21.741  1.00  0.00     0.165 HD
BRANCH   9  14
ATOM     14  C   UNL A   1      31.319  29.202  23.196  1.00  0.00     0.081 C 
ATOM     15  C   UNL A   1      31.070  28.758  24.666  1.00  0.00     0.031 C 
BRANCH  14  16
ATOM     16  C   UNL A   1      29.788  29.451  22.610  1.00  0.00     0.028 C 
BRANCH  16  17
ATOM     17  C   UNL A   1      28.533  30.124  23.395  1.00  0.00    -0.013 C 
ATOM     18  C   UNL A   1      27.238  29.491  22.834  1.00  0.00     0.008 C 
BRANCH  17  19
ATOM     19  C   UNL A   1      28.330  31.663  23.318  1.00  0.00    -0.000 C 
ATOM     20  C   UNL A   1      28.416  32.445  22.024  1.00  0.00     0.004 C 
ENDBRANCH  17  19
ENDBRANCH  16  17
ENDBRANCH  14  16
ENDBRANCH   9  14
ENDBRANCH   4   8
ENDBRANCH   3   4
ENDBRANCH   1   3
BRANCH   1  21
ATOM     21  O   UNL A   1      34.824  23.268  22.643  1.00  0.00    -0.462 OA
BRANCH  21  22
ATOM     22  C   UNL A   1      35.441  22.936  23.984  1.00  0.00     0.274 C 
BRANCH  22  23
ATOM     23  C   UNL A   1      36.773  22.067  24.259  1.00  0.00     0.275 C 
BRANCH  23  24
ATOM     24  O   UNL A   1      37.163  21.586  25.602  1.00  0.00    -0.458 OA
BRANCH  24  25
ATOM     25  C   UNL A   1      38.529  21.553  25.853  1.00  0.00     0.338 C 
ATOM     26  O   UNL A   1      39.264  20.689  25.388  1.00  0.00    -0.246 OA
BRANCH  25  27
ATOM     27  C   UNL A   1      39.121  22.747  26.613  1.00  0.00     0.060 A 
ATOM     28  C   UNL A   1      38.751  24.071  26.387  1.00  0.00     0.016 A 
ATOM     29  C   UNL A   1      40.236  22.563  27.448  1.00  0.00     0.016 A 
ATOM     30  C   UNL A   1      39.585  25.148  26.712  1.00  0.00     0.010 A 
ATOM     31  C   UNL A   1      40.987  23.663  27.933  1.00  0.00     0.010 A 
ATOM     32  C   UNL A   1      40.700  24.974  27.524  1.00  0.00    -0.014 A 
BRANCH  32  33
ATOM     33  C   UNL A   1      41.503  26.149  27.980  1.00  0.00     0.031 A 
ATOM     34  C   UNL A   1      40.898  27.196  28.878  1.00  0.00     0.074 A 
ATOM     35  C   UNL A   1      42.779  26.301  27.564  1.00  0.00     0.049 A 
ATOM     36  N   UNL A   1      41.286  28.430  29.095  1.00  0.00    -0.248 NA
ATOM     37  C   UNL A   1      39.701  26.802  29.636  1.00  0.00     0.031 C 
ATOM     38  C   UNL A   1      43.554  25.317  26.801  1.00  0.00     0.029 A 
ATOM     39  N   UNL A   1      43.643  27.365  27.691  1.00  0.00    -0.354 N 
ATOM     40  C   UNL A   1      40.345  28.979  29.961  1.00  0.00     0.074 A 
ATOM     41  C   UNL A   1      39.382  27.935  30.251  1.00  0.00     0.031 C 
ATOM     42  C   UNL A   1      44.755  25.829  26.501  1.00  0.00     0.029 A 
ATOM     43  C   UNL A   1      44.794  27.211  26.952  1.00  0.00     0.049 A 
ATOM     44  H   UNL A   1      43.457  28.152  28.250  1.00  0.00     0.167 HD
ATOM     45  C   UNL A   1      40.283  30.245  30.443  1.00  0.00     0.031 A 
ATOM     46  C   UNL A   1      45.735  28.100  26.586  1.00  0.00     0.031 A 
ATOM     47  C   UNL A   1      41.259  31.265  30.145  1.00  0.00     0.049 A 
ATOM     48  C   UNL A   1      45.591  29.526  27.023  1.00  0.00     0.074 A 
ATOM     49  C   UNL A   1      41.286  32.589  30.553  1.00  0.00     0.029 A 
ATOM     50  N   UNL A   1      42.390  31.065  29.367  1.00  0.00    -0.354 N 
ATOM     51  N   UNL A   1      44.651  30.069  27.757  1.00  0.00    -0.248 NA
ATOM     52  C   UNL A   1      46.627  30.463  26.572  1.00  0.00     0.031 C 
ATOM     53  C   UNL A   1      42.409  33.199  29.981  1.00  0.00     0.029 A 
ATOM     54  C   UNL A   1      43.111  32.242  29.265  1.00  0.00     0.049 A 
ATOM     55  H   UNL A   1      42.643  30.210  28.949  1.00  0.00     0.167 HD
ATOM     56  C   UNL A   1      44.995  31.407  27.879  1.00  0.00     0.074 A 
ATOM     57  C   UNL A   1      46.234  31.589  27.150  1.00  0.00     0.031 C 
ATOM     58  C   UNL A   1      44.344  32.396  28.538  1.00  0.00     0.031 A 
BRANCH  45  59
ATOM     59  C   UNL A   1      39.086  30.627  31.275  1.00  0.00    -0.014 A 
ATOM     60  C   UNL A   1      37.897  31.098  30.698  1.00  0.00     0.009 A 
ATOM     61  C   UNL A   1      39.142  30.474  32.672  1.00  0.00     0.009 A 
ATOM     62  C   UNL A   1      36.806  31.441  31.503  1.00  0.00     0.001 A 
ATOM     63  C   UNL A   1      38.042  30.792  33.471  1.00  0.00     0.001 A 
ATOM     64  C   UNL A   1      36.878  31.285  32.887  1.00  0.00     0.000 A 
ENDBRANCH  45  59
BRANCH  46  65
ATOM     65  C   UNL A   1      46.839  27.677  25.682  1.00  0.00    -0.014 A 
ATOM     66  C   UNL A   1      47.942  26.973  26.182  1.00  0.00     0.009 A 
ATOM     67  C   UNL A   1      46.777  27.951  24.304  1.00  0.00     0.009 A 
ATOM     68  C   UNL A   1      48.966  26.561  25.325  1.00  0.00     0.001 A 
ATOM     69  C   UNL A   1      47.786  27.511  23.444  1.00  0.00     0.001 A 
ATOM     70  C   UNL A   1      48.882  26.822  23.957  1.00  0.00     0.000 A 
ENDBRANCH  46  65
BRANCH  58  71
ATOM     71  C   UNL A   1      44.998  33.747  28.542  1.00  0.00    -0.014 A 
ATOM     72  C   UNL A   1      45.956  34.091  29.506  1.00  0.00     0.009 A 
ATOM     73  C   UNL A   1      44.663  34.676  27.546  1.00  0.00     0.009 A 
ATOM     74  C   UNL A   1      46.546  35.355  29.489  1.00  0.00     0.001 A 
ATOM     75  C   UNL A   1      45.273  35.929  27.515  1.00  0.00     0.001 A 
ATOM     76  C   UNL A   1      46.208  36.271  28.492  1.00  0.00     0.000 A 
ENDBRANCH  58  71
ENDBRANCH  32  33
ENDBRANCH  25  27
ENDBRANCH  24  25
ENDBRANCH  23  24
ENDBRANCH  22  23
ENDBRANCH  21  22
ENDBRANCH   1  21
TORSDOF 17
ENDMDL
MODEL 3
REMARK VINA RESULT:      -9.7      1.514      2.254
REMARK SMILES CC[C@@H](C)C[C@@H](C)NC(=O)NC1(CC(=O)OCCOC(=O)c2ccc(-c3c4nc(c(-c5ccccc5)c5ccc([nH]5)c(-c5ccccc5)c5nc(c(-c6ccccc6)c6ccc3[nH]6)C=C5)C=C4)cc2)CCC1
REMARK SMILES IDX 14 1 15 2 13 3 12 4 70 5 72 6 71 7 11 8 8 9 9 10 10 12 6 14
REMARK SMILES IDX 7 15 5 16 3 17 4 18 2 19 1 20 16 21 17 22 18 23 19 24 20 25
REMARK SMILES IDX 21 26 22 27 23 28 69 29 24 30 68 31 25 32 26 33 27 34 62 35
REMARK SMILES IDX 28 36 67 37 61 38 63 39 29 40 66 41 60 42 59 43 30 45 52 46
REMARK SMILES IDX 37 47 51 48 38 49 41 50 50 51 64 52 39 53 40 54 49 56 65 57
REMARK SMILES IDX 42 58 31 59 32 60 36 61 33 62 35 63 34 64 53 65 54 66 58 67
REMARK SMILES IDX 55 68 57 69 56 70 43 71 44 72 48 73 45 74 47 75 46 76
REMARK H PARENT 8 11 11 13 63 44 41 55
REMARK Flexibility Score: inf
ROOT
ATOM      1  C   UNL A   1      32.331  26.626  26.016  1.00  0.00     0.308 C 
ATOM      2  O   UNL A   1      32.697  25.671  26.650  1.00  0.00    -0.252 OA
ENDROOT
BRANCH   1   3
ATOM      3  C   UNL A   1      30.880  26.810  26.179  1.00  0.00     0.151 C 
BRANCH   3   4
ATOM      4  C   UNL A   1      30.305  25.727  25.362  1.00  0.00     0.052 C 
ATOM      5  C   UNL A   1      30.935  25.383  23.977  1.00  0.00     0.029 C 
ATOM      6  C   UNL A   1      29.157  26.385  24.509  1.00  0.00     0.029 C 
ATOM      7  C   UNL A   1      30.246  26.651  23.434  1.00  0.00     0.005 C 
BRANCH   4   8
ATOM      8  N   UNL A   1      30.047  24.513  26.210  1.00  0.00    -0.332 N 
ATOM      9  N   UNL A   1      31.787  22.762  26.781  1.00  0.00    -0.336 N 
ATOM     10  C   UNL A   1      30.602  23.425  26.775  1.00  0.00     0.315 C 
ATOM     11  H   UNL A   1      31.725  22.324  27.660  1.00  0.00     0.165 HD
ATOM     12  O   UNL A   1      29.761  23.022  27.602  1.00  0.00    -0.249 OA
ATOM     13  H   UNL A   1      29.091  24.513  26.444  1.00  0.00     0.165 HD
BRANCH   9  14
ATOM     14  C   UNL A   1      33.308  22.183  26.284  1.00  0.00     0.081 C 
ATOM     15  C   UNL A   1      33.449  20.774  26.928  1.00  0.00     0.031 C 
BRANCH  14  16
ATOM     16  C   UNL A   1      34.741  22.923  26.669  1.00  0.00     0.028 C 
BRANCH  16  17
ATOM     17  C   UNL A   1      35.644  23.875  25.708  1.00  0.00    -0.013 C 
ATOM     18  C   UNL A   1      34.874  24.061  24.380  1.00  0.00     0.008 C 
BRANCH  17  19
ATOM     19  C   UNL A   1      37.075  23.413  25.317  1.00  0.00    -0.000 C 
ATOM     20  C   UNL A   1      37.355  22.118  24.583  1.00  0.00     0.004 C 
ENDBRANCH  17  19
ENDBRANCH  16  17
ENDBRANCH  14  16
ENDBRANCH   9  14
ENDBRANCH   4   8
ENDBRANCH   3   4
ENDBRANCH   1   3
BRANCH   1  21
ATOM     21  O   UNL A   1      33.012  27.662  25.424  1.00  0.00    -0.462 OA
BRANCH  21  22
ATOM     22  C   UNL A   1      33.439  29.098  25.642  1.00  0.00     0.274 C 
BRANCH  22  23
ATOM     23  C   UNL A   1      33.360  29.944  27.014  1.00  0.00     0.275 C 
BRANCH  23  24
ATOM     24  O   UNL A   1      34.133  31.183  27.246  1.00  0.00    -0.458 OA
BRANCH  24  25
ATOM     25  C   UNL A   1      34.849  31.228  28.437  1.00  0.00     0.338 C 
ATOM     26  O   UNL A   1      34.454  31.841  29.421  1.00  0.00    -0.246 OA
BRANCH  25  27
ATOM     27  C   UNL A   1      36.093  30.334  28.528  1.00  0.00     0.060 A 
ATOM     28  C   UNL A   1      36.532  29.733  29.707  1.00  0.00     0.016 A 
ATOM     29  C   UNL A   1      36.976  30.248  27.439  1.00  0.00     0.016 A 
ATOM     30  C   UNL A   1      37.861  29.335  29.894  1.00  0.00     0.010 A 
ATOM     31  C   UNL A   1      38.267  29.680  27.575  1.00  0.00     0.010 A 
ATOM     32  C   UNL A   1      38.747  29.262  28.826  1.00  0.00    -0.014 A 
BRANCH  32  33
ATOM     33  C   UNL A   1      40.121  28.703  29.010  1.00  0.00     0.031 A 
ATOM     34  C   UNL A   1      41.282  29.603  29.345  1.00  0.00     0.074 A 
ATOM     35  C   UNL A   1      40.344  27.381  28.847  1.00  0.00     0.049 A 
ATOM     36  N   UNL A   1      42.567  29.390  29.202  1.00  0.00    -0.248 NA
ATOM     37  C   UNL A   1      40.952  30.916  29.922  1.00  0.00     0.031 C 
ATOM     38  C   UNL A   1      39.313  26.357  28.649  1.00  0.00     0.029 A 
ATOM     39  N   UNL A   1      41.521  26.671  28.780  1.00  0.00    -0.354 N 
ATOM     40  C   UNL A   1      43.197  30.563  29.609  1.00  0.00     0.074 A 
ATOM     41  C   UNL A   1      42.152  31.475  30.029  1.00  0.00     0.031 C 
ATOM     42  C   UNL A   1      39.896  25.167  28.452  1.00  0.00     0.029 A 
ATOM     43  C   UNL A   1      41.336  25.361  28.399  1.00  0.00     0.049 A 
ATOM     44  H   UNL A   1      42.401  27.059  28.983  1.00  0.00     0.167 HD
ATOM     45  C   UNL A   1      44.522  30.853  29.602  1.00  0.00     0.031 A 
ATOM     46  C   UNL A   1      42.209  24.437  27.958  1.00  0.00     0.031 A 
ATOM     47  C   UNL A   1      45.543  29.923  29.186  1.00  0.00     0.049 A 
ATOM     48  C   UNL A   1      43.655  24.809  27.839  1.00  0.00     0.074 A 
ATOM     49  C   UNL A   1      46.914  30.112  29.111  1.00  0.00     0.029 A 
ATOM     50  N   UNL A   1      45.300  28.619  28.781  1.00  0.00    -0.354 N 
ATOM     51  N   UNL A   1      44.238  25.947  28.127  1.00  0.00    -0.248 NA
ATOM     52  C   UNL A   1      44.561  23.775  27.324  1.00  0.00     0.031 C 
ATOM     53  C   UNL A   1      47.491  28.938  28.615  1.00  0.00     0.029 A 
ATOM     54  C   UNL A   1      46.488  27.998  28.436  1.00  0.00     0.049 A 
ATOM     55  H   UNL A   1      44.411  28.196  28.745  1.00  0.00     0.167 HD
ATOM     56  C   UNL A   1      45.584  25.760  27.852  1.00  0.00     0.074 A 
ATOM     57  C   UNL A   1      45.731  24.396  27.384  1.00  0.00     0.031 C 
ATOM     58  C   UNL A   1      46.608  26.638  27.979  1.00  0.00     0.031 A 
BRANCH  45  59
ATOM     59  C   UNL A   1      44.942  32.249  29.981  1.00  0.00    -0.014 A 
ATOM     60  C   UNL A   1      44.895  33.314  29.068  1.00  0.00     0.009 A 
ATOM     61  C   UNL A   1      45.360  32.509  31.298  1.00  0.00     0.009 A 
ATOM     62  C   UNL A   1      45.291  34.598  29.456  1.00  0.00     0.001 A 
ATOM     63  C   UNL A   1      45.729  33.797  31.690  1.00  0.00     0.001 A 
ATOM     64  C   UNL A   1      45.704  34.839  30.766  1.00  0.00     0.000 A 
ENDBRANCH  45  59
BRANCH  46  65
ATOM     65  C   UNL A   1      41.712  23.108  27.509  1.00  0.00    -0.014 A 
ATOM     66  C   UNL A   1      41.303  22.908  26.184  1.00  0.00     0.009 A 
ATOM     67  C   UNL A   1      41.675  22.022  28.402  1.00  0.00     0.009 A 
ATOM     68  C   UNL A   1      40.856  21.653  25.764  1.00  0.00     0.001 A 
ATOM     69  C   UNL A   1      41.258  20.761  27.971  1.00  0.00     0.001 A 
ATOM     70  C   UNL A   1      40.843  20.579  26.654  1.00  0.00     0.000 A 
ENDBRANCH  46  65
BRANCH  58  71
ATOM     71  C   UNL A   1      47.981  26.124  27.658  1.00  0.00    -0.014 A 
ATOM     72  C   UNL A   1      48.530  26.261  26.375  1.00  0.00     0.009 A 
ATOM     73  C   UNL A   1      48.741  25.514  28.668  1.00  0.00     0.009 A 
ATOM     74  C   UNL A   1      49.808  25.771  26.103  1.00  0.00     0.001 A 
ATOM     75  C   UNL A   1      50.027  25.048  28.400  1.00  0.00     0.001 A 
ATOM     76  C   UNL A   1      50.556  25.170  27.115  1.00  0.00     0.000 A 
ENDBRANCH  58  71
ENDBRANCH  32  33
ENDBRANCH  25  27
ENDBRANCH  24  25
ENDBRANCH  23  24
ENDBRANCH  22  23
ENDBRANCH  21  22
ENDBRANCH   1  21
TORSDOF 17
ENDMDL
