MODEL 1
REMARK VINA RESULT:     -12.3      0.000      0.000
REMARK SMILES O=C(OCCOC(=O)C1CC[NH+]([C@H]2CC(=O)N(c3ccc4c(c3)OCCO4)C2=O)CC1)c1ccc(-c2c3nc(c(-c4ccccc4)c4ccc([nH]4)c(-c4ccccc4)c4nc(c(-c5ccccc5)c5ccc2[nH]5)C=C4)C=C3)cc1
REMARK SMILES IDX 4 1 3 2 2 3 1 4 32 5 33 6 79 7 34 8 78 9 35 10 36 11 37 12
REMARK SMILES IDX 72 13 38 14 77 15 71 16 73 17 39 18 76 19 70 20 69 21 40 23
REMARK SMILES IDX 62 24 47 25 61 26 48 27 51 28 60 29 74 30 49 31 50 32 59 34
REMARK SMILES IDX 75 35 52 36 41 37 42 38 46 39 43 40 45 41 44 42 63 43 64 44
REMARK SMILES IDX 68 45 65 46 67 47 66 48 53 49 54 50 58 51 55 52 57 53 56 54
REMARK SMILES IDX 5 55 6 56 7 57 8 58 9 59 10 60 31 61 11 62 30 63 12 64 13 66
REMARK SMILES IDX 14 67 28 68 15 69 17 70 29 71 16 72 18 73 19 74 23 75 20 76
REMARK SMILES IDX 22 77 21 78 24 79 27 80 25 81 26 82
REMARK H PARENT 73 22 51 33 12 65
REMARK Flexibility Score: inf
ROOT
ATOM      1  C   UNL A   1      39.139  19.214  25.918  1.00  0.00     0.275 C 
ENDROOT
BRANCH   1   2
ATOM      2  O   UNL A   1      40.529  18.935  25.674  1.00  0.00    -0.458 OA
BRANCH   2   3
ATOM      3  C   UNL A   1      41.638  19.425  26.278  1.00  0.00     0.338 C 
ATOM      4  O   UNL A   1      42.508  18.629  26.633  1.00  0.00    -0.246 OA
BRANCH   3   5
ATOM      5  C   UNL A   1      41.814  20.859  26.682  1.00  0.00     0.060 A 
ATOM      6  C   UNL A   1      42.150  21.328  27.958  1.00  0.00     0.016 A 
ATOM      7  C   UNL A   1      41.648  21.815  25.661  1.00  0.00     0.016 A 
ATOM      8  C   UNL A   1      42.427  22.682  28.186  1.00  0.00     0.010 A 
ATOM      9  C   UNL A   1      41.917  23.171  25.884  1.00  0.00     0.010 A 
ATOM     10  C   UNL A   1      42.340  23.607  27.147  1.00  0.00    -0.014 A 
BRANCH  10  11
ATOM     11  C   UNL A   1      42.583  25.044  27.395  1.00  0.00     0.031 A 
ATOM     12  C   UNL A   1      43.928  25.600  27.061  1.00  0.00     0.074 A 
ATOM     13  C   UNL A   1      41.623  25.851  27.889  1.00  0.00     0.049 A 
ATOM     14  N   UNL A   1      44.345  26.833  27.156  1.00  0.00    -0.248 NA
ATOM     15  C   UNL A   1      44.906  24.667  26.477  1.00  0.00     0.031 C 
ATOM     16  C   UNL A   1      40.227  25.487  28.099  1.00  0.00     0.029 A 
ATOM     17  N   UNL A   1      41.688  27.142  28.348  1.00  0.00    -0.354 N 
ATOM     18  C   UNL A   1      45.596  26.841  26.563  1.00  0.00     0.074 A 
ATOM     19  C   UNL A   1      45.915  25.479  26.202  1.00  0.00     0.031 C 
ATOM     20  C   UNL A   1      39.605  26.460  28.788  1.00  0.00     0.029 A 
ATOM     21  C   UNL A   1      40.548  27.545  29.009  1.00  0.00     0.049 A 
ATOM     22  H   UNL A   1      42.472  27.724  28.219  1.00  0.00     0.167 HD
ATOM     23  C   UNL A   1      46.377  27.909  26.292  1.00  0.00     0.031 A 
ATOM     24  C   UNL A   1      40.302  28.664  29.713  1.00  0.00     0.031 A 
ATOM     25  C   UNL A   1      46.078  29.245  26.720  1.00  0.00     0.049 A 
ATOM     26  C   UNL A   1      41.322  29.762  29.664  1.00  0.00     0.074 A 
ATOM     27  C   UNL A   1      46.795  30.405  26.502  1.00  0.00     0.029 A 
ATOM     28  N   UNL A   1      44.977  29.589  27.494  1.00  0.00    -0.354 N 
ATOM     29  N   UNL A   1      42.467  29.787  29.024  1.00  0.00    -0.248 NA
ATOM     30  C   UNL A   1      40.986  31.012  30.355  1.00  0.00     0.031 C 
ATOM     31  C   UNL A   1      46.166  31.440  27.204  1.00  0.00     0.029 A 
ATOM     32  C   UNL A   1      45.023  30.936  27.806  1.00  0.00     0.049 A 
ATOM     33  H   UNL A   1      44.269  28.967  27.778  1.00  0.00     0.167 HD
ATOM     34  C   UNL A   1      42.943  31.080  29.156  1.00  0.00     0.074 A 
ATOM     35  C   UNL A   1      41.978  31.799  29.967  1.00  0.00     0.031 C 
ATOM     36  C   UNL A   1      44.055  31.632  28.615  1.00  0.00     0.031 A 
BRANCH  23  37
ATOM     37  C   UNL A   1      47.623  27.642  25.504  1.00  0.00    -0.014 A 
ATOM     38  C   UNL A   1      48.861  27.484  26.152  1.00  0.00     0.009 A 
ATOM     39  C   UNL A   1      47.569  27.571  24.107  1.00  0.00     0.009 A 
ATOM     40  C   UNL A   1      50.027  27.295  25.408  1.00  0.00     0.001 A 
ATOM     41  C   UNL A   1      48.734  27.360  23.368  1.00  0.00     0.001 A 
ATOM     42  C   UNL A   1      49.961  27.232  24.017  1.00  0.00     0.000 A 
ENDBRANCH  23  37
BRANCH  24  43
ATOM     43  C   UNL A   1      39.054  28.829  30.504  1.00  0.00    -0.014 A 
ATOM     44  C   UNL A   1      37.899  29.399  29.950  1.00  0.00     0.009 A 
ATOM     45  C   UNL A   1      39.048  28.485  31.864  1.00  0.00     0.009 A 
ATOM     46  C   UNL A   1      36.783  29.660  30.755  1.00  0.00     0.001 A 
ATOM     47  C   UNL A   1      37.928  28.730  32.661  1.00  0.00     0.001 A 
ATOM     48  C   UNL A   1      36.799  29.331  32.109  1.00  0.00     0.000 A 
ENDBRANCH  24  43
BRANCH  36  49
ATOM     49  C   UNL A   1      44.253  33.103  28.830  1.00  0.00    -0.014 A 
ATOM     50  C   UNL A   1      43.768  34.050  27.917  1.00  0.00     0.009 A 
ATOM     51  C   UNL A   1      44.913  33.542  29.989  1.00  0.00     0.009 A 
ATOM     52  C   UNL A   1      43.967  35.411  28.149  1.00  0.00     0.001 A 
ATOM     53  C   UNL A   1      45.079  34.904  30.234  1.00  0.00     0.001 A 
ATOM     54  C   UNL A   1      44.615  35.836  29.310  1.00  0.00     0.000 A 
ENDBRANCH  36  49
ENDBRANCH  10  11
ENDBRANCH   3   5
ENDBRANCH   2   3
ENDBRANCH   1   2
BRANCH   1  55
ATOM     55  C   UNL A   1      38.367  19.713  24.692  1.00  0.00     0.274 C 
BRANCH  55  56
ATOM     56  O   UNL A   1      36.997  20.011  25.006  1.00  0.00    -0.462 OA
BRANCH  56  57
ATOM     57  C   UNL A   1      36.721  21.301  25.344  1.00  0.00     0.309 C 
ATOM     58  O   UNL A   1      37.557  22.088  25.769  1.00  0.00    -0.252 OA
BRANCH  57  59
ATOM     59  C   UNL A   1      35.296  21.703  24.960  1.00  0.00     0.110 C 
ATOM     60  C   UNL A   1      35.287  22.726  23.812  1.00  0.00     0.077 C 
ATOM     61  C   UNL A   1      34.379  22.098  26.125  1.00  0.00     0.077 C 
ATOM     62  C   UNL A   1      35.184  24.169  24.293  1.00  0.00     0.263 C 
ATOM     63  C   UNL A   1      34.164  23.588  26.369  1.00  0.00     0.263 C 
ATOM     64  N   UNL A   1      34.049  24.409  25.180  1.00  0.00    -0.324 N 
ATOM     65  H   UNL A   1      34.104  25.374  25.508  1.00  0.00     0.348 HD
BRANCH  64  66
ATOM     66  C   UNL A   1      32.724  24.494  24.525  1.00  0.00     0.284 C 
ATOM     67  C   UNL A   1      31.469  24.205  25.327  1.00  0.00     0.176 C 
ATOM     68  C   UNL A   1      32.436  25.894  23.963  1.00  0.00     0.292 C 
ATOM     69  C   UNL A   1      30.832  25.542  25.548  1.00  0.00     0.240 C 
ATOM     70  N   UNL A   1      31.336  26.420  24.615  1.00  0.00    -0.245 N 
ATOM     71  O   UNL A   1      33.114  26.431  23.093  1.00  0.00    -0.267 OA
ATOM     72  O   UNL A   1      29.944  25.706  26.365  1.00  0.00    -0.274 OA
BRANCH  70  73
ATOM     73  C   UNL A   1      30.717  27.665  24.303  1.00  0.00     0.056 A 
ATOM     74  C   UNL A   1      31.161  28.850  24.917  1.00  0.00     0.031 A 
ATOM     75  C   UNL A   1      29.721  27.769  23.319  1.00  0.00     0.077 A 
ATOM     76  C   UNL A   1      30.662  30.098  24.526  1.00  0.00     0.052 A 
ATOM     77  C   UNL A   1      29.209  29.015  22.940  1.00  0.00     0.163 A 
ATOM     78  C   UNL A   1      29.683  30.181  23.543  1.00  0.00     0.161 A 
ATOM     79  O   UNL A   1      28.243  29.015  21.967  1.00  0.00    -0.486 OA
ATOM     80  O   UNL A   1      29.252  31.436  23.205  1.00  0.00    -0.486 OA
ATOM     81  C   UNL A   1      28.057  30.316  21.400  1.00  0.00     0.271 C 
ATOM     82  C   UNL A   1      28.020  31.390  22.476  1.00  0.00     0.271 C 
ENDBRANCH  70  73
ENDBRANCH  64  66
ENDBRANCH  57  59
ENDBRANCH  56  57
ENDBRANCH  55  56
ENDBRANCH   1  55
TORSDOF 13
ENDMDL
MODEL 2
REMARK VINA RESULT:     -12.2      4.159     10.421
REMARK SMILES O=C(OCCOC(=O)C1CC[NH+]([C@H]2CC(=O)N(c3ccc4c(c3)OCCO4)C2=O)CC1)c1ccc(-c2c3nc(c(-c4ccccc4)c4ccc([nH]4)c(-c4ccccc4)c4nc(c(-c5ccccc5)c5ccc2[nH]5)C=C4)C=C3)cc1
REMARK SMILES IDX 4 1 3 2 2 3 1 4 32 5 33 6 79 7 34 8 78 9 35 10 36 11 37 12
REMARK SMILES IDX 72 13 38 14 77 15 71 16 73 17 39 18 76 19 70 20 69 21 40 23
REMARK SMILES IDX 62 24 47 25 61 26 48 27 51 28 60 29 74 30 49 31 50 32 59 34
REMARK SMILES IDX 75 35 52 36 41 37 42 38 46 39 43 40 45 41 44 42 63 43 64 44
REMARK SMILES IDX 68 45 65 46 67 47 66 48 53 49 54 50 58 51 55 52 57 53 56 54
REMARK SMILES IDX 5 55 6 56 7 57 8 58 9 59 10 60 31 61 11 62 30 63 12 64 13 66
REMARK SMILES IDX 14 67 28 68 15 69 17 70 29 71 16 72 18 73 19 74 23 75 20 76
REMARK SMILES IDX 22 77 21 78 24 79 27 80 25 81 26 82
REMARK H PARENT 73 22 51 33 12 65
REMARK Flexibility Score: inf
ROOT
ATOM      1  C   UNL A   1      32.072  33.370  26.778  1.00  0.00     0.275 C 
ENDROOT
BRANCH   1   2
ATOM      2  O   UNL A   1      32.236  34.173  27.960  1.00  0.00    -0.458 OA
BRANCH   2   3
ATOM      3  C   UNL A   1      33.356  34.703  28.509  1.00  0.00     0.338 C 
ATOM      4  O   UNL A   1      33.453  35.929  28.565  1.00  0.00    -0.246 OA
BRANCH   3   5
ATOM      5  C   UNL A   1      34.555  33.899  28.917  1.00  0.00     0.060 A 
ATOM      6  C   UNL A   1      35.895  34.220  28.669  1.00  0.00     0.016 A 
ATOM      7  C   UNL A   1      34.293  32.722  29.646  1.00  0.00     0.016 A 
ATOM      8  C   UNL A   1      36.938  33.468  29.222  1.00  0.00     0.010 A 
ATOM      9  C   UNL A   1      35.332  31.961  30.195  1.00  0.00     0.010 A 
ATOM     10  C   UNL A   1      36.665  32.351  30.010  1.00  0.00    -0.014 A 
BRANCH  10  11
ATOM     11  C   UNL A   1      37.764  31.525  30.554  1.00  0.00     0.031 A 
ATOM     12  C   UNL A   1      38.238  31.807  31.942  1.00  0.00     0.074 A 
ATOM     13  C   UNL A   1      38.322  30.527  29.840  1.00  0.00     0.049 A 
ATOM     14  N   UNL A   1      39.154  31.182  32.631  1.00  0.00    -0.248 NA
ATOM     15  C   UNL A   1      37.544  32.877  32.677  1.00  0.00     0.031 C 
ATOM     16  C   UNL A   1      37.851  30.034  28.551  1.00  0.00     0.029 A 
ATOM     17  N   UNL A   1      39.443  29.773  30.080  1.00  0.00    -0.354 N 
ATOM     18  C   UNL A   1      39.084  31.723  33.903  1.00  0.00     0.074 A 
ATOM     19  C   UNL A   1      38.111  32.791  33.870  1.00  0.00     0.031 C 
ATOM     20  C   UNL A   1      38.755  29.181  28.038  1.00  0.00     0.029 A 
ATOM     21  C   UNL A   1      39.836  29.019  28.996  1.00  0.00     0.049 A 
ATOM     22  H   UNL A   1      39.918  29.770  30.942  1.00  0.00     0.167 HD
ATOM     23  C   UNL A   1      39.736  31.316  35.014  1.00  0.00     0.031 A 
ATOM     24  C   UNL A   1      40.948  28.287  28.805  1.00  0.00     0.031 A 
ATOM     25  C   UNL A   1      40.751  30.301  35.015  1.00  0.00     0.049 A 
ATOM     26  C   UNL A   1      41.856  28.073  29.979  1.00  0.00     0.074 A 
ATOM     27  C   UNL A   1      41.477  29.805  36.080  1.00  0.00     0.029 A 
ATOM     28  N   UNL A   1      41.207  29.652  33.876  1.00  0.00    -0.354 N 
ATOM     29  N   UNL A   1      41.730  28.523  31.205  1.00  0.00    -0.248 NA
ATOM     30  C   UNL A   1      43.008  27.186  29.774  1.00  0.00     0.031 C 
ATOM     31  C   UNL A   1      42.424  28.906  35.576  1.00  0.00     0.029 A 
ATOM     32  C   UNL A   1      42.243  28.796  34.205  1.00  0.00     0.049 A 
ATOM     33  H   UNL A   1      40.848  29.781  32.968  1.00  0.00     0.167 HD
ATOM     34  C   UNL A   1      42.727  27.902  31.938  1.00  0.00     0.074 A 
ATOM     35  C   UNL A   1      43.471  27.071  31.010  1.00  0.00     0.031 C 
ATOM     36  C   UNL A   1      42.972  27.979  33.268  1.00  0.00     0.031 A 
BRANCH  23  37
ATOM     37  C   UNL A   1      39.357  31.990  36.297  1.00  0.00    -0.014 A 
ATOM     38  C   UNL A   1      40.181  32.983  36.856  1.00  0.00     0.009 A 
ATOM     39  C   UNL A   1      38.184  31.619  36.966  1.00  0.00     0.009 A 
ATOM     40  C   UNL A   1      39.852  33.565  38.081  1.00  0.00     0.001 A 
ATOM     41  C   UNL A   1      37.847  32.219  38.179  1.00  0.00     0.001 A 
ATOM     42  C   UNL A   1      38.685  33.183  38.740  1.00  0.00     0.000 A 
ENDBRANCH  23  37
BRANCH  24  43
ATOM     43  C   UNL A   1      41.270  27.687  27.484  1.00  0.00    -0.014 A 
ATOM     44  C   UNL A   1      40.899  26.374  27.159  1.00  0.00     0.009 A 
ATOM     45  C   UNL A   1      42.036  28.416  26.563  1.00  0.00     0.009 A 
ATOM     46  C   UNL A   1      41.327  25.794  25.959  1.00  0.00     0.001 A 
ATOM     47  C   UNL A   1      42.449  27.841  25.358  1.00  0.00     0.001 A 
ATOM     48  C   UNL A   1      42.106  26.525  25.063  1.00  0.00     0.000 A 
ENDBRANCH  24  43
BRANCH  36  49
ATOM     49  C   UNL A   1      44.052  27.091  33.809  1.00  0.00    -0.014 A 
ATOM     50  C   UNL A   1      43.824  25.733  34.070  1.00  0.00     0.009 A 
ATOM     51  C   UNL A   1      45.331  27.626  34.029  1.00  0.00     0.009 A 
ATOM     52  C   UNL A   1      44.852  24.933  34.570  1.00  0.00     0.001 A 
ATOM     53  C   UNL A   1      46.366  26.816  34.495  1.00  0.00     0.001 A 
ATOM     54  C   UNL A   1      46.122  25.474  34.775  1.00  0.00     0.000 A 
ENDBRANCH  36  49
ENDBRANCH  10  11
ENDBRANCH   3   5
ENDBRANCH   2   3
ENDBRANCH   1   2
BRANCH   1  55
ATOM     55  C   UNL A   1      31.347  32.041  27.010  1.00  0.00     0.274 C 
BRANCH  55  56
ATOM     56  O   UNL A   1      31.475  31.157  25.884  1.00  0.00    -0.462 OA
BRANCH  56  57
ATOM     57  C   UNL A   1      32.359  30.130  26.020  1.00  0.00     0.309 C 
ATOM     58  O   UNL A   1      33.364  30.183  26.718  1.00  0.00    -0.252 OA
BRANCH  57  59
ATOM     59  C   UNL A   1      31.858  28.849  25.351  1.00  0.00     0.110 C 
ATOM     60  C   UNL A   1      31.720  27.699  26.361  1.00  0.00     0.077 C 
ATOM     61  C   UNL A   1      32.593  28.437  24.068  1.00  0.00     0.077 C 
ATOM     62  C   UNL A   1      32.937  26.781  26.399  1.00  0.00     0.263 C 
ATOM     63  C   UNL A   1      33.638  27.332  24.187  1.00  0.00     0.263 C 
ATOM     64  N   UNL A   1      33.306  26.248  25.090  1.00  0.00    -0.324 N 
ATOM     65  H   UNL A   1      34.167  25.712  25.200  1.00  0.00     0.348 HD
BRANCH  64  66
ATOM     66  C   UNL A   1      32.451  25.156  24.572  1.00  0.00     0.284 C 
ATOM     67  C   UNL A   1      32.395  24.889  23.080  1.00  0.00     0.176 C 
ATOM     68  C   UNL A   1      32.850  23.783  25.134  1.00  0.00     0.292 C 
ATOM     69  C   UNL A   1      33.177  23.627  22.881  1.00  0.00     0.240 C 
ATOM     70  N   UNL A   1      33.257  22.974  24.090  1.00  0.00    -0.245 N 
ATOM     71  O   UNL A   1      32.818  23.501  26.328  1.00  0.00    -0.267 OA
ATOM     72  O   UNL A   1      33.543  23.263  21.778  1.00  0.00    -0.274 OA
BRANCH  70  73
ATOM     73  C   UNL A   1      33.618  21.600  24.211  1.00  0.00     0.056 A 
ATOM     74  C   UNL A   1      34.941  21.240  24.521  1.00  0.00     0.031 A 
ATOM     75  C   UNL A   1      32.662  20.576  24.120  1.00  0.00     0.077 A 
ATOM     76  C   UNL A   1      35.287  19.909  24.778  1.00  0.00     0.052 A 
ATOM     77  C   UNL A   1      33.012  19.242  24.360  1.00  0.00     0.163 A 
ATOM     78  C   UNL A   1      34.325  18.909  24.692  1.00  0.00     0.161 A 
ATOM     79  O   UNL A   1      32.008  18.312  24.252  1.00  0.00    -0.486 OA
ATOM     80  O   UNL A   1      34.735  17.632  24.969  1.00  0.00    -0.486 OA
ATOM     81  C   UNL A   1      32.366  17.068  24.862  1.00  0.00     0.271 C 
ATOM     82  C   UNL A   1      33.788  16.664  24.504  1.00  0.00     0.271 C 
ENDBRANCH  70  73
ENDBRANCH  64  66
ENDBRANCH  57  59
ENDBRANCH  56  57
ENDBRANCH  55  56
ENDBRANCH   1  55
TORSDOF 13
ENDMDL
MODEL 3
REMARK VINA RESULT:     -12.2      4.388      9.542
REMARK SMILES O=C(OCCOC(=O)C1CC[NH+]([C@H]2CC(=O)N(c3ccc4c(c3)OCCO4)C2=O)CC1)c1ccc(-c2c3nc(c(-c4ccccc4)c4ccc([nH]4)c(-c4ccccc4)c4nc(c(-c5ccccc5)c5ccc2[nH]5)C=C4)C=C3)cc1
REMARK SMILES IDX 4 1 3 2 2 3 1 4 32 5 33 6 79 7 34 8 78 9 35 10 36 11 37 12
REMARK SMILES IDX 72 13 38 14 77 15 71 16 73 17 39 18 76 19 70 20 69 21 40 23
REMARK SMILES IDX 62 24 47 25 61 26 48 27 51 28 60 29 74 30 49 31 50 32 59 34
REMARK SMILES IDX 75 35 52 36 41 37 42 38 46 39 43 40 45 41 44 42 63 43 64 44
REMARK SMILES IDX 68 45 65 46 67 47 66 48 53 49 54 50 58 51 55 52 57 53 56 54
REMARK SMILES IDX 5 55 6 56 7 57 8 58 9 59 10 60 31 61 11 62 30 63 12 64 13 66
REMARK SMILES IDX 14 67 28 68 15 69 17 70 29 71 16 72 18 73 19 74 23 75 20 76
REMARK SMILES IDX 22 77 21 78 24 79 27 80 25 81 26 82
REMARK H PARENT 73 22 51 33 12 65
REMARK Flexibility Score: inf
ROOT
ATOM      1  C   UNL A   1      32.687  32.461  26.926  1.00  0.00     0.275 C 
ENDROOT
BRANCH   1   2
ATOM      2  O   UNL A   1      32.382  33.757  27.474  1.00  0.00    -0.458 OA
BRANCH   2   3
ATOM      3  C   UNL A   1      33.005  34.463  28.448  1.00  0.00     0.338 C 
ATOM      4  O   UNL A   1      32.663  35.631  28.630  1.00  0.00    -0.246 OA
BRANCH   3   5
ATOM      5  C   UNL A   1      34.191  33.966  29.221  1.00  0.00     0.060 A 
ATOM      6  C   UNL A   1      34.159  33.251  30.424  1.00  0.00     0.016 A 
ATOM      7  C   UNL A   1      35.454  34.227  28.654  1.00  0.00     0.016 A 
ATOM      8  C   UNL A   1      35.325  32.714  30.984  1.00  0.00     0.010 A 
ATOM      9  C   UNL A   1      36.625  33.699  29.212  1.00  0.00     0.010 A 
ATOM     10  C   UNL A   1      36.560  32.910  30.369  1.00  0.00    -0.014 A 
BRANCH  10  11
ATOM     11  C   UNL A   1      37.799  32.387  30.983  1.00  0.00     0.031 A 
ATOM     12  C   UNL A   1      38.365  31.110  30.453  1.00  0.00     0.074 A 
ATOM     13  C   UNL A   1      38.427  33.040  31.981  1.00  0.00     0.049 A 
ATOM     14  N   UNL A   1      39.459  30.496  30.810  1.00  0.00    -0.248 NA
ATOM     15  C   UNL A   1      37.651  30.484  29.328  1.00  0.00     0.031 C 
ATOM     16  C   UNL A   1      38.087  34.368  32.477  1.00  0.00     0.029 A 
ATOM     17  N   UNL A   1      39.464  32.653  32.791  1.00  0.00    -0.354 N 
ATOM     18  C   UNL A   1      39.611  29.464  29.900  1.00  0.00     0.074 A 
ATOM     19  C   UNL A   1      38.452  29.471  29.036  1.00  0.00     0.031 C 
ATOM     20  C   UNL A   1      38.782  34.622  33.600  1.00  0.00     0.029 A 
ATOM     21  C   UNL A   1      39.665  33.496  33.862  1.00  0.00     0.049 A 
ATOM     22  H   UNL A   1      40.011  31.852  32.624  1.00  0.00     0.167 HD
ATOM     23  C   UNL A   1      40.662  28.626  29.765  1.00  0.00     0.031 A 
ATOM     24  C   UNL A   1      40.471  33.366  34.931  1.00  0.00     0.031 A 
ATOM     25  C   UNL A   1      41.772  28.587  30.674  1.00  0.00     0.049 A 
ATOM     26  C   UNL A   1      41.458  32.237  34.930  1.00  0.00     0.074 A 
ATOM     27  C   UNL A   1      42.894  27.782  30.635  1.00  0.00     0.029 A 
ATOM     28  N   UNL A   1      41.875  29.372  31.814  1.00  0.00    -0.354 N 
ATOM     29  N   UNL A   1      41.648  31.317  34.016  1.00  0.00    -0.248 NA
ATOM     30  C   UNL A   1      42.396  32.176  36.058  1.00  0.00     0.031 C 
ATOM     31  C   UNL A   1      43.642  28.029  31.791  1.00  0.00     0.029 A 
ATOM     32  C   UNL A   1      43.018  29.033  32.517  1.00  0.00     0.049 A 
ATOM     33  H   UNL A   1      41.232  30.066  32.084  1.00  0.00     0.167 HD
ATOM     34  C   UNL A   1      42.782  30.626  34.408  1.00  0.00     0.074 A 
ATOM     35  C   UNL A   1      43.216  31.213  35.662  1.00  0.00     0.031 C 
ATOM     36  C   UNL A   1      43.431  29.627  33.763  1.00  0.00     0.031 A 
BRANCH  23  37
ATOM     37  C   UNL A   1      40.628  27.695  28.592  1.00  0.00    -0.014 A 
ATOM     38  C   UNL A   1      41.178  28.078  27.356  1.00  0.00     0.009 A 
ATOM     39  C   UNL A   1      40.023  26.438  28.710  1.00  0.00     0.009 A 
ATOM     40  C   UNL A   1      41.090  27.230  26.251  1.00  0.00     0.001 A 
ATOM     41  C   UNL A   1      39.956  25.583  27.609  1.00  0.00     0.001 A 
ATOM     42  C   UNL A   1      40.480  25.983  26.380  1.00  0.00     0.000 A 
ENDBRANCH  23  37
BRANCH  24  43
ATOM     43  C   UNL A   1      40.409  34.314  36.074  1.00  0.00    -0.014 A 
ATOM     44  C   UNL A   1      39.530  34.120  37.148  1.00  0.00     0.009 A 
ATOM     45  C   UNL A   1      41.187  35.481  36.045  1.00  0.00     0.009 A 
ATOM     46  C   UNL A   1      39.402  35.096  38.144  1.00  0.00     0.001 A 
ATOM     47  C   UNL A   1      41.071  36.446  37.049  1.00  0.00     0.001 A 
ATOM     48  C   UNL A   1      40.168  36.259  38.091  1.00  0.00     0.000 A 
ENDBRANCH  24  43
BRANCH  36  49
ATOM     49  C   UNL A   1      44.716  29.151  34.372  1.00  0.00    -0.014 A 
ATOM     50  C   UNL A   1      44.746  28.087  35.283  1.00  0.00     0.009 A 
ATOM     51  C   UNL A   1      45.920  29.766  33.994  1.00  0.00     0.009 A 
ATOM     52  C   UNL A   1      45.960  27.666  35.828  1.00  0.00     0.001 A 
ATOM     53  C   UNL A   1      47.134  29.320  34.514  1.00  0.00     0.001 A 
ATOM     54  C   UNL A   1      47.152  28.277  35.437  1.00  0.00     0.000 A 
ENDBRANCH  36  49
ENDBRANCH  10  11
ENDBRANCH   3   5
ENDBRANCH   2   3
ENDBRANCH   1   2
BRANCH   1  55
ATOM     55  C   UNL A   1      31.459  31.604  26.605  1.00  0.00     0.274 C 
BRANCH  55  56
ATOM     56  O   UNL A   1      31.702  30.208  26.843  1.00  0.00    -0.462 OA
BRANCH  56  57
ATOM     57  C   UNL A   1      31.740  29.405  25.744  1.00  0.00     0.309 C 
ATOM     58  O   UNL A   1      31.126  29.635  24.710  1.00  0.00    -0.252 OA
BRANCH  57  59
ATOM     59  C   UNL A   1      32.774  28.287  25.885  1.00  0.00     0.110 C 
ATOM     60  C   UNL A   1      33.753  28.269  24.700  1.00  0.00     0.077 C 
ATOM     61  C   UNL A   1      32.212  26.898  26.221  1.00  0.00     0.077 C 
ATOM     62  C   UNL A   1      33.359  27.283  23.607  1.00  0.00     0.263 C 
ATOM     63  C   UNL A   1      32.078  25.904  25.073  1.00  0.00     0.263 C 
ATOM     64  N   UNL A   1      33.150  25.922  24.097  1.00  0.00    -0.324 N 
ATOM     65  H   UNL A   1      32.819  25.354  23.317  1.00  0.00     0.348 HD
BRANCH  64  66
ATOM     66  C   UNL A   1      34.376  25.151  24.404  1.00  0.00     0.284 C 
ATOM     67  C   UNL A   1      34.770  24.909  25.849  1.00  0.00     0.176 C 
ATOM     68  C   UNL A   1      34.328  23.724  23.836  1.00  0.00     0.292 C 
ATOM     69  C   UNL A   1      34.461  23.465  26.100  1.00  0.00     0.240 C 
ATOM     70  N   UNL A   1      34.377  22.824  24.884  1.00  0.00    -0.245 N 
ATOM     71  O   UNL A   1      34.237  23.470  22.639  1.00  0.00    -0.267 OA
ATOM     72  O   UNL A   1      34.422  23.001  27.225  1.00  0.00    -0.274 OA
BRANCH  70  73
ATOM     73  C   UNL A   1      34.441  21.407  24.745  1.00  0.00     0.056 A 
ATOM     74  C   UNL A   1      35.685  20.753  24.726  1.00  0.00     0.031 A 
ATOM     75  C   UNL A   1      33.281  20.615  24.718  1.00  0.00     0.077 A 
ATOM     76  C   UNL A   1      35.768  19.355  24.728  1.00  0.00     0.052 A 
ATOM     77  C   UNL A   1      33.364  19.218  24.702  1.00  0.00     0.163 A 
ATOM     78  C   UNL A   1      34.608  18.588  24.710  1.00  0.00     0.161 A 
ATOM     79  O   UNL A   1      32.177  18.530  24.681  1.00  0.00    -0.486 OA
ATOM     80  O   UNL A   1      34.768  17.228  24.725  1.00  0.00    -0.486 OA
ATOM     81  C   UNL A   1      32.352  17.155  25.034  1.00  0.00     0.271 C 
ATOM     82  C   UNL A   1      33.564  16.554  24.340  1.00  0.00     0.271 C 
ENDBRANCH  70  73
ENDBRANCH  64  66
ENDBRANCH  57  59
ENDBRANCH  56  57
ENDBRANCH  55  56
ENDBRANCH   1  55
TORSDOF 13
ENDMDL
