MODEL 1
REMARK VINA RESULT:     -10.9      0.000      0.000
REMARK SMILES CC1(C)CC[C@@]2(C(=O)OCCOC(=O)c3ccc(-c4c5nc(c(-c6ccccc6)c6ccc([nH]6)c(-c6ccccc6)c6nc(c(-c7ccccc7)c7ccc4[nH]7)C=C6)C=C5)cc3)CC[C@@]3(C)C(=CC[C@H]4[C@@]5(C)CC[C@H](O)C(C)(C)[C@@H]5CC[C@]43C)[C@@H]2C1
REMARK SMILES IDX 11 1 10 2 9 3 7 4 8 5 6 6 1 7 2 8 3 9 4 10 86 11 5 12 85 13
REMARK SMILES IDX 67 14 63 15 65 16 68 17 64 18 66 19 83 20 69 21 70 22 82 23
REMARK SMILES IDX 84 24 71 25 81 26 72 27 73 28 80 29 74 30 77 31 75 32 78 33
REMARK SMILES IDX 79 34 76 35 12 37 13 38 14 39 15 40 16 41 62 42 17 43 61 44
REMARK SMILES IDX 18 45 19 46 20 47 55 48 21 49 60 50 54 51 56 52 22 53 59 54
REMARK SMILES IDX 53 55 52 56 23 58 45 59 30 60 44 61 31 62 34 63 43 64 57 65
REMARK SMILES IDX 32 66 33 67 42 69 58 70 35 71 24 72 25 73 29 74 26 75 28 76
REMARK SMILES IDX 27 77 46 78 47 79 51 80 48 81 50 82 49 83 36 84 37 85 41 86
REMARK SMILES IDX 38 87 40 88 39 89
REMARK H PARENT 76 36 56 57 34 68
REMARK Flexibility Score: inf
ROOT
ATOM      1  C   UNL A   1      34.689  30.583  27.049  1.00  0.00     0.275 C 
ENDROOT
BRANCH   1   2
ATOM      2  C   UNL A   1      34.796  29.124  27.003  1.00  0.00     0.274 C 
BRANCH   2   3
ATOM      3  O   UNL A   1      33.569  28.574  27.278  1.00  0.00    -0.462 OA
BRANCH   3   4
ATOM      4  C   UNL A   1      33.287  27.930  26.132  1.00  0.00     0.312 C 
ATOM      5  O   UNL A   1      34.097  27.181  25.596  1.00  0.00    -0.252 OA
BRANCH   4   6
ATOM      6  C   UNL A   1      31.819  28.121  25.692  1.00  0.00     0.075 C 
ATOM      7  C   UNL A   1      31.304  29.530  21.949  1.00  0.00     0.011 C 
ATOM      8  C   UNL A   1      32.218  28.504  22.634  1.00  0.00    -0.035 C 
ATOM      9  C   UNL A   1      33.152  27.904  21.550  1.00  0.00     0.011 C 
ATOM     10  C   UNL A   1      32.986  29.276  23.712  1.00  0.00     0.007 C 
ATOM     11  C   UNL A   1      31.438  27.304  23.195  1.00  0.00     0.015 C 
ATOM     12  C   UNL A   1      32.127  29.500  25.016  1.00  0.00     0.020 C 
ATOM     13  C   UNL A   1      30.946  27.293  24.657  1.00  0.00     0.033 C 
ATOM     14  C   UNL A   1      30.401  25.847  25.007  1.00  0.00    -0.063 C 
ATOM     15  C   UNL A   1      31.015  27.938  27.016  1.00  0.00     0.020 C 
ATOM     16  C   UNL A   1      30.348  25.265  26.438  1.00  0.00    -0.006 C 
ATOM     17  C   UNL A   1      30.021  25.014  24.010  1.00  0.00    -0.027 C 
ATOM     18  C   UNL A   1      30.837  26.397  27.498  1.00  0.00     0.013 C 
ATOM     19  C   UNL A   1      28.806  25.264  26.821  1.00  0.00     0.017 C 
ATOM     20  C   UNL A   1      31.068  23.555  26.297  1.00  0.00    -0.020 C 
ATOM     21  C   UNL A   1      30.891  23.818  23.647  1.00  0.00     0.032 C 
ATOM     22  C   UNL A   1      31.700  23.169  24.795  1.00  0.00     0.006 C 
ATOM     23  C   UNL A   1      32.054  22.825  27.349  1.00  0.00     0.008 C 
ATOM     24  C   UNL A   1      29.756  22.638  26.424  1.00  0.00     0.012 C 
ATOM     25  C   UNL A   1      33.344  22.800  24.406  1.00  0.00    -0.025 C 
ATOM     26  C   UNL A   1      33.321  21.897  26.811  1.00  0.00     0.005 C 
ATOM     27  C   UNL A   1      33.278  21.460  23.615  1.00  0.00     0.012 C 
ATOM     28  C   UNL A   1      34.069  23.739  23.346  1.00  0.00     0.010 C 
ATOM     29  C   UNL A   1      34.226  22.487  25.662  1.00  0.00     0.003 C 
ATOM     30  C   UNL A   1      35.603  23.754  23.307  1.00  0.00     0.033 C 
ATOM     31  C   UNL A   1      35.850  22.380  25.499  1.00  0.00    -0.006 C 
ATOM     32  C   UNL A   1      36.331  23.619  24.636  1.00  0.00     0.120 C 
ATOM     33  C   UNL A   1      36.434  21.117  24.855  1.00  0.00     0.014 C 
ATOM     34  C   UNL A   1      36.584  22.503  26.873  1.00  0.00     0.014 C 
BRANCH  32  35
ATOM     35  O   UNL A   1      37.743  23.563  24.398  1.00  0.00    -0.393 OA
ATOM     36  H   UNL A   1      37.975  24.175  23.682  1.00  0.00     0.210 HD
ENDBRANCH  32  35
ENDBRANCH   4   6
ENDBRANCH   3   4
ENDBRANCH   2   3
ENDBRANCH   1   2
BRANCH   1  37
ATOM     37  O   UNL A   1      33.710  30.989  27.928  1.00  0.00    -0.458 OA
BRANCH  37  38
ATOM     38  C   UNL A   1      33.674  32.329  28.027  1.00  0.00     0.338 C 
ATOM     39  O   UNL A   1      33.009  33.152  27.493  1.00  0.00    -0.246 OA
BRANCH  38  40
ATOM     40  C   UNL A   1      34.866  32.473  28.822  1.00  0.00     0.060 A 
ATOM     41  C   UNL A   1      35.886  33.169  28.176  1.00  0.00     0.016 A 
ATOM     42  C   UNL A   1      34.871  32.115  30.176  1.00  0.00     0.016 A 
ATOM     43  C   UNL A   1      37.033  33.383  28.864  1.00  0.00     0.010 A 
ATOM     44  C   UNL A   1      36.043  32.308  30.870  1.00  0.00     0.010 A 
ATOM     45  C   UNL A   1      37.130  32.814  30.143  1.00  0.00    -0.014 A 
BRANCH  45  46
ATOM     46  C   UNL A   1      38.457  32.277  30.398  1.00  0.00     0.031 A 
ATOM     47  C   UNL A   1      39.210  32.906  31.538  1.00  0.00     0.074 A 
ATOM     48  C   UNL A   1      38.750  31.111  29.818  1.00  0.00     0.049 A 
ATOM     49  N   UNL A   1      40.277  32.483  32.152  1.00  0.00    -0.248 NA
ATOM     50  C   UNL A   1      38.663  34.158  32.107  1.00  0.00     0.031 C 
ATOM     51  C   UNL A   1      37.915  30.424  28.827  1.00  0.00     0.029 A 
ATOM     52  N   UNL A   1      39.789  30.272  30.042  1.00  0.00    -0.354 N 
ATOM     53  C   UNL A   1      40.510  33.408  33.166  1.00  0.00     0.074 A 
ATOM     54  C   UNL A   1      39.502  34.425  33.089  1.00  0.00     0.031 C 
ATOM     55  C   UNL A   1      38.481  29.242  28.540  1.00  0.00     0.029 A 
ATOM     56  C   UNL A   1      39.721  29.129  29.298  1.00  0.00     0.049 A 
ATOM     57  H   UNL A   1      40.518  30.467  30.676  1.00  0.00     0.167 HD
ATOM     58  C   UNL A   1      41.500  33.399  34.080  1.00  0.00     0.031 A 
ATOM     59  C   UNL A   1      40.604  28.123  29.249  1.00  0.00     0.031 A 
ATOM     60  C   UNL A   1      42.510  32.386  34.071  1.00  0.00     0.049 A 
ATOM     61  C   UNL A   1      41.781  28.217  30.176  1.00  0.00     0.074 A 
ATOM     62  C   UNL A   1      43.636  32.273  34.855  1.00  0.00     0.029 A 
ATOM     63  N   UNL A   1      42.503  31.305  33.196  1.00  0.00    -0.354 N 
ATOM     64  N   UNL A   1      42.042  29.123  31.095  1.00  0.00    -0.248 NA
ATOM     65  C   UNL A   1      42.777  27.152  30.071  1.00  0.00     0.031 C 
ATOM     66  C   UNL A   1      44.351  31.159  34.401  1.00  0.00     0.029 A 
ATOM     67  C   UNL A   1      43.623  30.531  33.397  1.00  0.00     0.049 A 
ATOM     68  H   UNL A   1      41.800  31.120  32.532  1.00  0.00     0.167 HD
ATOM     69  C   UNL A   1      43.223  28.722  31.700  1.00  0.00     0.074 A 
ATOM     70  C   UNL A   1      43.606  27.478  31.052  1.00  0.00     0.031 C 
ATOM     71  C   UNL A   1      43.936  29.309  32.697  1.00  0.00     0.031 A 
BRANCH  58  72
ATOM     72  C   UNL A   1      41.573  34.560  35.032  1.00  0.00    -0.014 A 
ATOM     73  C   UNL A   1      42.334  35.709  34.754  1.00  0.00     0.009 A 
ATOM     74  C   UNL A   1      40.910  34.474  36.266  1.00  0.00     0.009 A 
ATOM     75  C   UNL A   1      42.452  36.729  35.703  1.00  0.00     0.001 A 
ATOM     76  C   UNL A   1      41.004  35.507  37.199  1.00  0.00     0.001 A 
ATOM     77  C   UNL A   1      41.781  36.630  36.922  1.00  0.00     0.000 A 
ENDBRANCH  58  72
BRANCH  59  78
ATOM     78  C   UNL A   1      40.416  27.021  28.276  1.00  0.00    -0.014 A 
ATOM     79  C   UNL A   1      40.957  27.086  26.986  1.00  0.00     0.009 A 
ATOM     80  C   UNL A   1      39.692  25.876  28.651  1.00  0.00     0.009 A 
ATOM     81  C   UNL A   1      40.745  26.042  26.081  1.00  0.00     0.001 A 
ATOM     82  C   UNL A   1      39.511  24.820  27.758  1.00  0.00     0.001 A 
ATOM     83  C   UNL A   1      40.026  24.911  26.468  1.00  0.00     0.000 A 
ENDBRANCH  59  78
BRANCH  71  84
ATOM     84  C   UNL A   1      45.158  28.572  33.153  1.00  0.00    -0.014 A 
ATOM     85  C   UNL A   1      45.093  27.596  34.156  1.00  0.00     0.009 A 
ATOM     86  C   UNL A   1      46.388  28.849  32.536  1.00  0.00     0.009 A 
ATOM     87  C   UNL A   1      46.254  26.951  34.577  1.00  0.00     0.001 A 
ATOM     88  C   UNL A   1      47.537  28.168  32.927  1.00  0.00     0.001 A 
ATOM     89  C   UNL A   1      47.472  27.234  33.959  1.00  0.00     0.000 A 
ENDBRANCH  71  84
ENDBRANCH  45  46
ENDBRANCH  38  40
ENDBRANCH  37  38
ENDBRANCH   1  37
TORSDOF 12
ENDMDL
MODEL 2
REMARK VINA RESULT:     -10.8      1.783      7.359
REMARK SMILES CC1(C)CC[C@@]2(C(=O)OCCOC(=O)c3ccc(-c4c5nc(c(-c6ccccc6)c6ccc([nH]6)c(-c6ccccc6)c6nc(c(-c7ccccc7)c7ccc4[nH]7)C=C6)C=C5)cc3)CC[C@@]3(C)C(=CC[C@H]4[C@@]5(C)CC[C@H](O)C(C)(C)[C@@H]5CC[C@]43C)[C@@H]2C1
REMARK SMILES IDX 11 1 10 2 9 3 7 4 8 5 6 6 1 7 2 8 3 9 4 10 86 11 5 12 85 13
REMARK SMILES IDX 67 14 63 15 65 16 68 17 64 18 66 19 83 20 69 21 70 22 82 23
REMARK SMILES IDX 84 24 71 25 81 26 72 27 73 28 80 29 74 30 77 31 75 32 78 33
REMARK SMILES IDX 79 34 76 35 12 37 13 38 14 39 15 40 16 41 62 42 17 43 61 44
REMARK SMILES IDX 18 45 19 46 20 47 55 48 21 49 60 50 54 51 56 52 22 53 59 54
REMARK SMILES IDX 53 55 52 56 23 58 45 59 30 60 44 61 31 62 34 63 43 64 57 65
REMARK SMILES IDX 32 66 33 67 42 69 58 70 35 71 24 72 25 73 29 74 26 75 28 76
REMARK SMILES IDX 27 77 46 78 47 79 51 80 48 81 50 82 49 83 36 84 37 85 41 86
REMARK SMILES IDX 38 87 40 88 39 89
REMARK H PARENT 76 36 56 57 34 68
REMARK Flexibility Score: inf
ROOT
ATOM      1  C   UNL A   1      39.162  23.774  26.242  1.00  0.00     0.275 C 
ENDROOT
BRANCH   1   2
ATOM      2  C   UNL A   1      37.709  23.948  26.236  1.00  0.00     0.274 C 
BRANCH   2   3
ATOM      3  O   UNL A   1      37.226  23.653  24.986  1.00  0.00    -0.462 OA
BRANCH   3   4
ATOM      4  C   UNL A   1      35.900  23.600  25.203  1.00  0.00     0.312 C 
ATOM      5  O   UNL A   1      35.314  24.466  25.844  1.00  0.00    -0.252 OA
BRANCH   4   6
ATOM      6  C   UNL A   1      35.221  22.446  24.433  1.00  0.00     0.075 C 
ATOM      7  C   UNL A   1      33.134  19.846  26.701  1.00  0.00     0.011 C 
ATOM      8  C   UNL A   1      33.319  21.369  26.643  1.00  0.00    -0.035 C 
ATOM      9  C   UNL A   1      32.461  21.994  27.774  1.00  0.00     0.011 C 
ATOM     10  C   UNL A   1      34.820  21.618  26.835  1.00  0.00     0.007 C 
ATOM     11  C   UNL A   1      32.771  21.979  25.343  1.00  0.00     0.015 C 
ATOM     12  C   UNL A   1      35.640  21.387  25.508  1.00  0.00     0.020 C 
ATOM     13  C   UNL A   1      33.686  22.190  24.119  1.00  0.00     0.033 C 
ATOM     14  C   UNL A   1      32.910  23.048  23.036  1.00  0.00    -0.063 C 
ATOM     15  C   UNL A   1      35.832  22.552  23.002  1.00  0.00     0.020 C 
ATOM     16  C   UNL A   1      33.603  23.927  21.970  1.00  0.00    -0.006 C 
ATOM     17  C   UNL A   1      31.558  23.099  23.065  1.00  0.00    -0.027 C 
ATOM     18  C   UNL A   1      35.214  23.741  22.083  1.00  0.00     0.013 C 
ATOM     19  C   UNL A   1      33.393  23.148  20.601  1.00  0.00     0.017 C 
ATOM     20  C   UNL A   1      32.711  25.558  22.027  1.00  0.00    -0.020 C 
ATOM     21  C   UNL A   1      30.856  24.368  23.532  1.00  0.00     0.032 C 
ATOM     22  C   UNL A   1      31.575  25.708  23.248  1.00  0.00     0.006 C 
ATOM     23  C   UNL A   1      33.367  27.030  21.904  1.00  0.00     0.008 C 
ATOM     24  C   UNL A   1      31.841  25.501  20.679  1.00  0.00     0.012 C 
ATOM     25  C   UNL A   1      31.593  26.817  24.575  1.00  0.00    -0.025 C 
ATOM     26  C   UNL A   1      32.822  28.277  22.856  1.00  0.00     0.005 C 
ATOM     27  C   UNL A   1      30.191  27.495  24.550  1.00  0.00     0.012 C 
ATOM     28  C   UNL A   1      31.601  26.197  26.040  1.00  0.00     0.010 C 
ATOM     29  C   UNL A   1      32.614  27.990  24.393  1.00  0.00     0.003 C 
ATOM     30  C   UNL A   1      32.069  27.078  27.207  1.00  0.00     0.033 C 
ATOM     31  C   UNL A   1      32.948  28.971  25.658  1.00  0.00    -0.006 C 
ATOM     32  C   UNL A   1      33.202  28.054  26.926  1.00  0.00     0.120 C 
ATOM     33  C   UNL A   1      31.908  30.025  26.055  1.00  0.00     0.014 C 
ATOM     34  C   UNL A   1      34.269  29.776  25.439  1.00  0.00     0.014 C 
BRANCH  32  35
ATOM     35  O   UNL A   1      33.443  28.848  28.095  1.00  0.00    -0.393 OA
ATOM     36  H   UNL A   1      33.823  28.289  28.791  1.00  0.00     0.210 HD
ENDBRANCH  32  35
ENDBRANCH   4   6
ENDBRANCH   3   4
ENDBRANCH   2   3
ENDBRANCH   1   2
BRANCH   1  37
ATOM     37  O   UNL A   1      39.756  24.528  27.228  1.00  0.00    -0.458 OA
BRANCH  37  38
ATOM     38  C   UNL A   1      40.653  25.383  26.710  1.00  0.00     0.338 C 
ATOM     39  O   UNL A   1      41.654  25.218  26.096  1.00  0.00    -0.246 OA
BRANCH  38  40
ATOM     40  C   UNL A   1      40.138  26.573  27.337  1.00  0.00     0.060 A 
ATOM     41  C   UNL A   1      40.790  27.739  26.942  1.00  0.00     0.016 A 
ATOM     42  C   UNL A   1      38.963  26.528  28.098  1.00  0.00     0.016 A 
ATOM     43  C   UNL A   1      40.346  28.911  27.456  1.00  0.00     0.010 A 
ATOM     44  C   UNL A   1      38.524  27.714  28.641  1.00  0.00     0.010 A 
ATOM     45  C   UNL A   1      39.317  28.845  28.408  1.00  0.00    -0.014 A 
BRANCH  45  46
ATOM     46  C   UNL A   1      39.518  29.798  29.489  1.00  0.00     0.031 A 
ATOM     47  C   UNL A   1      38.480  30.880  29.608  1.00  0.00     0.074 A 
ATOM     48  C   UNL A   1      40.400  29.455  30.429  1.00  0.00     0.049 A 
ATOM     49  N   UNL A   1      38.253  31.696  30.596  1.00  0.00    -0.248 NA
ATOM     50  C   UNL A   1      37.527  31.037  28.487  1.00  0.00     0.031 C 
ATOM     51  C   UNL A   1      41.290  28.291  30.372  1.00  0.00     0.029 A 
ATOM     52  N   UNL A   1      40.628  30.012  31.642  1.00  0.00    -0.354 N 
ATOM     53  C   UNL A   1      37.142  32.442  30.210  1.00  0.00     0.074 A 
ATOM     54  C   UNL A   1      36.742  32.011  28.902  1.00  0.00     0.031 C 
ATOM     55  C   UNL A   1      41.966  28.215  31.530  1.00  0.00     0.029 A 
ATOM     56  C   UNL A   1      41.574  29.342  32.366  1.00  0.00     0.049 A 
ATOM     57  H   UNL A   1      40.162  30.816  31.968  1.00  0.00     0.167 HD
ATOM     58  C   UNL A   1      36.520  33.414  30.905  1.00  0.00     0.031 A 
ATOM     59  C   UNL A   1      42.061  29.654  33.574  1.00  0.00     0.031 A 
ATOM     60  C   UNL A   1      37.000  33.839  32.183  1.00  0.00     0.049 A 
ATOM     61  C   UNL A   1      41.447  30.840  34.260  1.00  0.00     0.074 A 
ATOM     62  C   UNL A   1      36.557  34.869  32.982  1.00  0.00     0.029 A 
ATOM     63  N   UNL A   1      38.070  33.237  32.838  1.00  0.00    -0.354 N 
ATOM     64  N   UNL A   1      40.437  31.591  33.874  1.00  0.00    -0.248 NA
ATOM     65  C   UNL A   1      42.028  31.219  35.547  1.00  0.00     0.031 C 
ATOM     66  C   UNL A   1      37.410  34.937  34.089  1.00  0.00     0.029 A 
ATOM     67  C   UNL A   1      38.325  33.893  34.021  1.00  0.00     0.049 A 
ATOM     68  H   UNL A   1      38.570  32.457  32.504  1.00  0.00     0.167 HD
ATOM     69  C   UNL A   1      40.241  32.517  34.885  1.00  0.00     0.074 A 
ATOM     70  C   UNL A   1      41.227  32.210  35.909  1.00  0.00     0.031 C 
ATOM     71  C   UNL A   1      39.339  33.529  34.981  1.00  0.00     0.031 A 
BRANCH  58  72
ATOM     72  C   UNL A   1      35.375  34.119  30.232  1.00  0.00    -0.014 A 
ATOM     73  C   UNL A   1      34.205  34.477  30.927  1.00  0.00     0.009 A 
ATOM     74  C   UNL A   1      35.445  34.376  28.855  1.00  0.00     0.009 A 
ATOM     75  C   UNL A   1      33.124  35.048  30.249  1.00  0.00     0.001 A 
ATOM     76  C   UNL A   1      34.376  34.975  28.186  1.00  0.00     0.001 A 
ATOM     77  C   UNL A   1      33.214  35.303  28.881  1.00  0.00     0.000 A 
ENDBRANCH  58  72
BRANCH  59  78
ATOM     78  C   UNL A   1      43.184  28.873  34.143  1.00  0.00    -0.014 A 
ATOM     79  C   UNL A   1      42.959  27.750  34.949  1.00  0.00     0.009 A 
ATOM     80  C   UNL A   1      44.509  29.251  33.863  1.00  0.00     0.009 A 
ATOM     81  C   UNL A   1      44.036  27.045  35.491  1.00  0.00     0.001 A 
ATOM     82  C   UNL A   1      45.584  28.525  34.377  1.00  0.00     0.001 A 
ATOM     83  C   UNL A   1      45.346  27.430  35.202  1.00  0.00     0.000 A 
ENDBRANCH  59  78
BRANCH  71  84
ATOM     84  C   UNL A   1      39.369  34.320  36.252  1.00  0.00    -0.014 A 
ATOM     85  C   UNL A   1      40.055  35.539  36.340  1.00  0.00     0.009 A 
ATOM     86  C   UNL A   1      38.667  33.840  37.368  1.00  0.00     0.009 A 
ATOM     87  C   UNL A   1      40.088  36.234  37.547  1.00  0.00     0.001 A 
ATOM     88  C   UNL A   1      38.662  34.561  38.558  1.00  0.00     0.001 A 
ATOM     89  C   UNL A   1      39.388  35.748  38.652  1.00  0.00     0.000 A 
ENDBRANCH  71  84
ENDBRANCH  45  46
ENDBRANCH  38  40
ENDBRANCH  37  38
ENDBRANCH   1  37
TORSDOF 12
ENDMDL
MODEL 3
REMARK VINA RESULT:     -10.7      5.420     12.365
REMARK SMILES CC1(C)CC[C@@]2(C(=O)OCCOC(=O)c3ccc(-c4c5nc(c(-c6ccccc6)c6ccc([nH]6)c(-c6ccccc6)c6nc(c(-c7ccccc7)c7ccc4[nH]7)C=C6)C=C5)cc3)CC[C@@]3(C)C(=CC[C@H]4[C@@]5(C)CC[C@H](O)C(C)(C)[C@@H]5CC[C@]43C)[C@@H]2C1
REMARK SMILES IDX 11 1 10 2 9 3 7 4 8 5 6 6 1 7 2 8 3 9 4 10 86 11 5 12 85 13
REMARK SMILES IDX 67 14 63 15 65 16 68 17 64 18 66 19 83 20 69 21 70 22 82 23
REMARK SMILES IDX 84 24 71 25 81 26 72 27 73 28 80 29 74 30 77 31 75 32 78 33
REMARK SMILES IDX 79 34 76 35 12 37 13 38 14 39 15 40 16 41 62 42 17 43 61 44
REMARK SMILES IDX 18 45 19 46 20 47 55 48 21 49 60 50 54 51 56 52 22 53 59 54
REMARK SMILES IDX 53 55 52 56 23 58 45 59 30 60 44 61 31 62 34 63 43 64 57 65
REMARK SMILES IDX 32 66 33 67 42 69 58 70 35 71 24 72 25 73 29 74 26 75 28 76
REMARK SMILES IDX 27 77 46 78 47 79 51 80 48 81 50 82 49 83 36 84 37 85 41 86
REMARK SMILES IDX 38 87 40 88 39 89
REMARK H PARENT 76 36 56 57 34 68
REMARK Flexibility Score: inf
ROOT
ATOM      1  C   UNL A   1      43.779  37.107  31.164  1.00  0.00     0.275 C 
ENDROOT
BRANCH   1   2
ATOM      2  C   UNL A   1      43.434  36.991  32.582  1.00  0.00     0.274 C 
BRANCH   2   3
ATOM      3  O   UNL A   1      44.266  36.076  33.174  1.00  0.00    -0.462 OA
BRANCH   3   4
ATOM      4  C   UNL A   1      43.436  35.452  34.028  1.00  0.00     0.312 C 
ATOM      5  O   UNL A   1      42.264  35.229  33.744  1.00  0.00    -0.252 OA
BRANCH   4   6
ATOM      6  C   UNL A   1      44.165  34.933  35.287  1.00  0.00     0.075 C 
ATOM      7  C   UNL A   1      43.281  36.860  38.717  1.00  0.00     0.011 C 
ATOM      8  C   UNL A   1      42.501  36.350  37.497  1.00  0.00    -0.035 C 
ATOM      9  C   UNL A   1      41.005  36.706  37.708  1.00  0.00     0.011 C 
ATOM     10  C   UNL A   1      43.110  37.057  36.281  1.00  0.00     0.007 C 
ATOM     11  C   UNL A   1      42.532  34.817  37.378  1.00  0.00     0.015 C 
ATOM     12  C   UNL A   1      44.453  36.382  35.806  1.00  0.00     0.020 C 
ATOM     13  C   UNL A   1      43.606  34.111  36.526  1.00  0.00     0.033 C 
ATOM     14  C   UNL A   1      43.238  32.576  36.399  1.00  0.00    -0.063 C 
ATOM     15  C   UNL A   1      45.241  33.962  34.711  1.00  0.00     0.020 C 
ATOM     16  C   UNL A   1      43.694  31.668  35.233  1.00  0.00    -0.006 C 
ATOM     17  C   UNL A   1      42.411  32.007  37.308  1.00  0.00    -0.027 C 
ATOM     18  C   UNL A   1      44.673  32.512  34.247  1.00  0.00     0.013 C 
ATOM     19  C   UNL A   1      44.796  30.716  35.866  1.00  0.00     0.017 C 
ATOM     20  C   UNL A   1      42.164  30.759  34.694  1.00  0.00    -0.020 C 
ATOM     21  C   UNL A   1      40.983  31.649  36.916  1.00  0.00     0.032 C 
ATOM     22  C   UNL A   1      40.746  31.242  35.442  1.00  0.00     0.006 C 
ATOM     23  C   UNL A   1      41.722  30.413  33.179  1.00  0.00     0.008 C 
ATOM     24  C   UNL A   1      42.439  29.287  35.273  1.00  0.00     0.012 C 
ATOM     25  C   UNL A   1      39.356  31.961  34.706  1.00  0.00    -0.025 C 
ATOM     26  C   UNL A   1      40.131  30.531  32.718  1.00  0.00     0.005 C 
ATOM     27  C   UNL A   1      38.152  31.105  35.199  1.00  0.00     0.012 C 
ATOM     28  C   UNL A   1      38.928  33.405  35.218  1.00  0.00     0.010 C 
ATOM     29  C   UNL A   1      39.338  31.826  33.146  1.00  0.00     0.003 C 
ATOM     30  C   UNL A   1      38.025  34.263  34.321  1.00  0.00     0.033 C 
ATOM     31  C   UNL A   1      38.242  32.674  32.277  1.00  0.00    -0.006 C 
ATOM     32  C   UNL A   1      38.243  34.162  32.819  1.00  0.00     0.120 C 
ATOM     33  C   UNL A   1      36.787  32.189  32.271  1.00  0.00     0.014 C 
ATOM     34  C   UNL A   1      38.638  32.766  30.768  1.00  0.00     0.014 C 
BRANCH  32  35
ATOM     35  O   UNL A   1      37.260  34.957  32.144  1.00  0.00    -0.393 OA
ATOM     36  H   UNL A   1      37.599  35.219  31.274  1.00  0.00     0.210 HD
ENDBRANCH  32  35
ENDBRANCH   4   6
ENDBRANCH   3   4
ENDBRANCH   2   3
ENDBRANCH   1   2
BRANCH   1  37
ATOM     37  O   UNL A   1      44.244  35.914  30.659  1.00  0.00    -0.458 OA
BRANCH  37  38
ATOM     38  C   UNL A   1      43.465  35.477  29.655  1.00  0.00     0.338 C 
ATOM     39  O   UNL A   1      42.508  35.936  29.127  1.00  0.00    -0.246 OA
BRANCH  38  40
ATOM     40  C   UNL A   1      44.023  34.151  29.572  1.00  0.00     0.060 A 
ATOM     41  C   UNL A   1      44.065  33.646  28.274  1.00  0.00     0.016 A 
ATOM     42  C   UNL A   1      44.637  33.562  30.684  1.00  0.00     0.016 A 
ATOM     43  C   UNL A   1      44.608  32.417  28.097  1.00  0.00     0.010 A 
ATOM     44  C   UNL A   1      45.167  32.304  30.513  1.00  0.00     0.010 A 
ATOM     45  C   UNL A   1      45.009  31.721  29.248  1.00  0.00    -0.014 A 
BRANCH  45  46
ATOM     46  C   UNL A   1      44.690  30.304  29.162  1.00  0.00     0.031 A 
ATOM     47  C   UNL A   1      43.226  29.961  29.175  1.00  0.00     0.074 A 
ATOM     48  C   UNL A   1      45.679  29.493  28.781  1.00  0.00     0.049 A 
ATOM     49  N   UNL A   1      42.641  28.841  28.863  1.00  0.00    -0.248 NA
ATOM     50  C   UNL A   1      42.277  31.037  29.536  1.00  0.00     0.031 C 
ATOM     51  C   UNL A   1      47.081  29.888  28.609  1.00  0.00     0.029 A 
ATOM     52  N   UNL A   1      45.632  28.194  28.400  1.00  0.00    -0.354 N 
ATOM     53  C   UNL A   1      41.277  29.090  28.986  1.00  0.00     0.074 A 
ATOM     54  C   UNL A   1      41.104  30.447  29.416  1.00  0.00     0.031 C 
ATOM     55  C   UNL A   1      47.764  28.836  28.131  1.00  0.00     0.029 A 
ATOM     56  C   UNL A   1      46.848  27.709  28.012  1.00  0.00     0.049 A 
ATOM     57  H   UNL A   1      44.806  27.657  28.403  1.00  0.00     0.167 HD
ATOM     58  C   UNL A   1      40.259  28.237  28.761  1.00  0.00     0.031 A 
ATOM     59  C   UNL A   1      47.153  26.463  27.625  1.00  0.00     0.031 A 
ATOM     60  C   UNL A   1      40.497  26.877  28.387  1.00  0.00     0.049 A 
ATOM     61  C   UNL A   1      46.013  25.492  27.529  1.00  0.00     0.074 A 
ATOM     62  C   UNL A   1      39.596  25.851  28.213  1.00  0.00     0.029 A 
ATOM     63  N   UNL A   1      41.765  26.361  28.144  1.00  0.00    -0.354 N 
ATOM     64  N   UNL A   1      44.726  25.703  27.706  1.00  0.00    -0.248 NA
ATOM     65  C   UNL A   1      46.360  24.117  27.173  1.00  0.00     0.031 C 
ATOM     66  C   UNL A   1      40.329  24.692  27.937  1.00  0.00     0.029 A 
ATOM     67  C   UNL A   1      41.678  25.019  27.851  1.00  0.00     0.049 A 
ATOM     68  H   UNL A   1      42.602  26.879  28.177  1.00  0.00     0.167 HD
ATOM     69  C   UNL A   1      44.102  24.492  27.455  1.00  0.00     0.074 A 
ATOM     70  C   UNL A   1      45.159  23.562  27.091  1.00  0.00     0.031 C 
ATOM     71  C   UNL A   1      42.786  24.159  27.511  1.00  0.00     0.031 A 
BRANCH  58  72
ATOM     72  C   UNL A   1      38.867  28.734  29.036  1.00  0.00    -0.014 A 
ATOM     73  C   UNL A   1      38.115  29.424  28.068  1.00  0.00     0.009 A 
ATOM     74  C   UNL A   1      38.319  28.560  30.316  1.00  0.00     0.009 A 
ATOM     75  C   UNL A   1      36.860  29.952  28.388  1.00  0.00     0.001 A 
ATOM     76  C   UNL A   1      37.054  29.061  30.624  1.00  0.00     0.001 A 
ATOM     77  C   UNL A   1      36.328  29.764  29.664  1.00  0.00     0.000 A 
ENDBRANCH  58  72
BRANCH  59  78
ATOM     78  C   UNL A   1      48.565  26.095  27.365  1.00  0.00    -0.014 A 
ATOM     79  C   UNL A   1      49.371  25.538  28.367  1.00  0.00     0.009 A 
ATOM     80  C   UNL A   1      49.113  26.292  26.086  1.00  0.00     0.009 A 
ATOM     81  C   UNL A   1      50.705  25.222  28.101  1.00  0.00     0.001 A 
ATOM     82  C   UNL A   1      50.436  25.943  25.813  1.00  0.00     0.001 A 
ATOM     83  C   UNL A   1      51.235  25.420  26.825  1.00  0.00     0.000 A 
ENDBRANCH  59  78
BRANCH  71  84
ATOM     84  C   UNL A   1      42.445  22.753  27.124  1.00  0.00    -0.014 A 
ATOM     85  C   UNL A   1      42.188  21.769  28.089  1.00  0.00     0.009 A 
ATOM     86  C   UNL A   1      42.353  22.426  25.762  1.00  0.00     0.009 A 
ATOM     87  C   UNL A   1      41.903  20.464  27.693  1.00  0.00     0.001 A 
ATOM     88  C   UNL A   1      42.022  21.133  25.371  1.00  0.00     0.001 A 
ATOM     89  C   UNL A   1      41.816  20.149  26.337  1.00  0.00     0.000 A 
ENDBRANCH  71  84
ENDBRANCH  45  46
ENDBRANCH  38  40
ENDBRANCH  37  38
ENDBRANCH   1  37
TORSDOF 12
ENDMDL
