MODEL 1
REMARK VINA RESULT:     -10.7      0.000      0.000
REMARK SMILES Cc1nsc(N[C@H](C)c2cccc(Br)c2)c1C(=O)OCCOC(=O)c1ccc(-c2c3nc(c(-c4ccccc4)c4ccc([nH]4)c(-c4ccccc4)c4nc(c(-c5ccccc5)c5ccc2[nH]5)C=C4)C=C3)cc1
REMARK SMILES IDX 20 1 19 2 17 3 18 4 16 5 1 6 2 7 3 8 4 9 5 10 6 11 7 13 8 14
REMARK SMILES IDX 9 15 10 16 15 17 11 18 13 19 12 20 14 21 21 22 22 23 23 24
REMARK SMILES IDX 24 25 25 26 26 27 72 28 27 29 71 30 28 31 29 32 30 33 65 34
REMARK SMILES IDX 31 35 70 36 64 37 66 38 32 39 69 40 63 41 62 42 33 44 55 45
REMARK SMILES IDX 40 46 54 47 41 48 44 49 53 50 67 51 42 52 43 53 52 55 68 56
REMARK SMILES IDX 45 57 34 58 35 59 39 60 36 61 38 62 37 63 56 64 57 65 61 66
REMARK SMILES IDX 58 67 60 68 59 69 46 70 47 71 51 72 48 73 50 74 49 75
REMARK H PARENT 6 12 66 43 44 54
REMARK Flexibility Score: inf
ROOT
ATOM      1  C   UNL A   1      36.637  33.816  32.786  1.00  0.00     0.275 C 
ENDROOT
BRANCH   1   2
ATOM      2  O   UNL A   1      35.525  34.723  32.941  1.00  0.00    -0.458 OA
BRANCH   2   3
ATOM      3  C   UNL A   1      34.307  34.344  32.445  1.00  0.00     0.343 C 
ATOM      4  O   UNL A   1      33.653  33.409  32.906  1.00  0.00    -0.246 OA
BRANCH   3   5
ATOM      5  C   UNL A   1      33.826  35.205  31.361  1.00  0.00     0.117 A 
ATOM      6  C   UNL A   1      33.575  37.471  32.673  1.00  0.00     0.069 C 
ATOM      7  C   UNL A   1      33.499  36.614  31.454  1.00  0.00     0.068 A 
ATOM      8  N   UNL A   1      33.097  37.202  30.329  1.00  0.00    -0.195 NA
ATOM      9  S   UNL A   1      33.027  36.082  29.131  1.00  0.00    -0.018 S 
ATOM     10  C   UNL A   1      33.573  34.744  30.064  1.00  0.00     0.124 A 
BRANCH  10  11
ATOM     11  N   UNL A   1      33.709  33.466  29.600  1.00  0.00    -0.368 N 
ATOM     12  H   UNL A   1      33.323  32.745  30.146  1.00  0.00     0.162 HD
BRANCH  11  13
ATOM     13  C   UNL A   1      34.380  33.082  28.361  1.00  0.00     0.107 C 
ATOM     14  C   UNL A   1      33.649  31.940  27.654  1.00  0.00     0.036 C 
BRANCH  13  15
ATOM     15  C   UNL A   1      35.822  32.697  28.666  1.00  0.00    -0.025 A 
ATOM     16  C   UNL A   1      36.228  31.363  28.492  1.00  0.00     0.006 A 
ATOM     17  C   UNL A   1      36.769  33.635  29.113  1.00  0.00     0.021 A 
ATOM     18  C   UNL A   1      37.549  30.980  28.726  1.00  0.00     0.002 A 
ATOM     19  C   UNL A   1      38.092  33.248  29.329  1.00  0.00     0.018 A 
ATOM     20  C   UNL A   1      38.487  31.927  29.134  1.00  0.00     0.016 A 
ATOM     21  Br  UNL A   1      39.366  34.535  29.874  1.00  0.00    -0.051 Br
ENDBRANCH  13  15
ENDBRANCH  11  13
ENDBRANCH  10  11
ENDBRANCH   3   5
ENDBRANCH   2   3
ENDBRANCH   1   2
BRANCH   1  22
ATOM     22  C   UNL A   1      36.978  33.091  34.088  1.00  0.00     0.275 C 
BRANCH  22  23
ATOM     23  O   UNL A   1      37.474  31.777  33.823  1.00  0.00    -0.458 OA
BRANCH  23  24
ATOM     24  C   UNL A   1      38.820  31.713  33.792  1.00  0.00     0.338 C 
ATOM     25  O   UNL A   1      39.599  32.170  34.613  1.00  0.00    -0.246 OA
BRANCH  24  26
ATOM     26  C   UNL A   1      39.280  31.106  32.546  1.00  0.00     0.060 A 
ATOM     27  C   UNL A   1      38.633  29.928  32.164  1.00  0.00     0.016 A 
ATOM     28  C   UNL A   1      40.521  31.486  32.025  1.00  0.00     0.016 A 
ATOM     29  C   UNL A   1      39.337  29.003  31.432  1.00  0.00     0.010 A 
ATOM     30  C   UNL A   1      41.220  30.562  31.283  1.00  0.00     0.010 A 
ATOM     31  C   UNL A   1      40.661  29.292  31.102  1.00  0.00    -0.014 A 
BRANCH  31  32
ATOM     32  C   UNL A   1      41.485  28.191  30.637  1.00  0.00     0.031 A 
ATOM     33  C   UNL A   1      42.407  27.611  31.646  1.00  0.00     0.074 A 
ATOM     34  C   UNL A   1      41.289  27.697  29.397  1.00  0.00     0.049 A 
ATOM     35  N   UNL A   1      43.649  27.273  31.512  1.00  0.00    -0.248 NA
ATOM     36  C   UNL A   1      41.887  27.463  33.018  1.00  0.00     0.031 C 
ATOM     37  C   UNL A   1      40.228  28.064  28.448  1.00  0.00     0.029 A 
ATOM     38  N   UNL A   1      41.877  26.628  28.800  1.00  0.00    -0.354 N 
ATOM     39  C   UNL A   1      44.031  26.740  32.741  1.00  0.00     0.074 A 
ATOM     40  C   UNL A   1      42.950  26.983  33.657  1.00  0.00     0.031 C 
ATOM     41  C   UNL A   1      40.059  27.052  27.572  1.00  0.00     0.029 A 
ATOM     42  C   UNL A   1      41.069  26.041  27.834  1.00  0.00     0.049 A 
ATOM     43  H   UNL A   1      42.778  26.303  29.026  1.00  0.00     0.167 HD
ATOM     44  C   UNL A   1      45.136  25.960  32.891  1.00  0.00     0.031 A 
ATOM     45  C   UNL A   1      41.134  24.760  27.398  1.00  0.00     0.031 A 
ATOM     46  C   UNL A   1      46.082  26.140  31.829  1.00  0.00     0.049 A 
ATOM     47  C   UNL A   1      42.454  24.214  27.796  1.00  0.00     0.074 A 
ATOM     48  C   UNL A   1      46.843  27.201  31.384  1.00  0.00     0.029 A 
ATOM     49  N   UNL A   1      46.111  25.203  30.825  1.00  0.00    -0.354 N 
ATOM     50  N   UNL A   1      43.587  24.622  27.298  1.00  0.00    -0.248 NA
ATOM     51  C   UNL A   1      42.549  23.527  29.078  1.00  0.00     0.031 C 
ATOM     52  C   UNL A   1      46.891  27.052  29.971  1.00  0.00     0.029 A 
ATOM     53  C   UNL A   1      46.187  25.891  29.644  1.00  0.00     0.049 A 
ATOM     54  H   UNL A   1      46.085  24.225  30.934  1.00  0.00     0.167 HD
ATOM     55  C   UNL A   1      44.470  24.620  28.370  1.00  0.00     0.074 A 
ATOM     56  C   UNL A   1      43.804  23.842  29.412  1.00  0.00     0.031 C 
ATOM     57  C   UNL A   1      45.526  25.485  28.424  1.00  0.00     0.031 A 
BRANCH  44  58
ATOM     58  C   UNL A   1      45.180  24.778  33.822  1.00  0.00    -0.014 A 
ATOM     59  C   UNL A   1      44.441  23.627  33.499  1.00  0.00     0.009 A 
ATOM     60  C   UNL A   1      45.686  24.859  35.135  1.00  0.00     0.009 A 
ATOM     61  C   UNL A   1      44.161  22.651  34.461  1.00  0.00     0.001 A 
ATOM     62  C   UNL A   1      45.445  23.866  36.085  1.00  0.00     0.001 A 
ATOM     63  C   UNL A   1      44.656  22.774  35.755  1.00  0.00     0.000 A 
ENDBRANCH  44  58
BRANCH  45  64
ATOM     64  C   UNL A   1      39.989  23.913  26.992  1.00  0.00    -0.014 A 
ATOM     65  C   UNL A   1      38.739  24.473  26.699  1.00  0.00     0.009 A 
ATOM     66  C   UNL A   1      40.178  22.549  26.690  1.00  0.00     0.009 A 
ATOM     67  C   UNL A   1      37.722  23.697  26.122  1.00  0.00     0.001 A 
ATOM     68  C   UNL A   1      39.162  21.771  26.126  1.00  0.00     0.001 A 
ATOM     69  C   UNL A   1      37.935  22.350  25.834  1.00  0.00     0.000 A 
ENDBRANCH  45  64
BRANCH  57  70
ATOM     70  C   UNL A   1      45.828  26.324  27.208  1.00  0.00    -0.014 A 
ATOM     71  C   UNL A   1      46.836  25.976  26.291  1.00  0.00     0.009 A 
ATOM     72  C   UNL A   1      44.938  27.351  26.862  1.00  0.00     0.009 A 
ATOM     73  C   UNL A   1      46.958  26.647  25.071  1.00  0.00     0.001 A 
ATOM     74  C   UNL A   1      45.049  28.008  25.634  1.00  0.00     0.001 A 
ATOM     75  C   UNL A   1      46.057  27.657  24.740  1.00  0.00     0.000 A 
ENDBRANCH  57  70
ENDBRANCH  31  32
ENDBRANCH  24  26
ENDBRANCH  23  24
ENDBRANCH  22  23
ENDBRANCH   1  22
TORSDOF 14
ENDMDL
MODEL 2
REMARK VINA RESULT:     -10.4      2.734      6.366
REMARK SMILES Cc1nsc(N[C@H](C)c2cccc(Br)c2)c1C(=O)OCCOC(=O)c1ccc(-c2c3nc(c(-c4ccccc4)c4ccc([nH]4)c(-c4ccccc4)c4nc(c(-c5ccccc5)c5ccc2[nH]5)C=C4)C=C3)cc1
REMARK SMILES IDX 20 1 19 2 17 3 18 4 16 5 1 6 2 7 3 8 4 9 5 10 6 11 7 13 8 14
REMARK SMILES IDX 9 15 10 16 15 17 11 18 13 19 12 20 14 21 21 22 22 23 23 24
REMARK SMILES IDX 24 25 25 26 26 27 72 28 27 29 71 30 28 31 29 32 30 33 65 34
REMARK SMILES IDX 31 35 70 36 64 37 66 38 32 39 69 40 63 41 62 42 33 44 55 45
REMARK SMILES IDX 40 46 54 47 41 48 44 49 53 50 67 51 42 52 43 53 52 55 68 56
REMARK SMILES IDX 45 57 34 58 35 59 39 60 36 61 38 62 37 63 56 64 57 65 61 66
REMARK SMILES IDX 58 67 60 68 59 69 46 70 47 71 51 72 48 73 50 74 49 75
REMARK H PARENT 6 12 66 43 44 54
REMARK Flexibility Score: inf
ROOT
ATOM      1  C   UNL A   1      34.116  32.739  28.220  1.00  0.00     0.275 C 
ENDROOT
BRANCH   1   2
ATOM      2  O   UNL A   1      34.062  33.097  29.618  1.00  0.00    -0.458 OA
BRANCH   2   3
ATOM      3  C   UNL A   1      34.181  34.418  29.953  1.00  0.00     0.343 C 
ATOM      4  O   UNL A   1      33.912  35.336  29.178  1.00  0.00    -0.246 OA
BRANCH   3   5
ATOM      5  C   UNL A   1      34.587  34.633  31.345  1.00  0.00     0.117 A 
ATOM      6  C   UNL A   1      32.525  36.025  32.199  1.00  0.00     0.069 C 
ATOM      7  C   UNL A   1      33.845  35.350  32.362  1.00  0.00     0.068 A 
ATOM      8  N   UNL A   1      34.401  35.402  33.571  1.00  0.00    -0.195 NA
ATOM      9  S   UNL A   1      35.863  34.656  33.525  1.00  0.00    -0.018 S 
ATOM     10  C   UNL A   1      35.807  34.190  31.870  1.00  0.00     0.124 A 
BRANCH  10  11
ATOM     11  N   UNL A   1      36.798  33.523  31.207  1.00  0.00    -0.368 N 
ATOM     12  H   UNL A   1      36.667  32.561  31.049  1.00  0.00     0.162 HD
BRANCH  11  13
ATOM     13  C   UNL A   1      38.038  34.119  30.716  1.00  0.00     0.107 C 
ATOM     14  C   UNL A   1      38.103  34.106  29.188  1.00  0.00     0.036 C 
BRANCH  13  15
ATOM     15  C   UNL A   1      39.227  33.380  31.316  1.00  0.00    -0.025 A 
ATOM     16  C   UNL A   1      40.436  34.070  31.511  1.00  0.00     0.006 A 
ATOM     17  C   UNL A   1      39.158  32.027  31.688  1.00  0.00     0.021 A 
ATOM     18  C   UNL A   1      41.536  33.438  32.091  1.00  0.00     0.002 A 
ATOM     19  C   UNL A   1      40.256  31.406  32.283  1.00  0.00     0.018 A 
ATOM     20  C   UNL A   1      41.443  32.106  32.490  1.00  0.00     0.016 A 
ATOM     21  Br  UNL A   1      40.127  29.601  32.832  1.00  0.00    -0.051 Br
ENDBRANCH  13  15
ENDBRANCH  11  13
ENDBRANCH  10  11
ENDBRANCH   3   5
ENDBRANCH   2   3
ENDBRANCH   1   2
BRANCH   1  22
ATOM     22  C   UNL A   1      34.781  31.381  27.996  1.00  0.00     0.275 C 
BRANCH  22  23
ATOM     23  O   UNL A   1      36.172  31.437  28.318  1.00  0.00    -0.458 OA
BRANCH  23  24
ATOM     24  C   UNL A   1      36.518  30.614  29.327  1.00  0.00     0.338 C 
ATOM     25  O   UNL A   1      36.265  30.754  30.513  1.00  0.00    -0.246 OA
BRANCH  24  26
ATOM     26  C   UNL A   1      37.371  29.533  28.843  1.00  0.00     0.060 A 
ATOM     27  C   UNL A   1      37.747  28.577  29.791  1.00  0.00     0.016 A 
ATOM     28  C   UNL A   1      38.049  29.695  27.630  1.00  0.00     0.016 A 
ATOM     29  C   UNL A   1      38.952  27.937  29.633  1.00  0.00     0.010 A 
ATOM     30  C   UNL A   1      39.250  29.044  27.469  1.00  0.00     0.010 A 
ATOM     31  C   UNL A   1      39.735  28.269  28.528  1.00  0.00    -0.014 A 
BRANCH  31  32
ATOM     32  C   UNL A   1      41.126  27.852  28.550  1.00  0.00     0.031 A 
ATOM     33  C   UNL A   1      41.401  26.513  27.969  1.00  0.00     0.074 A 
ATOM     34  C   UNL A   1      42.069  28.720  28.969  1.00  0.00     0.049 A 
ATOM     35  N   UNL A   1      42.160  25.571  28.427  1.00  0.00    -0.248 NA
ATOM     36  C   UNL A   1      40.662  26.152  26.746  1.00  0.00     0.031 C 
ATOM     37  C   UNL A   1      41.887  30.137  29.318  1.00  0.00     0.029 A 
ATOM     38  N   UNL A   1      43.420  28.573  28.987  1.00  0.00    -0.354 N 
ATOM     39  C   UNL A   1      42.106  24.548  27.482  1.00  0.00     0.074 A 
ATOM     40  C   UNL A   1      41.089  24.911  26.531  1.00  0.00     0.031 C 
ATOM     41  C   UNL A   1      43.073  30.769  29.202  1.00  0.00     0.029 A 
ATOM     42  C   UNL A   1      44.094  29.784  28.889  1.00  0.00     0.049 A 
ATOM     43  H   UNL A   1      43.873  27.702  29.060  1.00  0.00     0.167 HD
ATOM     44  C   UNL A   1      43.030  23.552  27.425  1.00  0.00     0.031 A 
ATOM     45  C   UNL A   1      45.355  29.970  28.433  1.00  0.00     0.031 A 
ATOM     46  C   UNL A   1      43.735  23.388  28.663  1.00  0.00     0.049 A 
ATOM     47  C   UNL A   1      46.043  28.657  28.455  1.00  0.00     0.074 A 
ATOM     48  C   UNL A   1      43.367  23.027  29.943  1.00  0.00     0.029 A 
ATOM     49  N   UNL A   1      44.992  23.931  28.766  1.00  0.00    -0.354 N 
ATOM     50  N   UNL A   1      46.349  28.018  29.548  1.00  0.00    -0.248 NA
ATOM     51  C   UNL A   1      45.987  27.838  27.250  1.00  0.00     0.031 C 
ATOM     52  C   UNL A   1      44.205  23.798  30.796  1.00  0.00     0.029 A 
ATOM     53  C   UNL A   1      45.054  24.552  29.985  1.00  0.00     0.049 A 
ATOM     54  H   UNL A   1      45.710  23.883  28.094  1.00  0.00     0.167 HD
ATOM     55  C   UNL A   1      46.118  26.680  29.256  1.00  0.00     0.074 A 
ATOM     56  C   UNL A   1      45.996  26.621  27.802  1.00  0.00     0.031 C 
ATOM     57  C   UNL A   1      45.760  25.791  30.230  1.00  0.00     0.031 A 
BRANCH  44  58
ATOM     58  C   UNL A   1      43.526  22.971  26.128  1.00  0.00    -0.014 A 
ATOM     59  C   UNL A   1      43.568  21.574  25.979  1.00  0.00     0.009 A 
ATOM     60  C   UNL A   1      44.216  23.733  25.164  1.00  0.00     0.009 A 
ATOM     61  C   UNL A   1      44.324  20.974  24.966  1.00  0.00     0.001 A 
ATOM     62  C   UNL A   1      44.936  23.139  24.126  1.00  0.00     0.001 A 
ATOM     63  C   UNL A   1      45.014  21.757  24.045  1.00  0.00     0.000 A 
ENDBRANCH  44  58
BRANCH  45  64
ATOM     64  C   UNL A   1      45.844  31.134  27.658  1.00  0.00    -0.014 A 
ATOM     65  C   UNL A   1      44.995  31.843  26.798  1.00  0.00     0.009 A 
ATOM     66  C   UNL A   1      47.114  31.688  27.919  1.00  0.00     0.009 A 
ATOM     67  C   UNL A   1      45.402  33.058  26.227  1.00  0.00     0.001 A 
ATOM     68  C   UNL A   1      47.527  32.892  27.342  1.00  0.00     0.001 A 
ATOM     69  C   UNL A   1      46.664  33.583  26.502  1.00  0.00     0.000 A 
ENDBRANCH  45  64
BRANCH  57  70
ATOM     70  C   UNL A   1      45.796  26.247  31.666  1.00  0.00    -0.014 A 
ATOM     71  C   UNL A   1      44.736  26.965  32.250  1.00  0.00     0.009 A 
ATOM     72  C   UNL A   1      46.807  25.754  32.504  1.00  0.00     0.009 A 
ATOM     73  C   UNL A   1      44.699  27.194  33.628  1.00  0.00     0.001 A 
ATOM     74  C   UNL A   1      46.759  25.967  33.883  1.00  0.00     0.001 A 
ATOM     75  C   UNL A   1      45.707  26.686  34.445  1.00  0.00     0.000 A 
ENDBRANCH  57  70
ENDBRANCH  31  32
ENDBRANCH  24  26
ENDBRANCH  23  24
ENDBRANCH  22  23
ENDBRANCH   1  22
TORSDOF 14
ENDMDL
MODEL 3
REMARK VINA RESULT:     -10.4      2.043      3.132
REMARK SMILES Cc1nsc(N[C@H](C)c2cccc(Br)c2)c1C(=O)OCCOC(=O)c1ccc(-c2c3nc(c(-c4ccccc4)c4ccc([nH]4)c(-c4ccccc4)c4nc(c(-c5ccccc5)c5ccc2[nH]5)C=C4)C=C3)cc1
REMARK SMILES IDX 20 1 19 2 17 3 18 4 16 5 1 6 2 7 3 8 4 9 5 10 6 11 7 13 8 14
REMARK SMILES IDX 9 15 10 16 15 17 11 18 13 19 12 20 14 21 21 22 22 23 23 24
REMARK SMILES IDX 24 25 25 26 26 27 72 28 27 29 71 30 28 31 29 32 30 33 65 34
REMARK SMILES IDX 31 35 70 36 64 37 66 38 32 39 69 40 63 41 62 42 33 44 55 45
REMARK SMILES IDX 40 46 54 47 41 48 44 49 53 50 67 51 42 52 43 53 52 55 68 56
REMARK SMILES IDX 45 57 34 58 35 59 39 60 36 61 38 62 37 63 56 64 57 65 61 66
REMARK SMILES IDX 58 67 60 68 59 69 46 70 47 71 51 72 48 73 50 74 49 75
REMARK H PARENT 6 12 66 43 44 54
REMARK Flexibility Score: inf
ROOT
ATOM      1  C   UNL A   1      34.137  33.230  27.997  1.00  0.00     0.275 C 
ENDROOT
BRANCH   1   2
ATOM      2  O   UNL A   1      33.755  33.398  29.378  1.00  0.00    -0.458 OA
BRANCH   2   3
ATOM      3  C   UNL A   1      33.511  34.665  29.833  1.00  0.00     0.343 C 
ATOM      4  O   UNL A   1      32.839  35.487  29.209  1.00  0.00    -0.246 OA
BRANCH   3   5
ATOM      5  C   UNL A   1      34.065  34.924  31.165  1.00  0.00     0.117 A 
ATOM      6  C   UNL A   1      32.181  36.486  32.131  1.00  0.00     0.069 C 
ATOM      7  C   UNL A   1      33.469  35.738  32.206  1.00  0.00     0.068 A 
ATOM      8  N   UNL A   1      34.144  35.816  33.352  1.00  0.00    -0.195 NA
ATOM      9  S   UNL A   1      35.549  34.977  33.208  1.00  0.00    -0.018 S 
ATOM     10  C   UNL A   1      35.302  34.433  31.595  1.00  0.00     0.124 A 
BRANCH  10  11
ATOM     11  N   UNL A   1      36.183  33.672  30.880  1.00  0.00    -0.368 N 
ATOM     12  H   UNL A   1      35.828  32.869  30.435  1.00  0.00     0.162 HD
BRANCH  11  13
ATOM     13  C   UNL A   1      37.608  33.949  30.722  1.00  0.00     0.107 C 
ATOM     14  C   UNL A   1      38.017  33.976  29.249  1.00  0.00     0.036 C 
BRANCH  13  15
ATOM     15  C   UNL A   1      38.414  32.909  31.490  1.00  0.00    -0.025 A 
ATOM     16  C   UNL A   1      37.749  32.037  32.369  1.00  0.00     0.006 A 
ATOM     17  C   UNL A   1      39.807  32.787  31.349  1.00  0.00     0.021 A 
ATOM     18  C   UNL A   1      38.447  31.048  33.063  1.00  0.00     0.002 A 
ATOM     19  C   UNL A   1      40.496  31.785  32.032  1.00  0.00     0.018 A 
ATOM     20  C   UNL A   1      39.823  30.913  32.885  1.00  0.00     0.016 A 
ATOM     21  Br  UNL A   1      42.361  31.596  31.785  1.00  0.00    -0.051 Br
ENDBRANCH  13  15
ENDBRANCH  11  13
ENDBRANCH  10  11
ENDBRANCH   3   5
ENDBRANCH   2   3
ENDBRANCH   1   2
BRANCH   1  22
ATOM     22  C   UNL A   1      34.642  31.816  27.704  1.00  0.00     0.275 C 
BRANCH  22  23
ATOM     23  O   UNL A   1      35.619  31.417  28.667  1.00  0.00    -0.458 OA
BRANCH  23  24
ATOM     24  C   UNL A   1      36.121  30.188  28.436  1.00  0.00     0.338 C 
ATOM     25  O   UNL A   1      35.637  29.314  27.734  1.00  0.00    -0.246 OA
BRANCH  24  26
ATOM     26  C   UNL A   1      37.312  29.954  29.247  1.00  0.00     0.060 A 
ATOM     27  C   UNL A   1      38.504  30.489  28.752  1.00  0.00     0.016 A 
ATOM     28  C   UNL A   1      37.285  28.947  30.216  1.00  0.00     0.016 A 
ATOM     29  C   UNL A   1      39.683  29.851  29.054  1.00  0.00     0.010 A 
ATOM     30  C   UNL A   1      38.468  28.315  30.526  1.00  0.00     0.010 A 
ATOM     31  C   UNL A   1      39.628  28.704  29.845  1.00  0.00    -0.014 A 
BRANCH  31  32
ATOM     32  C   UNL A   1      40.808  27.859  29.875  1.00  0.00     0.031 A 
ATOM     33  C   UNL A   1      41.543  27.831  31.165  1.00  0.00     0.074 A 
ATOM     34  C   UNL A   1      41.092  27.084  28.808  1.00  0.00     0.049 A 
ATOM     35  N   UNL A   1      42.818  27.894  31.374  1.00  0.00    -0.248 NA
ATOM     36  C   UNL A   1      40.730  27.808  32.395  1.00  0.00     0.031 C 
ATOM     37  C   UNL A   1      40.269  26.882  27.607  1.00  0.00     0.029 A 
ATOM     38  N   UNL A   1      42.082  26.164  28.658  1.00  0.00    -0.354 N 
ATOM     39  C   UNL A   1      42.982  27.779  32.753  1.00  0.00     0.074 A 
ATOM     40  C   UNL A   1      41.668  27.841  33.337  1.00  0.00     0.031 C 
ATOM     41  C   UNL A   1      40.618  25.713  27.032  1.00  0.00     0.029 A 
ATOM     42  C   UNL A   1      41.750  25.161  27.756  1.00  0.00     0.049 A 
ATOM     43  H   UNL A   1      42.941  26.204  29.137  1.00  0.00     0.167 HD
ATOM     44  C   UNL A   1      44.170  27.448  33.326  1.00  0.00     0.031 A 
ATOM     45  C   UNL A   1      42.268  23.910  27.715  1.00  0.00     0.031 A 
ATOM     46  C   UNL A   1      45.285  27.703  32.462  1.00  0.00     0.049 A 
ATOM     47  C   UNL A   1      43.527  23.916  28.499  1.00  0.00     0.074 A 
ATOM     48  C   UNL A   1      45.828  28.838  31.896  1.00  0.00     0.029 A 
ATOM     49  N   UNL A   1      45.832  26.640  31.785  1.00  0.00    -0.354 N 
ATOM     50  N   UNL A   1      44.602  24.558  28.138  1.00  0.00    -0.248 NA
ATOM     51  C   UNL A   1      43.451  23.577  29.914  1.00  0.00     0.031 C 
ATOM     52  C   UNL A   1      46.294  28.424  30.618  1.00  0.00     0.029 A 
ATOM     53  C   UNL A   1      46.038  27.057  30.497  1.00  0.00     0.049 A 
ATOM     54  H   UNL A   1      46.037  25.751  32.154  1.00  0.00     0.167 HD
ATOM     55  C   UNL A   1      45.130  25.064  29.318  1.00  0.00     0.074 A 
ATOM     56  C   UNL A   1      44.438  24.344  30.385  1.00  0.00     0.031 C 
ATOM     57  C   UNL A   1      45.863  26.216  29.333  1.00  0.00     0.031 A 
BRANCH  44  58
ATOM     58  C   UNL A   1      44.273  26.564  34.540  1.00  0.00    -0.014 A 
ATOM     59  C   UNL A   1      43.642  25.308  34.524  1.00  0.00     0.009 A 
ATOM     60  C   UNL A   1      44.717  27.034  35.792  1.00  0.00     0.009 A 
ATOM     61  C   UNL A   1      43.404  24.599  35.706  1.00  0.00     0.001 A 
ATOM     62  C   UNL A   1      44.520  26.310  36.969  1.00  0.00     0.001 A 
ATOM     63  C   UNL A   1      43.835  25.105  36.929  1.00  0.00     0.000 A 
ENDBRANCH  44  58
BRANCH  45  64
ATOM     64  C   UNL A   1      41.542  22.673  27.347  1.00  0.00    -0.014 A 
ATOM     65  C   UNL A   1      40.176  22.697  27.037  1.00  0.00     0.009 A 
ATOM     66  C   UNL A   1      42.245  21.477  27.096  1.00  0.00     0.009 A 
ATOM     67  C   UNL A   1      39.542  21.569  26.494  1.00  0.00     0.001 A 
ATOM     68  C   UNL A   1      41.613  20.347  26.566  1.00  0.00     0.001 A 
ATOM     69  C   UNL A   1      40.261  20.398  26.257  1.00  0.00     0.000 A 
ENDBRANCH  45  64
BRANCH  57  70
ATOM     70  C   UNL A   1      46.249  26.838  28.015  1.00  0.00    -0.014 A 
ATOM     71  C   UNL A   1      45.380  27.689  27.308  1.00  0.00     0.009 A 
ATOM     72  C   UNL A   1      47.583  26.748  27.594  1.00  0.00     0.009 A 
ATOM     73  C   UNL A   1      45.833  28.416  26.202  1.00  0.00     0.001 A 
ATOM     74  C   UNL A   1      48.038  27.489  26.501  1.00  0.00     0.001 A 
ATOM     75  C   UNL A   1      47.164  28.321  25.806  1.00  0.00     0.000 A 
ENDBRANCH  57  70
ENDBRANCH  31  32
ENDBRANCH  24  26
ENDBRANCH  23  24
ENDBRANCH  22  23
ENDBRANCH   1  22
TORSDOF 14
ENDMDL
