MODEL 1
REMARK VINA RESULT:     -10.7      0.000      0.000
REMARK SMILES CC(C)(C)OC(=O)[C@@H]1[NH2+][C@H](C(=O)OCCOC(=O)c2ccc(-c3c4nc(c(-c5ccccc5)c5ccc([nH]5)c(-c5ccccc5)c5nc(c(-c6ccccc6)c6ccc3[nH]6)C=C5)C=C4)cc2)C(C)(C)S1
REMARK SMILES IDX 14 1 13 2 11 3 12 4 10 5 8 6 9 7 70 8 67 11 68 12 69 13 6 14
REMARK SMILES IDX 7 15 5 16 2 17 1 18 3 19 4 20 15 21 16 22 17 23 18 24 19 25
REMARK SMILES IDX 20 26 66 27 21 28 65 29 22 30 23 31 24 32 59 33 25 34 64 35
REMARK SMILES IDX 58 36 60 37 26 38 63 39 57 40 56 41 27 43 49 44 34 45 48 46
REMARK SMILES IDX 35 47 38 48 47 49 61 50 36 51 37 52 46 54 62 55 39 56 28 57
REMARK SMILES IDX 29 58 33 59 30 60 32 61 31 62 50 63 51 64 55 65 52 66 54 67
REMARK SMILES IDX 53 68 40 69 41 70 45 71 42 72 44 73 43 74
REMARK H PARENT 9 9 9 10 60 42 38 53
REMARK Flexibility Score: inf
ROOT
ATOM      1  C   UNL A   1      32.042  29.894  26.774  1.00  0.00     0.274 C 
ENDROOT
BRANCH   1   2
ATOM      2  O   UNL A   1      31.859  29.887  25.330  1.00  0.00    -0.458 OA
BRANCH   2   3
ATOM      3  C   UNL A   1      32.317  28.800  24.638  1.00  0.00     0.366 C 
ATOM      4  O   UNL A   1      33.139  28.868  23.729  1.00  0.00    -0.245 OA
BRANCH   3   5
ATOM      5  C   UNL A   1      31.779  27.427  25.173  1.00  0.00     0.310 C 
ATOM      6  C   UNL A   1      29.973  27.068  23.640  1.00  0.00     0.354 C 
ATOM      7  N   UNL A   1      30.274  27.360  25.054  1.00  0.00    -0.313 N 
ATOM      8  S   UNL A   1      31.282  25.861  23.106  1.00  0.00    -0.074 SA
ATOM      9  H   UNL A   1      29.906  26.621  25.652  1.00  0.00     0.348 HD
ATOM     10  H   UNL A   1      29.844  28.238  25.347  1.00  0.00     0.348 HD
ATOM     11  C   UNL A   1      32.348  26.116  24.582  1.00  0.00     0.079 C 
ATOM     12  C   UNL A   1      32.118  24.914  25.532  1.00  0.00     0.030 C 
ATOM     13  C   UNL A   1      33.851  26.158  24.277  1.00  0.00     0.030 C 
BRANCH   6  14
ATOM     14  C   UNL A   1      29.978  28.372  22.816  1.00  0.00     0.376 C 
ATOM     15  O   UNL A   1      30.555  28.476  21.756  1.00  0.00    -0.244 OA
BRANCH  14  16
ATOM     16  O   UNL A   1      29.338  29.411  23.399  1.00  0.00    -0.455 OA
BRANCH  16  17
ATOM     17  C   UNL A   1      28.101  29.989  22.856  1.00  0.00     0.104 C 
ATOM     18  C   UNL A   1      27.656  31.200  23.678  1.00  0.00     0.056 C 
ATOM     19  C   UNL A   1      27.101  28.853  23.048  1.00  0.00     0.056 C 
ATOM     20  C   UNL A   1      28.053  30.356  21.367  1.00  0.00     0.056 C 
ENDBRANCH  16  17
ENDBRANCH  14  16
ENDBRANCH   6  14
ENDBRANCH   3   5
ENDBRANCH   2   3
ENDBRANCH   1   2
BRANCH   1  21
ATOM     21  C   UNL A   1      33.229  30.805  27.236  1.00  0.00     0.275 C 
BRANCH  21  22
ATOM     22  O   UNL A   1      34.267  30.082  27.966  1.00  0.00    -0.458 OA
BRANCH  22  23
ATOM     23  C   UNL A   1      35.226  30.765  28.652  1.00  0.00     0.338 C 
ATOM     24  O   UNL A   1      35.045  31.763  29.329  1.00  0.00    -0.246 OA
BRANCH  23  25
ATOM     25  C   UNL A   1      36.564  30.078  28.546  1.00  0.00     0.060 A 
ATOM     26  C   UNL A   1      37.070  29.390  29.660  1.00  0.00     0.016 A 
ATOM     27  C   UNL A   1      37.351  30.110  27.391  1.00  0.00     0.016 A 
ATOM     28  C   UNL A   1      38.241  28.610  29.590  1.00  0.00     0.010 A 
ATOM     29  C   UNL A   1      38.575  29.393  27.342  1.00  0.00     0.010 A 
ATOM     30  C   UNL A   1      39.022  28.609  28.429  1.00  0.00    -0.014 A 
BRANCH  30  31
ATOM     31  C   UNL A   1      40.420  28.055  28.464  1.00  0.00     0.031 A 
ATOM     32  C   UNL A   1      41.508  29.005  28.871  1.00  0.00     0.074 A 
ATOM     33  C   UNL A   1      40.766  26.769  28.240  1.00  0.00     0.049 A 
ATOM     34  N   UNL A   1      42.805  28.894  28.756  1.00  0.00    -0.248 NA
ATOM     35  C   UNL A   1      41.056  30.251  29.508  1.00  0.00     0.031 C 
ATOM     36  C   UNL A   1      39.835  25.667  28.062  1.00  0.00     0.029 A 
ATOM     37  N   UNL A   1      42.003  26.162  28.141  1.00  0.00    -0.354 N 
ATOM     38  C   UNL A   1      43.318  30.089  29.239  1.00  0.00     0.074 A 
ATOM     39  C   UNL A   1      42.200  30.888  29.686  1.00  0.00     0.031 C 
ATOM     40  C   UNL A   1      40.516  24.525  27.848  1.00  0.00     0.029 A 
ATOM     41  C   UNL A   1      41.948  24.819  27.827  1.00  0.00     0.049 A 
ATOM     42  H   UNL A   1      42.849  26.644  28.281  1.00  0.00     0.167 HD
ATOM     43  C   UNL A   1      44.606  30.502  29.274  1.00  0.00     0.031 A 
ATOM     44  C   UNL A   1      42.931  23.941  27.524  1.00  0.00     0.031 A 
ATOM     45  C   UNL A   1      45.716  29.701  28.846  1.00  0.00     0.049 A 
ATOM     46  C   UNL A   1      44.360  24.433  27.485  1.00  0.00     0.074 A 
ATOM     47  C   UNL A   1      47.050  30.049  28.745  1.00  0.00     0.029 A 
ATOM     48  N   UNL A   1      45.615  28.370  28.470  1.00  0.00    -0.354 N 
ATOM     49  N   UNL A   1      44.828  25.621  27.785  1.00  0.00    -0.248 NA
ATOM     50  C   UNL A   1      45.392  23.477  27.048  1.00  0.00     0.031 C 
ATOM     51  C   UNL A   1      47.755  28.931  28.283  1.00  0.00     0.029 A 
ATOM     52  C   UNL A   1      46.864  27.878  28.142  1.00  0.00     0.049 A 
ATOM     53  H   UNL A   1      44.778  27.852  28.442  1.00  0.00     0.167 HD
ATOM     54  C   UNL A   1      46.203  25.551  27.589  1.00  0.00     0.074 A 
ATOM     55  C   UNL A   1      46.499  24.200  27.163  1.00  0.00     0.031 C 
ATOM     56  C   UNL A   1      47.135  26.523  27.740  1.00  0.00     0.031 A 
BRANCH  43  57
ATOM     57  C   UNL A   1      44.831  31.929  29.678  1.00  0.00    -0.014 A 
ATOM     58  C   UNL A   1      44.937  32.960  28.733  1.00  0.00     0.009 A 
ATOM     59  C   UNL A   1      45.033  32.222  31.036  1.00  0.00     0.009 A 
ATOM     60  C   UNL A   1      45.302  34.247  29.136  1.00  0.00     0.001 A 
ATOM     61  C   UNL A   1      45.366  33.516  31.438  1.00  0.00     0.001 A 
ATOM     62  C   UNL A   1      45.517  34.523  30.487  1.00  0.00     0.000 A 
ENDBRANCH  43  57
BRANCH  44  63
ATOM     63  C   UNL A   1      42.625  22.523  27.155  1.00  0.00    -0.014 A 
ATOM     64  C   UNL A   1      41.881  21.693  28.010  1.00  0.00     0.009 A 
ATOM     65  C   UNL A   1      43.135  21.968  25.969  1.00  0.00     0.009 A 
ATOM     66  C   UNL A   1      41.672  20.343  27.696  1.00  0.00     0.001 A 
ATOM     67  C   UNL A   1      42.900  20.628  25.643  1.00  0.00     0.001 A 
ATOM     68  C   UNL A   1      42.176  19.814  26.511  1.00  0.00     0.000 A 
ENDBRANCH  44  63
BRANCH  56  69
ATOM     69  C   UNL A   1      48.569  26.157  27.489  1.00  0.00    -0.014 A 
ATOM     70  C   UNL A   1      49.370  25.622  28.509  1.00  0.00     0.009 A 
ATOM     71  C   UNL A   1      49.093  26.269  26.192  1.00  0.00     0.009 A 
ATOM     72  C   UNL A   1      50.677  25.218  28.234  1.00  0.00     0.001 A 
ATOM     73  C   UNL A   1      50.392  25.844  25.917  1.00  0.00     0.001 A 
ATOM     74  C   UNL A   1      51.185  25.323  26.938  1.00  0.00     0.000 A 
ENDBRANCH  56  69
ENDBRANCH  30  31
ENDBRANCH  23  25
ENDBRANCH  22  23
ENDBRANCH  21  22
ENDBRANCH   1  21
TORSDOF 14
ENDMDL
MODEL 2
REMARK VINA RESULT:     -10.5      4.716      7.949
REMARK SMILES CC(C)(C)OC(=O)[C@@H]1[NH2+][C@H](C(=O)OCCOC(=O)c2ccc(-c3c4nc(c(-c5ccccc5)c5ccc([nH]5)c(-c5ccccc5)c5nc(c(-c6ccccc6)c6ccc3[nH]6)C=C5)C=C4)cc2)C(C)(C)S1
REMARK SMILES IDX 14 1 13 2 11 3 12 4 10 5 8 6 9 7 70 8 67 11 68 12 69 13 6 14
REMARK SMILES IDX 7 15 5 16 2 17 1 18 3 19 4 20 15 21 16 22 17 23 18 24 19 25
REMARK SMILES IDX 20 26 66 27 21 28 65 29 22 30 23 31 24 32 59 33 25 34 64 35
REMARK SMILES IDX 58 36 60 37 26 38 63 39 57 40 56 41 27 43 49 44 34 45 48 46
REMARK SMILES IDX 35 47 38 48 47 49 61 50 36 51 37 52 46 54 62 55 39 56 28 57
REMARK SMILES IDX 29 58 33 59 30 60 32 61 31 62 50 63 51 64 55 65 52 66 54 67
REMARK SMILES IDX 53 68 40 69 41 70 45 71 42 72 44 73 43 74
REMARK H PARENT 9 9 9 10 60 42 38 53
REMARK Flexibility Score: inf
ROOT
ATOM      1  C   UNL A   1      36.749  22.586  23.881  1.00  0.00     0.274 C 
ENDROOT
BRANCH   1   2
ATOM      2  O   UNL A   1      35.346  22.437  23.521  1.00  0.00    -0.458 OA
BRANCH   2   3
ATOM      3  C   UNL A   1      34.420  23.055  24.314  1.00  0.00     0.366 C 
ATOM      4  O   UNL A   1      34.694  23.615  25.372  1.00  0.00    -0.245 OA
BRANCH   3   5
ATOM      5  C   UNL A   1      32.974  23.082  23.708  1.00  0.00     0.310 C 
ATOM      6  C   UNL A   1      32.070  21.103  24.712  1.00  0.00     0.354 C 
ATOM      7  N   UNL A   1      32.488  21.680  23.421  1.00  0.00    -0.313 N 
ATOM      8  S   UNL A   1      31.253  22.502  25.625  1.00  0.00    -0.074 SA
ATOM      9  H   UNL A   1      31.700  21.706  22.774  1.00  0.00     0.348 HD
ATOM     10  H   UNL A   1      33.224  21.119  22.989  1.00  0.00     0.348 HD
ATOM     11  C   UNL A   1      31.850  23.811  24.481  1.00  0.00     0.079 C 
ATOM     12  C   UNL A   1      30.669  24.186  23.551  1.00  0.00     0.030 C 
ATOM     13  C   UNL A   1      32.294  25.104  25.176  1.00  0.00     0.030 C 
BRANCH   6  14
ATOM     14  C   UNL A   1      33.292  20.526  25.456  1.00  0.00     0.376 C 
ATOM     15  O   UNL A   1      33.614  20.886  26.566  1.00  0.00    -0.244 OA
BRANCH  14  16
ATOM     16  O   UNL A   1      34.012  19.628  24.747  1.00  0.00    -0.455 OA
BRANCH  16  17
ATOM     17  C   UNL A   1      33.537  18.265  24.472  1.00  0.00     0.104 C 
ATOM     18  C   UNL A   1      32.713  17.725  25.642  1.00  0.00     0.056 C 
ATOM     19  C   UNL A   1      34.842  17.482  24.369  1.00  0.00     0.056 C 
ATOM     20  C   UNL A   1      32.775  18.002  23.166  1.00  0.00     0.056 C 
ENDBRANCH  16  17
ENDBRANCH  14  16
ENDBRANCH   6  14
ENDBRANCH   3   5
ENDBRANCH   2   3
ENDBRANCH   1   2
BRANCH   1  21
ATOM     21  C   UNL A   1      37.323  21.342  24.638  1.00  0.00     0.275 C 
BRANCH  21  22
ATOM     22  O   UNL A   1      38.343  21.682  25.627  1.00  0.00    -0.458 OA
BRANCH  22  23
ATOM     23  C   UNL A   1      39.386  20.836  25.856  1.00  0.00     0.338 C 
ATOM     24  O   UNL A   1      39.393  19.635  25.643  1.00  0.00    -0.246 OA
BRANCH  23  25
ATOM     25  C   UNL A   1      40.601  21.588  26.340  1.00  0.00     0.060 A 
ATOM     26  C   UNL A   1      40.431  22.848  26.935  1.00  0.00     0.016 A 
ATOM     27  C   UNL A   1      41.904  21.103  26.208  1.00  0.00     0.016 A 
ATOM     28  C   UNL A   1      41.500  23.543  27.535  1.00  0.00     0.010 A 
ATOM     29  C   UNL A   1      42.997  21.838  26.738  1.00  0.00     0.010 A 
ATOM     30  C   UNL A   1      42.807  23.052  27.436  1.00  0.00    -0.014 A 
BRANCH  30  31
ATOM     31  C   UNL A   1      43.971  23.940  27.779  1.00  0.00     0.031 A 
ATOM     32  C   UNL A   1      44.291  24.095  29.236  1.00  0.00     0.074 A 
ATOM     33  C   UNL A   1      44.795  24.541  26.892  1.00  0.00     0.049 A 
ATOM     34  N   UNL A   1      45.055  24.967  29.840  1.00  0.00    -0.248 NA
ATOM     35  C   UNL A   1      43.661  23.114  30.131  1.00  0.00     0.031 C 
ATOM     36  C   UNL A   1      44.786  24.324  25.455  1.00  0.00     0.029 A 
ATOM     37  N   UNL A   1      45.820  25.450  27.071  1.00  0.00    -0.354 N 
ATOM     38  C   UNL A   1      44.936  24.682  31.193  1.00  0.00     0.074 A 
ATOM     39  C   UNL A   1      44.065  23.536  31.316  1.00  0.00     0.031 C 
ATOM     40  C   UNL A   1      45.729  25.087  24.872  1.00  0.00     0.029 A 
ATOM     41  C   UNL A   1      46.390  25.895  25.895  1.00  0.00     0.049 A 
ATOM     42  H   UNL A   1      46.118  25.754  27.959  1.00  0.00     0.167 HD
ATOM     43  C   UNL A   1      45.475  25.340  32.244  1.00  0.00     0.031 A 
ATOM     44  C   UNL A   1      47.307  26.862  25.669  1.00  0.00     0.031 A 
ATOM     45  C   UNL A   1      46.353  26.468  32.119  1.00  0.00     0.049 A 
ATOM     46  C   UNL A   1      47.841  27.648  26.844  1.00  0.00     0.074 A 
ATOM     47  C   UNL A   1      46.880  27.273  33.113  1.00  0.00     0.029 A 
ATOM     48  N   UNL A   1      46.853  26.934  30.913  1.00  0.00    -0.354 N 
ATOM     49  N   UNL A   1      47.597  27.484  28.123  1.00  0.00    -0.248 NA
ATOM     50  C   UNL A   1      48.758  28.764  26.551  1.00  0.00     0.031 C 
ATOM     51  C   UNL A   1      47.683  28.242  32.502  1.00  0.00     0.029 A 
ATOM     52  C   UNL A   1      47.690  28.011  31.135  1.00  0.00     0.049 A 
ATOM     53  H   UNL A   1      46.644  26.553  30.030  1.00  0.00     0.167 HD
ATOM     54  C   UNL A   1      48.338  28.457  28.782  1.00  0.00     0.074 A 
ATOM     55  C   UNL A   1      49.055  29.200  27.768  1.00  0.00     0.031 C 
ATOM     56  C   UNL A   1      48.408  28.720  30.110  1.00  0.00     0.031 A 
BRANCH  43  57
ATOM     57  C   UNL A   1      45.007  24.909  33.603  1.00  0.00    -0.014 A 
ATOM     58  C   UNL A   1      45.692  23.938  34.351  1.00  0.00     0.009 A 
ATOM     59  C   UNL A   1      43.799  25.425  34.097  1.00  0.00     0.009 A 
ATOM     60  C   UNL A   1      45.142  23.451  35.538  1.00  0.00     0.001 A 
ATOM     61  C   UNL A   1      43.269  24.959  35.299  1.00  0.00     0.001 A 
ATOM     62  C   UNL A   1      43.931  23.960  36.010  1.00  0.00     0.000 A 
ENDBRANCH  43  57
BRANCH  44  63
ATOM     63  C   UNL A   1      47.741  27.217  24.281  1.00  0.00    -0.014 A 
ATOM     64  C   UNL A   1      46.993  28.105  23.489  1.00  0.00     0.009 A 
ATOM     65  C   UNL A   1      48.877  26.616  23.713  1.00  0.00     0.009 A 
ATOM     66  C   UNL A   1      47.360  28.365  22.162  1.00  0.00     0.001 A 
ATOM     67  C   UNL A   1      49.258  26.900  22.397  1.00  0.00     0.001 A 
ATOM     68  C   UNL A   1      48.495  27.767  21.619  1.00  0.00     0.000 A 
ENDBRANCH  44  63
BRANCH  56  69
ATOM     69  C   UNL A   1      49.324  29.823  30.553  1.00  0.00    -0.014 A 
ATOM     70  C   UNL A   1      50.676  29.575  30.834  1.00  0.00     0.009 A 
ATOM     71  C   UNL A   1      48.844  31.141  30.605  1.00  0.00     0.009 A 
ATOM     72  C   UNL A   1      51.527  30.629  31.171  1.00  0.00     0.001 A 
ATOM     73  C   UNL A   1      49.702  32.193  30.921  1.00  0.00     0.001 A 
ATOM     74  C   UNL A   1      51.041  31.937  31.208  1.00  0.00     0.000 A 
ENDBRANCH  56  69
ENDBRANCH  30  31
ENDBRANCH  23  25
ENDBRANCH  22  23
ENDBRANCH  21  22
ENDBRANCH   1  21
TORSDOF 14
ENDMDL
MODEL 3
REMARK VINA RESULT:     -10.4      3.881      6.022
REMARK SMILES CC(C)(C)OC(=O)[C@@H]1[NH2+][C@H](C(=O)OCCOC(=O)c2ccc(-c3c4nc(c(-c5ccccc5)c5ccc([nH]5)c(-c5ccccc5)c5nc(c(-c6ccccc6)c6ccc3[nH]6)C=C5)C=C4)cc2)C(C)(C)S1
REMARK SMILES IDX 14 1 13 2 11 3 12 4 10 5 8 6 9 7 70 8 67 11 68 12 69 13 6 14
REMARK SMILES IDX 7 15 5 16 2 17 1 18 3 19 4 20 15 21 16 22 17 23 18 24 19 25
REMARK SMILES IDX 20 26 66 27 21 28 65 29 22 30 23 31 24 32 59 33 25 34 64 35
REMARK SMILES IDX 58 36 60 37 26 38 63 39 57 40 56 41 27 43 49 44 34 45 48 46
REMARK SMILES IDX 35 47 38 48 47 49 61 50 36 51 37 52 46 54 62 55 39 56 28 57
REMARK SMILES IDX 29 58 33 59 30 60 32 61 31 62 50 63 51 64 55 65 52 66 54 67
REMARK SMILES IDX 53 68 40 69 41 70 45 71 42 72 44 73 43 74
REMARK H PARENT 9 9 9 10 60 42 38 53
REMARK Flexibility Score: inf
ROOT
ATOM      1  C   UNL A   1      36.193  33.371  28.613  1.00  0.00     0.274 C 
ENDROOT
BRANCH   1   2
ATOM      2  O   UNL A   1      36.020  34.013  29.909  1.00  0.00    -0.458 OA
BRANCH   2   3
ATOM      3  C   UNL A   1      36.426  33.322  31.017  1.00  0.00     0.366 C 
ATOM      4  O   UNL A   1      36.278  32.111  31.156  1.00  0.00    -0.245 OA
BRANCH   3   5
ATOM      5  C   UNL A   1      37.197  34.193  32.068  1.00  0.00     0.310 C 
ATOM      6  C   UNL A   1      35.395  34.746  33.547  1.00  0.00     0.354 C 
ATOM      7  N   UNL A   1      36.329  35.326  32.564  1.00  0.00    -0.313 N 
ATOM      8  S   UNL A   1      36.397  33.492  34.484  1.00  0.00    -0.074 SA
ATOM      9  H   UNL A   1      36.904  36.044  33.005  1.00  0.00     0.348 HD
ATOM     10  H   UNL A   1      35.824  35.765  31.793  1.00  0.00     0.348 HD
ATOM     11  C   UNL A   1      37.810  33.504  33.309  1.00  0.00     0.079 C 
ATOM     12  C   UNL A   1      38.932  34.364  33.944  1.00  0.00     0.030 C 
ATOM     13  C   UNL A   1      38.415  32.122  33.033  1.00  0.00     0.030 C 
BRANCH   6  14
ATOM     14  C   UNL A   1      34.178  34.132  32.824  1.00  0.00     0.376 C 
ATOM     15  O   UNL A   1      33.682  33.078  33.154  1.00  0.00    -0.244 OA
BRANCH  14  16
ATOM     16  O   UNL A   1      33.744  34.834  31.753  1.00  0.00    -0.455 OA
BRANCH  16  17
ATOM     17  C   UNL A   1      32.925  36.047  31.875  1.00  0.00     0.104 C 
ATOM     18  C   UNL A   1      31.567  35.731  32.505  1.00  0.00     0.056 C 
ATOM     19  C   UNL A   1      32.723  36.450  30.417  1.00  0.00     0.056 C 
ATOM     20  C   UNL A   1      33.525  37.272  32.579  1.00  0.00     0.056 C 
ENDBRANCH  16  17
ENDBRANCH  14  16
ENDBRANCH   6  14
ENDBRANCH   3   5
ENDBRANCH   2   3
ENDBRANCH   1   2
BRANCH   1  21
ATOM     21  C   UNL A   1      34.850  32.840  28.009  1.00  0.00     0.275 C 
BRANCH  21  22
ATOM     22  O   UNL A   1      34.364  31.622  28.652  1.00  0.00    -0.458 OA
BRANCH  22  23
ATOM     23  C   UNL A   1      34.555  30.410  28.060  1.00  0.00     0.338 C 
ATOM     24  O   UNL A   1      33.737  29.809  27.382  1.00  0.00    -0.246 OA
BRANCH  23  25
ATOM     25  C   UNL A   1      35.963  29.915  28.273  1.00  0.00     0.060 A 
ATOM     26  C   UNL A   1      36.891  30.023  27.225  1.00  0.00     0.016 A 
ATOM     27  C   UNL A   1      36.395  29.327  29.464  1.00  0.00     0.016 A 
ATOM     28  C   UNL A   1      38.255  29.713  27.398  1.00  0.00     0.010 A 
ATOM     29  C   UNL A   1      37.752  28.936  29.617  1.00  0.00     0.010 A 
ATOM     30  C   UNL A   1      38.707  29.152  28.598  1.00  0.00    -0.014 A 
BRANCH  30  31
ATOM     31  C   UNL A   1      40.070  28.523  28.666  1.00  0.00     0.031 A 
ATOM     32  C   UNL A   1      41.198  29.410  29.105  1.00  0.00     0.074 A 
ATOM     33  C   UNL A   1      40.352  27.220  28.446  1.00  0.00     0.049 A 
ATOM     34  N   UNL A   1      42.489  29.229  29.023  1.00  0.00    -0.248 NA
ATOM     35  C   UNL A   1      40.799  30.677  29.735  1.00  0.00     0.031 C 
ATOM     36  C   UNL A   1      39.367  26.170  28.239  1.00  0.00     0.029 A 
ATOM     37  N   UNL A   1      41.556  26.546  28.376  1.00  0.00    -0.354 N 
ATOM     38  C   UNL A   1      43.054  30.393  29.524  1.00  0.00     0.074 A 
ATOM     39  C   UNL A   1      41.970  31.251  29.945  1.00  0.00     0.031 C 
ATOM     40  C   UNL A   1      39.990  24.994  28.039  1.00  0.00     0.029 A 
ATOM     41  C   UNL A   1      41.436  25.209  28.056  1.00  0.00     0.049 A 
ATOM     42  H   UNL A   1      42.423  26.981  28.540  1.00  0.00     0.167 HD
ATOM     43  C   UNL A   1      44.361  30.735  29.594  1.00  0.00     0.031 A 
ATOM     44  C   UNL A   1      42.377  24.280  27.775  1.00  0.00     0.031 A 
ATOM     45  C   UNL A   1      45.437  29.875  29.192  1.00  0.00     0.049 A 
ATOM     46  C   UNL A   1      43.831  24.693  27.774  1.00  0.00     0.074 A 
ATOM     47  C   UNL A   1      46.790  30.150  29.126  1.00  0.00     0.029 A 
ATOM     48  N   UNL A   1      45.273  28.553  28.808  1.00  0.00    -0.354 N 
ATOM     49  N   UNL A   1      44.356  25.853  28.091  1.00  0.00    -0.248 NA
ATOM     50  C   UNL A   1      44.821  23.683  27.361  1.00  0.00     0.031 C 
ATOM     51  C   UNL A   1      47.444  28.997  28.678  1.00  0.00     0.029 A 
ATOM     52  C   UNL A   1      46.502  27.994  28.510  1.00  0.00     0.049 A 
ATOM     53  H   UNL A   1      44.410  28.082  28.756  1.00  0.00     0.167 HD
ATOM     54  C   UNL A   1      45.729  25.709  27.931  1.00  0.00     0.074 A 
ATOM     55  C   UNL A   1      45.962  24.345  27.507  1.00  0.00     0.031 C 
ATOM     56  C   UNL A   1      46.709  26.627  28.109  1.00  0.00     0.031 A 
BRANCH  43  57
ATOM     57  C   UNL A   1      44.653  32.146  30.010  1.00  0.00    -0.014 A 
ATOM     58  C   UNL A   1      44.713  33.196  29.081  1.00  0.00     0.009 A 
ATOM     59  C   UNL A   1      44.967  32.403  31.353  1.00  0.00     0.009 A 
ATOM     60  C   UNL A   1      45.140  34.464  29.482  1.00  0.00     0.001 A 
ATOM     61  C   UNL A   1      45.363  33.679  31.756  1.00  0.00     0.001 A 
ATOM     62  C   UNL A   1      45.466  34.703  30.817  1.00  0.00     0.000 A 
ENDBRANCH  43  57
BRANCH  44  63
ATOM     63  C   UNL A   1      42.004  22.882  27.392  1.00  0.00    -0.014 A 
ATOM     64  C   UNL A   1      41.847  22.513  26.045  1.00  0.00     0.009 A 
ATOM     65  C   UNL A   1      41.737  21.919  28.379  1.00  0.00     0.009 A 
ATOM     66  C   UNL A   1      41.415  21.226  25.700  1.00  0.00     0.001 A 
ATOM     67  C   UNL A   1      41.334  20.625  28.031  1.00  0.00     0.001 A 
ATOM     68  C   UNL A   1      41.164  20.281  26.692  1.00  0.00     0.000 A 
ENDBRANCH  44  63
BRANCH  56  69
ATOM     69  C   UNL A   1      48.126  26.184  27.894  1.00  0.00    -0.014 A 
ATOM     70  C   UNL A   1      48.864  25.585  28.926  1.00  0.00     0.009 A 
ATOM     71  C   UNL A   1      48.696  26.290  26.616  1.00  0.00     0.009 A 
ATOM     72  C   UNL A   1      50.154  25.112  28.682  1.00  0.00     0.001 A 
ATOM     73  C   UNL A   1      49.977  25.796  26.371  1.00  0.00     0.001 A 
ATOM     74  C   UNL A   1      50.707  25.212  27.405  1.00  0.00     0.000 A 
ENDBRANCH  56  69
ENDBRANCH  30  31
ENDBRANCH  23  25
ENDBRANCH  22  23
ENDBRANCH  21  22
ENDBRANCH   1  21
TORSDOF 14
ENDMDL
