MODEL 1
REMARK VINA RESULT:     -11.0      0.000      0.000
REMARK SMILES COc1ccc(-c2cc(C(F)(F)F)n3nc(C(=O)OCCOC(=O)c4ccc(-c5c6nc(c(-c7ccccc7)c7ccc([nH]7)c(-c7ccccc7)c7nc(c(-c8ccccc8)c8ccc5[nH]8)C=C7)C=C6)cc4)cc3n2)cc1OC
REMARK SMILES IDX 20 1 19 2 17 3 18 4 16 5 7 6 8 7 75 8 9 9 74 10 14 11 73 12
REMARK SMILES IDX 15 13 6 14 3 15 4 16 77 17 5 18 76 19 2 20 1 21 78 22 79 23
REMARK SMILES IDX 10 24 11 25 12 26 13 27 21 28 22 29 23 30 24 31 25 32 26 33
REMARK SMILES IDX 72 34 27 35 71 36 28 37 29 38 30 39 65 40 31 41 70 42 64 43
REMARK SMILES IDX 66 44 32 45 69 46 63 47 62 48 33 50 55 51 40 52 54 53 41 54
REMARK SMILES IDX 44 55 53 56 67 57 42 58 43 59 52 61 68 62 45 63 34 64 35 65
REMARK SMILES IDX 39 66 36 67 38 68 37 69 56 70 57 71 61 72 58 73 60 74 59 75
REMARK SMILES IDX 46 76 47 77 51 78 48 79 50 80 49 81
REMARK H PARENT 66 49 44 60
REMARK Flexibility Score: inf
ROOT
ATOM      1  C   UNL A   1      43.797  19.763  25.506  1.00  0.00     0.275 C 
ENDROOT
BRANCH   1   2
ATOM      2  O   UNL A   1      42.474  19.189  25.489  1.00  0.00    -0.457 OA
BRANCH   2   3
ATOM      3  C   UNL A   1      41.684  19.524  26.553  1.00  0.00     0.359 C 
ATOM      4  O   UNL A   1      41.985  19.286  27.722  1.00  0.00    -0.244 OA
BRANCH   3   5
ATOM      5  C   UNL A   1      40.470  20.263  26.173  1.00  0.00     0.173 A 
ATOM      6  C   UNL A   1      36.687  22.217  24.986  1.00  0.00     0.075 A 
ATOM      7  C   UNL A   1      37.330  23.402  25.638  1.00  0.00     0.062 A 
ATOM      8  N   UNL A   1      37.250  21.052  24.833  1.00  0.00    -0.228 NA
ATOM      9  C   UNL A   1      38.535  23.186  26.194  1.00  0.00     0.150 A 
ATOM     10  C   UNL A   1      38.504  20.912  25.355  1.00  0.00     0.157 A 
ATOM     11  N   UNL A   1      39.111  21.927  26.099  1.00  0.00    -0.209 N 
ATOM     12  C   UNL A   1      39.416  19.878  25.312  1.00  0.00     0.087 A 
ATOM     13  N   UNL A   1      40.237  21.484  26.682  1.00  0.00    -0.159 NA
BRANCH   6  14
ATOM     14  C   UNL A   1      35.273  22.415  24.585  1.00  0.00     0.004 A 
ATOM     15  C   UNL A   1      32.680  22.705  23.594  1.00  0.00     0.160 A 
ATOM     16  C   UNL A   1      33.683  23.610  23.221  1.00  0.00     0.051 A 
ATOM     17  C   UNL A   1      32.971  21.652  24.473  1.00  0.00     0.161 A 
ATOM     18  C   UNL A   1      34.975  23.477  23.728  1.00  0.00     0.014 A 
ATOM     19  C   UNL A   1      34.275  21.514  24.964  1.00  0.00     0.060 A 
BRANCH  15  20
ATOM     20  O   UNL A   1      31.450  22.796  22.999  1.00  0.00    -0.493 OA
ATOM     21  C   UNL A   1      30.700  23.915  23.469  1.00  0.00     0.278 C 
ENDBRANCH  15  20
BRANCH  17  22
ATOM     22  O   UNL A   1      32.128  20.667  24.914  1.00  0.00    -0.493 OA
ATOM     23  C   UNL A   1      32.440  19.328  24.558  1.00  0.00     0.278 C 
ENDBRANCH  17  22
ENDBRANCH   6  14
BRANCH   9  24
ATOM     24  C   UNL A   1      39.314  24.232  26.894  1.00  0.00     0.433 C 
ATOM     25  F   UNL A   1      38.602  25.355  27.156  1.00  0.00    -0.165 F 
ATOM     26  F   UNL A   1      39.828  23.788  28.070  1.00  0.00    -0.165 F 
ATOM     27  F   UNL A   1      40.385  24.634  26.154  1.00  0.00    -0.165 F 
ENDBRANCH   9  24
ENDBRANCH   3   5
ENDBRANCH   2   3
ENDBRANCH   1   2
BRANCH   1  28
ATOM     28  C   UNL A   1      43.828  21.180  24.919  1.00  0.00     0.275 C 
BRANCH  28  29
ATOM     29  O   UNL A   1      43.892  22.201  25.935  1.00  0.00    -0.458 OA
BRANCH  29  30
ATOM     30  C   UNL A   1      44.037  23.465  25.473  1.00  0.00     0.338 C 
ATOM     31  O   UNL A   1      44.269  23.802  24.325  1.00  0.00    -0.246 OA
BRANCH  30  32
ATOM     32  C   UNL A   1      43.757  24.434  26.544  1.00  0.00     0.060 A 
ATOM     33  C   UNL A   1      43.170  23.953  27.712  1.00  0.00     0.016 A 
ATOM     34  C   UNL A   1      43.949  25.805  26.375  1.00  0.00     0.016 A 
ATOM     35  C   UNL A   1      42.732  24.822  28.702  1.00  0.00     0.010 A 
ATOM     36  C   UNL A   1      43.533  26.684  27.385  1.00  0.00     0.010 A 
ATOM     37  C   UNL A   1      42.904  26.199  28.547  1.00  0.00    -0.014 A 
BRANCH  37  38
ATOM     38  C   UNL A   1      42.367  27.118  29.581  1.00  0.00     0.031 A 
ATOM     39  C   UNL A   1      43.104  27.299  30.877  1.00  0.00     0.074 A 
ATOM     40  C   UNL A   1      41.247  27.827  29.340  1.00  0.00     0.049 A 
ATOM     41  N   UNL A   1      42.750  27.969  31.945  1.00  0.00    -0.248 NA
ATOM     42  C   UNL A   1      44.414  26.639  30.987  1.00  0.00     0.031 C 
ATOM     43  C   UNL A   1      40.486  27.810  28.088  1.00  0.00     0.029 A 
ATOM     44  N   UNL A   1      40.559  28.707  30.136  1.00  0.00    -0.354 N 
ATOM     45  C   UNL A   1      43.774  27.782  32.864  1.00  0.00     0.074 A 
ATOM     46  C   UNL A   1      44.757  26.926  32.235  1.00  0.00     0.031 C 
ATOM     47  C   UNL A   1      39.447  28.651  28.197  1.00  0.00     0.029 A 
ATOM     48  C   UNL A   1      39.430  29.213  29.543  1.00  0.00     0.049 A 
ATOM     49  H   UNL A   1      40.849  28.952  31.045  1.00  0.00     0.167 HD
ATOM     50  C   UNL A   1      43.884  28.278  34.120  1.00  0.00     0.031 A 
ATOM     51  C   UNL A   1      38.467  30.014  30.041  1.00  0.00     0.031 A 
ATOM     52  C   UNL A   1      42.909  29.140  34.737  1.00  0.00     0.049 A 
ATOM     53  C   UNL A   1      38.567  30.479  31.466  1.00  0.00     0.074 A 
ATOM     54  C   UNL A   1      42.924  29.690  36.007  1.00  0.00     0.029 A 
ATOM     55  N   UNL A   1      41.747  29.581  34.123  1.00  0.00    -0.354 N 
ATOM     56  N   UNL A   1      39.518  30.262  32.342  1.00  0.00    -0.248 NA
ATOM     57  C   UNL A   1      37.454  31.294  31.973  1.00  0.00     0.031 C 
ATOM     58  C   UNL A   1      41.746  30.426  36.178  1.00  0.00     0.029 A 
ATOM     59  C   UNL A   1      41.027  30.380  34.995  1.00  0.00     0.049 A 
ATOM     60  H   UNL A   1      41.474  29.359  33.203  1.00  0.00     0.167 HD
ATOM     61  C   UNL A   1      39.133  30.935  33.493  1.00  0.00     0.074 A 
ATOM     62  C   UNL A   1      37.867  31.577  33.201  1.00  0.00     0.031 C 
ATOM     63  C   UNL A   1      39.771  31.015  34.686  1.00  0.00     0.031 A 
BRANCH  50  64
ATOM     64  C   UNL A   1      45.080  27.859  34.927  1.00  0.00    -0.014 A 
ATOM     65  C   UNL A   1      46.272  28.601  34.917  1.00  0.00     0.009 A 
ATOM     66  C   UNL A   1      45.004  26.709  35.729  1.00  0.00     0.009 A 
ATOM     67  C   UNL A   1      47.373  28.179  35.665  1.00  0.00     0.001 A 
ATOM     68  C   UNL A   1      46.096  26.306  36.498  1.00  0.00     0.001 A 
ATOM     69  C   UNL A   1      47.283  27.035  36.458  1.00  0.00     0.000 A 
ENDBRANCH  50  64
BRANCH  51  70
ATOM     70  C   UNL A   1      37.304  30.391  29.196  1.00  0.00    -0.014 A 
ATOM     71  C   UNL A   1      37.175  31.696  28.698  1.00  0.00     0.009 A 
ATOM     72  C   UNL A   1      36.310  29.447  28.889  1.00  0.00     0.009 A 
ATOM     73  C   UNL A   1      36.066  32.052  27.926  1.00  0.00     0.001 A 
ATOM     74  C   UNL A   1      35.219  29.798  28.093  1.00  0.00     0.001 A 
ATOM     75  C   UNL A   1      35.092  31.103  27.621  1.00  0.00     0.000 A 
ENDBRANCH  51  70
BRANCH  63  76
ATOM     76  C   UNL A   1      39.134  31.862  35.750  1.00  0.00    -0.014 A 
ATOM     77  C   UNL A   1      38.233  31.317  36.676  1.00  0.00     0.009 A 
ATOM     78  C   UNL A   1      39.475  33.221  35.848  1.00  0.00     0.009 A 
ATOM     79  C   UNL A   1      37.663  32.124  37.663  1.00  0.00     0.001 A 
ATOM     80  C   UNL A   1      38.925  34.018  36.852  1.00  0.00     0.001 A 
ATOM     81  C   UNL A   1      38.014  33.471  37.753  1.00  0.00     0.000 A 
ENDBRANCH  63  76
ENDBRANCH  37  38
ENDBRANCH  30  32
ENDBRANCH  29  30
ENDBRANCH  28  29
ENDBRANCH   1  28
TORSDOF 15
ENDMDL
MODEL 2
REMARK VINA RESULT:     -10.9      5.206     10.201
REMARK SMILES COc1ccc(-c2cc(C(F)(F)F)n3nc(C(=O)OCCOC(=O)c4ccc(-c5c6nc(c(-c7ccccc7)c7ccc([nH]7)c(-c7ccccc7)c7nc(c(-c8ccccc8)c8ccc5[nH]8)C=C7)C=C6)cc4)cc3n2)cc1OC
REMARK SMILES IDX 20 1 19 2 17 3 18 4 16 5 7 6 8 7 75 8 9 9 74 10 14 11 73 12
REMARK SMILES IDX 15 13 6 14 3 15 4 16 77 17 5 18 76 19 2 20 1 21 78 22 79 23
REMARK SMILES IDX 10 24 11 25 12 26 13 27 21 28 22 29 23 30 24 31 25 32 26 33
REMARK SMILES IDX 72 34 27 35 71 36 28 37 29 38 30 39 65 40 31 41 70 42 64 43
REMARK SMILES IDX 66 44 32 45 69 46 63 47 62 48 33 50 55 51 40 52 54 53 41 54
REMARK SMILES IDX 44 55 53 56 67 57 42 58 43 59 52 61 68 62 45 63 34 64 35 65
REMARK SMILES IDX 39 66 36 67 38 68 37 69 56 70 57 71 61 72 58 73 60 74 59 75
REMARK SMILES IDX 46 76 47 77 51 78 48 79 50 80 49 81
REMARK H PARENT 66 49 44 60
REMARK Flexibility Score: inf
ROOT
ATOM      1  C   UNL A   1      34.225  34.895  31.184  1.00  0.00     0.275 C 
ENDROOT
BRANCH   1   2
ATOM      2  O   UNL A   1      33.288  34.571  30.137  1.00  0.00    -0.457 OA
BRANCH   2   3
ATOM      3  C   UNL A   1      33.825  34.488  28.884  1.00  0.00     0.359 C 
ATOM      4  O   UNL A   1      34.466  35.398  28.359  1.00  0.00    -0.244 OA
BRANCH   3   5
ATOM      5  C   UNL A   1      33.627  33.178  28.245  1.00  0.00     0.173 A 
ATOM      6  C   UNL A   1      32.820  29.367  26.154  1.00  0.00     0.075 A 
ATOM      7  C   UNL A   1      34.136  28.989  26.761  1.00  0.00     0.062 A 
ATOM      8  N   UNL A   1      32.204  30.498  26.351  1.00  0.00    -0.228 NA
ATOM      9  C   UNL A   1      34.755  29.950  27.470  1.00  0.00     0.150 A 
ATOM     10  C   UNL A   1      32.848  31.410  27.138  1.00  0.00     0.157 A 
ATOM     11  N   UNL A   1      34.139  31.184  27.624  1.00  0.00    -0.209 N 
ATOM     12  C   UNL A   1      32.474  32.646  27.622  1.00  0.00     0.087 A 
ATOM     13  N   UNL A   1      34.640  32.296  28.186  1.00  0.00    -0.159 NA
BRANCH   6  14
ATOM     14  C   UNL A   1      32.267  28.380  25.196  1.00  0.00     0.004 A 
ATOM     15  C   UNL A   1      31.378  26.628  23.214  1.00  0.00     0.160 A 
ATOM     16  C   UNL A   1      30.970  27.969  23.205  1.00  0.00     0.051 A 
ATOM     17  C   UNL A   1      32.229  26.156  24.223  1.00  0.00     0.161 A 
ATOM     18  C   UNL A   1      31.400  28.842  24.203  1.00  0.00     0.014 A 
ATOM     19  C   UNL A   1      32.671  27.043  25.212  1.00  0.00     0.060 A 
BRANCH  15  20
ATOM     20  O   UNL A   1      31.029  25.822  22.164  1.00  0.00    -0.493 OA
ATOM     21  C   UNL A   1      31.921  25.951  21.058  1.00  0.00     0.278 C 
ENDBRANCH  15  20
BRANCH  17  22
ATOM     22  O   UNL A   1      32.746  24.896  24.366  1.00  0.00    -0.493 OA
ATOM     23  C   UNL A   1      34.119  24.712  24.051  1.00  0.00     0.278 C 
ENDBRANCH  17  22
ENDBRANCH   6  14
BRANCH   9  24
ATOM     24  C   UNL A   1      36.067  29.766  28.129  1.00  0.00     0.433 C 
ATOM     25  F   UNL A   1      36.957  30.750  27.851  1.00  0.00    -0.165 F 
ATOM     26  F   UNL A   1      35.957  29.681  29.479  1.00  0.00    -0.165 F 
ATOM     27  F   UNL A   1      36.663  28.604  27.735  1.00  0.00    -0.165 F 
ENDBRANCH   9  24
ENDBRANCH   3   5
ENDBRANCH   2   3
ENDBRANCH   1   2
BRANCH   1  28
ATOM     28  C   UNL A   1      34.031  34.026  32.433  1.00  0.00     0.275 C 
BRANCH  28  29
ATOM     29  O   UNL A   1      34.612  32.714  32.293  1.00  0.00    -0.458 OA
BRANCH  29  30
ATOM     30  C   UNL A   1      35.767  32.520  32.972  1.00  0.00     0.338 C 
ATOM     31  O   UNL A   1      35.955  32.703  34.162  1.00  0.00    -0.246 OA
BRANCH  30  32
ATOM     32  C   UNL A   1      36.784  31.929  32.088  1.00  0.00     0.060 A 
ATOM     33  C   UNL A   1      37.503  30.838  32.571  1.00  0.00     0.016 A 
ATOM     34  C   UNL A   1      37.120  32.496  30.859  1.00  0.00     0.016 A 
ATOM     35  C   UNL A   1      38.583  30.325  31.865  1.00  0.00     0.010 A 
ATOM     36  C   UNL A   1      38.192  31.962  30.129  1.00  0.00     0.010 A 
ATOM     37  C   UNL A   1      38.943  30.885  30.637  1.00  0.00    -0.014 A 
BRANCH  37  38
ATOM     38  C   UNL A   1      40.141  30.370  29.929  1.00  0.00     0.031 A 
ATOM     39  C   UNL A   1      41.358  31.239  29.789  1.00  0.00     0.074 A 
ATOM     40  C   UNL A   1      40.157  29.109  29.456  1.00  0.00     0.049 A 
ATOM     41  N   UNL A   1      42.461  31.018  29.119  1.00  0.00    -0.248 NA
ATOM     42  C   UNL A   1      41.332  32.529  30.497  1.00  0.00     0.031 C 
ATOM     43  C   UNL A   1      39.074  28.134  29.604  1.00  0.00     0.029 A 
ATOM     44  N   UNL A   1      41.125  28.430  28.759  1.00  0.00    -0.354 N 
ATOM     45  C   UNL A   1      43.243  32.153  29.295  1.00  0.00     0.074 A 
ATOM     46  C   UNL A   1      42.484  33.065  30.124  1.00  0.00     0.031 C 
ATOM     47  C   UNL A   1      39.444  26.979  29.030  1.00  0.00     0.029 A 
ATOM     48  C   UNL A   1      40.757  27.153  28.417  1.00  0.00     0.049 A 
ATOM     49  H   UNL A   1      41.998  28.822  28.529  1.00  0.00     0.167 HD
ATOM     50  C   UNL A   1      44.481  32.410  28.809  1.00  0.00     0.031 A 
ATOM     51  C   UNL A   1      41.391  26.234  27.663  1.00  0.00     0.031 A 
ATOM     52  C   UNL A   1      45.237  31.493  27.996  1.00  0.00     0.049 A 
ATOM     53  C   UNL A   1      42.725  26.577  27.061  1.00  0.00     0.074 A 
ATOM     54  C   UNL A   1      46.496  31.662  27.446  1.00  0.00     0.029 A 
ATOM     55  N   UNL A   1      44.803  30.231  27.621  1.00  0.00    -0.354 N 
ATOM     56  N   UNL A   1      43.438  27.669  27.198  1.00  0.00    -0.248 NA
ATOM     57  C   UNL A   1      43.338  25.562  26.193  1.00  0.00     0.031 C 
ATOM     58  C   UNL A   1      46.804  30.520  26.700  1.00  0.00     0.029 A 
ATOM     59  C   UNL A   1      45.761  29.618  26.831  1.00  0.00     0.049 A 
ATOM     60  H   UNL A   1      43.941  29.829  27.878  1.00  0.00     0.167 HD
ATOM     61  C   UNL A   1      44.593  27.463  26.457  1.00  0.00     0.074 A 
ATOM     62  C   UNL A   1      44.492  26.136  25.882  1.00  0.00     0.031 C 
ATOM     63  C   UNL A   1      45.645  28.296  26.271  1.00  0.00     0.031 A 
BRANCH  50  64
ATOM     64  C   UNL A   1      45.073  33.759  29.104  1.00  0.00    -0.014 A 
ATOM     65  C   UNL A   1      45.942  33.960  30.189  1.00  0.00     0.009 A 
ATOM     66  C   UNL A   1      44.771  34.845  28.268  1.00  0.00     0.009 A 
ATOM     67  C   UNL A   1      46.466  35.228  30.448  1.00  0.00     0.001 A 
ATOM     68  C   UNL A   1      45.318  36.105  28.513  1.00  0.00     0.001 A 
ATOM     69  C   UNL A   1      46.157  36.298  29.609  1.00  0.00     0.000 A 
ENDBRANCH  50  64
BRANCH  51  70
ATOM     70  C   UNL A   1      40.753  24.918  27.401  1.00  0.00    -0.014 A 
ATOM     71  C   UNL A   1      41.273  23.746  27.968  1.00  0.00     0.009 A 
ATOM     72  C   UNL A   1      39.622  24.827  26.573  1.00  0.00     0.009 A 
ATOM     73  C   UNL A   1      40.685  22.507  27.696  1.00  0.00     0.001 A 
ATOM     74  C   UNL A   1      39.019  23.593  26.328  1.00  0.00     0.001 A 
ATOM     75  C   UNL A   1      39.556  22.432  26.881  1.00  0.00     0.000 A 
ENDBRANCH  51  70
BRANCH  63  76
ATOM     76  C   UNL A   1      46.791  27.781  25.447  1.00  0.00    -0.014 A 
ATOM     77  C   UNL A   1      46.813  27.929  24.053  1.00  0.00     0.009 A 
ATOM     78  C   UNL A   1      47.884  27.173  26.087  1.00  0.00     0.009 A 
ATOM     79  C   UNL A   1      47.896  27.452  23.311  1.00  0.00     0.001 A 
ATOM     80  C   UNL A   1      48.977  26.723  25.346  1.00  0.00     0.001 A 
ATOM     81  C   UNL A   1      48.977  26.855  23.959  1.00  0.00     0.000 A 
ENDBRANCH  63  76
ENDBRANCH  37  38
ENDBRANCH  30  32
ENDBRANCH  29  30
ENDBRANCH  28  29
ENDBRANCH   1  28
TORSDOF 15
ENDMDL
MODEL 3
REMARK VINA RESULT:     -10.7      5.304     10.687
REMARK SMILES COc1ccc(-c2cc(C(F)(F)F)n3nc(C(=O)OCCOC(=O)c4ccc(-c5c6nc(c(-c7ccccc7)c7ccc([nH]7)c(-c7ccccc7)c7nc(c(-c8ccccc8)c8ccc5[nH]8)C=C7)C=C6)cc4)cc3n2)cc1OC
REMARK SMILES IDX 20 1 19 2 17 3 18 4 16 5 7 6 8 7 75 8 9 9 74 10 14 11 73 12
REMARK SMILES IDX 15 13 6 14 3 15 4 16 77 17 5 18 76 19 2 20 1 21 78 22 79 23
REMARK SMILES IDX 10 24 11 25 12 26 13 27 21 28 22 29 23 30 24 31 25 32 26 33
REMARK SMILES IDX 72 34 27 35 71 36 28 37 29 38 30 39 65 40 31 41 70 42 64 43
REMARK SMILES IDX 66 44 32 45 69 46 63 47 62 48 33 50 55 51 40 52 54 53 41 54
REMARK SMILES IDX 44 55 53 56 67 57 42 58 43 59 52 61 68 62 45 63 34 64 35 65
REMARK SMILES IDX 39 66 36 67 38 68 37 69 56 70 57 71 61 72 58 73 60 74 59 75
REMARK SMILES IDX 46 76 47 77 51 78 48 79 50 80 49 81
REMARK H PARENT 66 49 44 60
REMARK Flexibility Score: inf
ROOT
ATOM      1  C   UNL A   1      34.505  34.353  31.296  1.00  0.00     0.275 C 
ENDROOT
BRANCH   1   2
ATOM      2  O   UNL A   1      33.401  34.321  30.368  1.00  0.00    -0.457 OA
BRANCH   2   3
ATOM      3  C   UNL A   1      33.750  34.400  29.049  1.00  0.00     0.359 C 
ATOM      4  O   UNL A   1      34.171  35.428  28.519  1.00  0.00    -0.244 OA
BRANCH   3   5
ATOM      5  C   UNL A   1      33.645  33.117  28.337  1.00  0.00     0.173 A 
ATOM      6  C   UNL A   1      33.125  29.392  26.013  1.00  0.00     0.075 A 
ATOM      7  C   UNL A   1      34.405  29.026  26.698  1.00  0.00     0.062 A 
ATOM      8  N   UNL A   1      32.457  30.492  26.218  1.00  0.00    -0.228 NA
ATOM      9  C   UNL A   1      34.938  29.969  27.495  1.00  0.00     0.150 A 
ATOM     10  C   UNL A   1      33.011  31.384  27.093  1.00  0.00     0.157 A 
ATOM     11  N   UNL A   1      34.270  31.174  27.661  1.00  0.00    -0.209 N 
ATOM     12  C   UNL A   1      32.559  32.582  27.605  1.00  0.00     0.087 A 
ATOM     13  N   UNL A   1      34.690  32.272  28.311  1.00  0.00    -0.159 NA
BRANCH   6  14
ATOM     14  C   UNL A   1      32.678  28.438  24.971  1.00  0.00     0.004 A 
ATOM     15  C   UNL A   1      31.828  26.461  23.193  1.00  0.00     0.160 A 
ATOM     16  C   UNL A   1      33.143  26.456  23.678  1.00  0.00     0.051 A 
ATOM     17  C   UNL A   1      30.933  27.464  23.592  1.00  0.00     0.161 A 
ATOM     18  C   UNL A   1      33.574  27.452  24.553  1.00  0.00     0.014 A 
ATOM     19  C   UNL A   1      31.367  28.451  24.485  1.00  0.00     0.060 A 
BRANCH  15  20
ATOM     20  O   UNL A   1      31.401  25.413  22.422  1.00  0.00    -0.493 OA
ATOM     21  C   UNL A   1      31.274  24.205  23.170  1.00  0.00     0.278 C 
ENDBRANCH  15  20
BRANCH  17  22
ATOM     22  O   UNL A   1      29.615  27.602  23.244  1.00  0.00    -0.493 OA
ATOM     23  C   UNL A   1      28.675  26.752  23.886  1.00  0.00     0.278 C 
ENDBRANCH  17  22
ENDBRANCH   6  14
BRANCH   9  24
ATOM     24  C   UNL A   1      36.205  29.794  28.240  1.00  0.00     0.433 C 
ATOM     25  F   UNL A   1      37.152  30.710  27.922  1.00  0.00    -0.165 F 
ATOM     26  F   UNL A   1      36.022  29.841  29.584  1.00  0.00    -0.165 F 
ATOM     27  F   UNL A   1      36.765  28.577  27.988  1.00  0.00    -0.165 F 
ENDBRANCH   9  24
ENDBRANCH   3   5
ENDBRANCH   2   3
ENDBRANCH   1   2
BRANCH   1  28
ATOM     28  C   UNL A   1      34.396  33.262  32.370  1.00  0.00     0.275 C 
BRANCH  28  29
ATOM     29  O   UNL A   1      35.340  32.190  32.170  1.00  0.00    -0.458 OA
BRANCH  29  30
ATOM     30  C   UNL A   1      36.389  32.180  33.025  1.00  0.00     0.338 C 
ATOM     31  O   UNL A   1      36.348  32.319  34.236  1.00  0.00    -0.246 OA
BRANCH  30  32
ATOM     32  C   UNL A   1      37.630  31.854  32.305  1.00  0.00     0.060 A 
ATOM     33  C   UNL A   1      37.771  32.343  31.008  1.00  0.00     0.016 A 
ATOM     34  C   UNL A   1      38.589  30.988  32.830  1.00  0.00     0.016 A 
ATOM     35  C   UNL A   1      38.836  31.950  30.208  1.00  0.00     0.010 A 
ATOM     36  C   UNL A   1      39.681  30.612  32.035  1.00  0.00     0.010 A 
ATOM     37  C   UNL A   1      39.801  31.076  30.712  1.00  0.00    -0.014 A 
BRANCH  37  38
ATOM     38  C   UNL A   1      40.893  30.611  29.822  1.00  0.00     0.031 A 
ATOM     39  C   UNL A   1      40.802  29.264  29.164  1.00  0.00     0.074 A 
ATOM     40  C   UNL A   1      41.943  31.414  29.564  1.00  0.00     0.049 A 
ATOM     41  N   UNL A   1      41.692  28.632  28.441  1.00  0.00    -0.248 NA
ATOM     42  C   UNL A   1      39.539  28.529  29.342  1.00  0.00     0.031 C 
ATOM     43  C   UNL A   1      42.110  32.780  30.068  1.00  0.00     0.029 A 
ATOM     44  N   UNL A   1      43.066  31.200  28.805  1.00  0.00    -0.354 N 
ATOM     45  C   UNL A   1      41.113  27.414  28.109  1.00  0.00     0.074 A 
ATOM     46  C   UNL A   1      39.801  27.389  28.720  1.00  0.00     0.031 C 
ATOM     47  C   UNL A   1      43.259  33.284  29.593  1.00  0.00     0.029 A 
ATOM     48  C   UNL A   1      43.939  32.259  28.808  1.00  0.00     0.049 A 
ATOM     49  H   UNL A   1      43.228  30.367  28.305  1.00  0.00     0.167 HD
ATOM     50  C   UNL A   1      41.630  26.408  27.364  1.00  0.00     0.031 A 
ATOM     51  C   UNL A   1      45.168  32.379  28.269  1.00  0.00     0.031 A 
ATOM     52  C   UNL A   1      42.930  26.443  26.748  1.00  0.00     0.049 A 
ATOM     53  C   UNL A   1      45.755  31.215  27.522  1.00  0.00     0.074 A 
ATOM     54  C   UNL A   1      43.549  25.472  25.980  1.00  0.00     0.029 A 
ATOM     55  N   UNL A   1      43.809  27.512  26.826  1.00  0.00    -0.354 N 
ATOM     56  N   UNL A   1      45.217  30.051  27.249  1.00  0.00    -0.248 NA
ATOM     57  C   UNL A   1      47.125  31.381  27.014  1.00  0.00     0.031 C 
ATOM     58  C   UNL A   1      44.822  25.935  25.633  1.00  0.00     0.029 A 
ATOM     59  C   UNL A   1      44.974  27.216  26.137  1.00  0.00     0.049 A 
ATOM     60  H   UNL A   1      43.633  28.357  27.301  1.00  0.00     0.167 HD
ATOM     61  C   UNL A   1      46.169  29.356  26.517  1.00  0.00     0.074 A 
ATOM     62  C   UNL A   1      47.314  30.233  26.377  1.00  0.00     0.031 C 
ATOM     63  C   UNL A   1      46.101  28.103  26.005  1.00  0.00     0.031 A 
BRANCH  50  64
ATOM     64  C   UNL A   1      40.803  25.162  27.216  1.00  0.00    -0.014 A 
ATOM     65  C   UNL A   1      41.192  23.946  27.801  1.00  0.00     0.009 A 
ATOM     66  C   UNL A   1      39.600  25.212  26.493  1.00  0.00     0.009 A 
ATOM     67  C   UNL A   1      40.411  22.800  27.634  1.00  0.00     0.001 A 
ATOM     68  C   UNL A   1      38.807  24.072  26.352  1.00  0.00     0.001 A 
ATOM     69  C   UNL A   1      39.218  22.864  26.914  1.00  0.00     0.000 A 
ENDBRANCH  50  64
BRANCH  51  70
ATOM     70  C   UNL A   1      45.941  33.635  28.452  1.00  0.00    -0.014 A 
ATOM     71  C   UNL A   1      45.929  34.633  27.467  1.00  0.00     0.009 A 
ATOM     72  C   UNL A   1      46.704  33.839  29.614  1.00  0.00     0.009 A 
ATOM     73  C   UNL A   1      46.679  35.800  27.633  1.00  0.00     0.001 A 
ATOM     74  C   UNL A   1      47.428  35.018  29.791  1.00  0.00     0.001 A 
ATOM     75  C   UNL A   1      47.423  35.994  28.795  1.00  0.00     0.000 A 
ENDBRANCH  51  70
BRANCH  63  76
ATOM     76  C   UNL A   1      47.280  27.624  25.206  1.00  0.00    -0.014 A 
ATOM     77  C   UNL A   1      48.336  26.926  25.810  1.00  0.00     0.009 A 
ATOM     78  C   UNL A   1      47.311  27.841  23.819  1.00  0.00     0.009 A 
ATOM     79  C   UNL A   1      49.415  26.480  25.044  1.00  0.00     0.001 A 
ATOM     80  C   UNL A   1      48.376  27.370  23.052  1.00  0.00     0.001 A 
ATOM     81  C   UNL A   1      49.431  26.698  23.667  1.00  0.00     0.000 A 
ENDBRANCH  63  76
ENDBRANCH  37  38
ENDBRANCH  30  32
ENDBRANCH  29  30
ENDBRANCH  28  29
ENDBRANCH   1  28
TORSDOF 15
ENDMDL
