MODEL 1
REMARK VINA RESULT:     -11.2      0.000      0.000
REMARK SMILES Cc1ccc(Cl)c(Nc2ccccc2C(=O)N[C@@H](C)C(=O)OCCOC(=O)c2ccc(-c3c4nc(c(-c5ccccc5)c5ccc([nH]5)c(-c5ccccc5)c5nc(c(-c6ccccc6)c6ccc3[nH]6)C=C5)C=C4)cc2)c1Cl
REMARK SMILES IDX 23 1 22 2 20 3 21 4 18 5 19 6 17 7 15 8 16 9 14 11 9 12
REMARK SMILES IDX 10 13 11 14 13 15 12 16 8 17 7 19 1 20 2 21 3 22 76 23 4 24
REMARK SMILES IDX 77 25 5 26 6 27 24 28 25 29 26 30 27 31 28 32 29 33 75 34
REMARK SMILES IDX 30 35 74 36 31 37 32 38 33 39 68 40 34 41 73 42 67 43 69 44
REMARK SMILES IDX 35 45 72 46 66 47 65 48 36 50 58 51 43 52 57 53 44 54 47 55
REMARK SMILES IDX 56 56 70 57 45 58 46 59 55 61 71 62 48 63 37 64 38 65 42 66
REMARK SMILES IDX 39 67 41 68 40 69 59 70 60 71 64 72 61 73 63 74 62 75 49 76
REMARK SMILES IDX 50 77 54 78 51 79 53 80 52 81
REMARK H PARENT 17 10 8 18 69 49 47 60
REMARK Flexibility Score: inf
ROOT
ATOM      1  C   UNL A   1      34.558  20.260  25.004  1.00  0.00     0.274 C 
ENDROOT
BRANCH   1   2
ATOM      2  O   UNL A   1      33.495  21.228  24.624  1.00  0.00    -0.461 OA
BRANCH   2   3
ATOM      3  C   UNL A   1      32.461  21.644  25.448  1.00  0.00     0.328 C 
ATOM      4  O   UNL A   1      31.380  21.097  25.482  1.00  0.00    -0.250 OA
BRANCH   3   5
ATOM      5  C   UNL A   1      32.838  22.954  26.339  1.00  0.00     0.189 C 
ATOM      6  C   UNL A   1      33.035  22.552  27.799  1.00  0.00     0.043 C 
BRANCH   5   7
ATOM      7  N   UNL A   1      31.795  24.022  26.223  1.00  0.00    -0.339 N 
ATOM      8  C   UNL A   1      31.529  25.375  26.344  1.00  0.00     0.254 C 
ATOM      9  O   UNL A   1      30.305  25.564  26.197  1.00  0.00    -0.269 OA
ATOM     10  H   UNL A   1      30.957  23.584  25.950  1.00  0.00     0.164 HD
BRANCH   8  11
ATOM     11  C   UNL A   1      32.346  26.662  26.598  1.00  0.00     0.063 A 
ATOM     12  C   UNL A   1      33.620  27.101  26.164  1.00  0.00     0.051 A 
ATOM     13  C   UNL A   1      34.133  28.390  26.500  1.00  0.00     0.027 A 
ATOM     14  C   UNL A   1      33.349  29.338  27.125  1.00  0.00     0.002 A 
ATOM     15  C   UNL A   1      31.606  27.666  27.287  1.00  0.00     0.016 A 
ATOM     16  C   UNL A   1      32.071  28.978  27.506  1.00  0.00     0.001 A 
BRANCH  12  17
ATOM     17  N   UNL A   1      34.299  26.575  25.070  1.00  0.00    -0.352 N 
ATOM     18  H   UNL A   1      35.241  26.315  25.187  1.00  0.00     0.167 HD
BRANCH  17  19
ATOM     19  C   UNL A   1      33.710  26.394  23.801  1.00  0.00     0.077 A 
ATOM     20  C   UNL A   1      30.412  27.623  22.230  1.00  0.00     0.046 C 
ATOM     21  C   UNL A   1      31.607  26.809  22.626  1.00  0.00    -0.030 A 
ATOM     22  C   UNL A   1      31.589  25.457  22.400  1.00  0.00     0.006 A 
ATOM     23  C   UNL A   1      32.743  27.292  23.249  1.00  0.00     0.069 A 
ATOM     24  C   UNL A   1      32.707  24.635  22.656  1.00  0.00     0.023 A 
ATOM     25  Cl  UNL A   1      32.975  29.006  23.259  1.00  0.00    -0.082 Cl
ATOM     26  C   UNL A   1      33.789  25.097  23.340  1.00  0.00     0.066 A 
ATOM     27  Cl  UNL A   1      35.018  23.984  23.827  1.00  0.00    -0.082 Cl
ENDBRANCH  17  19
ENDBRANCH  12  17
ENDBRANCH   8  11
ENDBRANCH   5   7
ENDBRANCH   3   5
ENDBRANCH   2   3
ENDBRANCH   1   2
BRANCH   1  28
ATOM     28  C   UNL A   1      36.139  20.554  24.753  1.00  0.00     0.275 C 
BRANCH  28  29
ATOM     29  O   UNL A   1      36.868  21.502  25.633  1.00  0.00    -0.458 OA
BRANCH  29  30
ATOM     30  C   UNL A   1      38.241  21.324  25.813  1.00  0.00     0.338 C 
ATOM     31  O   UNL A   1      38.861  20.384  25.339  1.00  0.00    -0.246 OA
BRANCH  30  32
ATOM     32  C   UNL A   1      38.980  22.515  26.459  1.00  0.00     0.060 A 
ATOM     33  C   UNL A   1      38.604  23.827  26.223  1.00  0.00     0.016 A 
ATOM     34  C   UNL A   1      40.199  22.356  27.156  1.00  0.00     0.016 A 
ATOM     35  C   UNL A   1      39.500  24.897  26.477  1.00  0.00     0.010 A 
ATOM     36  C   UNL A   1      40.995  23.476  27.593  1.00  0.00     0.010 A 
ATOM     37  C   UNL A   1      40.662  24.799  27.265  1.00  0.00    -0.014 A 
BRANCH  37  38
ATOM     38  C   UNL A   1      41.366  26.066  27.786  1.00  0.00     0.031 A 
ATOM     39  C   UNL A   1      40.728  27.132  28.692  1.00  0.00     0.074 A 
ATOM     40  C   UNL A   1      42.656  26.329  27.436  1.00  0.00     0.049 A 
ATOM     41  N   UNL A   1      41.148  28.357  28.957  1.00  0.00    -0.248 NA
ATOM     42  C   UNL A   1      39.496  26.784  29.409  1.00  0.00     0.031 C 
ATOM     43  C   UNL A   1      43.528  25.467  26.633  1.00  0.00     0.029 A 
ATOM     44  N   UNL A   1      43.476  27.414  27.708  1.00  0.00    -0.354 N 
ATOM     45  C   UNL A   1      40.219  28.930  29.828  1.00  0.00     0.074 A 
ATOM     46  C   UNL A   1      39.226  27.904  30.077  1.00  0.00     0.031 C 
ATOM     47  C   UNL A   1      44.752  25.991  26.559  1.00  0.00     0.029 A 
ATOM     48  C   UNL A   1      44.713  27.334  27.105  1.00  0.00     0.049 A 
ATOM     49  H   UNL A   1      43.201  28.169  28.278  1.00  0.00     0.167 HD
ATOM     50  C   UNL A   1      40.173  30.187  30.355  1.00  0.00     0.031 A 
ATOM     51  C   UNL A   1      45.689  28.232  26.861  1.00  0.00     0.031 A 
ATOM     52  C   UNL A   1      41.152  31.235  30.145  1.00  0.00     0.049 A 
ATOM     53  C   UNL A   1      45.536  29.657  27.271  1.00  0.00     0.074 A 
ATOM     54  C   UNL A   1      41.149  32.534  30.643  1.00  0.00     0.029 A 
ATOM     55  N   UNL A   1      42.300  31.118  29.385  1.00  0.00    -0.354 N 
ATOM     56  N   UNL A   1      44.583  30.208  27.974  1.00  0.00    -0.248 NA
ATOM     57  C   UNL A   1      46.575  30.591  26.814  1.00  0.00     0.031 C 
ATOM     58  C   UNL A   1      42.257  33.217  30.129  1.00  0.00     0.029 A 
ATOM     59  C   UNL A   1      42.984  32.327  29.362  1.00  0.00     0.049 A 
ATOM     60  H   UNL A   1      42.591  30.297  28.926  1.00  0.00     0.167 HD
ATOM     61  C   UNL A   1      44.905  31.555  28.042  1.00  0.00     0.074 A 
ATOM     62  C   UNL A   1      46.153  31.736  27.332  1.00  0.00     0.031 C 
ATOM     63  C   UNL A   1      44.208  32.547  28.642  1.00  0.00     0.031 A 
BRANCH  50  64
ATOM     64  C   UNL A   1      38.966  30.580  31.180  1.00  0.00    -0.014 A 
ATOM     65  C   UNL A   1      37.785  31.057  30.594  1.00  0.00     0.009 A 
ATOM     66  C   UNL A   1      38.974  30.321  32.564  1.00  0.00     0.009 A 
ATOM     67  C   UNL A   1      36.647  31.284  31.378  1.00  0.00     0.001 A 
ATOM     68  C   UNL A   1      37.831  30.526  33.340  1.00  0.00     0.001 A 
ATOM     69  C   UNL A   1      36.669  31.013  32.747  1.00  0.00     0.000 A 
ENDBRANCH  50  64
BRANCH  51  70
ATOM     70  C   UNL A   1      46.846  27.821  26.017  1.00  0.00    -0.014 A 
ATOM     71  C   UNL A   1      48.007  27.289  26.593  1.00  0.00     0.009 A 
ATOM     72  C   UNL A   1      46.762  27.921  24.616  1.00  0.00     0.009 A 
ATOM     73  C   UNL A   1      49.055  26.855  25.779  1.00  0.00     0.001 A 
ATOM     74  C   UNL A   1      47.792  27.447  23.806  1.00  0.00     0.001 A 
ATOM     75  C   UNL A   1      48.941  26.918  24.389  1.00  0.00     0.000 A 
ENDBRANCH  51  70
BRANCH  63  76
ATOM     76  C   UNL A   1      44.794  33.928  28.572  1.00  0.00    -0.014 A 
ATOM     77  C   UNL A   1      44.487  34.790  27.507  1.00  0.00     0.009 A 
ATOM     78  C   UNL A   1      45.680  34.367  29.567  1.00  0.00     0.009 A 
ATOM     79  C   UNL A   1      45.081  36.051  27.424  1.00  0.00     0.001 A 
ATOM     80  C   UNL A   1      46.255  35.638  29.493  1.00  0.00     0.001 A 
ATOM     81  C   UNL A   1      45.963  36.475  28.417  1.00  0.00     0.000 A 
ENDBRANCH  63  76
ENDBRANCH  37  38
ENDBRANCH  30  32
ENDBRANCH  29  30
ENDBRANCH  28  29
ENDBRANCH   1  28
TORSDOF 15
ENDMDL
MODEL 2
REMARK VINA RESULT:     -11.1      4.832      9.658
REMARK SMILES Cc1ccc(Cl)c(Nc2ccccc2C(=O)N[C@@H](C)C(=O)OCCOC(=O)c2ccc(-c3c4nc(c(-c5ccccc5)c5ccc([nH]5)c(-c5ccccc5)c5nc(c(-c6ccccc6)c6ccc3[nH]6)C=C5)C=C4)cc2)c1Cl
REMARK SMILES IDX 23 1 22 2 20 3 21 4 18 5 19 6 17 7 15 8 16 9 14 11 9 12
REMARK SMILES IDX 10 13 11 14 13 15 12 16 8 17 7 19 1 20 2 21 3 22 76 23 4 24
REMARK SMILES IDX 77 25 5 26 6 27 24 28 25 29 26 30 27 31 28 32 29 33 75 34
REMARK SMILES IDX 30 35 74 36 31 37 32 38 33 39 68 40 34 41 73 42 67 43 69 44
REMARK SMILES IDX 35 45 72 46 66 47 65 48 36 50 58 51 43 52 57 53 44 54 47 55
REMARK SMILES IDX 56 56 70 57 45 58 46 59 55 61 71 62 48 63 37 64 38 65 42 66
REMARK SMILES IDX 39 67 41 68 40 69 59 70 60 71 64 72 61 73 63 74 62 75 49 76
REMARK SMILES IDX 50 77 54 78 51 79 53 80 52 81
REMARK H PARENT 17 10 8 18 69 49 47 60
REMARK Flexibility Score: inf
ROOT
ATOM      1  C   UNL A   1      34.144  34.689  28.950  1.00  0.00     0.274 C 
ENDROOT
BRANCH   1   2
ATOM      2  O   UNL A   1      32.914  35.014  29.721  1.00  0.00    -0.461 OA
BRANCH   2   3
ATOM      3  C   UNL A   1      32.829  35.959  30.731  1.00  0.00     0.328 C 
ATOM      4  O   UNL A   1      32.466  37.099  30.542  1.00  0.00    -0.250 OA
BRANCH   3   5
ATOM      5  C   UNL A   1      33.291  35.388  32.184  1.00  0.00     0.189 C 
ATOM      6  C   UNL A   1      34.400  36.266  32.761  1.00  0.00     0.043 C 
BRANCH   5   7
ATOM      7  N   UNL A   1      33.739  33.961  32.104  1.00  0.00    -0.339 N 
ATOM      8  C   UNL A   1      34.627  33.014  32.583  1.00  0.00     0.254 C 
ATOM      9  O   UNL A   1      34.495  31.963  31.926  1.00  0.00    -0.269 OA
ATOM     10  H   UNL A   1      33.168  33.513  31.438  1.00  0.00     0.164 HD
BRANCH   8  11
ATOM     11  C   UNL A   1      35.697  32.941  33.696  1.00  0.00     0.063 A 
ATOM     12  C   UNL A   1      36.912  32.227  33.825  1.00  0.00     0.051 A 
ATOM     13  C   UNL A   1      37.768  32.384  34.956  1.00  0.00     0.027 A 
ATOM     14  C   UNL A   1      37.538  33.360  35.904  1.00  0.00     0.002 A 
ATOM     15  C   UNL A   1      35.487  33.893  34.734  1.00  0.00     0.016 A 
ATOM     16  C   UNL A   1      36.399  34.131  35.783  1.00  0.00     0.001 A 
BRANCH  12  17
ATOM     17  N   UNL A   1      37.611  31.670  32.758  1.00  0.00    -0.352 N 
ATOM     18  H   UNL A   1      37.240  30.866  32.327  1.00  0.00     0.167 HD
BRANCH  17  19
ATOM     19  C   UNL A   1      38.821  32.196  32.261  1.00  0.00     0.077 A 
ATOM     20  C   UNL A   1      42.127  33.241  33.944  1.00  0.00     0.046 C 
ATOM     21  C   UNL A   1      40.922  33.160  33.056  1.00  0.00    -0.030 A 
ATOM     22  C   UNL A   1      40.585  34.252  32.299  1.00  0.00     0.006 A 
ATOM     23  C   UNL A   1      40.071  32.076  32.947  1.00  0.00     0.069 A 
ATOM     24  C   UNL A   1      39.524  34.226  31.369  1.00  0.00     0.023 A 
ATOM     25  Cl  UNL A   1      40.614  30.570  33.602  1.00  0.00    -0.082 Cl
ATOM     26  C   UNL A   1      38.643  33.191  31.323  1.00  0.00     0.066 A 
ATOM     27  Cl  UNL A   1      37.234  33.325  30.330  1.00  0.00    -0.082 Cl
ENDBRANCH  17  19
ENDBRANCH  12  17
ENDBRANCH   8  11
ENDBRANCH   5   7
ENDBRANCH   3   5
ENDBRANCH   2   3
ENDBRANCH   1   2
BRANCH   1  28
ATOM     28  C   UNL A   1      34.309  33.307  28.108  1.00  0.00     0.275 C 
BRANCH  28  29
ATOM     29  O   UNL A   1      34.195  31.997  28.798  1.00  0.00    -0.458 OA
BRANCH  29  30
ATOM     30  C   UNL A   1      34.618  30.849  28.125  1.00  0.00     0.338 C 
ATOM     31  O   UNL A   1      33.969  30.318  27.235  1.00  0.00    -0.246 OA
BRANCH  30  32
ATOM     32  C   UNL A   1      36.072  30.417  28.411  1.00  0.00     0.060 A 
ATOM     33  C   UNL A   1      37.051  30.443  27.433  1.00  0.00     0.016 A 
ATOM     34  C   UNL A   1      36.444  29.779  29.616  1.00  0.00     0.016 A 
ATOM     35  C   UNL A   1      38.243  29.687  27.577  1.00  0.00     0.010 A 
ATOM     36  C   UNL A   1      37.747  29.198  29.816  1.00  0.00     0.010 A 
ATOM     37  C   UNL A   1      38.701  29.138  28.789  1.00  0.00    -0.014 A 
BRANCH  37  38
ATOM     38  C   UNL A   1      40.159  28.660  28.933  1.00  0.00     0.031 A 
ATOM     39  C   UNL A   1      41.358  29.552  29.290  1.00  0.00     0.074 A 
ATOM     40  C   UNL A   1      40.477  27.352  28.721  1.00  0.00     0.049 A 
ATOM     41  N   UNL A   1      42.650  29.296  29.168  1.00  0.00    -0.248 NA
ATOM     42  C   UNL A   1      41.092  30.869  29.880  1.00  0.00     0.031 C 
ATOM     43  C   UNL A   1      39.536  26.269  28.423  1.00  0.00     0.029 A 
ATOM     44  N   UNL A   1      41.700  26.697  28.718  1.00  0.00    -0.354 N 
ATOM     45  C   UNL A   1      43.336  30.425  29.621  1.00  0.00     0.074 A 
ATOM     46  C   UNL A   1      42.317  31.359  30.056  1.00  0.00     0.031 C 
ATOM     47  C   UNL A   1      40.180  25.103  28.364  1.00  0.00     0.029 A 
ATOM     48  C   UNL A   1      41.607  25.362  28.386  1.00  0.00     0.049 A 
ATOM     49  H   UNL A   1      42.552  27.141  28.933  1.00  0.00     0.167 HD
ATOM     50  C   UNL A   1      44.675  30.680  29.656  1.00  0.00     0.031 A 
ATOM     51  C   UNL A   1      42.506  24.435  27.998  1.00  0.00     0.031 A 
ATOM     52  C   UNL A   1      45.727  29.769  29.247  1.00  0.00     0.049 A 
ATOM     53  C   UNL A   1      43.947  24.785  27.849  1.00  0.00     0.074 A 
ATOM     54  C   UNL A   1      47.101  29.979  29.246  1.00  0.00     0.029 A 
ATOM     55  N   UNL A   1      45.534  28.487  28.769  1.00  0.00    -0.354 N 
ATOM     56  N   UNL A   1      44.554  25.900  28.151  1.00  0.00    -0.248 NA
ATOM     57  C   UNL A   1      44.819  23.756  27.261  1.00  0.00     0.031 C 
ATOM     58  C   UNL A   1      47.730  28.852  28.705  1.00  0.00     0.029 A 
ATOM     59  C   UNL A   1      46.754  27.915  28.429  1.00  0.00     0.049 A 
ATOM     60  H   UNL A   1      44.659  28.043  28.682  1.00  0.00     0.167 HD
ATOM     61  C   UNL A   1      45.879  25.712  27.788  1.00  0.00     0.074 A 
ATOM     62  C   UNL A   1      45.995  24.367  27.267  1.00  0.00     0.031 C 
ATOM     63  C   UNL A   1      46.900  26.595  27.880  1.00  0.00     0.031 A 
BRANCH  50  64
ATOM     64  C   UNL A   1      45.138  32.055  30.086  1.00  0.00    -0.014 A 
ATOM     65  C   UNL A   1      45.290  33.110  29.175  1.00  0.00     0.009 A 
ATOM     66  C   UNL A   1      45.278  32.327  31.461  1.00  0.00     0.009 A 
ATOM     67  C   UNL A   1      45.591  34.401  29.630  1.00  0.00     0.001 A 
ATOM     68  C   UNL A   1      45.555  33.619  31.913  1.00  0.00     0.001 A 
ATOM     69  C   UNL A   1      45.718  34.655  30.996  1.00  0.00     0.000 A 
ENDBRANCH  50  64
BRANCH  51  70
ATOM     70  C   UNL A   1      42.013  23.103  27.549  1.00  0.00    -0.014 A 
ATOM     71  C   UNL A   1      41.914  22.030  28.443  1.00  0.00     0.009 A 
ATOM     72  C   UNL A   1      41.594  22.924  26.217  1.00  0.00     0.009 A 
ATOM     73  C   UNL A   1      41.393  20.808  28.014  1.00  0.00     0.001 A 
ATOM     74  C   UNL A   1      41.035  21.715  25.804  1.00  0.00     0.001 A 
ATOM     75  C   UNL A   1      40.939  20.656  26.703  1.00  0.00     0.000 A 
ENDBRANCH  51  70
BRANCH  63  76
ATOM     76  C   UNL A   1      48.249  26.124  27.420  1.00  0.00    -0.014 A 
ATOM     77  C   UNL A   1      49.105  25.424  28.286  1.00  0.00     0.009 A 
ATOM     78  C   UNL A   1      48.683  26.400  26.114  1.00  0.00     0.009 A 
ATOM     79  C   UNL A   1      50.379  25.040  27.863  1.00  0.00     0.001 A 
ATOM     80  C   UNL A   1      49.949  25.995  25.687  1.00  0.00     0.001 A 
ATOM     81  C   UNL A   1      50.800  25.324  26.564  1.00  0.00     0.000 A 
ENDBRANCH  63  76
ENDBRANCH  37  38
ENDBRANCH  30  32
ENDBRANCH  29  30
ENDBRANCH  28  29
ENDBRANCH   1  28
TORSDOF 15
ENDMDL
MODEL 3
REMARK VINA RESULT:     -10.9      1.523      2.856
REMARK SMILES Cc1ccc(Cl)c(Nc2ccccc2C(=O)N[C@@H](C)C(=O)OCCOC(=O)c2ccc(-c3c4nc(c(-c5ccccc5)c5ccc([nH]5)c(-c5ccccc5)c5nc(c(-c6ccccc6)c6ccc3[nH]6)C=C5)C=C4)cc2)c1Cl
REMARK SMILES IDX 23 1 22 2 20 3 21 4 18 5 19 6 17 7 15 8 16 9 14 11 9 12
REMARK SMILES IDX 10 13 11 14 13 15 12 16 8 17 7 19 1 20 2 21 3 22 76 23 4 24
REMARK SMILES IDX 77 25 5 26 6 27 24 28 25 29 26 30 27 31 28 32 29 33 75 34
REMARK SMILES IDX 30 35 74 36 31 37 32 38 33 39 68 40 34 41 73 42 67 43 69 44
REMARK SMILES IDX 35 45 72 46 66 47 65 48 36 50 58 51 43 52 57 53 44 54 47 55
REMARK SMILES IDX 56 56 70 57 45 58 46 59 55 61 71 62 48 63 37 64 38 65 42 66
REMARK SMILES IDX 39 67 41 68 40 69 59 70 60 71 64 72 61 73 63 74 62 75 49 76
REMARK SMILES IDX 50 77 54 78 51 79 53 80 52 81
REMARK H PARENT 17 10 8 18 69 49 47 60
REMARK Flexibility Score: inf
ROOT
ATOM      1  C   UNL A   1      34.198  21.894  26.088  1.00  0.00     0.274 C 
ENDROOT
BRANCH   1   2
ATOM      2  O   UNL A   1      33.714  23.177  25.513  1.00  0.00    -0.461 OA
BRANCH   2   3
ATOM      3  C   UNL A   1      32.420  23.663  25.614  1.00  0.00     0.328 C 
ATOM      4  O   UNL A   1      31.819  23.732  26.665  1.00  0.00    -0.250 OA
BRANCH   3   5
ATOM      5  C   UNL A   1      31.785  24.101  24.180  1.00  0.00     0.189 C 
ATOM      6  C   UNL A   1      31.784  22.910  23.224  1.00  0.00     0.043 C 
BRANCH   5   7
ATOM      7  N   UNL A   1      32.520  25.258  23.579  1.00  0.00    -0.339 N 
ATOM      8  C   UNL A   1      32.465  26.604  23.258  1.00  0.00     0.254 C 
ATOM      9  O   UNL A   1      33.485  26.910  22.609  1.00  0.00    -0.269 OA
ATOM     10  H   UNL A   1      33.404  24.928  23.296  1.00  0.00     0.164 HD
BRANCH   8  11
ATOM     11  C   UNL A   1      31.490  27.777  23.503  1.00  0.00     0.063 A 
ATOM     12  C   UNL A   1      31.573  28.958  24.280  1.00  0.00     0.051 A 
ATOM     13  C   UNL A   1      30.532  29.934  24.289  1.00  0.00     0.027 A 
ATOM     14  C   UNL A   1      29.465  29.859  23.417  1.00  0.00     0.002 A 
ATOM     15  C   UNL A   1      30.339  27.731  22.665  1.00  0.00     0.016 A 
ATOM     16  C   UNL A   1      29.377  28.758  22.588  1.00  0.00     0.001 A 
BRANCH  12  17
ATOM     17  N   UNL A   1      32.763  29.509  24.743  1.00  0.00    -0.352 N 
ATOM     18  H   UNL A   1      33.443  29.774  24.081  1.00  0.00     0.167 HD
BRANCH  17  19
ATOM     19  C   UNL A   1      33.048  29.712  26.109  1.00  0.00     0.077 A 
ATOM     20  C   UNL A   1      33.910  32.845  28.182  1.00  0.00     0.046 C 
ATOM     21  C   UNL A   1      33.848  31.454  27.626  1.00  0.00    -0.030 A 
ATOM     22  C   UNL A   1      34.846  30.570  27.946  1.00  0.00     0.006 A 
ATOM     23  C   UNL A   1      32.877  30.971  26.769  1.00  0.00     0.069 A 
ATOM     24  C   UNL A   1      34.813  29.218  27.543  1.00  0.00     0.023 A 
ATOM     25  Cl  UNL A   1      31.432  31.905  26.595  1.00  0.00    -0.082 Cl
ATOM     26  C   UNL A   1      33.903  28.768  26.637  1.00  0.00     0.066 A 
ATOM     27  Cl  UNL A   1      34.061  27.166  26.007  1.00  0.00    -0.082 Cl
ENDBRANCH  17  19
ENDBRANCH  12  17
ENDBRANCH   8  11
ENDBRANCH   5   7
ENDBRANCH   3   5
ENDBRANCH   2   3
ENDBRANCH   1   2
BRANCH   1  28
ATOM     28  C   UNL A   1      35.279  20.946  25.327  1.00  0.00     0.275 C 
BRANCH  28  29
ATOM     29  O   UNL A   1      36.542  21.528  24.806  1.00  0.00    -0.458 OA
BRANCH  29  30
ATOM     30  C   UNL A   1      37.749  21.127  25.382  1.00  0.00     0.338 C 
ATOM     31  O   UNL A   1      38.241  20.023  25.202  1.00  0.00    -0.246 OA
BRANCH  30  32
ATOM     32  C   UNL A   1      38.549  22.247  26.080  1.00  0.00     0.060 A 
ATOM     33  C   UNL A   1      38.186  23.579  25.981  1.00  0.00     0.016 A 
ATOM     34  C   UNL A   1      39.805  22.010  26.683  1.00  0.00     0.016 A 
ATOM     35  C   UNL A   1      39.117  24.610  26.269  1.00  0.00     0.010 A 
ATOM     36  C   UNL A   1      40.648  23.076  27.165  1.00  0.00     0.010 A 
ATOM     37  C   UNL A   1      40.322  24.427  26.973  1.00  0.00    -0.014 A 
BRANCH  37  38
ATOM     38  C   UNL A   1      41.082  25.634  27.556  1.00  0.00     0.031 A 
ATOM     39  C   UNL A   1      40.476  26.711  28.470  1.00  0.00     0.074 A 
ATOM     40  C   UNL A   1      42.397  25.827  27.259  1.00  0.00     0.049 A 
ATOM     41  N   UNL A   1      40.959  27.900  28.786  1.00  0.00    -0.248 NA
ATOM     42  C   UNL A   1      39.200  26.420  29.134  1.00  0.00     0.031 C 
ATOM     43  C   UNL A   1      43.244  24.936  26.461  1.00  0.00     0.029 A 
ATOM     44  N   UNL A   1      43.270  26.852  27.592  1.00  0.00    -0.354 N 
ATOM     45  C   UNL A   1      40.035  28.505  29.642  1.00  0.00     0.074 A 
ATOM     46  C   UNL A   1      38.974  27.535  29.825  1.00  0.00     0.031 C 
ATOM     47  C   UNL A   1      44.499  25.386  26.446  1.00  0.00     0.029 A 
ATOM     48  C   UNL A   1      44.521  26.713  27.030  1.00  0.00     0.049 A 
ATOM     49  H   UNL A   1      43.021  27.606  28.174  1.00  0.00     0.167 HD
ATOM     50  C   UNL A   1      40.045  29.747  30.204  1.00  0.00     0.031 A 
ATOM     51  C   UNL A   1      45.558  27.557  26.847  1.00  0.00     0.031 A 
ATOM     52  C   UNL A   1      41.093  30.739  30.060  1.00  0.00     0.049 A 
ATOM     53  C   UNL A   1      45.475  28.976  27.294  1.00  0.00     0.074 A 
ATOM     54  C   UNL A   1      41.150  32.021  30.596  1.00  0.00     0.029 A 
ATOM     55  N   UNL A   1      42.258  30.573  29.337  1.00  0.00    -0.354 N 
ATOM     56  N   UNL A   1      44.533  29.565  27.980  1.00  0.00    -0.248 NA
ATOM     57  C   UNL A   1      46.586  29.858  26.902  1.00  0.00     0.031 C 
ATOM     58  C   UNL A   1      42.314  32.649  30.141  1.00  0.00     0.029 A 
ATOM     59  C   UNL A   1      43.014  31.738  29.374  1.00  0.00     0.049 A 
ATOM     60  H   UNL A   1      42.516  29.749  28.864  1.00  0.00     0.167 HD
ATOM     61  C   UNL A   1      44.933  30.887  28.099  1.00  0.00     0.074 A 
ATOM     62  C   UNL A   1      46.214  31.011  27.439  1.00  0.00     0.031 C 
ATOM     63  C   UNL A   1      44.275  31.903  28.704  1.00  0.00     0.031 A 
BRANCH  50  64
ATOM     64  C   UNL A   1      38.835  30.190  30.998  1.00  0.00    -0.014 A 
ATOM     65  C   UNL A   1      37.702  30.743  30.384  1.00  0.00     0.009 A 
ATOM     66  C   UNL A   1      38.782  29.903  32.375  1.00  0.00     0.009 A 
ATOM     67  C   UNL A   1      36.552  31.018  31.136  1.00  0.00     0.001 A 
ATOM     68  C   UNL A   1      37.627  30.156  33.118  1.00  0.00     0.001 A 
ATOM     69  C   UNL A   1      36.513  30.719  32.499  1.00  0.00     0.000 A 
ENDBRANCH  50  64
BRANCH  51  70
ATOM     70  C   UNL A   1      46.718  27.098  26.032  1.00  0.00    -0.014 A 
ATOM     71  C   UNL A   1      47.684  26.240  26.570  1.00  0.00     0.009 A 
ATOM     72  C   UNL A   1      46.828  27.494  24.686  1.00  0.00     0.009 A 
ATOM     73  C   UNL A   1      48.730  25.776  25.770  1.00  0.00     0.001 A 
ATOM     74  C   UNL A   1      47.850  26.995  23.879  1.00  0.00     0.001 A 
ATOM     75  C   UNL A   1      48.803  26.138  24.424  1.00  0.00     0.000 A 
ENDBRANCH  51  70
BRANCH  63  76
ATOM     76  C   UNL A   1      44.944  33.247  28.695  1.00  0.00    -0.014 A 
ATOM     77  C   UNL A   1      45.908  33.580  29.660  1.00  0.00     0.009 A 
ATOM     78  C   UNL A   1      44.594  34.201  27.728  1.00  0.00     0.009 A 
ATOM     79  C   UNL A   1      46.484  34.852  29.675  1.00  0.00     0.001 A 
ATOM     80  C   UNL A   1      45.188  35.465  27.732  1.00  0.00     0.001 A 
ATOM     81  C   UNL A   1      46.125  35.794  28.711  1.00  0.00     0.000 A 
ENDBRANCH  63  76
ENDBRANCH  37  38
ENDBRANCH  30  32
ENDBRANCH  29  30
ENDBRANCH  28  29
ENDBRANCH   1  28
TORSDOF 15
ENDMDL
