MODEL 1
REMARK VINA RESULT:     -10.4      0.000      0.000
REMARK SMILES COC(=O)c1ccc2oc(=O)c([C@H]3N=c4ccc(C(=O)OCCOC(=O)c5ccc(-c6c7nc(c(-c8ccccc8)c8ccc([nH]8)c(-c8ccccc8)c8nc(c(-c9ccccc9)c9ccc6[nH]9)C=C8)C=C7)cc5)cc4=N3)cc2c1
REMARK SMILES IDX 22 1 21 2 19 3 20 4 18 5 13 6 14 7 77 8 15 9 76 10 16 11
REMARK SMILES IDX 75 12 17 13 12 14 5 15 6 16 80 17 7 18 79 19 8 20 78 21 9 22
REMARK SMILES IDX 10 23 11 24 3 25 4 26 2 27 1 28 23 29 24 30 25 31 26 32
REMARK SMILES IDX 27 33 28 34 74 35 29 36 73 37 30 38 31 39 32 40 67 41 33 42
REMARK SMILES IDX 72 43 66 44 68 45 34 46 71 47 65 48 64 49 35 51 57 52 42 53
REMARK SMILES IDX 56 54 43 55 46 56 55 57 69 58 44 59 45 60 54 62 70 63 47 64
REMARK SMILES IDX 36 65 37 66 41 67 38 68 40 69 39 70 58 71 59 72 63 73 60 74
REMARK SMILES IDX 62 75 61 76 48 77 49 78 53 79 50 80 52 81 51 82
REMARK H PARENT 68 50 46 61
REMARK Flexibility Score: inf
ROOT
ATOM      1  C   UNL A   1      33.296  35.082  28.895  1.00  0.00     0.275 C 
ENDROOT
BRANCH   1   2
ATOM      2  O   UNL A   1      32.936  34.640  30.222  1.00  0.00    -0.458 OA
BRANCH   2   3
ATOM      3  C   UNL A   1      33.476  35.331  31.258  1.00  0.00     0.338 C 
ATOM      4  O   UNL A   1      33.130  36.439  31.640  1.00  0.00    -0.246 OA
BRANCH   3   5
ATOM      5  C   UNL A   1      34.517  34.512  31.954  1.00  0.00     0.062 A 
ATOM      6  C   UNL A   1      38.238  33.733  34.369  1.00  0.00     0.260 C 
ATOM      7  N   UNL A   1      37.461  32.517  34.002  1.00  0.00    -0.251 NA
ATOM      8  N   UNL A   1      37.610  34.958  33.808  1.00  0.00    -0.251 NA
ATOM      9  C   UNL A   1      36.469  33.012  33.348  1.00  0.00     0.086 A 
ATOM     10  C   UNL A   1      36.584  34.476  33.193  1.00  0.00     0.087 A 
ATOM     11  C   UNL A   1      35.307  32.325  32.773  1.00  0.00     0.031 A 
ATOM     12  C   UNL A   1      35.588  35.195  32.398  1.00  0.00     0.046 A 
ATOM     13  C   UNL A   1      34.387  33.071  32.140  1.00  0.00     0.018 A 
BRANCH   6  14
ATOM     14  C   UNL A   1      38.437  33.817  35.858  1.00  0.00     0.085 A 
ATOM     15  C   UNL A   1      37.258  32.539  40.399  1.00  0.00     0.060 A 
ATOM     16  C   UNL A   1      37.986  33.631  40.895  1.00  0.00     0.019 A 
ATOM     17  C   UNL A   1      37.236  32.280  39.019  1.00  0.00     0.027 A 
ATOM     18  C   UNL A   1      38.679  34.463  40.013  1.00  0.00     0.049 A 
ATOM     19  C   UNL A   1      37.911  33.125  38.135  1.00  0.00     0.019 A 
ATOM     20  C   UNL A   1      38.626  34.200  38.645  1.00  0.00     0.138 A 
ATOM     21  C   UNL A   1      37.833  32.957  36.695  1.00  0.00     0.027 A 
ATOM     22  O   UNL A   1      39.312  35.071  37.780  1.00  0.00    -0.422 OA
ATOM     23  C   UNL A   1      39.277  34.923  36.391  1.00  0.00     0.343 A 
ATOM     24  O   UNL A   1      39.915  35.685  35.671  1.00  0.00    -0.246 OA
BRANCH  15  25
ATOM     25  C   UNL A   1      36.481  31.632  41.286  1.00  0.00     0.337 C 
ATOM     26  O   UNL A   1      36.993  30.832  42.042  1.00  0.00    -0.246 OA
BRANCH  25  27
ATOM     27  O   UNL A   1      35.150  31.790  41.064  1.00  0.00    -0.465 OA
ATOM     28  C   UNL A   1      34.584  32.929  41.716  1.00  0.00     0.282 C 
ENDBRANCH  25  27
ENDBRANCH  15  25
ENDBRANCH   6  14
ENDBRANCH   3   5
ENDBRANCH   2   3
ENDBRANCH   1   2
BRANCH   1  29
ATOM     29  C   UNL A   1      33.798  33.922  28.033  1.00  0.00     0.275 C 
BRANCH  29  30
ATOM     30  O   UNL A   1      34.482  32.947  28.843  1.00  0.00    -0.458 OA
BRANCH  30  31
ATOM     31  C   UNL A   1      34.538  31.698  28.328  1.00  0.00     0.338 C 
ATOM     32  O   UNL A   1      33.734  31.160  27.588  1.00  0.00    -0.246 OA
BRANCH  31  33
ATOM     33  C   UNL A   1      35.841  31.108  28.668  1.00  0.00     0.060 A 
ATOM     34  C   UNL A   1      37.045  31.739  28.378  1.00  0.00     0.016 A 
ATOM     35  C   UNL A   1      35.829  29.910  29.380  1.00  0.00     0.016 A 
ATOM     36  C   UNL A   1      38.244  31.136  28.784  1.00  0.00     0.010 A 
ATOM     37  C   UNL A   1      37.014  29.326  29.814  1.00  0.00     0.010 A 
ATOM     38  C   UNL A   1      38.240  29.925  29.511  1.00  0.00    -0.014 A 
BRANCH  38  39
ATOM     39  C   UNL A   1      39.503  29.317  30.006  1.00  0.00     0.031 A 
ATOM     40  C   UNL A   1      40.186  29.829  31.246  1.00  0.00     0.074 A 
ATOM     41  C   UNL A   1      40.073  28.323  29.296  1.00  0.00     0.049 A 
ATOM     42  N   UNL A   1      41.249  29.357  31.852  1.00  0.00    -0.248 NA
ATOM     43  C   UNL A   1      39.629  31.036  31.876  1.00  0.00     0.031 C 
ATOM     44  C   UNL A   1      39.572  27.806  28.021  1.00  0.00     0.029 A 
ATOM     45  N   UNL A   1      41.188  27.562  29.550  1.00  0.00    -0.354 N 
ATOM     46  C   UNL A   1      41.488  30.209  32.923  1.00  0.00     0.074 A 
ATOM     47  C   UNL A   1      40.496  31.259  32.855  1.00  0.00     0.031 C 
ATOM     48  C   UNL A   1      40.337  26.773  27.637  1.00  0.00     0.029 A 
ATOM     49  C   UNL A   1      41.397  26.570  28.621  1.00  0.00     0.049 A 
ATOM     50  H   UNL A   1      41.779  27.711  30.322  1.00  0.00     0.167 HD
ATOM     51  C   UNL A   1      42.429  30.110  33.892  1.00  0.00     0.031 A 
ATOM     52  C   UNL A   1      42.319  25.589  28.575  1.00  0.00     0.031 A 
ATOM     53  C   UNL A   1      43.402  29.051  33.969  1.00  0.00     0.049 A 
ATOM     54  C   UNL A   1      43.319  25.463  29.691  1.00  0.00     0.074 A 
ATOM     55  C   UNL A   1      44.337  28.816  34.963  1.00  0.00     0.029 A 
ATOM     56  N   UNL A   1      43.564  28.055  33.020  1.00  0.00    -0.354 N 
ATOM     57  N   UNL A   1      43.457  26.208  30.760  1.00  0.00    -0.248 NA
ATOM     58  C   UNL A   1      44.277  24.349  29.605  1.00  0.00     0.031 C 
ATOM     59  C   UNL A   1      45.100  27.709  34.590  1.00  0.00     0.029 A 
ATOM     60  C   UNL A   1      44.598  27.214  33.397  1.00  0.00     0.049 A 
ATOM     61  H   UNL A   1      43.026  27.958  32.202  1.00  0.00     0.167 HD
ATOM     62  C   UNL A   1      44.500  25.646  31.482  1.00  0.00     0.074 A 
ATOM     63  C   UNL A   1      44.948  24.485  30.742  1.00  0.00     0.031 C 
ATOM     64  C   UNL A   1      45.037  26.060  32.655  1.00  0.00     0.031 A 
BRANCH  51  65
ATOM     65  C   UNL A   1      42.444  31.149  34.979  1.00  0.00    -0.014 A 
ATOM     66  C   UNL A   1      41.713  30.944  36.161  1.00  0.00     0.009 A 
ATOM     67  C   UNL A   1      43.089  32.383  34.789  1.00  0.00     0.009 A 
ATOM     68  C   UNL A   1      41.618  31.953  37.122  1.00  0.00     0.001 A 
ATOM     69  C   UNL A   1      43.017  33.379  35.764  1.00  0.00     0.001 A 
ATOM     70  C   UNL A   1      42.273  33.167  36.925  1.00  0.00     0.000 A 
ENDBRANCH  51  65
BRANCH  52  71
ATOM     71  C   UNL A   1      42.275  24.603  27.464  1.00  0.00    -0.014 A 
ATOM     72  C   UNL A   1      41.514  23.429  27.574  1.00  0.00     0.009 A 
ATOM     73  C   UNL A   1      43.051  24.803  26.312  1.00  0.00     0.009 A 
ATOM     74  C   UNL A   1      41.549  22.465  26.564  1.00  0.00     0.001 A 
ATOM     75  C   UNL A   1      43.060  23.851  25.289  1.00  0.00     0.001 A 
ATOM     76  C   UNL A   1      42.318  22.679  25.421  1.00  0.00     0.000 A 
ENDBRANCH  52  71
BRANCH  64  77
ATOM     77  C   UNL A   1      46.168  25.260  33.239  1.00  0.00    -0.014 A 
ATOM     78  C   UNL A   1      45.892  24.221  34.144  1.00  0.00     0.009 A 
ATOM     79  C   UNL A   1      47.504  25.610  32.991  1.00  0.00     0.009 A 
ATOM     80  C   UNL A   1      46.930  23.562  34.803  1.00  0.00     0.001 A 
ATOM     81  C   UNL A   1      48.541  24.929  33.631  1.00  0.00     0.001 A 
ATOM     82  C   UNL A   1      48.252  23.914  34.545  1.00  0.00     0.000 A 
ENDBRANCH  64  77
ENDBRANCH  38  39
ENDBRANCH  31  33
ENDBRANCH  30  31
ENDBRANCH  29  30
ENDBRANCH   1  29
TORSDOF 14
ENDMDL
MODEL 2
REMARK VINA RESULT:     -10.3      2.737      7.186
REMARK SMILES COC(=O)c1ccc2oc(=O)c([C@H]3N=c4ccc(C(=O)OCCOC(=O)c5ccc(-c6c7nc(c(-c8ccccc8)c8ccc([nH]8)c(-c8ccccc8)c8nc(c(-c9ccccc9)c9ccc6[nH]9)C=C8)C=C7)cc5)cc4=N3)cc2c1
REMARK SMILES IDX 22 1 21 2 19 3 20 4 18 5 13 6 14 7 77 8 15 9 76 10 16 11
REMARK SMILES IDX 75 12 17 13 12 14 5 15 6 16 80 17 7 18 79 19 8 20 78 21 9 22
REMARK SMILES IDX 10 23 11 24 3 25 4 26 2 27 1 28 23 29 24 30 25 31 26 32
REMARK SMILES IDX 27 33 28 34 74 35 29 36 73 37 30 38 31 39 32 40 67 41 33 42
REMARK SMILES IDX 72 43 66 44 68 45 34 46 71 47 65 48 64 49 35 51 57 52 42 53
REMARK SMILES IDX 56 54 43 55 46 56 55 57 69 58 44 59 45 60 54 62 70 63 47 64
REMARK SMILES IDX 36 65 37 66 41 67 38 68 40 69 39 70 58 71 59 72 63 73 60 74
REMARK SMILES IDX 62 75 61 76 48 77 49 78 53 79 50 80 52 81 51 82
REMARK H PARENT 68 50 46 61
REMARK Flexibility Score: inf
ROOT
ATOM      1  C   UNL A   1      34.433  33.408  29.243  1.00  0.00     0.275 C 
ENDROOT
BRANCH   1   2
ATOM      2  O   UNL A   1      35.290  32.821  30.247  1.00  0.00    -0.458 OA
BRANCH   2   3
ATOM      3  C   UNL A   1      36.622  33.045  30.114  1.00  0.00     0.338 C 
ATOM      4  O   UNL A   1      37.211  33.263  29.066  1.00  0.00    -0.246 OA
BRANCH   3   5
ATOM      5  C   UNL A   1      37.289  33.081  31.453  1.00  0.00     0.062 A 
ATOM      6  C   UNL A   1      38.950  31.420  35.294  1.00  0.00     0.260 C 
ATOM      7  N   UNL A   1      39.152  32.883  35.104  1.00  0.00    -0.251 NA
ATOM      8  N   UNL A   1      38.194  30.831  34.158  1.00  0.00    -0.251 NA
ATOM      9  C   UNL A   1      38.611  33.086  33.953  1.00  0.00     0.086 A 
ATOM     10  C   UNL A   1      37.995  31.860  33.407  1.00  0.00     0.087 A 
ATOM     11  C   UNL A   1      38.543  34.326  33.171  1.00  0.00     0.031 A 
ATOM     12  C   UNL A   1      37.257  31.928  32.145  1.00  0.00     0.046 A 
ATOM     13  C   UNL A   1      37.929  34.282  31.978  1.00  0.00     0.018 A 
BRANCH   6  14
ATOM     14  C   UNL A   1      40.261  30.721  35.538  1.00  0.00     0.085 A 
ATOM     15  C   UNL A   1      43.365  27.069  34.718  1.00  0.00     0.060 A 
ATOM     16  C   UNL A   1      44.084  27.422  35.869  1.00  0.00     0.019 A 
ATOM     17  C   UNL A   1      42.263  27.840  34.316  1.00  0.00     0.027 A 
ATOM     18  C   UNL A   1      43.696  28.536  36.618  1.00  0.00     0.049 A 
ATOM     19  C   UNL A   1      41.860  28.940  35.077  1.00  0.00     0.019 A 
ATOM     20  C   UNL A   1      42.584  29.274  36.213  1.00  0.00     0.138 A 
ATOM     21  C   UNL A   1      40.668  29.705  34.757  1.00  0.00     0.027 A 
ATOM     22  O   UNL A   1      42.202  30.374  37.002  1.00  0.00    -0.422 OA
ATOM     23  C   UNL A   1      41.073  31.145  36.708  1.00  0.00     0.343 A 
ATOM     24  O   UNL A   1      40.791  32.116  37.404  1.00  0.00    -0.246 OA
BRANCH  15  25
ATOM     25  C   UNL A   1      43.717  25.882  33.894  1.00  0.00     0.337 C 
ATOM     26  O   UNL A   1      43.777  25.900  32.681  1.00  0.00    -0.246 OA
BRANCH  25  27
ATOM     27  O   UNL A   1      43.882  24.794  34.691  1.00  0.00    -0.465 OA
ATOM     28  C   UNL A   1      42.656  24.178  35.093  1.00  0.00     0.282 C 
ENDBRANCH  25  27
ENDBRANCH  15  25
ENDBRANCH   6  14
ENDBRANCH   3   5
ENDBRANCH   2   3
ENDBRANCH   1   2
BRANCH   1  29
ATOM     29  C   UNL A   1      33.738  32.336  28.402  1.00  0.00     0.275 C 
BRANCH  29  30
ATOM     30  O   UNL A   1      34.695  31.619  27.600  1.00  0.00    -0.458 OA
BRANCH  30  31
ATOM     31  C   UNL A   1      34.739  30.282  27.800  1.00  0.00     0.338 C 
ATOM     32  O   UNL A   1      33.896  29.456  27.501  1.00  0.00    -0.246 OA
BRANCH  31  33
ATOM     33  C   UNL A   1      36.074  29.927  28.304  1.00  0.00     0.060 A 
ATOM     34  C   UNL A   1      36.271  29.354  29.556  1.00  0.00     0.016 A 
ATOM     35  C   UNL A   1      37.149  30.110  27.438  1.00  0.00     0.016 A 
ATOM     36  C   UNL A   1      37.570  28.994  29.940  1.00  0.00     0.010 A 
ATOM     37  C   UNL A   1      38.434  29.723  27.803  1.00  0.00     0.010 A 
ATOM     38  C   UNL A   1      38.664  29.171  29.066  1.00  0.00    -0.014 A 
BRANCH  38  39
ATOM     39  C   UNL A   1      40.033  28.727  29.440  1.00  0.00     0.031 A 
ATOM     40  C   UNL A   1      40.593  27.416  28.954  1.00  0.00     0.074 A 
ATOM     41  C   UNL A   1      40.763  29.491  30.276  1.00  0.00     0.049 A 
ATOM     42  N   UNL A   1      41.795  26.923  29.125  1.00  0.00    -0.248 NA
ATOM     43  C   UNL A   1      39.688  26.532  28.202  1.00  0.00     0.031 C 
ATOM     44  C   UNL A   1      40.300  30.730  30.904  1.00  0.00     0.029 A 
ATOM     45  N   UNL A   1      42.052  29.348  30.732  1.00  0.00    -0.354 N 
ATOM     46  C   UNL A   1      41.787  25.676  28.513  1.00  0.00     0.074 A 
ATOM     47  C   UNL A   1      40.448  25.460  28.013  1.00  0.00     0.031 C 
ATOM     48  C   UNL A   1      41.307  31.266  31.610  1.00  0.00     0.029 A 
ATOM     49  C   UNL A   1      42.478  30.399  31.508  1.00  0.00     0.049 A 
ATOM     50  H   UNL A   1      42.615  28.569  30.522  1.00  0.00     0.167 HD
ATOM     51  C   UNL A   1      42.810  24.802  28.356  1.00  0.00     0.031 A 
ATOM     52  C   UNL A   1      43.681  30.655  32.057  1.00  0.00     0.031 A 
ATOM     53  C   UNL A   1      44.149  25.029  28.835  1.00  0.00     0.049 A 
ATOM     54  C   UNL A   1      44.818  29.700  31.821  1.00  0.00     0.074 A 
ATOM     55  C   UNL A   1      45.272  24.243  28.645  1.00  0.00     0.029 A 
ATOM     56  N   UNL A   1      44.543  26.116  29.598  1.00  0.00    -0.354 N 
ATOM     57  N   UNL A   1      44.825  28.582  31.138  1.00  0.00    -0.248 NA
ATOM     58  C   UNL A   1      46.118  30.052  32.413  1.00  0.00     0.031 C 
ATOM     59  C   UNL A   1      46.335  24.828  29.335  1.00  0.00     0.029 A 
ATOM     60  C   UNL A   1      45.890  26.012  29.901  1.00  0.00     0.049 A 
ATOM     61  H   UNL A   1      43.954  26.853  29.880  1.00  0.00     0.167 HD
ATOM     62  C   UNL A   1      46.127  28.106  31.202  1.00  0.00     0.074 A 
ATOM     63  C   UNL A   1      46.890  29.066  31.972  1.00  0.00     0.031 C 
ATOM     64  C   UNL A   1      46.642  26.972  30.668  1.00  0.00     0.031 A 
BRANCH  51  65
ATOM     65  C   UNL A   1      42.548  23.527  27.602  1.00  0.00    -0.014 A 
ATOM     66  C   UNL A   1      42.722  23.482  26.209  1.00  0.00     0.009 A 
ATOM     67  C   UNL A   1      42.018  22.400  28.253  1.00  0.00     0.009 A 
ATOM     68  C   UNL A   1      42.362  22.344  25.484  1.00  0.00     0.001 A 
ATOM     69  C   UNL A   1      41.687  21.253  27.530  1.00  0.00     0.001 A 
ATOM     70  C   UNL A   1      41.850  21.230  26.146  1.00  0.00     0.000 A 
ENDBRANCH  51  65
BRANCH  52  71
ATOM     71  C   UNL A   1      43.879  31.918  32.815  1.00  0.00    -0.014 A 
ATOM     72  C   UNL A   1      44.217  33.109  32.151  1.00  0.00     0.009 A 
ATOM     73  C   UNL A   1      43.797  31.922  34.215  1.00  0.00     0.009 A 
ATOM     74  C   UNL A   1      44.490  34.270  32.877  1.00  0.00     0.001 A 
ATOM     75  C   UNL A   1      44.041  33.093  34.936  1.00  0.00     0.001 A 
ATOM     76  C   UNL A   1      44.398  34.263  34.268  1.00  0.00     0.000 A 
ENDBRANCH  52  71
BRANCH  64  77
ATOM     77  C   UNL A   1      48.103  26.689  30.876  1.00  0.00    -0.014 A 
ATOM     78  C   UNL A   1      48.522  26.006  32.030  1.00  0.00     0.009 A 
ATOM     79  C   UNL A   1      49.071  27.203  30.000  1.00  0.00     0.009 A 
ATOM     80  C   UNL A   1      49.880  25.858  32.311  1.00  0.00     0.001 A 
ATOM     81  C   UNL A   1      50.429  27.029  30.270  1.00  0.00     0.001 A 
ATOM     82  C   UNL A   1      50.832  26.367  31.431  1.00  0.00     0.000 A 
ENDBRANCH  64  77
ENDBRANCH  38  39
ENDBRANCH  31  33
ENDBRANCH  30  31
ENDBRANCH  29  30
ENDBRANCH   1  29
TORSDOF 14
ENDMDL
MODEL 3
REMARK VINA RESULT:     -10.0      4.779     13.654
REMARK SMILES COC(=O)c1ccc2oc(=O)c([C@H]3N=c4ccc(C(=O)OCCOC(=O)c5ccc(-c6c7nc(c(-c8ccccc8)c8ccc([nH]8)c(-c8ccccc8)c8nc(c(-c9ccccc9)c9ccc6[nH]9)C=C8)C=C7)cc5)cc4=N3)cc2c1
REMARK SMILES IDX 22 1 21 2 19 3 20 4 18 5 13 6 14 7 77 8 15 9 76 10 16 11
REMARK SMILES IDX 75 12 17 13 12 14 5 15 6 16 80 17 7 18 79 19 8 20 78 21 9 22
REMARK SMILES IDX 10 23 11 24 3 25 4 26 2 27 1 28 23 29 24 30 25 31 26 32
REMARK SMILES IDX 27 33 28 34 74 35 29 36 73 37 30 38 31 39 32 40 67 41 33 42
REMARK SMILES IDX 72 43 66 44 68 45 34 46 71 47 65 48 64 49 35 51 57 52 42 53
REMARK SMILES IDX 56 54 43 55 46 56 55 57 69 58 44 59 45 60 54 62 70 63 47 64
REMARK SMILES IDX 36 65 37 66 41 67 38 68 40 69 39 70 58 71 59 72 63 73 60 74
REMARK SMILES IDX 62 75 61 76 48 77 49 78 53 79 50 80 52 81 51 82
REMARK H PARENT 68 50 46 61
REMARK Flexibility Score: inf
ROOT
ATOM      1  C   UNL A   1      49.847  24.923  35.135  1.00  0.00     0.275 C 
ENDROOT
BRANCH   1   2
ATOM      2  O   UNL A   1      50.027  25.666  33.910  1.00  0.00    -0.458 OA
BRANCH   2   3
ATOM      3  C   UNL A   1      49.948  24.958  32.755  1.00  0.00     0.338 C 
ATOM      4  O   UNL A   1      50.524  23.907  32.517  1.00  0.00    -0.246 OA
BRANCH   3   5
ATOM      5  C   UNL A   1      48.975  25.591  31.811  1.00  0.00     0.062 A 
ATOM      6  C   UNL A   1      47.227  26.741  27.824  1.00  0.00     0.260 C 
ATOM      7  N   UNL A   1      46.425  27.161  29.006  1.00  0.00    -0.251 NA
ATOM      8  N   UNL A   1      48.475  26.051  28.242  1.00  0.00    -0.251 NA
ATOM      9  C   UNL A   1      47.123  26.706  29.987  1.00  0.00     0.086 A 
ATOM     10  C   UNL A   1      48.379  26.078  29.528  1.00  0.00     0.087 A 
ATOM     11  C   UNL A   1      46.828  26.739  31.424  1.00  0.00     0.031 A 
ATOM     12  C   UNL A   1      49.338  25.585  30.516  1.00  0.00     0.046 A 
ATOM     13  C   UNL A   1      47.718  26.179  32.260  1.00  0.00     0.018 A 
BRANCH   6  14
ATOM     14  C   UNL A   1      46.400  25.914  26.876  1.00  0.00     0.085 A 
ATOM     15  C   UNL A   1      43.058  22.491  26.004  1.00  0.00     0.060 A 
ATOM     16  C   UNL A   1      43.479  22.421  24.667  1.00  0.00     0.019 A 
ATOM     17  C   UNL A   1      43.645  23.421  26.876  1.00  0.00     0.027 A 
ATOM     18  C   UNL A   1      44.487  23.274  24.210  1.00  0.00     0.049 A 
ATOM     19  C   UNL A   1      44.670  24.258  26.425  1.00  0.00     0.019 A 
ATOM     20  C   UNL A   1      45.072  24.175  25.099  1.00  0.00     0.138 A 
ATOM     21  C   UNL A   1      45.375  25.163  27.315  1.00  0.00     0.027 A 
ATOM     22  O   UNL A   1      46.102  25.001  24.616  1.00  0.00    -0.422 OA
ATOM     23  C   UNL A   1      46.785  25.900  25.440  1.00  0.00     0.343 A 
ATOM     24  O   UNL A   1      47.658  26.626  24.974  1.00  0.00    -0.246 OA
BRANCH  15  25
ATOM     25  C   UNL A   1      42.006  21.595  26.554  1.00  0.00     0.337 C 
ATOM     26  O   UNL A   1      42.247  20.581  27.176  1.00  0.00    -0.246 OA
BRANCH  25  27
ATOM     27  O   UNL A   1      40.776  22.045  26.193  1.00  0.00    -0.465 OA
ATOM     28  C   UNL A   1      40.044  22.653  27.260  1.00  0.00     0.282 C 
ENDBRANCH  25  27
ENDBRANCH  15  25
ENDBRANCH   6  14
ENDBRANCH   3   5
ENDBRANCH   2   3
ENDBRANCH   1   2
BRANCH   1  29
ATOM     29  C   UNL A   1      48.392  24.482  35.316  1.00  0.00     0.275 C 
BRANCH  29  30
ATOM     30  O   UNL A   1      47.671  25.431  36.123  1.00  0.00    -0.458 OA
BRANCH  30  31
ATOM     31  C   UNL A   1      46.436  25.043  36.516  1.00  0.00     0.338 C 
ATOM     32  O   UNL A   1      46.142  24.354  37.476  1.00  0.00    -0.246 OA
BRANCH  31  33
ATOM     33  C   UNL A   1      45.440  25.730  35.682  1.00  0.00     0.060 A 
ATOM     34  C   UNL A   1      44.177  25.201  35.437  1.00  0.00     0.016 A 
ATOM     35  C   UNL A   1      45.777  26.993  35.201  1.00  0.00     0.016 A 
ATOM     36  C   UNL A   1      43.265  25.944  34.676  1.00  0.00     0.010 A 
ATOM     37  C   UNL A   1      44.863  27.748  34.474  1.00  0.00     0.010 A 
ATOM     38  C   UNL A   1      43.598  27.227  34.190  1.00  0.00    -0.014 A 
BRANCH  38  39
ATOM     39  C   UNL A   1      42.610  28.050  33.441  1.00  0.00     0.031 A 
ATOM     40  C   UNL A   1      42.414  27.883  31.958  1.00  0.00     0.074 A 
ATOM     41  C   UNL A   1      41.918  29.001  34.100  1.00  0.00     0.049 A 
ATOM     42  N   UNL A   1      41.539  28.466  31.175  1.00  0.00    -0.248 NA
ATOM     43  C   UNL A   1      43.327  26.968  31.254  1.00  0.00     0.031 C 
ATOM     44  C   UNL A   1      42.088  29.338  35.514  1.00  0.00     0.029 A 
ATOM     45  N   UNL A   1      40.924  29.847  33.672  1.00  0.00    -0.354 N 
ATOM     46  C   UNL A   1      41.801  27.996  29.894  1.00  0.00     0.074 A 
ATOM     47  C   UNL A   1      42.950  27.123  29.991  1.00  0.00     0.031 C 
ATOM     48  C   UNL A   1      41.188  30.272  35.852  1.00  0.00     0.029 A 
ATOM     49  C   UNL A   1      40.394  30.621  34.678  1.00  0.00     0.049 A 
ATOM     50  H   UNL A   1      40.620  29.895  32.737  1.00  0.00     0.167 HD
ATOM     51  C   UNL A   1      41.128  28.246  28.745  1.00  0.00     0.031 A 
ATOM     52  C   UNL A   1      39.367  31.493  34.667  1.00  0.00     0.031 A 
ATOM     53  C   UNL A   1      39.971  29.098  28.654  1.00  0.00     0.049 A 
ATOM     54  C   UNL A   1      38.598  31.712  33.394  1.00  0.00     0.074 A 
ATOM     55  C   UNL A   1      39.169  29.340  27.552  1.00  0.00     0.029 A 
ATOM     56  N   UNL A   1      39.454  29.844  29.700  1.00  0.00    -0.354 N 
ATOM     57  N   UNL A   1      38.784  31.168  32.216  1.00  0.00    -0.248 NA
ATOM     58  C   UNL A   1      37.463  32.647  33.453  1.00  0.00     0.031 C 
ATOM     59  C   UNL A   1      38.197  30.273  27.918  1.00  0.00     0.029 A 
ATOM     60  C   UNL A   1      38.354  30.562  29.264  1.00  0.00     0.049 A 
ATOM     61  H   UNL A   1      39.814  29.861  30.617  1.00  0.00     0.167 HD
ATOM     62  C   UNL A   1      37.784  31.679  31.400  1.00  0.00     0.074 A 
ATOM     63  C   UNL A   1      36.979  32.560  32.220  1.00  0.00     0.031 C 
ATOM     64  C   UNL A   1      37.557  31.436  30.087  1.00  0.00     0.031 A 
BRANCH  51  65
ATOM     65  C   UNL A   1      41.592  27.565  27.486  1.00  0.00    -0.014 A 
ATOM     66  C   UNL A   1      42.613  28.138  26.709  1.00  0.00     0.009 A 
ATOM     67  C   UNL A   1      40.941  26.417  27.005  1.00  0.00     0.009 A 
ATOM     68  C   UNL A   1      42.964  27.584  25.477  1.00  0.00     0.001 A 
ATOM     69  C   UNL A   1      41.315  25.847  25.787  1.00  0.00     0.001 A 
ATOM     70  C   UNL A   1      42.318  26.437  25.019  1.00  0.00     0.000 A 
ENDBRANCH  51  65
BRANCH  52  71
ATOM     71  C   UNL A   1      38.967  32.158  35.934  1.00  0.00    -0.014 A 
ATOM     72  C   UNL A   1      38.061  31.543  36.813  1.00  0.00     0.009 A 
ATOM     73  C   UNL A   1      39.440  33.444  36.237  1.00  0.00     0.009 A 
ATOM     74  C   UNL A   1      37.621  32.213  37.958  1.00  0.00     0.001 A 
ATOM     75  C   UNL A   1      39.020  34.099  37.397  1.00  0.00     0.001 A 
ATOM     76  C   UNL A   1      38.103  33.487  38.251  1.00  0.00     0.000 A 
ENDBRANCH  52  71
BRANCH  64  77
ATOM     77  C   UNL A   1      36.388  32.116  29.432  1.00  0.00    -0.014 A 
ATOM     78  C   UNL A   1      35.214  31.389  29.173  1.00  0.00     0.009 A 
ATOM     79  C   UNL A   1      36.489  33.434  28.961  1.00  0.00     0.009 A 
ATOM     80  C   UNL A   1      34.173  31.960  28.442  1.00  0.00     0.001 A 
ATOM     81  C   UNL A   1      35.434  34.012  28.254  1.00  0.00     0.001 A 
ATOM     82  C   UNL A   1      34.282  33.271  27.985  1.00  0.00     0.000 A 
ENDBRANCH  64  77
ENDBRANCH  38  39
ENDBRANCH  31  33
ENDBRANCH  30  31
ENDBRANCH  29  30
ENDBRANCH   1  29
TORSDOF 14
ENDMDL
