MODEL 1
REMARK VINA RESULT:     -11.3      0.000      0.000
REMARK SMILES CC[C@@](C)(NC(=O)[C@H]1Cc2[nH]cnc2C[NH2+]1)C(=O)OCCOC(=O)c1ccc(-c2c3nc(c(-c4ccccc4)c4ccc([nH]4)c(-c4ccccc4)c4nc(c(-c5ccccc5)c5ccc2[nH]5)C=C4)C=C3)cc1
REMARK SMILES IDX 20 1 19 2 17 3 18 4 3 5 4 6 2 7 1 8 5 9 6 10 7 12 8 13 9 14
REMARK SMILES IDX 16 15 10 16 15 17 11 20 14 21 12 22 13 24 21 25 22 26 23 27
REMARK SMILES IDX 24 28 25 29 26 30 72 31 27 32 71 33 28 34 29 35 30 36 65 37
REMARK SMILES IDX 31 38 70 39 64 40 66 41 32 42 69 43 63 44 62 45 33 47 55 48
REMARK SMILES IDX 40 49 54 50 41 51 44 52 53 53 67 54 42 55 43 56 52 58 68 59
REMARK SMILES IDX 45 60 34 61 35 62 39 63 36 64 38 65 37 66 56 67 57 68 61 69
REMARK SMILES IDX 58 70 60 71 59 72 46 73 47 74 51 75 48 76 50 77 49 78
REMARK H PARENT 5 11 16 18 16 19 11 23 66 46 44 57
REMARK Flexibility Score: inf
ROOT
ATOM      1  C   UNL A   1      31.417  32.247  26.464  1.00  0.00     0.274 C 
ENDROOT
BRANCH   1   2
ATOM      2  O   UNL A   1      31.843  31.085  27.204  1.00  0.00    -0.460 OA
BRANCH   2   3
ATOM      3  C   UNL A   1      33.018  30.535  26.813  1.00  0.00     0.331 C 
ATOM      4  O   UNL A   1      34.102  30.962  27.199  1.00  0.00    -0.249 OA
BRANCH   3   5
ATOM      5  C   UNL A   1      32.836  29.331  25.826  1.00  0.00     0.135 C 
ATOM      6  C   UNL A   1      34.130  28.509  26.058  1.00  0.00     0.047 C 
BRANCH   5   7
ATOM      7  C   UNL A   1      31.632  28.396  26.250  1.00  0.00     0.037 C 
ATOM      8  C   UNL A   1      31.655  27.826  27.678  1.00  0.00     0.007 C 
ENDBRANCH   5   7
BRANCH   5   9
ATOM      9  N   UNL A   1      32.826  29.628  24.314  1.00  0.00    -0.335 N 
ATOM     10  C   UNL A   1      32.600  28.773  23.252  1.00  0.00     0.279 C 
ATOM     11  H   UNL A   1      33.006  30.564  24.068  1.00  0.00     0.164 HD
ATOM     12  O   UNL A   1      33.585  28.184  22.784  1.00  0.00    -0.268 OA
BRANCH  10  13
ATOM     13  C   UNL A   1      31.259  28.807  22.412  1.00  0.00     0.278 C 
ATOM     14  C   UNL A   1      30.291  27.675  22.924  1.00  0.00     0.131 C 
ATOM     15  N   UNL A   1      30.734  30.189  22.210  1.00  0.00    -0.331 N 
ATOM     16  C   UNL A   1      28.880  28.133  22.921  1.00  0.00     0.050 A 
ATOM     17  C   UNL A   1      29.338  30.298  21.734  1.00  0.00     0.320 C 
ATOM     18  H   UNL A   1      31.333  30.651  21.525  1.00  0.00     0.347 HD
ATOM     19  H   UNL A   1      30.740  30.620  23.135  1.00  0.00     0.347 HD
ATOM     20  N   UNL A   1      27.782  27.543  23.475  1.00  0.00    -0.348 N 
ATOM     21  C   UNL A   1      28.447  29.343  22.443  1.00  0.00     0.116 A 
ATOM     22  C   UNL A   1      26.785  28.485  23.474  1.00  0.00     0.197 A 
ATOM     23  H   UNL A   1      27.717  26.620  23.809  1.00  0.00     0.167 HD
ATOM     24  N   UNL A   1      27.154  29.580  22.841  1.00  0.00    -0.236 NA
ENDBRANCH  10  13
ENDBRANCH   5   9
ENDBRANCH   3   5
ENDBRANCH   2   3
ENDBRANCH   1   2
BRANCH   1  25
ATOM     25  C   UNL A   1      32.122  33.470  27.037  1.00  0.00     0.275 C 
BRANCH  25  26
ATOM     26  O   UNL A   1      32.129  33.604  28.470  1.00  0.00    -0.458 OA
BRANCH  26  27
ATOM     27  C   UNL A   1      32.907  34.636  28.869  1.00  0.00     0.338 C 
ATOM     28  O   UNL A   1      32.650  35.813  28.719  1.00  0.00    -0.246 OA
BRANCH  27  29
ATOM     29  C   UNL A   1      34.299  34.288  29.134  1.00  0.00     0.060 A 
ATOM     30  C   UNL A   1      35.174  34.190  28.041  1.00  0.00     0.016 A 
ATOM     31  C   UNL A   1      34.594  33.692  30.359  1.00  0.00     0.016 A 
ATOM     32  C   UNL A   1      36.340  33.455  28.176  1.00  0.00     0.010 A 
ATOM     33  C   UNL A   1      35.731  32.915  30.475  1.00  0.00     0.010 A 
ATOM     34  C   UNL A   1      36.596  32.794  29.385  1.00  0.00    -0.014 A 
BRANCH  34  35
ATOM     35  C   UNL A   1      37.956  32.341  29.643  1.00  0.00     0.031 A 
ATOM     36  C   UNL A   1      38.091  30.895  29.310  1.00  0.00     0.074 A 
ATOM     37  C   UNL A   1      39.029  33.106  29.910  1.00  0.00     0.049 A 
ATOM     38  N   UNL A   1      38.285  29.913  30.125  1.00  0.00    -0.248 NA
ATOM     39  C   UNL A   1      37.762  30.481  27.932  1.00  0.00     0.031 C 
ATOM     40  C   UNL A   1      39.134  34.564  29.938  1.00  0.00     0.029 A 
ATOM     41  N   UNL A   1      40.318  32.702  30.096  1.00  0.00    -0.354 N 
ATOM     42  C   UNL A   1      38.270  28.770  29.333  1.00  0.00     0.074 A 
ATOM     43  C   UNL A   1      37.727  29.158  28.059  1.00  0.00     0.031 C 
ATOM     44  C   UNL A   1      40.444  34.913  29.890  1.00  0.00     0.029 A 
ATOM     45  C   UNL A   1      41.261  33.709  29.950  1.00  0.00     0.049 A 
ATOM     46  H   UNL A   1      40.558  31.772  30.316  1.00  0.00     0.167 HD
ATOM     47  C   UNL A   1      38.964  27.653  29.675  1.00  0.00     0.031 A 
ATOM     48  C   UNL A   1      42.603  33.543  29.816  1.00  0.00     0.031 A 
ATOM     49  C   UNL A   1      39.368  27.677  31.056  1.00  0.00     0.049 A 
ATOM     50  C   UNL A   1      42.939  32.173  30.273  1.00  0.00     0.074 A 
ATOM     51  C   UNL A   1      38.705  27.753  32.264  1.00  0.00     0.029 A 
ATOM     52  N   UNL A   1      40.672  28.024  31.314  1.00  0.00    -0.354 N 
ATOM     53  N   UNL A   1      42.873  31.793  31.515  1.00  0.00    -0.248 NA
ATOM     54  C   UNL A   1      42.932  31.099  29.291  1.00  0.00     0.031 C 
ATOM     55  C   UNL A   1      39.523  28.588  33.080  1.00  0.00     0.029 A 
ATOM     56  C   UNL A   1      40.664  28.921  32.348  1.00  0.00     0.049 A 
ATOM     57  H   UNL A   1      41.468  27.690  30.839  1.00  0.00     0.167 HD
ATOM     58  C   UNL A   1      42.367  30.503  31.461  1.00  0.00     0.074 A 
ATOM     59  C   UNL A   1      42.521  30.092  30.067  1.00  0.00     0.031 C 
ATOM     60  C   UNL A   1      41.614  30.003  32.483  1.00  0.00     0.031 A 
BRANCH  47  61
ATOM     61  C   UNL A   1      39.651  26.779  28.656  1.00  0.00    -0.014 A 
ATOM     62  C   UNL A   1      40.560  27.375  27.767  1.00  0.00     0.009 A 
ATOM     63  C   UNL A   1      39.232  25.468  28.346  1.00  0.00     0.009 A 
ATOM     64  C   UNL A   1      40.960  26.726  26.594  1.00  0.00     0.001 A 
ATOM     65  C   UNL A   1      39.666  24.799  27.201  1.00  0.00     0.001 A 
ATOM     66  C   UNL A   1      40.506  25.441  26.308  1.00  0.00     0.000 A 
ENDBRANCH  47  61
BRANCH  48  67
ATOM     67  C   UNL A   1      43.590  34.363  29.076  1.00  0.00    -0.014 A 
ATOM     68  C   UNL A   1      43.807  34.164  27.701  1.00  0.00     0.009 A 
ATOM     69  C   UNL A   1      44.114  35.533  29.655  1.00  0.00     0.009 A 
ATOM     70  C   UNL A   1      44.484  35.118  26.929  1.00  0.00     0.001 A 
ATOM     71  C   UNL A   1      44.793  36.485  28.885  1.00  0.00     0.001 A 
ATOM     72  C   UNL A   1      44.964  36.285  27.519  1.00  0.00     0.000 A 
ENDBRANCH  48  67
BRANCH  60  73
ATOM     73  C   UNL A   1      41.567  30.779  33.775  1.00  0.00    -0.014 A 
ATOM     74  C   UNL A   1      40.691  31.855  34.000  1.00  0.00     0.009 A 
ATOM     75  C   UNL A   1      42.335  30.310  34.851  1.00  0.00     0.009 A 
ATOM     76  C   UNL A   1      40.612  32.462  35.258  1.00  0.00     0.001 A 
ATOM     77  C   UNL A   1      42.239  30.900  36.112  1.00  0.00     0.001 A 
ATOM     78  C   UNL A   1      41.383  31.979  36.314  1.00  0.00     0.000 A 
ENDBRANCH  60  73
ENDBRANCH  34  35
ENDBRANCH  27  29
ENDBRANCH  26  27
ENDBRANCH  25  26
ENDBRANCH   1  25
TORSDOF 14
ENDMDL
MODEL 2
REMARK VINA RESULT:     -10.7      4.785      9.315
REMARK SMILES CC[C@@](C)(NC(=O)[C@H]1Cc2[nH]cnc2C[NH2+]1)C(=O)OCCOC(=O)c1ccc(-c2c3nc(c(-c4ccccc4)c4ccc([nH]4)c(-c4ccccc4)c4nc(c(-c5ccccc5)c5ccc2[nH]5)C=C4)C=C3)cc1
REMARK SMILES IDX 20 1 19 2 17 3 18 4 3 5 4 6 2 7 1 8 5 9 6 10 7 12 8 13 9 14
REMARK SMILES IDX 16 15 10 16 15 17 11 20 14 21 12 22 13 24 21 25 22 26 23 27
REMARK SMILES IDX 24 28 25 29 26 30 72 31 27 32 71 33 28 34 29 35 30 36 65 37
REMARK SMILES IDX 31 38 70 39 64 40 66 41 32 42 69 43 63 44 62 45 33 47 55 48
REMARK SMILES IDX 40 49 54 50 41 51 44 52 53 53 67 54 42 55 43 56 52 58 68 59
REMARK SMILES IDX 45 60 34 61 35 62 39 63 36 64 38 65 37 66 56 67 57 68 61 69
REMARK SMILES IDX 58 70 60 71 59 72 46 73 47 74 51 75 48 76 50 77 49 78
REMARK H PARENT 5 11 16 18 16 19 11 23 66 46 44 57
REMARK Flexibility Score: inf
ROOT
ATOM      1  C   UNL A   1      37.778  19.510  24.976  1.00  0.00     0.274 C 
ENDROOT
BRANCH   1   2
ATOM      2  O   UNL A   1      36.904  20.647  25.130  1.00  0.00    -0.460 OA
BRANCH   2   3
ATOM      3  C   UNL A   1      35.577  20.385  25.060  1.00  0.00     0.331 C 
ATOM      4  O   UNL A   1      35.141  19.309  24.661  1.00  0.00    -0.249 OA
BRANCH   3   5
ATOM      5  C   UNL A   1      34.686  21.589  25.522  1.00  0.00     0.135 C 
ATOM      6  C   UNL A   1      33.320  21.267  24.863  1.00  0.00     0.047 C 
BRANCH   5   7
ATOM      7  C   UNL A   1      34.440  21.576  27.085  1.00  0.00     0.037 C 
ATOM      8  C   UNL A   1      33.321  22.481  27.627  1.00  0.00     0.007 C 
ENDBRANCH   5   7
BRANCH   5   9
ATOM      9  N   UNL A   1      35.046  22.996  25.010  1.00  0.00    -0.335 N 
ATOM     10  C   UNL A   1      34.570  23.680  23.907  1.00  0.00     0.279 C 
ATOM     11  H   UNL A   1      35.713  23.482  25.548  1.00  0.00     0.164 HD
ATOM     12  O   UNL A   1      35.170  23.508  22.837  1.00  0.00    -0.268 OA
BRANCH  10  13
ATOM     13  C   UNL A   1      33.572  24.902  24.037  1.00  0.00     0.278 C 
ATOM     14  C   UNL A   1      33.637  25.477  25.502  1.00  0.00     0.131 C 
ATOM     15  N   UNL A   1      33.642  25.836  22.875  1.00  0.00    -0.331 N 
ATOM     16  C   UNL A   1      33.535  26.957  25.502  1.00  0.00     0.050 A 
ATOM     17  C   UNL A   1      33.003  27.157  23.057  1.00  0.00     0.320 C 
ATOM     18  H   UNL A   1      33.191  25.378  22.083  1.00  0.00     0.347 HD
ATOM     19  H   UNL A   1      34.634  26.030  22.742  1.00  0.00     0.347 HD
ATOM     20  N   UNL A   1      33.753  27.835  26.523  1.00  0.00    -0.348 N 
ATOM     21  C   UNL A   1      33.311  27.730  24.393  1.00  0.00     0.116 A 
ATOM     22  C   UNL A   1      33.834  29.084  25.960  1.00  0.00     0.197 A 
ATOM     23  H   UNL A   1      33.835  27.616  27.479  1.00  0.00     0.167 HD
ATOM     24  N   UNL A   1      33.554  29.053  24.673  1.00  0.00    -0.236 NA
ENDBRANCH  10  13
ENDBRANCH   5   9
ENDBRANCH   3   5
ENDBRANCH   2   3
ENDBRANCH   1   2
BRANCH   1  25
ATOM     25  C   UNL A   1      39.212  19.968  25.208  1.00  0.00     0.275 C 
BRANCH  25  26
ATOM     26  O   UNL A   1      40.083  19.054  25.898  1.00  0.00    -0.458 OA
BRANCH  26  27
ATOM     27  C   UNL A   1      41.382  19.404  25.760  1.00  0.00     0.338 C 
ATOM     28  O   UNL A   1      42.259  18.697  25.308  1.00  0.00    -0.246 OA
BRANCH  27  29
ATOM     29  C   UNL A   1      41.798  20.548  26.565  1.00  0.00     0.060 A 
ATOM     30  C   UNL A   1      41.127  20.784  27.774  1.00  0.00     0.016 A 
ATOM     31  C   UNL A   1      42.533  21.550  25.932  1.00  0.00     0.016 A 
ATOM     32  C   UNL A   1      41.167  22.051  28.331  1.00  0.00     0.010 A 
ATOM     33  C   UNL A   1      42.528  22.826  26.461  1.00  0.00     0.010 A 
ATOM     34  C   UNL A   1      41.843  23.075  27.653  1.00  0.00    -0.014 A 
BRANCH  34  35
ATOM     35  C   UNL A   1      42.188  24.277  28.397  1.00  0.00     0.031 A 
ATOM     36  C   UNL A   1      41.164  25.337  28.172  1.00  0.00     0.074 A 
ATOM     37  C   UNL A   1      43.133  24.401  29.346  1.00  0.00     0.049 A 
ATOM     38  N   UNL A   1      41.310  26.451  27.539  1.00  0.00    -0.248 NA
ATOM     39  C   UNL A   1      39.765  25.014  28.515  1.00  0.00     0.031 C 
ATOM     40  C   UNL A   1      43.996  23.372  29.923  1.00  0.00     0.029 A 
ATOM     41  N   UNL A   1      43.429  25.503  30.092  1.00  0.00    -0.354 N 
ATOM     42  C   UNL A   1      40.054  27.048  27.552  1.00  0.00     0.074 A 
ATOM     43  C   UNL A   1      39.119  26.033  27.956  1.00  0.00     0.031 C 
ATOM     44  C   UNL A   1      44.534  23.842  31.076  1.00  0.00     0.029 A 
ATOM     45  C   UNL A   1      44.149  25.236  31.248  1.00  0.00     0.049 A 
ATOM     46  H   UNL A   1      43.154  26.412  29.832  1.00  0.00     0.167 HD
ATOM     47  C   UNL A   1      39.901  28.398  27.507  1.00  0.00     0.031 A 
ATOM     48  C   UNL A   1      44.343  26.086  32.290  1.00  0.00     0.031 A 
ATOM     49  C   UNL A   1      41.108  29.057  27.084  1.00  0.00     0.049 A 
ATOM     50  C   UNL A   1      44.036  27.458  31.821  1.00  0.00     0.074 A 
ATOM     51  C   UNL A   1      41.898  29.012  25.953  1.00  0.00     0.029 A 
ATOM     52  N   UNL A   1      41.881  29.625  28.067  1.00  0.00    -0.354 N 
ATOM     53  N   UNL A   1      44.773  28.109  30.970  1.00  0.00    -0.248 NA
ATOM     54  C   UNL A   1      42.673  27.946  31.967  1.00  0.00     0.031 C 
ATOM     55  C   UNL A   1      43.235  29.115  26.435  1.00  0.00     0.029 A 
ATOM     56  C   UNL A   1      43.182  29.280  27.820  1.00  0.00     0.049 A 
ATOM     57  H   UNL A   1      41.557  30.179  28.815  1.00  0.00     0.167 HD
ATOM     58  C   UNL A   1      43.867  28.775  30.158  1.00  0.00     0.074 A 
ATOM     59  C   UNL A   1      42.597  28.721  30.881  1.00  0.00     0.031 C 
ATOM     60  C   UNL A   1      44.165  29.052  28.856  1.00  0.00     0.031 A 
BRANCH  47  61
ATOM     61  C   UNL A   1      38.822  29.119  28.275  1.00  0.00    -0.014 A 
ATOM     62  C   UNL A   1      38.803  29.002  29.674  1.00  0.00     0.009 A 
ATOM     63  C   UNL A   1      37.669  29.663  27.672  1.00  0.00     0.009 A 
ATOM     64  C   UNL A   1      37.663  29.333  30.415  1.00  0.00     0.001 A 
ATOM     65  C   UNL A   1      36.547  30.039  28.412  1.00  0.00     0.001 A 
ATOM     66  C   UNL A   1      36.533  29.844  29.782  1.00  0.00     0.000 A 
ENDBRANCH  47  61
BRANCH  48  67
ATOM     67  C   UNL A   1      44.511  25.792  33.732  1.00  0.00    -0.014 A 
ATOM     68  C   UNL A   1      43.717  24.821  34.367  1.00  0.00     0.009 A 
ATOM     69  C   UNL A   1      45.641  26.262  34.424  1.00  0.00     0.009 A 
ATOM     70  C   UNL A   1      44.066  24.309  35.625  1.00  0.00     0.001 A 
ATOM     71  C   UNL A   1      45.989  25.753  35.682  1.00  0.00     0.001 A 
ATOM     72  C   UNL A   1      45.210  24.765  36.275  1.00  0.00     0.000 A 
ENDBRANCH  48  67
BRANCH  60  73
ATOM     73  C   UNL A   1      45.589  28.858  28.399  1.00  0.00    -0.014 A 
ATOM     74  C   UNL A   1      46.558  29.876  28.432  1.00  0.00     0.009 A 
ATOM     75  C   UNL A   1      45.999  27.560  28.060  1.00  0.00     0.009 A 
ATOM     76  C   UNL A   1      47.891  29.607  28.105  1.00  0.00     0.001 A 
ATOM     77  C   UNL A   1      47.333  27.286  27.756  1.00  0.00     0.001 A 
ATOM     78  C   UNL A   1      48.278  28.309  27.772  1.00  0.00     0.000 A 
ENDBRANCH  60  73
ENDBRANCH  34  35
ENDBRANCH  27  29
ENDBRANCH  26  27
ENDBRANCH  25  26
ENDBRANCH   1  25
TORSDOF 14
ENDMDL
MODEL 3
REMARK VINA RESULT:     -10.7      4.782      8.900
REMARK SMILES CC[C@@](C)(NC(=O)[C@H]1Cc2[nH]cnc2C[NH2+]1)C(=O)OCCOC(=O)c1ccc(-c2c3nc(c(-c4ccccc4)c4ccc([nH]4)c(-c4ccccc4)c4nc(c(-c5ccccc5)c5ccc2[nH]5)C=C4)C=C3)cc1
REMARK SMILES IDX 20 1 19 2 17 3 18 4 3 5 4 6 2 7 1 8 5 9 6 10 7 12 8 13 9 14
REMARK SMILES IDX 16 15 10 16 15 17 11 20 14 21 12 22 13 24 21 25 22 26 23 27
REMARK SMILES IDX 24 28 25 29 26 30 72 31 27 32 71 33 28 34 29 35 30 36 65 37
REMARK SMILES IDX 31 38 70 39 64 40 66 41 32 42 69 43 63 44 62 45 33 47 55 48
REMARK SMILES IDX 40 49 54 50 41 51 44 52 53 53 67 54 42 55 43 56 52 58 68 59
REMARK SMILES IDX 45 60 34 61 35 62 39 63 36 64 38 65 37 66 56 67 57 68 61 69
REMARK SMILES IDX 58 70 60 71 59 72 46 73 47 74 51 75 48 76 50 77 49 78
REMARK H PARENT 5 11 16 18 16 19 11 23 66 46 44 57
REMARK Flexibility Score: inf
ROOT
ATOM      1  C   UNL A   1      34.201  34.173  29.511  1.00  0.00     0.274 C 
ENDROOT
BRANCH   1   2
ATOM      2  O   UNL A   1      32.999  34.952  29.680  1.00  0.00    -0.460 OA
BRANCH   2   3
ATOM      3  C   UNL A   1      33.173  36.208  30.156  1.00  0.00     0.331 C 
ATOM      4  O   UNL A   1      33.164  37.194  29.425  1.00  0.00    -0.249 OA
BRANCH   3   5
ATOM      5  C   UNL A   1      33.395  36.253  31.707  1.00  0.00     0.135 C 
ATOM      6  C   UNL A   1      33.152  37.748  32.038  1.00  0.00     0.047 C 
BRANCH   5   7
ATOM      7  C   UNL A   1      32.285  35.439  32.487  1.00  0.00     0.037 C 
ATOM      8  C   UNL A   1      31.017  36.201  32.904  1.00  0.00     0.007 C 
ENDBRANCH   5   7
BRANCH   5   9
ATOM      9  N   UNL A   1      34.807  35.957  32.247  1.00  0.00    -0.335 N 
ATOM     10  C   UNL A   1      35.219  35.002  33.158  1.00  0.00     0.279 C 
ATOM     11  H   UNL A   1      35.523  36.532  31.890  1.00  0.00     0.164 HD
ATOM     12  O   UNL A   1      35.198  35.320  34.355  1.00  0.00    -0.268 OA
BRANCH  10  13
ATOM     13  C   UNL A   1      36.032  33.716  32.722  1.00  0.00     0.278 C 
ATOM     14  C   UNL A   1      37.219  34.141  31.778  1.00  0.00     0.131 C 
ATOM     15  N   UNL A   1      36.291  32.781  33.856  1.00  0.00    -0.331 N 
ATOM     16  C   UNL A   1      38.434  33.333  32.046  1.00  0.00     0.050 A 
ATOM     17  C   UNL A   1      37.310  31.734  33.622  1.00  0.00     0.320 C 
ATOM     18  H   UNL A   1      35.413  32.314  34.080  1.00  0.00     0.347 HD
ATOM     19  H   UNL A   1      36.665  33.361  34.607  1.00  0.00     0.347 HD
ATOM     20  N   UNL A   1      39.709  33.522  31.600  1.00  0.00    -0.348 N 
ATOM     21  C   UNL A   1      38.502  32.283  32.924  1.00  0.00     0.116 A 
ATOM     22  C   UNL A   1      40.516  32.711  32.356  1.00  0.00     0.197 A 
ATOM     23  H   UNL A   1      39.995  34.123  30.876  1.00  0.00     0.167 HD
ATOM     24  N   UNL A   1      39.811  31.937  33.156  1.00  0.00    -0.236 NA
ENDBRANCH  10  13
ENDBRANCH   5   9
ENDBRANCH   3   5
ENDBRANCH   2   3
ENDBRANCH   1   2
BRANCH   1  25
ATOM     25  C   UNL A   1      34.267  33.695  28.066  1.00  0.00     0.275 C 
BRANCH  25  26
ATOM     26  O   UNL A   1      35.455  32.986  27.670  1.00  0.00    -0.458 OA
BRANCH  26  27
ATOM     27  C   UNL A   1      35.392  31.679  28.013  1.00  0.00     0.338 C 
ATOM     28  O   UNL A   1      34.452  31.137  28.558  1.00  0.00    -0.246 OA
BRANCH  27  29
ATOM     29  C   UNL A   1      36.681  30.998  28.076  1.00  0.00     0.060 A 
ATOM     30  C   UNL A   1      36.713  29.621  27.809  1.00  0.00     0.016 A 
ATOM     31  C   UNL A   1      37.712  31.630  28.770  1.00  0.00     0.016 A 
ATOM     32  C   UNL A   1      37.779  28.869  28.276  1.00  0.00     0.010 A 
ATOM     33  C   UNL A   1      38.746  30.870  29.281  1.00  0.00     0.010 A 
ATOM     34  C   UNL A   1      38.775  29.495  29.038  1.00  0.00    -0.014 A 
BRANCH  34  35
ATOM     35  C   UNL A   1      40.043  28.800  29.209  1.00  0.00     0.031 A 
ATOM     36  C   UNL A   1      40.377  28.681  30.657  1.00  0.00     0.074 A 
ATOM     37  C   UNL A   1      40.735  28.132  28.269  1.00  0.00     0.049 A 
ATOM     38  N   UNL A   1      41.335  29.265  31.294  1.00  0.00    -0.248 NA
ATOM     39  C   UNL A   1      39.400  27.997  31.526  1.00  0.00     0.031 C 
ATOM     40  C   UNL A   1      40.375  27.867  26.878  1.00  0.00     0.029 A 
ATOM     41  N   UNL A   1      41.893  27.429  28.426  1.00  0.00    -0.354 N 
ATOM     42  C   UNL A   1      41.179  28.883  32.623  1.00  0.00     0.074 A 
ATOM     43  C   UNL A   1      39.867  28.304  32.733  1.00  0.00     0.031 C 
ATOM     44  C   UNL A   1      41.165  26.874  26.398  1.00  0.00     0.029 A 
ATOM     45  C   UNL A   1      42.156  26.525  27.407  1.00  0.00     0.049 A 
ATOM     46  H   UNL A   1      42.491  27.553  29.199  1.00  0.00     0.167 HD
ATOM     47  C   UNL A   1      42.234  28.806  33.475  1.00  0.00     0.031 A 
ATOM     48  C   UNL A   1      43.075  25.524  27.435  1.00  0.00     0.031 A 
ATOM     49  C   UNL A   1      43.387  29.496  32.961  1.00  0.00     0.049 A 
ATOM     50  C   UNL A   1      44.027  25.813  28.534  1.00  0.00     0.074 A 
ATOM     51  C   UNL A   1      43.658  30.798  32.589  1.00  0.00     0.029 A 
ATOM     52  N   UNL A   1      44.367  28.723  32.387  1.00  0.00    -0.354 N 
ATOM     53  N   UNL A   1      44.885  26.791  28.503  1.00  0.00    -0.248 NA
ATOM     54  C   UNL A   1      43.735  25.281  29.856  1.00  0.00     0.031 C 
ATOM     55  C   UNL A   1      44.495  30.684  31.441  1.00  0.00     0.029 A 
ATOM     56  C   UNL A   1      44.737  29.328  31.216  1.00  0.00     0.049 A 
ATOM     57  H   UNL A   1      44.735  27.885  32.752  1.00  0.00     0.167 HD
ATOM     58  C   UNL A   1      44.893  27.291  29.797  1.00  0.00     0.074 A 
ATOM     59  C   UNL A   1      44.247  26.260  30.608  1.00  0.00     0.031 C 
ATOM     60  C   UNL A   1      45.161  28.607  30.037  1.00  0.00     0.031 A 
BRANCH  47  61
ATOM     61  C   UNL A   1      42.347  27.737  34.534  1.00  0.00    -0.014 A 
ATOM     62  C   UNL A   1      42.746  26.448  34.144  1.00  0.00     0.009 A 
ATOM     63  C   UNL A   1      41.808  27.866  35.830  1.00  0.00     0.009 A 
ATOM     64  C   UNL A   1      42.537  25.342  34.975  1.00  0.00     0.001 A 
ATOM     65  C   UNL A   1      41.642  26.772  36.681  1.00  0.00     0.001 A 
ATOM     66  C   UNL A   1      41.978  25.504  36.239  1.00  0.00     0.000 A 
ENDBRANCH  47  61
BRANCH  48  67
ATOM     67  C   UNL A   1      43.052  24.198  26.775  1.00  0.00    -0.014 A 
ATOM     68  C   UNL A   1      44.158  23.741  26.037  1.00  0.00     0.009 A 
ATOM     69  C   UNL A   1      42.057  23.261  27.105  1.00  0.00     0.009 A 
ATOM     70  C   UNL A   1      44.283  22.391  25.681  1.00  0.00     0.001 A 
ATOM     71  C   UNL A   1      42.179  21.912  26.746  1.00  0.00     0.001 A 
ATOM     72  C   UNL A   1      43.301  21.475  26.049  1.00  0.00     0.000 A 
ENDBRANCH  48  67
BRANCH  60  73
ATOM     73  C   UNL A   1      45.704  29.438  28.902  1.00  0.00    -0.014 A 
ATOM     74  C   UNL A   1      44.890  30.079  27.953  1.00  0.00     0.009 A 
ATOM     75  C   UNL A   1      47.082  29.699  28.881  1.00  0.00     0.009 A 
ATOM     76  C   UNL A   1      45.445  30.931  26.992  1.00  0.00     0.001 A 
ATOM     77  C   UNL A   1      47.634  30.567  27.938  1.00  0.00     0.001 A 
ATOM     78  C   UNL A   1      46.817  31.178  26.989  1.00  0.00     0.000 A 
ENDBRANCH  60  73
ENDBRANCH  34  35
ENDBRANCH  27  29
ENDBRANCH  26  27
ENDBRANCH  25  26
ENDBRANCH   1  25
TORSDOF 14
ENDMDL
