MODEL 1
REMARK VINA RESULT:     -13.1      0.000      0.000
REMARK SMILES O=C(OCCOC(=O)[C@H]1CCCN(c2cc(-c3ccccn3)nc(-c3ccccc3F)n2)C1)c1ccc(-c2c3nc(c(-c4ccccc4)c4ccc([nH]4)c(-c4ccccc4)c4nc(c(-c5ccccc5)c5ccc2[nH]5)C=C4)C=C3)cc1
REMARK SMILES IDX 4 1 3 2 2 3 1 4 34 5 35 6 81 7 36 8 80 9 37 10 38 11 39 12
REMARK SMILES IDX 74 13 40 14 79 15 73 16 75 17 41 18 78 19 72 20 71 21 42 23
REMARK SMILES IDX 64 24 49 25 63 26 50 27 53 28 62 29 76 30 51 31 52 32 61 34
REMARK SMILES IDX 77 35 54 36 43 37 44 38 48 39 45 40 47 41 46 42 65 43 66 44
REMARK SMILES IDX 70 45 67 46 69 47 68 48 55 49 56 50 60 51 57 52 59 53 58 54
REMARK SMILES IDX 5 55 6 56 7 57 8 58 9 59 10 60 33 61 11 62 13 63 12 64 14 65
REMARK SMILES IDX 15 66 32 67 16 68 24 69 23 70 17 71 18 72 22 73 19 74 21 75
REMARK SMILES IDX 20 76 25 77 26 78 30 79 27 80 29 81 31 82 28 83
REMARK H PARENT 75 22 53 33
REMARK Flexibility Score: inf
ROOT
ATOM      1  C   UNL A   1      43.630  21.151  25.230  1.00  0.00     0.275 C 
ENDROOT
BRANCH   1   2
ATOM      2  O   UNL A   1      43.256  22.454  24.745  1.00  0.00    -0.458 OA
BRANCH   2   3
ATOM      3  C   UNL A   1      43.883  23.649  24.878  1.00  0.00     0.338 C 
ATOM      4  O   UNL A   1      44.895  23.856  24.209  1.00  0.00    -0.246 OA
BRANCH   3   5
ATOM      5  C   UNL A   1      43.510  24.682  25.901  1.00  0.00     0.060 A 
ATOM      6  C   UNL A   1      44.012  25.986  25.985  1.00  0.00     0.016 A 
ATOM      7  C   UNL A   1      42.540  24.296  26.844  1.00  0.00     0.016 A 
ATOM      8  C   UNL A   1      43.491  26.912  26.901  1.00  0.00     0.010 A 
ATOM      9  C   UNL A   1      42.018  25.215  27.760  1.00  0.00     0.010 A 
ATOM     10  C   UNL A   1      42.479  26.540  27.782  1.00  0.00    -0.014 A 
BRANCH  10  11
ATOM     11  C   UNL A   1      42.000  27.458  28.842  1.00  0.00     0.031 A 
ATOM     12  C   UNL A   1      42.618  27.330  30.198  1.00  0.00     0.074 A 
ATOM     13  C   UNL A   1      41.024  28.364  28.633  1.00  0.00     0.049 A 
ATOM     14  N   UNL A   1      42.320  27.973  31.295  1.00  0.00    -0.248 NA
ATOM     15  C   UNL A   1      43.761  26.407  30.324  1.00  0.00     0.031 C 
ATOM     16  C   UNL A   1      40.452  28.735  27.345  1.00  0.00     0.029 A 
ATOM     17  N   UNL A   1      40.275  29.086  29.532  1.00  0.00    -0.354 N 
ATOM     18  C   UNL A   1      43.283  27.591  32.215  1.00  0.00     0.074 A 
ATOM     19  C   UNL A   1      44.116  26.593  31.585  1.00  0.00     0.031 C 
ATOM     20  C   UNL A   1      39.324  29.440  27.541  1.00  0.00     0.029 A 
ATOM     21  C   UNL A   1      39.136  29.625  28.971  1.00  0.00     0.049 A 
ATOM     22  H   UNL A   1      40.524  29.205  30.477  1.00  0.00     0.167 HD
ATOM     23  C   UNL A   1      43.481  28.081  33.457  1.00  0.00     0.031 A 
ATOM     24  C   UNL A   1      38.058  30.180  29.553  1.00  0.00     0.031 A 
ATOM     25  C   UNL A   1      42.611  29.036  34.082  1.00  0.00     0.049 A 
ATOM     26  C   UNL A   1      38.138  30.487  31.020  1.00  0.00     0.074 A 
ATOM     27  C   UNL A   1      42.732  29.634  35.321  1.00  0.00     0.029 A 
ATOM     28  N   UNL A   1      41.431  29.499  33.521  1.00  0.00    -0.354 N 
ATOM     29  N   UNL A   1      39.115  30.224  31.855  1.00  0.00    -0.248 NA
ATOM     30  C   UNL A   1      37.024  31.241  31.608  1.00  0.00     0.031 C 
ATOM     31  C   UNL A   1      41.581  30.397  35.543  1.00  0.00     0.029 A 
ATOM     32  C   UNL A   1      40.776  30.324  34.416  1.00  0.00     0.049 A 
ATOM     33  H   UNL A   1      41.107  29.275  32.618  1.00  0.00     0.167 HD
ATOM     34  C   UNL A   1      38.777  30.857  33.040  1.00  0.00     0.074 A 
ATOM     35  C   UNL A   1      37.490  31.487  32.827  1.00  0.00     0.031 C 
ATOM     36  C   UNL A   1      39.495  30.942  34.187  1.00  0.00     0.031 A 
BRANCH  23  37
ATOM     37  C   UNL A   1      44.674  27.570  34.204  1.00  0.00    -0.014 A 
ATOM     38  C   UNL A   1      45.922  28.208  34.095  1.00  0.00     0.009 A 
ATOM     39  C   UNL A   1      44.555  26.436  35.019  1.00  0.00     0.009 A 
ATOM     40  C   UNL A   1      47.036  27.698  34.763  1.00  0.00     0.001 A 
ATOM     41  C   UNL A   1      45.666  25.942  35.704  1.00  0.00     0.001 A 
ATOM     42  C   UNL A   1      46.906  26.567  35.568  1.00  0.00     0.000 A 
ENDBRANCH  23  37
BRANCH  24  43
ATOM     43  C   UNL A   1      36.833  30.496  28.771  1.00  0.00    -0.014 A 
ATOM     44  C   UNL A   1      36.490  31.817  28.451  1.00  0.00     0.009 A 
ATOM     45  C   UNL A   1      35.958  29.462  28.393  1.00  0.00     0.009 A 
ATOM     46  C   UNL A   1      35.280  32.102  27.810  1.00  0.00     0.001 A 
ATOM     47  C   UNL A   1      34.757  29.748  27.736  1.00  0.00     0.001 A 
ATOM     48  C   UNL A   1      34.414  31.069  27.455  1.00  0.00     0.000 A 
ENDBRANCH  24  43
BRANCH  36  49
ATOM     49  C   UNL A   1      38.927  31.784  35.288  1.00  0.00    -0.014 A 
ATOM     50  C   UNL A   1      38.222  31.208  36.354  1.00  0.00     0.009 A 
ATOM     51  C   UNL A   1      39.166  33.167  35.289  1.00  0.00     0.009 A 
ATOM     52  C   UNL A   1      37.751  32.009  37.395  1.00  0.00     0.001 A 
ATOM     53  C   UNL A   1      38.723  33.959  36.348  1.00  0.00     0.001 A 
ATOM     54  C   UNL A   1      38.011  33.380  37.396  1.00  0.00     0.000 A 
ENDBRANCH  36  49
ENDBRANCH  10  11
ENDBRANCH   3   5
ENDBRANCH   2   3
ENDBRANCH   1   2
BRANCH   1  55
ATOM     55  C   UNL A   1      42.612  20.517  26.179  1.00  0.00     0.274 C 
BRANCH  55  56
ATOM     56  O   UNL A   1      41.356  21.205  26.141  1.00  0.00    -0.462 OA
BRANCH  56  57
ATOM     57  C   UNL A   1      40.233  20.434  26.006  1.00  0.00     0.310 C 
ATOM     58  O   UNL A   1      40.233  19.226  25.844  1.00  0.00    -0.252 OA
BRANCH  57  59
ATOM     59  C   UNL A   1      38.995  21.296  26.156  1.00  0.00     0.118 C 
ATOM     60  C   UNL A   1      39.374  22.755  26.431  1.00  0.00     0.019 C 
ATOM     61  C   UNL A   1      38.077  21.169  24.947  1.00  0.00     0.133 C 
ATOM     62  C   UNL A   1      38.145  23.659  26.501  1.00  0.00     0.022 C 
ATOM     63  N   UNL A   1      37.012  22.158  25.033  1.00  0.00    -0.356 N 
ATOM     64  C   UNL A   1      37.341  23.554  25.225  1.00  0.00     0.118 C 
BRANCH  63  65
ATOM     65  C   UNL A   1      35.688  21.803  24.937  1.00  0.00     0.133 A 
ATOM     66  C   UNL A   1      35.389  20.464  24.875  1.00  0.00     0.077 A 
ATOM     67  N   UNL A   1      34.736  22.744  24.874  1.00  0.00    -0.211 NA
ATOM     68  C   UNL A   1      34.065  20.100  24.795  1.00  0.00     0.095 A 
ATOM     69  C   UNL A   1      33.466  22.304  24.746  1.00  0.00     0.165 A 
ATOM     70  N   UNL A   1      33.083  21.015  24.708  1.00  0.00    -0.226 NA
BRANCH  68  71
ATOM     71  C   UNL A   1      33.716  18.679  24.876  1.00  0.00     0.089 A 
ATOM     72  C   UNL A   1      34.380  17.749  24.068  1.00  0.00     0.030 A 
ATOM     73  N   UNL A   1      32.654  18.336  25.645  1.00  0.00    -0.255 NA
ATOM     74  C   UNL A   1      33.937  16.433  24.035  1.00  0.00     0.004 A 
ATOM     75  C   UNL A   1      32.257  17.045  25.608  1.00  0.00     0.112 A 
ATOM     76  C   UNL A   1      32.852  16.071  24.821  1.00  0.00     0.020 A 
ENDBRANCH  68  71
BRANCH  69  77
ATOM     77  C   UNL A   1      32.412  23.300  24.588  1.00  0.00     0.055 A 
ATOM     78  C   UNL A   1      31.658  23.394  23.403  1.00  0.00     0.015 A 
ATOM     79  C   UNL A   1      32.082  24.159  25.640  1.00  0.00     0.134 A 
ATOM     80  C   UNL A   1      30.598  24.302  23.295  1.00  0.00     0.001 A 
ATOM     81  C   UNL A   1      31.033  25.072  25.538  1.00  0.00     0.040 A 
ATOM     82  F   UNL A   1      32.780  24.124  26.786  1.00  0.00    -0.206 F 
ATOM     83  C   UNL A   1      30.283  25.139  24.366  1.00  0.00     0.003 A 
ENDBRANCH  69  77
ENDBRANCH  63  65
ENDBRANCH  57  59
ENDBRANCH  56  57
ENDBRANCH  55  56
ENDBRANCH   1  55
TORSDOF 14
ENDMDL
MODEL 2
REMARK VINA RESULT:     -12.9      0.808      3.033
REMARK SMILES O=C(OCCOC(=O)[C@H]1CCCN(c2cc(-c3ccccn3)nc(-c3ccccc3F)n2)C1)c1ccc(-c2c3nc(c(-c4ccccc4)c4ccc([nH]4)c(-c4ccccc4)c4nc(c(-c5ccccc5)c5ccc2[nH]5)C=C4)C=C3)cc1
REMARK SMILES IDX 4 1 3 2 2 3 1 4 34 5 35 6 81 7 36 8 80 9 37 10 38 11 39 12
REMARK SMILES IDX 74 13 40 14 79 15 73 16 75 17 41 18 78 19 72 20 71 21 42 23
REMARK SMILES IDX 64 24 49 25 63 26 50 27 53 28 62 29 76 30 51 31 52 32 61 34
REMARK SMILES IDX 77 35 54 36 43 37 44 38 48 39 45 40 47 41 46 42 65 43 66 44
REMARK SMILES IDX 70 45 67 46 69 47 68 48 55 49 56 50 60 51 57 52 59 53 58 54
REMARK SMILES IDX 5 55 6 56 7 57 8 58 9 59 10 60 33 61 11 62 13 63 12 64 14 65
REMARK SMILES IDX 15 66 32 67 16 68 24 69 23 70 17 71 18 72 22 73 19 74 21 75
REMARK SMILES IDX 20 76 25 77 26 78 30 79 27 80 29 81 31 82 28 83
REMARK H PARENT 75 22 53 33
REMARK Flexibility Score: inf
ROOT
ATOM      1  C   UNL A   1      43.460  21.102  25.390  1.00  0.00     0.275 C 
ENDROOT
BRANCH   1   2
ATOM      2  O   UNL A   1      43.052  22.368  24.837  1.00  0.00    -0.458 OA
BRANCH   2   3
ATOM      3  C   UNL A   1      43.654  23.581  24.894  1.00  0.00     0.338 C 
ATOM      4  O   UNL A   1      44.626  23.786  24.170  1.00  0.00    -0.246 OA
BRANCH   3   5
ATOM      5  C   UNL A   1      43.303  24.644  25.896  1.00  0.00     0.060 A 
ATOM      6  C   UNL A   1      43.812  25.947  25.935  1.00  0.00     0.016 A 
ATOM      7  C   UNL A   1      42.349  24.287  26.866  1.00  0.00     0.016 A 
ATOM      8  C   UNL A   1      43.311  26.900  26.835  1.00  0.00     0.010 A 
ATOM      9  C   UNL A   1      41.847  25.233  27.766  1.00  0.00     0.010 A 
ATOM     10  C   UNL A   1      42.313  26.557  27.744  1.00  0.00    -0.014 A 
BRANCH  10  11
ATOM     11  C   UNL A   1      41.858  27.505  28.787  1.00  0.00     0.031 A 
ATOM     12  C   UNL A   1      42.504  27.415  30.133  1.00  0.00     0.074 A 
ATOM     13  C   UNL A   1      40.879  28.406  28.572  1.00  0.00     0.049 A 
ATOM     14  N   UNL A   1      42.228  28.088  31.216  1.00  0.00    -0.248 NA
ATOM     15  C   UNL A   1      43.647  26.494  30.261  1.00  0.00     0.031 C 
ATOM     16  C   UNL A   1      40.282  28.742  27.286  1.00  0.00     0.029 A 
ATOM     17  N   UNL A   1      40.149  29.155  29.465  1.00  0.00    -0.354 N 
ATOM     18  C   UNL A   1      43.209  27.732  32.127  1.00  0.00     0.074 A 
ATOM     19  C   UNL A   1      44.028  26.714  31.510  1.00  0.00     0.031 C 
ATOM     20  C   UNL A   1      39.158  29.454  27.484  1.00  0.00     0.029 A 
ATOM     21  C   UNL A   1      39.000  29.680  28.912  1.00  0.00     0.049 A 
ATOM     22  H   UNL A   1      40.417  29.300  30.401  1.00  0.00     0.167 HD
ATOM     23  C   UNL A   1      43.433  28.256  33.351  1.00  0.00     0.031 A 
ATOM     24  C   UNL A   1      37.935  30.254  29.500  1.00  0.00     0.031 A 
ATOM     25  C   UNL A   1      42.578  29.230  33.966  1.00  0.00     0.049 A 
ATOM     26  C   UNL A   1      38.045  30.602  30.956  1.00  0.00     0.074 A 
ATOM     27  C   UNL A   1      42.725  29.862  35.185  1.00  0.00     0.029 A 
ATOM     28  N   UNL A   1      41.387  29.680  33.416  1.00  0.00    -0.354 N 
ATOM     29  N   UNL A   1      39.038  30.361  31.778  1.00  0.00    -0.248 NA
ATOM     30  C   UNL A   1      36.945  31.375  31.545  1.00  0.00     0.031 C 
ATOM     31  C   UNL A   1      41.580  30.634  35.409  1.00  0.00     0.029 A 
ATOM     32  C   UNL A   1      40.752  30.530  34.301  1.00  0.00     0.049 A 
ATOM     33  H   UNL A   1      41.045  29.430  32.526  1.00  0.00     0.167 HD
ATOM     34  C   UNL A   1      38.726  31.028  32.951  1.00  0.00     0.074 A 
ATOM     35  C   UNL A   1      37.435  31.654  32.746  1.00  0.00     0.031 C 
ATOM     36  C   UNL A   1      39.467  31.144  34.080  1.00  0.00     0.031 A 
BRANCH  23  37
ATOM     37  C   UNL A   1      44.641  27.764  34.087  1.00  0.00    -0.014 A 
ATOM     38  C   UNL A   1      44.561  26.657  34.949  1.00  0.00     0.009 A 
ATOM     39  C   UNL A   1      45.871  28.417  33.926  1.00  0.00     0.009 A 
ATOM     40  C   UNL A   1      45.686  26.235  35.661  1.00  0.00     0.001 A 
ATOM     41  C   UNL A   1      46.998  27.978  34.621  1.00  0.00     0.001 A 
ATOM     42  C   UNL A   1      46.902  26.895  35.494  1.00  0.00     0.000 A 
ENDBRANCH  23  37
BRANCH  24  43
ATOM     43  C   UNL A   1      36.695  30.550  28.735  1.00  0.00    -0.014 A 
ATOM     44  C   UNL A   1      36.330  31.865  28.412  1.00  0.00     0.009 A 
ATOM     45  C   UNL A   1      35.827  29.503  28.376  1.00  0.00     0.009 A 
ATOM     46  C   UNL A   1      35.108  32.130  27.787  1.00  0.00     0.001 A 
ATOM     47  C   UNL A   1      34.613  29.770  27.734  1.00  0.00     0.001 A 
ATOM     48  C   UNL A   1      34.249  31.085  27.451  1.00  0.00     0.000 A 
ENDBRANCH  24  43
BRANCH  36  49
ATOM     49  C   UNL A   1      38.923  32.018  35.168  1.00  0.00    -0.014 A 
ATOM     50  C   UNL A   1      38.210  31.478  36.247  1.00  0.00     0.009 A 
ATOM     51  C   UNL A   1      39.193  33.396  35.144  1.00  0.00     0.009 A 
ATOM     52  C   UNL A   1      37.760  32.307  37.276  1.00  0.00     0.001 A 
ATOM     53  C   UNL A   1      38.773  34.216  36.190  1.00  0.00     0.001 A 
ATOM     54  C   UNL A   1      38.052  33.672  37.251  1.00  0.00     0.000 A 
ENDBRANCH  36  49
ENDBRANCH  10  11
ENDBRANCH   3   5
ENDBRANCH   2   3
ENDBRANCH   1   2
BRANCH   1  55
ATOM     55  C   UNL A   1      42.496  20.530  26.431  1.00  0.00     0.274 C 
BRANCH  55  56
ATOM     56  O   UNL A   1      41.220  21.179  26.380  1.00  0.00    -0.462 OA
BRANCH  56  57
ATOM     57  C   UNL A   1      40.156  20.420  25.975  1.00  0.00     0.310 C 
ATOM     58  O   UNL A   1      40.224  19.250  25.636  1.00  0.00    -0.252 OA
BRANCH  57  59
ATOM     59  C   UNL A   1      38.878  21.228  26.075  1.00  0.00     0.118 C 
ATOM     60  C   UNL A   1      39.184  22.715  26.285  1.00  0.00     0.019 C 
ATOM     61  C   UNL A   1      37.978  21.001  24.867  1.00  0.00     0.133 C 
ATOM     62  C   UNL A   1      37.914  23.561  26.303  1.00  0.00     0.022 C 
ATOM     63  N   UNL A   1      36.866  21.941  24.898  1.00  0.00    -0.356 N 
ATOM     64  C   UNL A   1      37.127  23.358  25.027  1.00  0.00     0.118 C 
BRANCH  63  65
ATOM     65  C   UNL A   1      35.562  21.520  24.809  1.00  0.00     0.133 A 
ATOM     66  C   UNL A   1      34.577  22.476  24.848  1.00  0.00     0.077 A 
ATOM     67  N   UNL A   1      35.276  20.213  24.718  1.00  0.00    -0.211 NA
ATOM     68  C   UNL A   1      33.270  22.063  24.743  1.00  0.00     0.095 A 
ATOM     69  C   UNL A   1      33.967  19.889  24.669  1.00  0.00     0.165 A 
ATOM     70  N   UNL A   1      32.942  20.761  24.672  1.00  0.00    -0.226 NA
BRANCH  68  71
ATOM     71  C   UNL A   1      32.215  23.075  24.635  1.00  0.00     0.089 A 
ATOM     72  C   UNL A   1      31.762  23.481  23.374  1.00  0.00     0.030 A 
ATOM     73  N   UNL A   1      31.811  23.686  25.776  1.00  0.00    -0.255 NA
ATOM     74  C   UNL A   1      30.880  24.549  23.276  1.00  0.00     0.004 A 
ATOM     75  C   UNL A   1      30.937  24.708  25.651  1.00  0.00     0.112 A 
ATOM     76  C   UNL A   1      30.458  25.178  24.438  1.00  0.00     0.020 A 
ENDBRANCH  68  71
BRANCH  69  77
ATOM     77  C   UNL A   1      33.614  18.473  24.657  1.00  0.00     0.055 A 
ATOM     78  C   UNL A   1      34.007  17.624  23.606  1.00  0.00     0.015 A 
ATOM     79  C   UNL A   1      32.917  17.905  25.727  1.00  0.00     0.134 A 
ATOM     80  C   UNL A   1      33.729  16.252  23.646  1.00  0.00     0.001 A 
ATOM     81  C   UNL A   1      32.628  16.542  25.771  1.00  0.00     0.040 A 
ATOM     82  F   UNL A   1      32.502  18.672  26.748  1.00  0.00    -0.206 F 
ATOM     83  C   UNL A   1      33.042  15.711  24.733  1.00  0.00     0.003 A 
ENDBRANCH  69  77
ENDBRANCH  63  65
ENDBRANCH  57  59
ENDBRANCH  56  57
ENDBRANCH  55  56
ENDBRANCH   1  55
TORSDOF 14
ENDMDL
MODEL 3
REMARK VINA RESULT:     -12.7      5.135     10.118
REMARK SMILES O=C(OCCOC(=O)[C@H]1CCCN(c2cc(-c3ccccn3)nc(-c3ccccc3F)n2)C1)c1ccc(-c2c3nc(c(-c4ccccc4)c4ccc([nH]4)c(-c4ccccc4)c4nc(c(-c5ccccc5)c5ccc2[nH]5)C=C4)C=C3)cc1
REMARK SMILES IDX 4 1 3 2 2 3 1 4 34 5 35 6 81 7 36 8 80 9 37 10 38 11 39 12
REMARK SMILES IDX 74 13 40 14 79 15 73 16 75 17 41 18 78 19 72 20 71 21 42 23
REMARK SMILES IDX 64 24 49 25 63 26 50 27 53 28 62 29 76 30 51 31 52 32 61 34
REMARK SMILES IDX 77 35 54 36 43 37 44 38 48 39 45 40 47 41 46 42 65 43 66 44
REMARK SMILES IDX 70 45 67 46 69 47 68 48 55 49 56 50 60 51 57 52 59 53 58 54
REMARK SMILES IDX 5 55 6 56 7 57 8 58 9 59 10 60 33 61 11 62 13 63 12 64 14 65
REMARK SMILES IDX 15 66 32 67 16 68 24 69 23 70 17 71 18 72 22 73 19 74 21 75
REMARK SMILES IDX 20 76 25 77 26 78 30 79 27 80 29 81 31 82 28 83
REMARK H PARENT 75 22 53 33
REMARK Flexibility Score: inf
ROOT
ATOM      1  C   UNL A   1      34.226  34.407  31.150  1.00  0.00     0.275 C 
ENDROOT
BRANCH   1   2
ATOM      2  O   UNL A   1      34.382  33.039  31.573  1.00  0.00    -0.458 OA
BRANCH   2   3
ATOM      3  C   UNL A   1      35.297  32.481  32.404  1.00  0.00     0.338 C 
ATOM      4  O   UNL A   1      35.145  32.618  33.617  1.00  0.00    -0.246 OA
BRANCH   3   5
ATOM      5  C   UNL A   1      36.568  31.833  31.936  1.00  0.00     0.060 A 
ATOM      6  C   UNL A   1      37.490  31.145  32.732  1.00  0.00     0.016 A 
ATOM      7  C   UNL A   1      36.829  31.910  30.556  1.00  0.00     0.016 A 
ATOM      8  C   UNL A   1      38.576  30.460  32.167  1.00  0.00     0.010 A 
ATOM      9  C   UNL A   1      37.911  31.230  29.987  1.00  0.00     0.010 A 
ATOM     10  C   UNL A   1      38.785  30.481  30.790  1.00  0.00    -0.014 A 
BRANCH  10  11
ATOM     11  C   UNL A   1      39.992  29.875  30.182  1.00  0.00     0.031 A 
ATOM     12  C   UNL A   1      41.153  30.776  29.903  1.00  0.00     0.074 A 
ATOM     13  C   UNL A   1      40.061  28.570  29.850  1.00  0.00     0.049 A 
ATOM     14  N   UNL A   1      42.284  30.491  29.318  1.00  0.00    -0.248 NA
ATOM     15  C   UNL A   1      41.055  32.160  30.401  1.00  0.00     0.031 C 
ATOM     16  C   UNL A   1      39.102  27.535  30.215  1.00  0.00     0.029 A 
ATOM     17  N   UNL A   1      40.958  27.903  29.048  1.00  0.00    -0.354 N 
ATOM     18  C   UNL A   1      43.059  31.632  29.448  1.00  0.00     0.074 A 
ATOM     19  C   UNL A   1      42.243  32.644  30.077  1.00  0.00     0.031 C 
ATOM     20  C   UNL A   1      39.334  26.431  29.482  1.00  0.00     0.029 A 
ATOM     21  C   UNL A   1      40.502  26.665  28.649  1.00  0.00     0.049 A 
ATOM     22  H   UNL A   1      41.832  28.272  28.785  1.00  0.00     0.167 HD
ATOM     23  C   UNL A   1      44.358  31.793  29.118  1.00  0.00     0.031 A 
ATOM     24  C   UNL A   1      40.966  25.831  27.700  1.00  0.00     0.031 A 
ATOM     25  C   UNL A   1      45.137  30.790  28.448  1.00  0.00     0.049 A 
ATOM     26  C   UNL A   1      42.306  26.138  27.096  1.00  0.00     0.074 A 
ATOM     27  C   UNL A   1      46.472  30.825  28.098  1.00  0.00     0.029 A 
ATOM     28  N   UNL A   1      44.628  29.585  27.990  1.00  0.00    -0.354 N 
ATOM     29  N   UNL A   1      43.084  27.169  27.323  1.00  0.00    -0.248 NA
ATOM     30  C   UNL A   1      42.875  25.137  26.186  1.00  0.00     0.031 C 
ATOM     31  C   UNL A   1      46.751  29.673  27.355  1.00  0.00     0.029 A 
ATOM     32  C   UNL A   1      45.605  28.894  27.298  1.00  0.00     0.049 A 
ATOM     33  H   UNL A   1      43.706  29.268  28.136  1.00  0.00     0.167 HD
ATOM     34  C   UNL A   1      44.269  26.899  26.658  1.00  0.00     0.074 A 
ATOM     35  C   UNL A   1      44.094  25.624  25.992  1.00  0.00     0.031 C 
ATOM     36  C   UNL A   1      45.412  27.626  26.641  1.00  0.00     0.031 A 
BRANCH  23  37
ATOM     37  C   UNL A   1      44.990  33.103  29.473  1.00  0.00    -0.014 A 
ATOM     38  C   UNL A   1      45.597  33.297  30.725  1.00  0.00     0.009 A 
ATOM     39  C   UNL A   1      44.973  34.158  28.551  1.00  0.00     0.009 A 
ATOM     40  C   UNL A   1      46.145  34.537  31.059  1.00  0.00     0.001 A 
ATOM     41  C   UNL A   1      45.543  35.389  28.879  1.00  0.00     0.001 A 
ATOM     42  C   UNL A   1      46.120  35.580  30.135  1.00  0.00     0.000 A 
ENDBRANCH  23  37
BRANCH  24  43
ATOM     43  C   UNL A   1      40.189  24.638  27.272  1.00  0.00    -0.014 A 
ATOM     44  C   UNL A   1      40.614  23.339  27.582  1.00  0.00     0.009 A 
ATOM     45  C   UNL A   1      39.036  24.799  26.483  1.00  0.00     0.009 A 
ATOM     46  C   UNL A   1      39.930  22.227  27.080  1.00  0.00     0.001 A 
ATOM     47  C   UNL A   1      38.343  23.686  25.996  1.00  0.00     0.001 A 
ATOM     48  C   UNL A   1      38.798  22.401  26.285  1.00  0.00     0.000 A 
ENDBRANCH  24  43
BRANCH  36  49
ATOM     49  C   UNL A   1      46.584  27.040  25.914  1.00  0.00    -0.014 A 
ATOM     50  C   UNL A   1      46.836  27.349  24.570  1.00  0.00     0.009 A 
ATOM     51  C   UNL A   1      47.488  26.223  26.612  1.00  0.00     0.009 A 
ATOM     52  C   UNL A   1      47.965  26.833  23.933  1.00  0.00     0.001 A 
ATOM     53  C   UNL A   1      48.632  25.737  25.982  1.00  0.00     0.001 A 
ATOM     54  C   UNL A   1      48.866  26.038  24.642  1.00  0.00     0.000 A 
ENDBRANCH  36  49
ENDBRANCH  10  11
ENDBRANCH   3   5
ENDBRANCH   2   3
ENDBRANCH   1   2
BRANCH   1  55
ATOM     55  C   UNL A   1      33.875  34.572  29.671  1.00  0.00     0.274 C 
BRANCH  55  56
ATOM     56  O   UNL A   1      33.993  33.333  28.960  1.00  0.00    -0.462 OA
BRANCH  56  57
ATOM     57  C   UNL A   1      33.092  33.109  27.956  1.00  0.00     0.310 C 
ATOM     58  O   UNL A   1      32.187  33.867  27.649  1.00  0.00    -0.252 OA
BRANCH  57  59
ATOM     59  C   UNL A   1      33.426  31.814  27.242  1.00  0.00     0.118 C 
ATOM     60  C   UNL A   1      34.607  31.106  27.916  1.00  0.00     0.019 C 
ATOM     61  C   UNL A   1      32.208  30.906  27.134  1.00  0.00     0.133 C 
ATOM     62  C   UNL A   1      34.908  29.758  27.267  1.00  0.00     0.022 C 
ATOM     63  N   UNL A   1      32.613  29.599  26.632  1.00  0.00    -0.356 N 
ATOM     64  C   UNL A   1      33.679  28.876  27.290  1.00  0.00     0.118 C 
BRANCH  63  65
ATOM     65  C   UNL A   1      32.007  29.026  25.541  1.00  0.00     0.133 A 
ATOM     66  C   UNL A   1      31.061  29.766  24.875  1.00  0.00     0.077 A 
ATOM     67  N   UNL A   1      32.316  27.776  25.172  1.00  0.00    -0.211 NA
ATOM     68  C   UNL A   1      30.461  29.205  23.771  1.00  0.00     0.095 A 
ATOM     69  C   UNL A   1      31.646  27.281  24.109  1.00  0.00     0.165 A 
ATOM     70  N   UNL A   1      30.729  27.946  23.382  1.00  0.00    -0.226 NA
BRANCH  68  71
ATOM     71  C   UNL A   1      29.559  30.029  22.961  1.00  0.00     0.089 A 
ATOM     72  C   UNL A   1      29.016  31.203  23.495  1.00  0.00     0.030 A 
ATOM     73  N   UNL A   1      29.175  29.542  21.756  1.00  0.00    -0.255 NA
ATOM     74  C   UNL A   1      28.042  31.892  22.783  1.00  0.00     0.004 A 
ATOM     75  C   UNL A   1      28.242  30.243  21.076  1.00  0.00     0.112 A 
ATOM     76  C   UNL A   1      27.645  31.403  21.547  1.00  0.00     0.020 A 
ENDBRANCH  68  71
BRANCH  69  77
ATOM     77  C   UNL A   1      31.894  25.895  23.731  1.00  0.00     0.055 A 
ATOM     78  C   UNL A   1      32.949  25.542  22.869  1.00  0.00     0.015 A 
ATOM     79  C   UNL A   1      31.115  24.863  24.263  1.00  0.00     0.134 A 
ATOM     80  C   UNL A   1      33.222  24.200  22.577  1.00  0.00     0.001 A 
ATOM     81  C   UNL A   1      31.375  23.524  23.971  1.00  0.00     0.040 A 
ATOM     82  F   UNL A   1      30.084  25.143  25.077  1.00  0.00    -0.206 F 
ATOM     83  C   UNL A   1      32.436  23.190  23.133  1.00  0.00     0.003 A 
ENDBRANCH  69  77
ENDBRANCH  63  65
ENDBRANCH  57  59
ENDBRANCH  56  57
ENDBRANCH  55  56
ENDBRANCH   1  55
TORSDOF 14
ENDMDL
