MODEL 1
REMARK VINA RESULT:     -12.4      0.000      0.000
REMARK SMILES O=C(OCCOC(=O)[C@H]1C[C@@H]2CCCC[C@@H]2N1C(=O)[C@@H]1CCS(=O)(=O)C1)c1ccc(-c2c3nc(c(-c4ccccc4)c4ccc([nH]4)c(-c4ccccc4)c4nc(c(-c5ccccc5)c5ccc2[nH]5)C=C4)C=C3)cc1
REMARK SMILES IDX 4 1 3 2 2 3 1 4 27 5 28 6 74 7 29 8 73 9 30 10 31 11 32 12
REMARK SMILES IDX 67 13 33 14 72 15 66 16 68 17 34 18 71 19 65 20 64 21 35 23
REMARK SMILES IDX 57 24 42 25 56 26 43 27 46 28 55 29 69 30 44 31 45 32 54 34
REMARK SMILES IDX 70 35 47 36 36 37 37 38 41 39 38 40 40 41 39 42 58 43 59 44
REMARK SMILES IDX 63 45 60 46 62 47 61 48 48 49 49 50 53 51 50 52 52 53 51 54
REMARK SMILES IDX 5 55 6 56 7 57 8 58 9 59 10 60 17 61 11 62 16 63 12 64 15 65
REMARK SMILES IDX 13 66 14 67 18 68 19 69 20 70 21 71 26 72 22 73 23 74 24 75
REMARK SMILES IDX 25 76
REMARK H PARENT 68 22 46 33
REMARK Flexibility Score: inf
ROOT
ATOM      1  C   UNL A   1      45.662  39.688  26.909  1.00  0.00     0.275 C 
ENDROOT
BRANCH   1   2
ATOM      2  O   UNL A   1      45.392  38.274  26.807  1.00  0.00    -0.458 OA
BRANCH   2   3
ATOM      3  C   UNL A   1      44.216  37.621  26.968  1.00  0.00     0.338 C 
ATOM      4  O   UNL A   1      43.156  38.241  27.000  1.00  0.00    -0.246 OA
BRANCH   3   5
ATOM      5  C   UNL A   1      44.127  36.166  27.238  1.00  0.00     0.060 A 
ATOM      6  C   UNL A   1      43.614  34.959  25.996  1.00  0.00     0.016 A 
ATOM      7  C   UNL A   1      44.829  35.561  28.807  1.00  0.00     0.016 A 
ATOM      8  C   UNL A   1      43.794  33.212  26.240  1.00  0.00     0.010 A 
ATOM      9  C   UNL A   1      45.017  33.699  29.050  1.00  0.00     0.010 A 
ATOM     10  C   UNL A   1      44.449  32.560  27.739  1.00  0.00    -0.014 A 
BRANCH  10  11
ATOM     11  C   UNL A   1      44.112  31.131  27.886  1.00  0.00     0.031 A 
ATOM     12  C   UNL A   1      45.071  30.039  27.501  1.00  0.00     0.074 A 
ATOM     13  C   UNL A   1      43.064  30.783  28.635  1.00  0.00     0.049 A 
ATOM     14  N   UNL A   1      44.809  28.875  26.975  1.00  0.00    -0.248 NA
ATOM     15  C   UNL A   1      46.507  30.318  27.609  1.00  0.00     0.031 C 
ATOM     16  C   UNL A   1      42.233  31.694  29.413  1.00  0.00     0.029 A 
ATOM     17  N   UNL A   1      42.539  29.546  28.856  1.00  0.00    -0.354 N 
ATOM     18  C   UNL A   1      46.019  28.416  26.454  1.00  0.00     0.074 A 
ATOM     19  C   UNL A   1      47.020  29.392  26.808  1.00  0.00     0.031 C 
ATOM     20  C   UNL A   1      41.261  30.983  30.002  1.00  0.00     0.029 A 
ATOM     21  C   UNL A   1      41.357  29.603  29.539  1.00  0.00     0.049 A 
ATOM     22  H   UNL A   1      42.961  28.708  28.558  1.00  0.00     0.167 HD
ATOM     23  C   UNL A   1      46.200  27.301  25.703  1.00  0.00     0.031 A 
ATOM     24  C   UNL A   1      40.419  28.653  29.670  1.00  0.00     0.031 A 
ATOM     25  C   UNL A   1      45.216  26.246  25.726  1.00  0.00     0.049 A 
ATOM     26  C   UNL A   1      40.658  27.333  28.995  1.00  0.00     0.074 A 
ATOM     27  C   UNL A   1      45.278  24.975  25.188  1.00  0.00     0.029 A 
ATOM     28  N   UNL A   1      44.025  26.323  26.439  1.00  0.00    -0.354 N 
ATOM     29  N   UNL A   1      41.656  26.971  28.219  1.00  0.00    -0.248 NA
ATOM     30  C   UNL A   1      39.650  26.295  29.210  1.00  0.00     0.031 C 
ATOM     31  C   UNL A   1      44.117  24.292  25.570  1.00  0.00     0.029 A 
ATOM     32  C   UNL A   1      43.365  25.115  26.399  1.00  0.00     0.049 A 
ATOM     33  H   UNL A   1      43.699  27.126  26.907  1.00  0.00     0.167 HD
ATOM     34  C   UNL A   1      41.418  25.645  27.883  1.00  0.00     0.074 A 
ATOM     35  C   UNL A   1      40.179  25.276  28.546  1.00  0.00     0.031 C 
ATOM     36  C   UNL A   1      42.148  24.802  27.110  1.00  0.00     0.031 A 
BRANCH  23  37
ATOM     37  C   UNL A   1      47.407  27.184  24.793  1.00  0.00    -0.014 A 
ATOM     38  C   UNL A   1      48.626  26.599  25.165  1.00  0.00     0.009 A 
ATOM     39  C   UNL A   1      47.313  27.704  23.485  1.00  0.00     0.009 A 
ATOM     40  C   UNL A   1      49.732  26.623  24.303  1.00  0.00     0.001 A 
ATOM     41  C   UNL A   1      48.397  27.674  22.602  1.00  0.00     0.001 A 
ATOM     42  C   UNL A   1      49.618  27.159  23.022  1.00  0.00     0.000 A 
ENDBRANCH  23  37
BRANCH  24  43
ATOM     43  C   UNL A   1      39.192  28.973  30.431  1.00  0.00    -0.014 A 
ATOM     44  C   UNL A   1      38.062  29.466  29.765  1.00  0.00     0.009 A 
ATOM     45  C   UNL A   1      39.099  28.669  31.800  1.00  0.00     0.009 A 
ATOM     46  C   UNL A   1      36.865  29.653  30.457  1.00  0.00     0.001 A 
ATOM     47  C   UNL A   1      37.892  28.822  32.480  1.00  0.00     0.001 A 
ATOM     48  C   UNL A   1      36.778  29.320  31.809  1.00  0.00     0.000 A 
ENDBRANCH  24  43
BRANCH  36  49
ATOM     49  C   UNL A   1      41.681  23.380  27.025  1.00  0.00    -0.014 A 
ATOM     50  C   UNL A   1      42.237  22.375  27.827  1.00  0.00     0.009 A 
ATOM     51  C   UNL A   1      40.595  23.075  26.188  1.00  0.00     0.009 A 
ATOM     52  C   UNL A   1      41.725  21.079  27.775  1.00  0.00     0.001 A 
ATOM     53  C   UNL A   1      40.062  21.788  26.168  1.00  0.00     0.001 A 
ATOM     54  C   UNL A   1      40.632  20.791  26.955  1.00  0.00     0.000 A 
ENDBRANCH  36  49
ENDBRANCH  10  11
ENDBRANCH   3   5
ENDBRANCH   2   3
ENDBRANCH   1   2
BRANCH   1  55
ATOM     55  C   UNL A   1      45.913  40.388  25.542  1.00  0.00     0.274 C 
BRANCH  55  56
ATOM     56  O   UNL A   1      45.476  41.770  25.447  1.00  0.00    -0.461 OA
BRANCH  56  57
ATOM     57  C   UNL A   1      44.408  42.033  24.635  1.00  0.00     0.328 C 
ATOM     58  O   UNL A   1      43.299  41.551  24.826  1.00  0.00    -0.250 OA
BRANCH  57  59
ATOM     59  C   UNL A   1      44.769  43.143  23.538  1.00  0.00     0.195 C 
ATOM     60  C   UNL A   1      46.347  42.824  23.318  1.00  0.00     0.043 C 
ATOM     61  N   UNL A   1      44.108  43.259  21.903  1.00  0.00    -0.325 N 
ATOM     62  C   UNL A   1      46.424  42.080  22.001  1.00  0.00     0.014 C 
ATOM     63  C   UNL A   1      45.661  43.023  21.116  1.00  0.00     0.089 C 
ATOM     64  C   UNL A   1      47.724  41.675  21.274  1.00  0.00     0.006 C 
ATOM     65  C   UNL A   1      46.505  44.280  20.739  1.00  0.00     0.025 C 
ATOM     66  C   UNL A   1      48.463  42.744  20.445  1.00  0.00     0.000 C 
ATOM     67  C   UNL A   1      47.564  43.772  19.757  1.00  0.00     0.002 C 
BRANCH  61  68
ATOM     68  C   UNL A   1      42.286  43.310  21.065  1.00  0.00     0.227 C 
ATOM     69  O   UNL A   1      41.109  43.085  21.513  1.00  0.00    -0.275 OA
BRANCH  68  70
ATOM     70  C   UNL A   1      41.870  43.591  19.219  1.00  0.00     0.094 C 
ATOM     71  C   UNL A   1      42.903  43.268  18.103  1.00  0.00     0.030 C 
ATOM     72  C   UNL A   1      40.994  44.737  18.547  1.00  0.00     0.150 C 
ATOM     73  C   UNL A   1      43.420  44.580  17.495  1.00  0.00     0.138 C 
ATOM     74  S   UNL A   1      42.011  45.651  17.383  1.00  0.00     0.151 S 
ATOM     75  O   UNL A   1      42.369  46.942  17.940  1.00  0.00    -0.229 OA
ATOM     76  O   UNL A   1      41.440  45.539  16.059  1.00  0.00    -0.229 OA
ENDBRANCH  68  70
ENDBRANCH  61  68
ENDBRANCH  57  59
ENDBRANCH  56  57
ENDBRANCH  55  56
ENDBRANCH   1  55
TORSDOF 13
ENDMDL
MODEL 2
REMARK VINA RESULT:     -12.4      5.902      9.530
REMARK SMILES O=C(OCCOC(=O)[C@H]1C[C@@H]2CCCC[C@@H]2N1C(=O)[C@@H]1CCS(=O)(=O)C1)c1ccc(-c2c3nc(c(-c4ccccc4)c4ccc([nH]4)c(-c4ccccc4)c4nc(c(-c5ccccc5)c5ccc2[nH]5)C=C4)C=C3)cc1
REMARK SMILES IDX 4 1 3 2 2 3 1 4 27 5 28 6 74 7 29 8 73 9 30 10 31 11 32 12
REMARK SMILES IDX 67 13 33 14 72 15 66 16 68 17 34 18 71 19 65 20 64 21 35 23
REMARK SMILES IDX 57 24 42 25 56 26 43 27 46 28 55 29 69 30 44 31 45 32 54 34
REMARK SMILES IDX 70 35 47 36 36 37 37 38 41 39 38 40 40 41 39 42 58 43 59 44
REMARK SMILES IDX 63 45 60 46 62 47 61 48 48 49 49 50 53 51 50 52 52 53 51 54
REMARK SMILES IDX 5 55 6 56 7 57 8 58 9 59 10 60 17 61 11 62 16 63 12 64 15 65
REMARK SMILES IDX 13 66 14 67 18 68 19 69 20 70 21 71 26 72 22 73 23 74 24 75
REMARK SMILES IDX 25 76
REMARK H PARENT 68 22 46 33
REMARK Flexibility Score: inf
ROOT
ATOM      1  C   UNL A   1      42.804  37.406  27.075  1.00  0.00     0.275 C 
ENDROOT
BRANCH   1   2
ATOM      2  O   UNL A   1      44.207  37.629  27.330  1.00  0.00    -0.458 OA
BRANCH   2   3
ATOM      3  C   UNL A   1      45.216  36.727  27.378  1.00  0.00     0.338 C 
ATOM      4  O   UNL A   1      46.366  37.061  27.105  1.00  0.00    -0.246 OA
BRANCH   3   5
ATOM      5  C   UNL A   1      45.001  35.282  27.631  1.00  0.00     0.060 A 
ATOM      6  C   UNL A   1      44.515  34.115  26.340  1.00  0.00     0.016 A 
ATOM      7  C   UNL A   1      45.517  34.628  29.251  1.00  0.00     0.016 A 
ATOM      8  C   UNL A   1      44.547  32.360  26.587  1.00  0.00     0.010 A 
ATOM      9  C   UNL A   1      45.551  32.756  29.497  1.00  0.00     0.010 A 
ATOM     10  C   UNL A   1      45.020  31.662  28.133  1.00  0.00    -0.014 A 
BRANCH  10  11
ATOM     11  C   UNL A   1      44.570  30.260  28.240  1.00  0.00     0.031 A 
ATOM     12  C   UNL A   1      45.532  29.106  28.198  1.00  0.00     0.074 A 
ATOM     13  C   UNL A   1      43.333  30.005  28.671  1.00  0.00     0.049 A 
ATOM     14  N   UNL A   1      45.362  27.925  27.671  1.00  0.00    -0.248 NA
ATOM     15  C   UNL A   1      46.891  29.327  28.703  1.00  0.00     0.031 C 
ATOM     16  C   UNL A   1      42.370  30.998  29.134  1.00  0.00     0.029 A 
ATOM     17  N   UNL A   1      42.694  28.808  28.786  1.00  0.00    -0.354 N 
ATOM     18  C   UNL A   1      46.641  27.383  27.543  1.00  0.00     0.074 A 
ATOM     19  C   UNL A   1      47.555  28.332  28.126  1.00  0.00     0.031 C 
ATOM     20  C   UNL A   1      41.230  30.367  29.450  1.00  0.00     0.029 A 
ATOM     21  C   UNL A   1      41.371  28.959  29.096  1.00  0.00     0.049 A 
ATOM     22  H   UNL A   1      43.133  27.935  28.660  1.00  0.00     0.167 HD
ATOM     23  C   UNL A   1      46.962  26.218  26.926  1.00  0.00     0.031 A 
ATOM     24  C   UNL A   1      40.380  28.060  28.994  1.00  0.00     0.031 A 
ATOM     25  C   UNL A   1      45.951  25.210  26.711  1.00  0.00     0.049 A 
ATOM     26  C   UNL A   1      40.723  26.693  28.476  1.00  0.00     0.074 A 
ATOM     27  C   UNL A   1      46.088  23.908  26.271  1.00  0.00     0.029 A 
ATOM     28  N   UNL A   1      44.612  25.384  27.047  1.00  0.00    -0.354 N 
ATOM     29  N   UNL A   1      41.877  26.241  28.037  1.00  0.00    -0.248 NA
ATOM     30  C   UNL A   1      39.635  25.716  28.438  1.00  0.00     0.031 C 
ATOM     31  C   UNL A   1      44.827  23.301  26.333  1.00  0.00     0.029 A 
ATOM     32  C   UNL A   1      43.921  24.205  26.872  1.00  0.00     0.049 A 
ATOM     33  H   UNL A   1      44.215  26.227  27.364  1.00  0.00     0.167 HD
ATOM     34  C   UNL A   1      41.666  24.910  27.707  1.00  0.00     0.074 A 
ATOM     35  C   UNL A   1      40.270  24.636  28.000  1.00  0.00     0.031 C 
ATOM     36  C   UNL A   1      42.535  23.990  27.215  1.00  0.00     0.031 A 
BRANCH  23  37
ATOM     37  C   UNL A   1      48.369  25.993  26.409  1.00  0.00    -0.014 A 
ATOM     38  C   UNL A   1      49.360  25.277  27.094  1.00  0.00     0.009 A 
ATOM     39  C   UNL A   1      48.719  26.544  25.159  1.00  0.00     0.009 A 
ATOM     40  C   UNL A   1      50.671  25.202  26.601  1.00  0.00     0.001 A 
ATOM     41  C   UNL A   1      50.010  26.419  24.635  1.00  0.00     0.001 A 
ATOM     42  C   UNL A   1      50.995  25.771  25.371  1.00  0.00     0.000 A 
ENDBRANCH  23  37
BRANCH  24  43
ATOM     43  C   UNL A   1      39.008  28.480  29.353  1.00  0.00    -0.014 A 
ATOM     44  C   UNL A   1      38.619  28.530  30.698  1.00  0.00     0.009 A 
ATOM     45  C   UNL A   1      38.124  28.953  28.368  1.00  0.00     0.009 A 
ATOM     46  C   UNL A   1      37.370  29.042  31.048  1.00  0.00     0.001 A 
ATOM     47  C   UNL A   1      36.891  29.497  28.725  1.00  0.00     0.001 A 
ATOM     48  C   UNL A   1      36.513  29.535  30.065  1.00  0.00     0.000 A 
ENDBRANCH  24  43
BRANCH  36  49
ATOM     49  C   UNL A   1      42.027  22.588  27.063  1.00  0.00    -0.014 A 
ATOM     50  C   UNL A   1      42.465  21.553  27.900  1.00  0.00     0.009 A 
ATOM     51  C   UNL A   1      41.018  22.333  26.120  1.00  0.00     0.009 A 
ATOM     52  C   UNL A   1      41.914  20.278  27.777  1.00  0.00     0.001 A 
ATOM     53  C   UNL A   1      40.444  21.067  26.027  1.00  0.00     0.001 A 
ATOM     54  C   UNL A   1      40.898  20.040  26.851  1.00  0.00     0.000 A 
ENDBRANCH  36  49
ENDBRANCH  10  11
ENDBRANCH   3   5
ENDBRANCH   2   3
ENDBRANCH   1   2
BRANCH   1  55
ATOM     55  C   UNL A   1      41.980  37.021  28.337  1.00  0.00     0.274 C 
BRANCH  55  56
ATOM     56  O   UNL A   1      41.224  35.785  28.249  1.00  0.00    -0.461 OA
BRANCH  56  57
ATOM     57  C   UNL A   1      41.405  34.869  29.248  1.00  0.00     0.328 C 
ATOM     58  O   UNL A   1      42.406  34.169  29.329  1.00  0.00    -0.250 OA
BRANCH  57  59
ATOM     59  C   UNL A   1      40.234  34.956  30.338  1.00  0.00     0.195 C 
ATOM     60  C   UNL A   1      38.934  34.851  29.368  1.00  0.00     0.043 C 
ATOM     61  N   UNL A   1      39.915  33.795  31.633  1.00  0.00    -0.325 N 
ATOM     62  C   UNL A   1      38.427  33.433  29.531  1.00  0.00     0.014 C 
ATOM     63  C   UNL A   1      38.326  33.354  31.027  1.00  0.00     0.089 C 
ATOM     64  C   UNL A   1      37.124  32.870  28.925  1.00  0.00     0.006 C 
ATOM     65  C   UNL A   1      37.081  34.124  31.568  1.00  0.00     0.025 C 
ATOM     66  C   UNL A   1      35.792  33.178  29.638  1.00  0.00     0.000 C 
ATOM     67  C   UNL A   1      35.875  33.271  31.161  1.00  0.00     0.002 C 
BRANCH  61  68
ATOM     68  C   UNL A   1      40.960  32.940  33.116  1.00  0.00     0.227 C 
ATOM     69  O   UNL A   1      42.183  33.017  33.484  1.00  0.00    -0.275 OA
BRANCH  68  70
ATOM     70  C   UNL A   1      40.352  31.594  34.331  1.00  0.00     0.094 C 
ATOM     71  C   UNL A   1      39.478  30.404  33.844  1.00  0.00     0.030 C 
ATOM     72  C   UNL A   1      39.907  31.737  35.854  1.00  0.00     0.150 C 
ATOM     73  C   UNL A   1      38.046  30.577  34.368  1.00  0.00     0.138 C 
ATOM     74  S   UNL A   1      38.206  31.189  36.025  1.00  0.00     0.151 S 
ATOM     75  O   UNL A   1      37.326  32.332  36.181  1.00  0.00    -0.229 OA
ATOM     76  O   UNL A   1      38.154  30.074  36.944  1.00  0.00    -0.229 OA
ENDBRANCH  68  70
ENDBRANCH  61  68
ENDBRANCH  57  59
ENDBRANCH  56  57
ENDBRANCH  55  56
ENDBRANCH   1  55
TORSDOF 13
ENDMDL
MODEL 3
REMARK VINA RESULT:     -12.3     12.064     20.963
REMARK SMILES O=C(OCCOC(=O)[C@H]1C[C@@H]2CCCC[C@@H]2N1C(=O)[C@@H]1CCS(=O)(=O)C1)c1ccc(-c2c3nc(c(-c4ccccc4)c4ccc([nH]4)c(-c4ccccc4)c4nc(c(-c5ccccc5)c5ccc2[nH]5)C=C4)C=C3)cc1
REMARK SMILES IDX 4 1 3 2 2 3 1 4 27 5 28 6 74 7 29 8 73 9 30 10 31 11 32 12
REMARK SMILES IDX 67 13 33 14 72 15 66 16 68 17 34 18 71 19 65 20 64 21 35 23
REMARK SMILES IDX 57 24 42 25 56 26 43 27 46 28 55 29 69 30 44 31 45 32 54 34
REMARK SMILES IDX 70 35 47 36 36 37 37 38 41 39 38 40 40 41 39 42 58 43 59 44
REMARK SMILES IDX 63 45 60 46 62 47 61 48 48 49 49 50 53 51 50 52 52 53 51 54
REMARK SMILES IDX 5 55 6 56 7 57 8 58 9 59 10 60 17 61 11 62 16 63 12 64 15 65
REMARK SMILES IDX 13 66 14 67 18 68 19 69 20 70 21 71 26 72 22 73 23 74 24 75
REMARK SMILES IDX 25 76
REMARK H PARENT 68 22 46 33
REMARK Flexibility Score: inf
ROOT
ATOM      1  C   UNL A   1      46.493  22.660  38.449  1.00  0.00     0.275 C 
ENDROOT
BRANCH   1   2
ATOM      2  O   UNL A   1      46.236  23.368  37.218  1.00  0.00    -0.458 OA
BRANCH   2   3
ATOM      3  C   UNL A   1      45.230  23.187  36.328  1.00  0.00     0.338 C 
ATOM      4  O   UNL A   1      44.894  22.055  35.986  1.00  0.00    -0.246 OA
BRANCH   3   5
ATOM      5  C   UNL A   1      44.562  24.305  35.620  1.00  0.00     0.060 A 
ATOM      6  C   UNL A   1      42.767  24.489  35.534  1.00  0.00     0.016 A 
ATOM      7  C   UNL A   1      45.610  25.685  35.057  1.00  0.00     0.016 A 
ATOM      8  C   UNL A   1      41.993  25.971  34.945  1.00  0.00     0.010 A 
ATOM      9  C   UNL A   1      44.771  27.258  34.437  1.00  0.00     0.010 A 
ATOM     10  C   UNL A   1      42.947  27.335  34.370  1.00  0.00    -0.014 A 
BRANCH  10  11
ATOM     11  C   UNL A   1      42.123  28.249  33.555  1.00  0.00     0.031 A 
ATOM     12  C   UNL A   1      41.540  29.517  34.115  1.00  0.00     0.074 A 
ATOM     13  C   UNL A   1      42.126  28.116  32.227  1.00  0.00     0.049 A 
ATOM     14  N   UNL A   1      40.392  30.073  33.843  1.00  0.00    -0.248 NA
ATOM     15  C   UNL A   1      42.271  30.190  35.194  1.00  0.00     0.031 C 
ATOM     16  C   UNL A   1      42.943  27.179  31.466  1.00  0.00     0.029 A 
ATOM     17  N   UNL A   1      41.404  28.798  31.295  1.00  0.00    -0.354 N 
ATOM     18  C   UNL A   1      40.156  30.974  34.881  1.00  0.00     0.074 A 
ATOM     19  C   UNL A   1      41.319  30.943  35.732  1.00  0.00     0.031 C 
ATOM     20  C   UNL A   1      42.644  27.315  30.166  1.00  0.00     0.029 A 
ATOM     21  C   UNL A   1      41.542  28.263  30.045  1.00  0.00     0.049 A 
ATOM     22  H   UNL A   1      40.846  29.585  31.497  1.00  0.00     0.167 HD
ATOM     23  C   UNL A   1      39.019  31.688  35.083  1.00  0.00     0.031 A 
ATOM     24  C   UNL A   1      40.776  28.459  28.961  1.00  0.00     0.031 A 
ATOM     25  C   UNL A   1      38.097  31.902  33.994  1.00  0.00     0.049 A 
ATOM     26  C   UNL A   1      39.599  29.383  29.091  1.00  0.00     0.074 A 
ATOM     27  C   UNL A   1      36.990  32.727  33.930  1.00  0.00     0.029 A 
ATOM     28  N   UNL A   1      38.266  31.355  32.726  1.00  0.00    -0.354 N 
ATOM     29  N   UNL A   1      39.154  30.009  30.158  1.00  0.00    -0.248 NA
ATOM     30  C   UNL A   1      38.822  29.628  27.876  1.00  0.00     0.031 C 
ATOM     31  C   UNL A   1      36.488  32.666  32.624  1.00  0.00     0.029 A 
ATOM     32  C   UNL A   1      37.320  31.857  31.860  1.00  0.00     0.049 A 
ATOM     33  H   UNL A   1      38.963  30.704  32.482  1.00  0.00     0.167 HD
ATOM     34  C   UNL A   1      38.065  30.758  29.736  1.00  0.00     0.074 A 
ATOM     35  C   UNL A   1      37.924  30.502  28.313  1.00  0.00     0.031 C 
ATOM     36  C   UNL A   1      37.255  31.586  30.444  1.00  0.00     0.031 A 
BRANCH  23  37
ATOM     37  C   UNL A   1      38.686  32.214  36.465  1.00  0.00    -0.014 A 
ATOM     38  C   UNL A   1      37.861  31.555  37.386  1.00  0.00     0.009 A 
ATOM     39  C   UNL A   1      39.230  33.455  36.858  1.00  0.00     0.009 A 
ATOM     40  C   UNL A   1      37.513  32.155  38.605  1.00  0.00     0.001 A 
ATOM     41  C   UNL A   1      38.933  34.028  38.099  1.00  0.00     0.001 A 
ATOM     42  C   UNL A   1      38.050  33.390  38.962  1.00  0.00     0.000 A 
ENDBRANCH  23  37
BRANCH  24  43
ATOM     43  C   UNL A   1      41.107  27.724  27.721  1.00  0.00    -0.014 A 
ATOM     44  C   UNL A   1      42.042  28.251  26.821  1.00  0.00     0.009 A 
ATOM     45  C   UNL A   1      40.589  26.437  27.493  1.00  0.00     0.009 A 
ATOM     46  C   UNL A   1      42.449  27.505  25.715  1.00  0.00     0.001 A 
ATOM     47  C   UNL A   1      41.025  25.680  26.405  1.00  0.00     0.001 A 
ATOM     48  C   UNL A   1      41.950  26.218  25.514  1.00  0.00     0.000 A 
ENDBRANCH  24  43
BRANCH  36  49
ATOM     49  C   UNL A   1      36.219  32.348  29.673  1.00  0.00    -0.014 A 
ATOM     50  C   UNL A   1      36.470  33.634  29.178  1.00  0.00     0.009 A 
ATOM     51  C   UNL A   1      35.006  31.712  29.361  1.00  0.00     0.009 A 
ATOM     52  C   UNL A   1      35.510  34.281  28.400  1.00  0.00     0.001 A 
ATOM     53  C   UNL A   1      34.066  32.346  28.552  1.00  0.00     0.001 A 
ATOM     54  C   UNL A   1      34.316  33.632  28.080  1.00  0.00     0.000 A 
ENDBRANCH  36  49
ENDBRANCH  10  11
ENDBRANCH   3   5
ENDBRANCH   2   3
ENDBRANCH   1   2
BRANCH   1  55
ATOM     55  C   UNL A   1      46.936  21.182  38.252  1.00  0.00     0.274 C 
BRANCH  55  56
ATOM     56  O   UNL A   1      46.669  20.286  39.363  1.00  0.00    -0.461 OA
BRANCH  56  57
ATOM     57  C   UNL A   1      46.076  19.088  39.073  1.00  0.00     0.328 C 
ATOM     58  O   UNL A   1      45.765  18.765  37.934  1.00  0.00    -0.250 OA
BRANCH  57  59
ATOM     59  C   UNL A   1      45.997  18.148  40.367  1.00  0.00     0.195 C 
ATOM     60  C   UNL A   1      46.162  19.262  41.539  1.00  0.00     0.043 C 
ATOM     61  N   UNL A   1      44.612  17.173  40.875  1.00  0.00    -0.325 N 
ATOM     62  C   UNL A   1      44.769  19.463  42.099  1.00  0.00     0.014 C 
ATOM     63  C   UNL A   1      44.388  18.039  42.387  1.00  0.00     0.089 C 
ATOM     64  C   UNL A   1      44.412  20.321  43.332  1.00  0.00     0.006 C 
ATOM     65  C   UNL A   1      45.093  17.495  43.669  1.00  0.00     0.025 C 
ATOM     66  C   UNL A   1      44.635  19.718  44.733  1.00  0.00     0.000 C 
ATOM     67  C   UNL A   1      44.407  18.209  44.837  1.00  0.00     0.002 C 
BRANCH  61  68
ATOM     68  C   UNL A   1      43.415  15.794  40.045  1.00  0.00     0.227 C 
ATOM     69  O   UNL A   1      43.245  15.390  38.842  1.00  0.00    -0.275 OA
BRANCH  68  70
ATOM     70  C   UNL A   1      42.041  14.784  40.911  1.00  0.00     0.094 C 
ATOM     71  C   UNL A   1      41.383  15.283  42.228  1.00  0.00     0.030 C 
ATOM     72  C   UNL A   1      41.873  13.205  41.027  1.00  0.00     0.150 C 
ATOM     73  C   UNL A   1      41.842  14.396  43.393  1.00  0.00     0.138 C 
ATOM     74  S   UNL A   1      41.867  12.739  42.762  1.00  0.00     0.151 S 
ATOM     75  O   UNL A   1      43.133  12.129  43.119  1.00  0.00    -0.229 OA
ATOM     76  O   UNL A   1      40.610  12.098  43.079  1.00  0.00    -0.229 OA
ENDBRANCH  68  70
ENDBRANCH  61  68
ENDBRANCH  57  59
ENDBRANCH  56  57
ENDBRANCH  55  56
ENDBRANCH   1  55
TORSDOF 13
ENDMDL
