MODEL 1
REMARK VINA RESULT:     -10.6      0.000      0.000
REMARK SMILES CC[C@](C)(NC(=O)CNC(=O)c1cccc(Cl)c1)C(=O)OCCOC(=O)c1ccc(-c2c3nc(c(-c4ccccc4)c4ccc([nH]4)c(-c4ccccc4)c4nc(c(-c5ccccc5)c5ccc2[nH]5)C=C4)C=C3)cc1
REMARK SMILES IDX 22 1 21 2 19 3 20 4 3 5 4 6 2 7 1 8 5 9 6 10 7 12 8 13 9 14
REMARK SMILES IDX 10 15 11 17 12 18 13 19 18 20 14 21 16 22 15 23 17 24 23 25
REMARK SMILES IDX 24 26 25 27 26 28 27 29 28 30 74 31 29 32 73 33 30 34 31 35
REMARK SMILES IDX 32 36 67 37 33 38 72 39 66 40 68 41 34 42 71 43 65 44 64 45
REMARK SMILES IDX 35 47 57 48 42 49 56 50 43 51 46 52 55 53 69 54 44 55 45 56
REMARK SMILES IDX 54 58 70 59 47 60 36 61 37 62 41 63 38 64 40 65 39 66 58 67
REMARK SMILES IDX 59 68 63 69 60 70 62 71 61 72 48 73 49 74 53 75 50 76 52 77
REMARK SMILES IDX 51 78
REMARK H PARENT 5 11 9 16 68 46 46 57
REMARK Flexibility Score: inf
ROOT
ATOM      1  C   UNL A   1      32.301  28.558  26.974  1.00  0.00     0.274 C 
ENDROOT
BRANCH   1   2
ATOM      2  O   UNL A   1      31.636  28.072  25.724  1.00  0.00    -0.460 OA
BRANCH   2   3
ATOM      3  C   UNL A   1      32.216  28.081  24.437  1.00  0.00     0.331 C 
ATOM      4  O   UNL A   1      33.411  28.273  24.244  1.00  0.00    -0.249 OA
BRANCH   3   5
ATOM      5  C   UNL A   1      31.156  27.668  23.219  1.00  0.00     0.135 C 
ATOM      6  C   UNL A   1      30.060  28.699  22.760  1.00  0.00     0.047 C 
BRANCH   5   7
ATOM      7  C   UNL A   1      30.307  26.436  23.639  1.00  0.00     0.037 C 
ATOM      8  C   UNL A   1      28.811  26.729  23.854  1.00  0.00     0.007 C 
ENDBRANCH   5   7
BRANCH   5   9
ATOM      9  N   UNL A   1      31.978  27.368  22.064  1.00  0.00    -0.339 N 
ATOM     10  C   UNL A   1      32.514  26.144  21.844  1.00  0.00     0.240 C 
ATOM     11  H   UNL A   1      32.153  28.083  21.412  1.00  0.00     0.164 HD
ATOM     12  O   UNL A   1      33.219  25.970  20.850  1.00  0.00    -0.273 OA
BRANCH  10  13
ATOM     13  C   UNL A   1      32.216  24.990  22.832  1.00  0.00     0.216 C 
BRANCH  13  14
ATOM     14  N   UNL A   1      33.242  23.926  23.574  1.00  0.00    -0.343 N 
ATOM     15  C   UNL A   1      33.777  22.842  24.234  1.00  0.00     0.251 C 
ATOM     16  H   UNL A   1      34.074  24.442  23.464  1.00  0.00     0.164 HD
ATOM     17  O   UNL A   1      33.070  21.920  24.638  1.00  0.00    -0.269 OA
BRANCH  15  18
ATOM     18  C   UNL A   1      35.181  22.760  24.661  1.00  0.00     0.041 A 
ATOM     19  C   UNL A   1      35.816  23.818  25.338  1.00  0.00     0.014 A 
ATOM     20  C   UNL A   1      35.810  21.525  24.589  1.00  0.00     0.034 A 
ATOM     21  C   UNL A   1      37.154  23.702  25.726  1.00  0.00     0.002 A 
ATOM     22  C   UNL A   1      37.125  21.398  25.021  1.00  0.00     0.041 A 
ATOM     23  C   UNL A   1      37.816  22.490  25.547  1.00  0.00     0.020 A 
ATOM     24  Cl  UNL A   1      37.888  19.862  24.923  1.00  0.00    -0.084 Cl
ENDBRANCH  15  18
ENDBRANCH  13  14
ENDBRANCH  10  13
ENDBRANCH   5   9
ENDBRANCH   3   5
ENDBRANCH   2   3
ENDBRANCH   1   2
BRANCH   1  25
ATOM     25  C   UNL A   1      32.606  30.199  27.227  1.00  0.00     0.275 C 
BRANCH  25  26
ATOM     26  O   UNL A   1      34.007  30.787  27.140  1.00  0.00    -0.458 OA
BRANCH  26  27
ATOM     27  C   UNL A   1      34.842  31.043  28.222  1.00  0.00     0.338 C 
ATOM     28  O   UNL A   1      34.539  31.832  29.106  1.00  0.00    -0.246 OA
BRANCH  27  29
ATOM     29  C   UNL A   1      36.150  30.177  28.357  1.00  0.00     0.060 A 
ATOM     30  C   UNL A   1      36.666  29.599  29.545  1.00  0.00     0.016 A 
ATOM     31  C   UNL A   1      37.022  30.098  27.266  1.00  0.00     0.016 A 
ATOM     32  C   UNL A   1      37.903  28.952  29.657  1.00  0.00     0.010 A 
ATOM     33  C   UNL A   1      38.284  29.442  27.363  1.00  0.00     0.010 A 
ATOM     34  C   UNL A   1      38.733  28.854  28.561  1.00  0.00    -0.014 A 
BRANCH  34  35
ATOM     35  C   UNL A   1      40.092  28.276  28.738  1.00  0.00     0.031 A 
ATOM     36  C   UNL A   1      41.205  29.184  29.162  1.00  0.00     0.074 A 
ATOM     37  C   UNL A   1      40.338  26.955  28.620  1.00  0.00     0.049 A 
ATOM     38  N   UNL A   1      42.498  29.021  29.068  1.00  0.00    -0.248 NA
ATOM     39  C   UNL A   1      40.797  30.453  29.784  1.00  0.00     0.031 C 
ATOM     40  C   UNL A   1      39.329  25.911  28.433  1.00  0.00     0.029 A 
ATOM     41  N   UNL A   1      41.531  26.266  28.620  1.00  0.00    -0.354 N 
ATOM     42  C   UNL A   1      43.055  30.210  29.523  1.00  0.00     0.074 A 
ATOM     43  C   UNL A   1      41.963  31.060  29.943  1.00  0.00     0.031 C 
ATOM     44  C   UNL A   1      39.946  24.726  28.284  1.00  0.00     0.029 A 
ATOM     45  C   UNL A   1      41.388  24.943  28.268  1.00  0.00     0.049 A 
ATOM     46  H   UNL A   1      42.396  26.677  28.848  1.00  0.00     0.167 HD
ATOM     47  C   UNL A   1      44.362  30.562  29.539  1.00  0.00     0.031 A 
ATOM     48  C   UNL A   1      42.308  24.039  27.876  1.00  0.00     0.031 A 
ATOM     49  C   UNL A   1      45.423  29.678  29.137  1.00  0.00     0.049 A 
ATOM     50  C   UNL A   1      43.748  24.466  27.787  1.00  0.00     0.074 A 
ATOM     51  C   UNL A   1      46.783  29.924  29.072  1.00  0.00     0.029 A 
ATOM     52  N   UNL A   1      45.232  28.362  28.740  1.00  0.00    -0.354 N 
ATOM     53  N   UNL A   1      44.279  25.630  28.080  1.00  0.00    -0.248 NA
ATOM     54  C   UNL A   1      44.711  23.472  27.294  1.00  0.00     0.031 C 
ATOM     55  C   UNL A   1      47.407  28.769  28.586  1.00  0.00     0.029 A 
ATOM     56  C   UNL A   1      46.444  27.787  28.407  1.00  0.00     0.049 A 
ATOM     57  H   UNL A   1      44.361  27.905  28.701  1.00  0.00     0.167 HD
ATOM     58  C   UNL A   1      45.638  25.506  27.824  1.00  0.00     0.074 A 
ATOM     59  C   UNL A   1      45.851  24.148  27.362  1.00  0.00     0.031 C 
ATOM     60  C   UNL A   1      46.623  26.429  27.959  1.00  0.00     0.031 A 
BRANCH  47  61
ATOM     61  C   UNL A   1      44.684  31.991  29.878  1.00  0.00    -0.014 A 
ATOM     62  C   UNL A   1      45.046  32.395  31.172  1.00  0.00     0.009 A 
ATOM     63  C   UNL A   1      44.589  32.962  28.869  1.00  0.00     0.009 A 
ATOM     64  C   UNL A   1      45.256  33.748  31.456  1.00  0.00     0.001 A 
ATOM     65  C   UNL A   1      44.830  34.309  29.147  1.00  0.00     0.001 A 
ATOM     66  C   UNL A   1      45.149  34.702  30.444  1.00  0.00     0.000 A 
ENDBRANCH  47  61
BRANCH  48  67
ATOM     67  C   UNL A   1      41.873  22.691  27.413  1.00  0.00    -0.014 A 
ATOM     68  C   UNL A   1      41.564  22.448  26.067  1.00  0.00     0.009 A 
ATOM     69  C   UNL A   1      41.786  21.624  28.327  1.00  0.00     0.009 A 
ATOM     70  C   UNL A   1      41.178  21.169  25.648  1.00  0.00     0.001 A 
ATOM     71  C   UNL A   1      41.430  20.343  27.900  1.00  0.00     0.001 A 
ATOM     72  C   UNL A   1      41.121  20.117  26.561  1.00  0.00     0.000 A 
ENDBRANCH  48  67
BRANCH  60  73
ATOM     73  C   UNL A   1      48.024  25.987  27.655  1.00  0.00    -0.014 A 
ATOM     74  C   UNL A   1      48.591  26.178  26.387  1.00  0.00     0.009 A 
ATOM     75  C   UNL A   1      48.810  25.442  28.683  1.00  0.00     0.009 A 
ATOM     76  C   UNL A   1      49.917  25.813  26.149  1.00  0.00     0.001 A 
ATOM     77  C   UNL A   1      50.142  25.102  28.450  1.00  0.00     0.001 A 
ATOM     78  C   UNL A   1      50.693  25.283  27.182  1.00  0.00     0.000 A 
ENDBRANCH  60  73
ENDBRANCH  34  35
ENDBRANCH  27  29
ENDBRANCH  26  27
ENDBRANCH  25  26
ENDBRANCH   1  25
TORSDOF 16
ENDMDL
MODEL 2
REMARK VINA RESULT:     -10.2      3.808      6.856
REMARK SMILES CC[C@](C)(NC(=O)CNC(=O)c1cccc(Cl)c1)C(=O)OCCOC(=O)c1ccc(-c2c3nc(c(-c4ccccc4)c4ccc([nH]4)c(-c4ccccc4)c4nc(c(-c5ccccc5)c5ccc2[nH]5)C=C4)C=C3)cc1
REMARK SMILES IDX 22 1 21 2 19 3 20 4 3 5 4 6 2 7 1 8 5 9 6 10 7 12 8 13 9 14
REMARK SMILES IDX 10 15 11 17 12 18 13 19 18 20 14 21 16 22 15 23 17 24 23 25
REMARK SMILES IDX 24 26 25 27 26 28 27 29 28 30 74 31 29 32 73 33 30 34 31 35
REMARK SMILES IDX 32 36 67 37 33 38 72 39 66 40 68 41 34 42 71 43 65 44 64 45
REMARK SMILES IDX 35 47 57 48 42 49 56 50 43 51 46 52 55 53 69 54 44 55 45 56
REMARK SMILES IDX 54 58 70 59 47 60 36 61 37 62 41 63 38 64 40 65 39 66 58 67
REMARK SMILES IDX 59 68 63 69 60 70 62 71 61 72 48 73 49 74 53 75 50 76 52 77
REMARK SMILES IDX 51 78
REMARK H PARENT 5 11 9 16 68 46 46 57
REMARK Flexibility Score: inf
ROOT
ATOM      1  C   UNL A   1      32.423  27.347  26.976  1.00  0.00     0.274 C 
ENDROOT
BRANCH   1   2
ATOM      2  O   UNL A   1      32.614  26.219  26.011  1.00  0.00    -0.460 OA
BRANCH   2   3
ATOM      3  C   UNL A   1      32.244  26.241  24.648  1.00  0.00     0.331 C 
ATOM      4  O   UNL A   1      33.007  26.593  23.755  1.00  0.00    -0.249 OA
BRANCH   3   5
ATOM      5  C   UNL A   1      30.729  25.613  24.352  1.00  0.00     0.135 C 
ATOM      6  C   UNL A   1      30.507  24.676  23.109  1.00  0.00     0.047 C 
BRANCH   5   7
ATOM      7  C   UNL A   1      29.711  26.759  24.100  1.00  0.00     0.037 C 
ATOM      8  C   UNL A   1      28.238  26.312  24.053  1.00  0.00     0.007 C 
ENDBRANCH   5   7
BRANCH   5   9
ATOM      9  N   UNL A   1      30.378  24.853  25.535  1.00  0.00    -0.339 N 
ATOM     10  C   UNL A   1      30.810  23.588  25.749  1.00  0.00     0.240 C 
ATOM     11  H   UNL A   1      29.801  25.274  26.211  1.00  0.00     0.164 HD
ATOM     12  O   UNL A   1      30.453  22.998  26.769  1.00  0.00    -0.273 OA
BRANCH  10  13
ATOM     13  C   UNL A   1      31.756  22.919  24.722  1.00  0.00     0.216 C 
BRANCH  13  14
ATOM     14  N   UNL A   1      33.391  23.068  24.517  1.00  0.00    -0.343 N 
ATOM     15  C   UNL A   1      34.643  23.362  24.027  1.00  0.00     0.251 C 
ATOM     16  H   UNL A   1      33.672  22.629  25.353  1.00  0.00     0.164 HD
ATOM     17  O   UNL A   1      34.797  23.893  22.928  1.00  0.00    -0.269 OA
BRANCH  15  18
ATOM     18  C   UNL A   1      35.892  22.929  24.671  1.00  0.00     0.041 A 
ATOM     19  C   UNL A   1      36.495  21.695  24.368  1.00  0.00     0.014 A 
ATOM     20  C   UNL A   1      36.595  23.864  25.418  1.00  0.00     0.034 A 
ATOM     21  C   UNL A   1      37.683  21.318  25.002  1.00  0.00     0.002 A 
ATOM     22  C   UNL A   1      37.800  23.504  26.009  1.00  0.00     0.041 A 
ATOM     23  C   UNL A   1      38.326  22.223  25.843  1.00  0.00     0.020 A 
ATOM     24  Cl  UNL A   1      38.656  24.674  26.931  1.00  0.00    -0.084 Cl
ENDBRANCH  15  18
ENDBRANCH  13  14
ENDBRANCH  10  13
ENDBRANCH   5   9
ENDBRANCH   3   5
ENDBRANCH   2   3
ENDBRANCH   1   2
BRANCH   1  25
ATOM     25  C   UNL A   1      31.774  28.826  26.483  1.00  0.00     0.275 C 
BRANCH  25  26
ATOM     26  O   UNL A   1      32.651  29.989  26.041  1.00  0.00    -0.458 OA
BRANCH  26  27
ATOM     27  C   UNL A   1      33.194  30.954  26.883  1.00  0.00     0.338 C 
ATOM     28  O   UNL A   1      32.553  31.926  27.258  1.00  0.00    -0.246 OA
BRANCH  27  29
ATOM     29  C   UNL A   1      34.634  30.692  27.463  1.00  0.00     0.060 A 
ATOM     30  C   UNL A   1      35.156  29.451  27.909  1.00  0.00     0.016 A 
ATOM     31  C   UNL A   1      35.450  31.788  27.764  1.00  0.00     0.016 A 
ATOM     32  C   UNL A   1      36.390  29.276  28.548  1.00  0.00     0.010 A 
ATOM     33  C   UNL A   1      36.709  31.628  28.412  1.00  0.00     0.010 A 
ATOM     34  C   UNL A   1      37.195  30.366  28.803  1.00  0.00    -0.014 A 
BRANCH  34  35
ATOM     35  C   UNL A   1      38.439  30.170  29.595  1.00  0.00     0.031 A 
ATOM     36  C   UNL A   1      39.559  29.386  28.984  1.00  0.00     0.074 A 
ATOM     37  C   UNL A   1      38.629  30.747  30.800  1.00  0.00     0.049 A 
ATOM     38  N   UNL A   1      40.578  28.801  29.554  1.00  0.00    -0.248 NA
ATOM     39  C   UNL A   1      39.522  29.249  27.519  1.00  0.00     0.031 C 
ATOM     40  C   UNL A   1      37.734  31.714  31.435  1.00  0.00     0.029 A 
ATOM     41  N   UNL A   1      39.640  30.578  31.720  1.00  0.00    -0.354 N 
ATOM     42  C   UNL A   1      41.246  28.141  28.531  1.00  0.00     0.074 A 
ATOM     43  C   UNL A   1      40.549  28.442  27.301  1.00  0.00     0.031 C 
ATOM     44  C   UNL A   1      38.206  32.014  32.658  1.00  0.00     0.029 A 
ATOM     45  C   UNL A   1      39.377  31.187  32.926  1.00  0.00     0.049 A 
ATOM     46  H   UNL A   1      40.465  30.074  31.535  1.00  0.00     0.167 HD
ATOM     47  C   UNL A   1      42.318  27.320  28.633  1.00  0.00     0.031 A 
ATOM     48  C   UNL A   1      39.951  31.018  34.134  1.00  0.00     0.031 A 
ATOM     49  C   UNL A   1      43.003  27.065  29.873  1.00  0.00     0.049 A 
ATOM     50  C   UNL A   1      41.071  30.021  34.268  1.00  0.00     0.074 A 
ATOM     51  C   UNL A   1      44.077  26.229  30.118  1.00  0.00     0.029 A 
ATOM     52  N   UNL A   1      42.675  27.664  31.081  1.00  0.00    -0.354 N 
ATOM     53  N   UNL A   1      41.628  29.281  33.338  1.00  0.00    -0.248 NA
ATOM     54  C   UNL A   1      41.627  29.818  35.613  1.00  0.00     0.031 C 
ATOM     55  C   UNL A   1      44.364  26.286  31.486  1.00  0.00     0.029 A 
ATOM     56  C   UNL A   1      43.509  27.202  32.081  1.00  0.00     0.049 A 
ATOM     57  H   UNL A   1      41.953  28.321  31.208  1.00  0.00     0.167 HD
ATOM     58  C   UNL A   1      42.608  28.536  33.979  1.00  0.00     0.074 A 
ATOM     59  C   UNL A   1      42.578  28.923  35.376  1.00  0.00     0.031 C 
ATOM     60  C   UNL A   1      43.459  27.615  33.461  1.00  0.00     0.031 A 
BRANCH  47  61
ATOM     61  C   UNL A   1      42.718  26.556  27.402  1.00  0.00    -0.014 A 
ATOM     62  C   UNL A   1      42.188  25.294  27.092  1.00  0.00     0.009 A 
ATOM     63  C   UNL A   1      43.681  27.113  26.545  1.00  0.00     0.009 A 
ATOM     64  C   UNL A   1      42.652  24.587  25.979  1.00  0.00     0.001 A 
ATOM     65  C   UNL A   1      44.121  26.418  25.416  1.00  0.00     0.001 A 
ATOM     66  C   UNL A   1      43.616  25.150  25.142  1.00  0.00     0.000 A 
ENDBRANCH  47  61
BRANCH  48  67
ATOM     67  C   UNL A   1      39.386  31.708  35.328  1.00  0.00    -0.014 A 
ATOM     68  C   UNL A   1      38.366  31.125  36.091  1.00  0.00     0.009 A 
ATOM     69  C   UNL A   1      39.889  32.962  35.722  1.00  0.00     0.009 A 
ATOM     70  C   UNL A   1      37.863  31.780  37.222  1.00  0.00     0.001 A 
ATOM     71  C   UNL A   1      39.407  33.599  36.868  1.00  0.00     0.001 A 
ATOM     72  C   UNL A   1      38.390  33.009  37.614  1.00  0.00     0.000 A 
ENDBRANCH  48  67
BRANCH  60  73
ATOM     73  C   UNL A   1      44.461  27.003  34.395  1.00  0.00    -0.014 A 
ATOM     74  C   UNL A   1      44.196  25.800  35.063  1.00  0.00     0.009 A 
ATOM     75  C   UNL A   1      45.719  27.608  34.544  1.00  0.00     0.009 A 
ATOM     76  C   UNL A   1      45.169  25.222  35.880  1.00  0.00     0.001 A 
ATOM     77  C   UNL A   1      46.699  27.015  35.339  1.00  0.00     0.001 A 
ATOM     78  C   UNL A   1      46.422  25.825  36.011  1.00  0.00     0.000 A 
ENDBRANCH  60  73
ENDBRANCH  34  35
ENDBRANCH  27  29
ENDBRANCH  26  27
ENDBRANCH  25  26
ENDBRANCH   1  25
TORSDOF 16
ENDMDL
MODEL 3
REMARK VINA RESULT:     -10.2      3.741      6.788
REMARK SMILES CC[C@](C)(NC(=O)CNC(=O)c1cccc(Cl)c1)C(=O)OCCOC(=O)c1ccc(-c2c3nc(c(-c4ccccc4)c4ccc([nH]4)c(-c4ccccc4)c4nc(c(-c5ccccc5)c5ccc2[nH]5)C=C4)C=C3)cc1
REMARK SMILES IDX 22 1 21 2 19 3 20 4 3 5 4 6 2 7 1 8 5 9 6 10 7 12 8 13 9 14
REMARK SMILES IDX 10 15 11 17 12 18 13 19 18 20 14 21 16 22 15 23 17 24 23 25
REMARK SMILES IDX 24 26 25 27 26 28 27 29 28 30 74 31 29 32 73 33 30 34 31 35
REMARK SMILES IDX 32 36 67 37 33 38 72 39 66 40 68 41 34 42 71 43 65 44 64 45
REMARK SMILES IDX 35 47 57 48 42 49 56 50 43 51 46 52 55 53 69 54 44 55 45 56
REMARK SMILES IDX 54 58 70 59 47 60 36 61 37 62 41 63 38 64 40 65 39 66 58 67
REMARK SMILES IDX 59 68 63 69 60 70 62 71 61 72 48 73 49 74 53 75 50 76 52 77
REMARK SMILES IDX 51 78
REMARK H PARENT 5 11 9 16 68 46 46 57
REMARK Flexibility Score: inf
ROOT
ATOM      1  C   UNL A   1      32.027  27.722  26.735  1.00  0.00     0.274 C 
ENDROOT
BRANCH   1   2
ATOM      2  O   UNL A   1      32.900  27.092  25.695  1.00  0.00    -0.460 OA
BRANCH   2   3
ATOM      3  C   UNL A   1      33.060  27.561  24.373  1.00  0.00     0.331 C 
ATOM      4  O   UNL A   1      34.098  28.071  23.966  1.00  0.00    -0.249 OA
BRANCH   3   5
ATOM      5  C   UNL A   1      31.763  27.228  23.380  1.00  0.00     0.135 C 
ATOM      6  C   UNL A   1      30.641  28.312  23.180  1.00  0.00     0.047 C 
BRANCH   5   7
ATOM      7  C   UNL A   1      30.965  26.012  23.926  1.00  0.00     0.037 C 
ATOM      8  C   UNL A   1      29.508  26.322  24.317  1.00  0.00     0.007 C 
ENDBRANCH   5   7
BRANCH   5   9
ATOM      9  N   UNL A   1      32.326  26.942  22.076  1.00  0.00    -0.339 N 
ATOM     10  C   UNL A   1      32.790  25.718  21.730  1.00  0.00     0.240 C 
ATOM     11  H   UNL A   1      32.373  27.668  21.414  1.00  0.00     0.164 HD
ATOM     12  O   UNL A   1      33.273  25.556  20.609  1.00  0.00    -0.273 OA
BRANCH  10  13
ATOM     13  C   UNL A   1      32.686  24.548  22.738  1.00  0.00     0.216 C 
BRANCH  13  14
ATOM     14  N   UNL A   1      33.719  24.079  23.942  1.00  0.00    -0.343 N 
ATOM     15  C   UNL A   1      34.297  23.814  25.164  1.00  0.00     0.251 C 
ATOM     16  H   UNL A   1      34.451  23.750  23.371  1.00  0.00     0.164 HD
ATOM     17  O   UNL A   1      33.743  24.120  26.219  1.00  0.00    -0.269 OA
BRANCH  15  18
ATOM     18  C   UNL A   1      35.668  23.310  25.323  1.00  0.00     0.041 A 
ATOM     19  C   UNL A   1      36.661  24.055  25.985  1.00  0.00     0.014 A 
ATOM     20  C   UNL A   1      35.911  21.980  25.011  1.00  0.00     0.034 A 
ATOM     21  C   UNL A   1      37.956  23.542  26.116  1.00  0.00     0.002 A 
ATOM     22  C   UNL A   1      37.186  21.456  25.187  1.00  0.00     0.041 A 
ATOM     23  C   UNL A   1      38.221  22.241  25.695  1.00  0.00     0.020 A 
ATOM     24  Cl  UNL A   1      37.470  19.808  24.794  1.00  0.00    -0.084 Cl
ENDBRANCH  15  18
ENDBRANCH  13  14
ENDBRANCH  10  13
ENDBRANCH   5   9
ENDBRANCH   3   5
ENDBRANCH   2   3
ENDBRANCH   1   2
BRANCH   1  25
ATOM     25  C   UNL A   1      31.549  29.337  26.621  1.00  0.00     0.275 C 
BRANCH  25  26
ATOM     26  O   UNL A   1      32.491  30.430  26.136  1.00  0.00    -0.458 OA
BRANCH  26  27
ATOM     27  C   UNL A   1      33.103  31.383  26.943  1.00  0.00     0.338 C 
ATOM     28  O   UNL A   1      32.531  32.408  27.287  1.00  0.00    -0.246 OA
BRANCH  27  29
ATOM     29  C   UNL A   1      34.524  31.043  27.528  1.00  0.00     0.060 A 
ATOM     30  C   UNL A   1      34.956  29.791  28.034  1.00  0.00     0.016 A 
ATOM     31  C   UNL A   1      35.423  32.088  27.767  1.00  0.00     0.016 A 
ATOM     32  C   UNL A   1      36.180  29.556  28.674  1.00  0.00     0.010 A 
ATOM     33  C   UNL A   1      36.673  31.868  28.415  1.00  0.00     0.010 A 
ATOM     34  C   UNL A   1      37.067  30.594  28.868  1.00  0.00    -0.014 A 
BRANCH  34  35
ATOM     35  C   UNL A   1      38.301  30.345  29.661  1.00  0.00     0.031 A 
ATOM     36  C   UNL A   1      39.393  29.526  29.046  1.00  0.00     0.074 A 
ATOM     37  C   UNL A   1      38.507  30.904  30.872  1.00  0.00     0.049 A 
ATOM     38  N   UNL A   1      40.388  28.900  29.615  1.00  0.00    -0.248 NA
ATOM     39  C   UNL A   1      39.355  29.403  27.581  1.00  0.00     0.031 C 
ATOM     40  C   UNL A   1      37.647  31.899  31.513  1.00  0.00     0.029 A 
ATOM     41  N   UNL A   1      39.509  30.690  31.793  1.00  0.00    -0.354 N 
ATOM     42  C   UNL A   1      41.034  28.224  28.588  1.00  0.00     0.074 A 
ATOM     43  C   UNL A   1      40.352  28.561  27.358  1.00  0.00     0.031 C 
ATOM     44  C   UNL A   1      38.126  32.170  32.739  1.00  0.00     0.029 A 
ATOM     45  C   UNL A   1      39.265  31.299  33.004  1.00  0.00     0.049 A 
ATOM     46  H   UNL A   1      40.315  30.158  31.606  1.00  0.00     0.167 HD
ATOM     47  C   UNL A   1      42.075  27.363  28.685  1.00  0.00     0.031 A 
ATOM     48  C   UNL A   1      39.828  31.097  34.212  1.00  0.00     0.031 A 
ATOM     49  C   UNL A   1      42.746  27.073  29.925  1.00  0.00     0.049 A 
ATOM     50  C   UNL A   1      40.911  30.060  34.340  1.00  0.00     0.074 A 
ATOM     51  C   UNL A   1      43.788  26.196  30.165  1.00  0.00     0.029 A 
ATOM     52  N   UNL A   1      42.436  27.672  31.137  1.00  0.00    -0.354 N 
ATOM     53  N   UNL A   1      41.442  29.307  33.406  1.00  0.00    -0.248 NA
ATOM     54  C   UNL A   1      41.454  29.824  35.684  1.00  0.00     0.031 C 
ATOM     55  C   UNL A   1      44.073  26.230  31.535  1.00  0.00     0.029 A 
ATOM     56  C   UNL A   1      43.250  27.172  32.135  1.00  0.00     0.049 A 
ATOM     57  H   UNL A   1      41.739  28.355  31.267  1.00  0.00     0.167 HD
ATOM     58  C   UNL A   1      42.393  28.521  34.042  1.00  0.00     0.074 A 
ATOM     59  C   UNL A   1      42.373  28.897  35.443  1.00  0.00     0.031 C 
ATOM     60  C   UNL A   1      43.211  27.574  33.518  1.00  0.00     0.031 A 
BRANCH  47  61
ATOM     61  C   UNL A   1      42.450  26.595  27.449  1.00  0.00    -0.014 A 
ATOM     62  C   UNL A   1      43.432  27.042  26.551  1.00  0.00     0.009 A 
ATOM     63  C   UNL A   1      41.770  25.400  27.165  1.00  0.00     0.009 A 
ATOM     64  C   UNL A   1      43.687  26.334  25.373  1.00  0.00     0.001 A 
ATOM     65  C   UNL A   1      42.048  24.678  26.002  1.00  0.00     0.001 A 
ATOM     66  C   UNL A   1      42.996  25.153  25.101  1.00  0.00     0.000 A 
ENDBRANCH  47  61
BRANCH  48  67
ATOM     67  C   UNL A   1      39.285  31.798  35.410  1.00  0.00    -0.014 A 
ATOM     68  C   UNL A   1      38.251  31.239  36.173  1.00  0.00     0.009 A 
ATOM     69  C   UNL A   1      39.824  33.036  35.808  1.00  0.00     0.009 A 
ATOM     70  C   UNL A   1      37.770  31.903  37.308  1.00  0.00     0.001 A 
ATOM     71  C   UNL A   1      39.362  33.681  36.958  1.00  0.00     0.001 A 
ATOM     72  C   UNL A   1      38.331  33.116  37.705  1.00  0.00     0.000 A 
ENDBRANCH  48  67
BRANCH  60  73
ATOM     73  C   UNL A   1      44.187  26.918  34.450  1.00  0.00    -0.014 A 
ATOM     74  C   UNL A   1      45.440  27.487  34.713  1.00  0.00     0.009 A 
ATOM     75  C   UNL A   1      43.806  25.751  35.132  1.00  0.00     0.009 A 
ATOM     76  C   UNL A   1      46.304  26.887  35.632  1.00  0.00     0.001 A 
ATOM     77  C   UNL A   1      44.660  25.169  36.067  1.00  0.00     0.001 A 
ATOM     78  C   UNL A   1      45.911  25.734  36.313  1.00  0.00     0.000 A 
ENDBRANCH  60  73
ENDBRANCH  34  35
ENDBRANCH  27  29
ENDBRANCH  26  27
ENDBRANCH  25  26
ENDBRANCH   1  25
TORSDOF 16
ENDMDL
