MODEL 1
REMARK VINA RESULT:     -10.6      0.000      0.000
REMARK SMILES C[C@@H](C(=O)OCCOC(=O)c1ccc(-c2c3nc(c(-c4ccccc4)c4ccc([nH]4)c(-c4ccccc4)c4nc(c(-c5ccccc5)c5ccc2[nH]5)C=C4)C=C3)cc1)c1ccc(C[C@H]2CCCC2=O)cc1[N+](=O)[O-]
REMARK SMILES IDX 6 1 5 2 3 3 4 4 2 5 1 6 59 7 60 8 71 9 61 10 70 11 62 12
REMARK SMILES IDX 72 13 73 14 74 15 63 16 64 17 65 18 68 19 66 20 67 21 69 22
REMARK SMILES IDX 7 23 8 24 9 25 10 26 11 27 12 28 58 29 13 30 57 31 14 32
REMARK SMILES IDX 15 33 16 34 51 35 17 36 56 37 50 38 52 39 18 40 55 41 49 42
REMARK SMILES IDX 48 43 19 45 41 46 26 47 40 48 27 49 30 50 39 51 53 52 28 53
REMARK SMILES IDX 29 54 38 56 54 57 31 58 20 59 21 60 25 61 22 62 24 63 23 64
REMARK SMILES IDX 42 65 43 66 47 67 44 68 46 69 45 70 32 71 33 72 37 73 34 74
REMARK SMILES IDX 36 75 35 76
REMARK H PARENT 52 44 30 55
REMARK Flexibility Score: inf
ROOT
ATOM      1  C   UNL A   1      32.001  30.215  25.810  1.00  0.00     0.274 C 
ENDROOT
BRANCH   1   2
ATOM      2  O   UNL A   1      32.053  29.093  24.914  1.00  0.00    -0.462 OA
BRANCH   2   3
ATOM      3  C   UNL A   1      30.973  28.896  24.109  1.00  0.00     0.313 C 
ATOM      4  O   UNL A   1      30.178  29.766  23.774  1.00  0.00    -0.252 OA
BRANCH   3   5
ATOM      5  C   UNL A   1      30.878  27.453  23.631  1.00  0.00     0.133 C 
ATOM      6  C   UNL A   1      29.499  26.872  24.031  1.00  0.00     0.025 C 
BRANCH   5   7
ATOM      7  C   UNL A   1      32.009  26.476  23.989  1.00  0.00     0.044 A 
ATOM      8  C   UNL A   1      31.857  25.797  25.221  1.00  0.00     0.012 A 
ATOM      9  C   UNL A   1      33.181  26.148  23.284  1.00  0.00     0.273 A 
ATOM     10  C   UNL A   1      32.875  25.029  25.805  1.00  0.00     0.004 A 
ATOM     11  C   UNL A   1      34.206  25.364  23.874  1.00  0.00     0.089 A 
ATOM     12  C   UNL A   1      34.114  24.898  25.194  1.00  0.00    -0.040 A 
BRANCH   9  13
ATOM     13  N   UNL A   1      33.499  26.623  21.944  1.00  0.00     0.063 N 
ATOM     14  O   UNL A   1      33.911  27.786  21.840  1.00  0.00    -0.258 OA
ATOM     15  O   UNL A   1      33.223  25.877  20.999  1.00  0.00    -0.258 OA
ENDBRANCH   9  13
BRANCH  12  16
ATOM     16  C   UNL A   1      35.304  24.210  25.839  1.00  0.00     0.047 C 
BRANCH  16  17
ATOM     17  C   UNL A   1      36.503  23.693  25.011  1.00  0.00     0.060 C 
ATOM     18  C   UNL A   1      37.928  23.884  25.542  1.00  0.00     0.012 C 
ATOM     19  C   UNL A   1      36.479  22.203  24.777  1.00  0.00     0.136 C 
ATOM     20  C   UNL A   1      38.314  22.583  26.228  1.00  0.00     0.009 C 
ATOM     21  C   UNL A   1      37.679  21.500  25.368  1.00  0.00     0.076 C 
ATOM     22  O   UNL A   1      35.583  21.619  24.179  1.00  0.00    -0.299 OA
ENDBRANCH  16  17
ENDBRANCH  12  16
ENDBRANCH   5   7
ENDBRANCH   3   5
ENDBRANCH   2   3
ENDBRANCH   1   2
BRANCH   1  23
ATOM     23  C   UNL A   1      32.364  29.752  27.227  1.00  0.00     0.275 C 
BRANCH  23  24
ATOM     24  O   UNL A   1      33.785  29.526  27.354  1.00  0.00    -0.458 OA
BRANCH  24  25
ATOM     25  C   UNL A   1      34.490  30.558  27.881  1.00  0.00     0.338 C 
ATOM     26  O   UNL A   1      34.083  31.675  28.137  1.00  0.00    -0.246 OA
BRANCH  25  27
ATOM     27  C   UNL A   1      35.820  30.081  28.316  1.00  0.00     0.060 A 
ATOM     28  C   UNL A   1      36.824  30.128  27.356  1.00  0.00     0.016 A 
ATOM     29  C   UNL A   1      36.109  29.597  29.597  1.00  0.00     0.016 A 
ATOM     30  C   UNL A   1      38.122  29.765  27.696  1.00  0.00     0.010 A 
ATOM     31  C   UNL A   1      37.420  29.179  29.915  1.00  0.00     0.010 A 
ATOM     32  C   UNL A   1      38.445  29.278  28.965  1.00  0.00    -0.014 A 
BRANCH  32  33
ATOM     33  C   UNL A   1      39.836  28.782  29.172  1.00  0.00     0.031 A 
ATOM     34  C   UNL A   1      40.773  29.579  30.040  1.00  0.00     0.074 A 
ATOM     35  C   UNL A   1      40.210  27.544  28.789  1.00  0.00     0.049 A 
ATOM     36  N   UNL A   1      41.989  29.293  30.433  1.00  0.00    -0.248 NA
ATOM     37  C   UNL A   1      40.245  30.841  30.580  1.00  0.00     0.031 C 
ATOM     38  C   UNL A   1      39.358  26.580  28.098  1.00  0.00     0.029 A 
ATOM     39  N   UNL A   1      41.395  26.868  28.974  1.00  0.00    -0.354 N 
ATOM     40  C   UNL A   1      42.377  30.341  31.257  1.00  0.00     0.074 A 
ATOM     41  C   UNL A   1      41.258  31.258  31.326  1.00  0.00     0.031 C 
ATOM     42  C   UNL A   1      40.034  25.427  27.947  1.00  0.00     0.029 A 
ATOM     43  C   UNL A   1      41.396  25.591  28.457  1.00  0.00     0.049 A 
ATOM     44  H   UNL A   1      42.172  27.260  29.435  1.00  0.00     0.167 HD
ATOM     45  C   UNL A   1      43.563  30.545  31.880  1.00  0.00     0.031 A 
ATOM     46  C   UNL A   1      42.386  24.678  28.367  1.00  0.00     0.031 A 
ATOM     47  C   UNL A   1      44.709  29.684  31.762  1.00  0.00     0.049 A 
ATOM     48  C   UNL A   1      43.762  25.023  28.890  1.00  0.00     0.074 A 
ATOM     49  C   UNL A   1      45.986  29.876  32.259  1.00  0.00     0.029 A 
ATOM     50  N   UNL A   1      44.724  28.480  31.079  1.00  0.00    -0.354 N 
ATOM     51  N   UNL A   1      44.144  26.056  29.601  1.00  0.00    -0.248 NA
ATOM     52  C   UNL A   1      44.850  24.081  28.576  1.00  0.00     0.031 C 
ATOM     53  C   UNL A   1      46.794  28.824  31.813  1.00  0.00     0.029 A 
ATOM     54  C   UNL A   1      45.998  27.936  31.108  1.00  0.00     0.049 A 
ATOM     55  H   UNL A   1      43.945  28.069  30.639  1.00  0.00     0.167 HD
ATOM     56  C   UNL A   1      45.506  25.879  29.831  1.00  0.00     0.074 A 
ATOM     57  C   UNL A   1      45.879  24.627  29.210  1.00  0.00     0.031 C 
ATOM     58  C   UNL A   1      46.370  26.688  30.492  1.00  0.00     0.031 A 
BRANCH  45  59
ATOM     59  C   UNL A   1      43.708  31.827  32.647  1.00  0.00    -0.014 A 
ATOM     60  C   UNL A   1      43.407  31.910  34.015  1.00  0.00     0.009 A 
ATOM     61  C   UNL A   1      44.137  32.981  31.971  1.00  0.00     0.009 A 
ATOM     62  C   UNL A   1      43.494  33.135  34.680  1.00  0.00     0.001 A 
ATOM     63  C   UNL A   1      44.249  34.196  32.645  1.00  0.00     0.001 A 
ATOM     64  C   UNL A   1      43.914  34.276  33.994  1.00  0.00     0.000 A 
ENDBRANCH  45  59
BRANCH  46  65
ATOM     65  C   UNL A   1      42.173  23.378  27.667  1.00  0.00    -0.014 A 
ATOM     66  C   UNL A   1      42.364  23.255  26.280  1.00  0.00     0.009 A 
ATOM     67  C   UNL A   1      41.683  22.267  28.375  1.00  0.00     0.009 A 
ATOM     68  C   UNL A   1      42.038  22.065  25.620  1.00  0.00     0.001 A 
ATOM     69  C   UNL A   1      41.397  21.067  27.719  1.00  0.00     0.001 A 
ATOM     70  C   UNL A   1      41.561  20.972  26.340  1.00  0.00     0.000 A 
ENDBRANCH  46  65
BRANCH  58  71
ATOM     71  C   UNL A   1      47.802  26.239  30.616  1.00  0.00    -0.014 A 
ATOM     72  C   UNL A   1      48.718  26.401  29.564  1.00  0.00     0.009 A 
ATOM     73  C   UNL A   1      48.258  25.703  31.831  1.00  0.00     0.009 A 
ATOM     74  C   UNL A   1      50.050  26.009  29.718  1.00  0.00     0.001 A 
ATOM     75  C   UNL A   1      49.598  25.341  31.992  1.00  0.00     0.001 A 
ATOM     76  C   UNL A   1      50.491  25.487  30.933  1.00  0.00     0.000 A 
ENDBRANCH  58  71
ENDBRANCH  32  33
ENDBRANCH  25  27
ENDBRANCH  24  25
ENDBRANCH  23  24
ENDBRANCH   1  23
TORSDOF 15
ENDMDL
MODEL 2
REMARK VINA RESULT:     -10.3      0.935      6.006
REMARK SMILES C[C@@H](C(=O)OCCOC(=O)c1ccc(-c2c3nc(c(-c4ccccc4)c4ccc([nH]4)c(-c4ccccc4)c4nc(c(-c5ccccc5)c5ccc2[nH]5)C=C4)C=C3)cc1)c1ccc(C[C@H]2CCCC2=O)cc1[N+](=O)[O-]
REMARK SMILES IDX 6 1 5 2 3 3 4 4 2 5 1 6 59 7 60 8 71 9 61 10 70 11 62 12
REMARK SMILES IDX 72 13 73 14 74 15 63 16 64 17 65 18 68 19 66 20 67 21 69 22
REMARK SMILES IDX 7 23 8 24 9 25 10 26 11 27 12 28 58 29 13 30 57 31 14 32
REMARK SMILES IDX 15 33 16 34 51 35 17 36 56 37 50 38 52 39 18 40 55 41 49 42
REMARK SMILES IDX 48 43 19 45 41 46 26 47 40 48 27 49 30 50 39 51 53 52 28 53
REMARK SMILES IDX 29 54 38 56 54 57 31 58 20 59 21 60 25 61 22 62 24 63 23 64
REMARK SMILES IDX 42 65 43 66 47 67 44 68 46 69 45 70 32 71 33 72 37 73 34 74
REMARK SMILES IDX 36 75 35 76
REMARK H PARENT 52 44 30 55
REMARK Flexibility Score: inf
ROOT
ATOM      1  C   UNL A   1      32.502  29.659  25.517  1.00  0.00     0.274 C 
ENDROOT
BRANCH   1   2
ATOM      2  O   UNL A   1      32.279  29.218  24.167  1.00  0.00    -0.462 OA
BRANCH   2   3
ATOM      3  C   UNL A   1      30.998  28.904  23.826  1.00  0.00     0.313 C 
ATOM      4  O   UNL A   1      30.060  29.692  23.816  1.00  0.00    -0.252 OA
BRANCH   3   5
ATOM      5  C   UNL A   1      30.864  27.444  23.414  1.00  0.00     0.133 C 
ATOM      6  C   UNL A   1      29.434  26.948  23.750  1.00  0.00     0.025 C 
BRANCH   5   7
ATOM      7  C   UNL A   1      31.920  26.436  23.893  1.00  0.00     0.044 A 
ATOM      8  C   UNL A   1      31.653  25.824  25.141  1.00  0.00     0.012 A 
ATOM      9  C   UNL A   1      33.120  26.023  23.287  1.00  0.00     0.273 A 
ATOM     10  C   UNL A   1      32.592  25.041  25.829  1.00  0.00     0.004 A 
ATOM     11  C   UNL A   1      34.064  25.224  23.981  1.00  0.00     0.089 A 
ATOM     12  C   UNL A   1      33.862  24.827  25.311  1.00  0.00    -0.040 A 
BRANCH   9  13
ATOM     13  N   UNL A   1      33.550  26.419  21.953  1.00  0.00     0.063 N 
ATOM     14  O   UNL A   1      34.035  27.552  21.828  1.00  0.00    -0.258 OA
ATOM     15  O   UNL A   1      33.291  25.648  21.023  1.00  0.00    -0.258 OA
ENDBRANCH   9  13
BRANCH  12  16
ATOM     16  C   UNL A   1      34.972  24.119  26.068  1.00  0.00     0.047 C 
BRANCH  16  17
ATOM     17  C   UNL A   1      35.061  22.577  26.145  1.00  0.00     0.060 C 
ATOM     18  C   UNL A   1      33.953  21.790  26.855  1.00  0.00     0.012 C 
ATOM     19  C   UNL A   1      35.075  21.903  24.796  1.00  0.00     0.136 C 
ATOM     20  C   UNL A   1      32.999  21.312  25.773  1.00  0.00     0.009 C 
ATOM     21  C   UNL A   1      33.901  20.973  24.596  1.00  0.00     0.076 C 
ATOM     22  O   UNL A   1      35.939  22.089  23.948  1.00  0.00    -0.299 OA
ENDBRANCH  16  17
ENDBRANCH  12  16
ENDBRANCH   5   7
ENDBRANCH   3   5
ENDBRANCH   2   3
ENDBRANCH   1   2
BRANCH   1  23
ATOM     23  C   UNL A   1      33.763  28.982  26.071  1.00  0.00     0.275 C 
BRANCH  23  24
ATOM     24  O   UNL A   1      33.890  29.199  27.493  1.00  0.00    -0.458 OA
BRANCH  24  25
ATOM     25  C   UNL A   1      34.576  30.313  27.849  1.00  0.00     0.338 C 
ATOM     26  O   UNL A   1      34.148  31.450  27.931  1.00  0.00    -0.246 OA
BRANCH  25  27
ATOM     27  C   UNL A   1      35.917  29.935  28.345  1.00  0.00     0.060 A 
ATOM     28  C   UNL A   1      36.945  29.991  27.413  1.00  0.00     0.016 A 
ATOM     29  C   UNL A   1      36.192  29.534  29.657  1.00  0.00     0.016 A 
ATOM     30  C   UNL A   1      38.250  29.720  27.807  1.00  0.00     0.010 A 
ATOM     31  C   UNL A   1      37.513  29.208  30.033  1.00  0.00     0.010 A 
ATOM     32  C   UNL A   1      38.561  29.317  29.108  1.00  0.00    -0.014 A 
BRANCH  32  33
ATOM     33  C   UNL A   1      39.970  28.911  29.380  1.00  0.00     0.031 A 
ATOM     34  C   UNL A   1      40.439  27.555  28.929  1.00  0.00     0.074 A 
ATOM     35  C   UNL A   1      40.888  29.797  29.820  1.00  0.00     0.049 A 
ATOM     36  N   UNL A   1      41.639  27.031  28.975  1.00  0.00    -0.248 NA
ATOM     37  C   UNL A   1      39.429  26.696  28.291  1.00  0.00     0.031 C 
ATOM     38  C   UNL A   1      40.628  31.201  30.128  1.00  0.00     0.029 A 
ATOM     39  N   UNL A   1      42.240  29.654  30.033  1.00  0.00    -0.354 N 
ATOM     40  C   UNL A   1      41.528  25.780  28.383  1.00  0.00     0.074 A 
ATOM     41  C   UNL A   1      40.150  25.633  27.964  1.00  0.00     0.031 C 
ATOM     42  C   UNL A   1      41.787  31.798  30.459  1.00  0.00     0.029 A 
ATOM     43  C   UNL A   1      42.861  30.805  30.465  1.00  0.00     0.049 A 
ATOM     44  H   UNL A   1      42.720  28.807  29.890  1.00  0.00     0.167 HD
ATOM     45  C   UNL A   1      42.475  24.824  28.224  1.00  0.00     0.031 A 
ATOM     46  C   UNL A   1      44.134  31.024  30.858  1.00  0.00     0.031 A 
ATOM     47  C   UNL A   1      43.828  24.923  28.700  1.00  0.00     0.049 A 
ATOM     48  C   UNL A   1      45.116  29.875  30.865  1.00  0.00     0.074 A 
ATOM     49  C   UNL A   1      44.819  23.956  28.690  1.00  0.00     0.029 A 
ATOM     50  N   UNL A   1      44.375  26.047  29.295  1.00  0.00    -0.354 N 
ATOM     51  N   UNL A   1      44.982  28.667  30.376  1.00  0.00    -0.248 NA
ATOM     52  C   UNL A   1      46.423  30.118  31.501  1.00  0.00     0.031 C 
ATOM     53  C   UNL A   1      45.942  24.472  29.347  1.00  0.00     0.029 A 
ATOM     54  C   UNL A   1      45.677  25.787  29.692  1.00  0.00     0.049 A 
ATOM     55  H   UNL A   1      43.909  26.906  29.418  1.00  0.00     0.167 HD
ATOM     56  C   UNL A   1      46.186  28.015  30.631  1.00  0.00     0.074 A 
ATOM     57  C   UNL A   1      47.049  28.969  31.291  1.00  0.00     0.031 C 
ATOM     58  C   UNL A   1      46.539  26.737  30.348  1.00  0.00     0.031 A 
BRANCH  45  59
ATOM     59  C   UNL A   1      42.026  23.529  27.609  1.00  0.00    -0.014 A 
ATOM     60  C   UNL A   1      41.358  22.548  28.356  1.00  0.00     0.009 A 
ATOM     61  C   UNL A   1      42.302  23.287  26.254  1.00  0.00     0.009 A 
ATOM     62  C   UNL A   1      41.011  21.331  27.765  1.00  0.00     0.001 A 
ATOM     63  C   UNL A   1      41.931  22.081  25.660  1.00  0.00     0.001 A 
ATOM     64  C   UNL A   1      41.299  21.099  26.419  1.00  0.00     0.000 A 
ENDBRANCH  45  59
BRANCH  46  65
ATOM     65  C   UNL A   1      44.558  32.355  31.386  1.00  0.00    -0.014 A 
ATOM     66  C   UNL A   1      45.286  33.257  30.591  1.00  0.00     0.009 A 
ATOM     67  C   UNL A   1      44.315  32.692  32.728  1.00  0.00     0.009 A 
ATOM     68  C   UNL A   1      45.784  34.445  31.138  1.00  0.00     0.001 A 
ATOM     69  C   UNL A   1      44.780  33.897  33.261  1.00  0.00     0.001 A 
ATOM     70  C   UNL A   1      45.527  34.766  32.470  1.00  0.00     0.000 A 
ENDBRANCH  46  65
BRANCH  58  71
ATOM     71  C   UNL A   1      47.929  26.291  30.714  1.00  0.00    -0.014 A 
ATOM     72  C   UNL A   1      48.224  25.769  31.985  1.00  0.00     0.009 A 
ATOM     73  C   UNL A   1      48.950  26.336  29.751  1.00  0.00     0.009 A 
ATOM     74  C   UNL A   1      49.515  25.330  32.288  1.00  0.00     0.001 A 
ATOM     75  C   UNL A   1      50.231  25.866  30.046  1.00  0.00     0.001 A 
ATOM     76  C   UNL A   1      50.515  25.370  31.317  1.00  0.00     0.000 A 
ENDBRANCH  58  71
ENDBRANCH  32  33
ENDBRANCH  25  27
ENDBRANCH  24  25
ENDBRANCH  23  24
ENDBRANCH   1  23
TORSDOF 15
ENDMDL
MODEL 3
REMARK VINA RESULT:     -10.2      1.788      7.772
REMARK SMILES C[C@@H](C(=O)OCCOC(=O)c1ccc(-c2c3nc(c(-c4ccccc4)c4ccc([nH]4)c(-c4ccccc4)c4nc(c(-c5ccccc5)c5ccc2[nH]5)C=C4)C=C3)cc1)c1ccc(C[C@H]2CCCC2=O)cc1[N+](=O)[O-]
REMARK SMILES IDX 6 1 5 2 3 3 4 4 2 5 1 6 59 7 60 8 71 9 61 10 70 11 62 12
REMARK SMILES IDX 72 13 73 14 74 15 63 16 64 17 65 18 68 19 66 20 67 21 69 22
REMARK SMILES IDX 7 23 8 24 9 25 10 26 11 27 12 28 58 29 13 30 57 31 14 32
REMARK SMILES IDX 15 33 16 34 51 35 17 36 56 37 50 38 52 39 18 40 55 41 49 42
REMARK SMILES IDX 48 43 19 45 41 46 26 47 40 48 27 49 30 50 39 51 53 52 28 53
REMARK SMILES IDX 29 54 38 56 54 57 31 58 20 59 21 60 25 61 22 62 24 63 23 64
REMARK SMILES IDX 42 65 43 66 47 67 44 68 46 69 45 70 32 71 33 72 37 73 34 74
REMARK SMILES IDX 36 75 35 76
REMARK H PARENT 52 44 30 55
REMARK Flexibility Score: inf
ROOT
ATOM      1  C   UNL A   1      38.190  20.178  24.843  1.00  0.00     0.274 C 
ENDROOT
BRANCH   1   2
ATOM      2  O   UNL A   1      37.645  21.507  24.775  1.00  0.00    -0.462 OA
BRANCH   2   3
ATOM      3  C   UNL A   1      36.311  21.638  25.014  1.00  0.00     0.313 C 
ATOM      4  O   UNL A   1      35.728  21.209  26.003  1.00  0.00    -0.252 OA
BRANCH   3   5
ATOM      5  C   UNL A   1      35.613  22.423  23.911  1.00  0.00     0.133 C 
ATOM      6  C   UNL A   1      36.676  22.988  22.936  1.00  0.00     0.025 C 
BRANCH   5   7
ATOM      7  C   UNL A   1      34.595  23.507  24.301  1.00  0.00     0.044 A 
ATOM      8  C   UNL A   1      34.923  24.261  25.453  1.00  0.00     0.012 A 
ATOM      9  C   UNL A   1      33.381  23.871  23.693  1.00  0.00     0.273 A 
ATOM     10  C   UNL A   1      34.027  25.145  26.073  1.00  0.00     0.004 A 
ATOM     11  C   UNL A   1      32.480  24.771  24.318  1.00  0.00     0.089 A 
ATOM     12  C   UNL A   1      32.742  25.324  25.580  1.00  0.00    -0.040 A 
BRANCH   9  13
ATOM     13  N   UNL A   1      32.891  23.324  22.435  1.00  0.00     0.063 N 
ATOM     14  O   UNL A   1      33.243  23.896  21.395  1.00  0.00    -0.258 OA
ATOM     15  O   UNL A   1      32.066  22.406  22.500  1.00  0.00    -0.258 OA
ENDBRANCH   9  13
BRANCH  12  16
ATOM     16  C   UNL A   1      31.677  26.146  26.283  1.00  0.00     0.047 C 
BRANCH  16  17
ATOM     17  C   UNL A   1      31.725  27.691  26.327  1.00  0.00     0.060 C 
ATOM     18  C   UNL A   1      32.870  28.391  27.069  1.00  0.00     0.012 C 
ATOM     19  C   UNL A   1      31.827  28.332  24.966  1.00  0.00     0.136 C 
ATOM     20  C   UNL A   1      33.907  28.756  26.019  1.00  0.00     0.009 C 
ATOM     21  C   UNL A   1      33.088  29.147  24.798  1.00  0.00     0.076 C 
ATOM     22  O   UNL A   1      30.986  28.204  24.085  1.00  0.00    -0.299 OA
ENDBRANCH  16  17
ENDBRANCH  12  16
ENDBRANCH   5   7
ENDBRANCH   3   5
ENDBRANCH   2   3
ENDBRANCH   1   2
BRANCH   1  23
ATOM     23  C   UNL A   1      39.357  20.159  25.840  1.00  0.00     0.275 C 
BRANCH  23  24
ATOM     24  O   UNL A   1      40.212  19.015  25.621  1.00  0.00    -0.458 OA
BRANCH  24  25
ATOM     25  C   UNL A   1      41.530  19.225  25.861  1.00  0.00     0.338 C 
ATOM     26  O   UNL A   1      42.469  18.568  25.450  1.00  0.00    -0.246 OA
BRANCH  25  27
ATOM     27  C   UNL A   1      41.712  20.523  26.543  1.00  0.00     0.060 A 
ATOM     28  C   UNL A   1      42.112  21.581  25.736  1.00  0.00     0.016 A 
ATOM     29  C   UNL A   1      41.514  20.733  27.913  1.00  0.00     0.016 A 
ATOM     30  C   UNL A   1      42.240  22.854  26.280  1.00  0.00     0.010 A 
ATOM     31  C   UNL A   1      41.701  22.019  28.464  1.00  0.00     0.010 A 
ATOM     32  C   UNL A   1      42.050  23.099  27.642  1.00  0.00    -0.014 A 
BRANCH  32  33
ATOM     33  C   UNL A   1      42.357  24.471  28.139  1.00  0.00     0.031 A 
ATOM     34  C   UNL A   1      43.795  24.886  28.297  1.00  0.00     0.074 A 
ATOM     35  C   UNL A   1      41.399  25.415  28.244  1.00  0.00     0.049 A 
ATOM     36  N   UNL A   1      44.293  26.052  28.623  1.00  0.00    -0.248 NA
ATOM     37  C   UNL A   1      44.805  23.860  27.996  1.00  0.00     0.031 C 
ATOM     38  C   UNL A   1      39.982  25.219  27.949  1.00  0.00     0.029 A 
ATOM     39  N   UNL A   1      41.487  26.748  28.579  1.00  0.00    -0.354 N 
ATOM     40  C   UNL A   1      45.673  25.900  28.574  1.00  0.00     0.074 A 
ATOM     41  C   UNL A   1      45.932  24.535  28.166  1.00  0.00     0.031 C 
ATOM     42  C   UNL A   1      39.339  26.393  28.084  1.00  0.00     0.029 A 
ATOM     43  C   UNL A   1      40.280  27.411  28.552  1.00  0.00     0.049 A 
ATOM     44  H   UNL A   1      42.335  27.188  28.816  1.00  0.00     0.167 HD
ATOM     45  C   UNL A   1      46.642  26.800  28.869  1.00  0.00     0.031 A 
ATOM     46  C   UNL A   1      39.962  28.676  28.902  1.00  0.00     0.031 A 
ATOM     47  C   UNL A   1      46.403  28.135  29.348  1.00  0.00     0.049 A 
ATOM     48  C   UNL A   1      41.042  29.593  29.427  1.00  0.00     0.074 A 
ATOM     49  C   UNL A   1      47.323  29.072  29.786  1.00  0.00     0.029 A 
ATOM     50  N   UNL A   1      45.152  28.716  29.477  1.00  0.00    -0.354 N 
ATOM     51  N   UNL A   1      42.341  29.415  29.455  1.00  0.00    -0.248 NA
ATOM     52  C   UNL A   1      40.606  30.882  29.992  1.00  0.00     0.031 C 
ATOM     53  C   UNL A   1      46.623  30.191  30.249  1.00  0.00     0.029 A 
ATOM     54  C   UNL A   1      45.273  29.983  30.024  1.00  0.00     0.049 A 
ATOM     55  H   UNL A   1      44.303  28.291  29.216  1.00  0.00     0.167 HD
ATOM     56  C   UNL A   1      42.873  30.570  30.022  1.00  0.00     0.074 A 
ATOM     57  C   UNL A   1      41.762  31.454  30.298  1.00  0.00     0.031 C 
ATOM     58  C   UNL A   1      44.167  30.865  30.296  1.00  0.00     0.031 A 
BRANCH  45  59
ATOM     59  C   UNL A   1      48.059  26.310  28.796  1.00  0.00    -0.014 A 
ATOM     60  C   UNL A   1      48.701  25.736  29.904  1.00  0.00     0.009 A 
ATOM     61  C   UNL A   1      48.767  26.448  27.591  1.00  0.00     0.009 A 
ATOM     62  C   UNL A   1      50.041  25.348  29.816  1.00  0.00     0.001 A 
ATOM     63  C   UNL A   1      50.096  26.035  27.500  1.00  0.00     0.001 A 
ATOM     64  C   UNL A   1      50.735  25.499  28.615  1.00  0.00     0.000 A 
ENDBRANCH  45  59
BRANCH  46  65
ATOM     65  C   UNL A   1      38.546  29.148  28.879  1.00  0.00    -0.014 A 
ATOM     66  C   UNL A   1      38.012  29.797  27.753  1.00  0.00     0.009 A 
ATOM     67  C   UNL A   1      37.745  29.032  30.027  1.00  0.00     0.009 A 
ATOM     68  C   UNL A   1      36.724  30.345  27.793  1.00  0.00     0.001 A 
ATOM     69  C   UNL A   1      36.446  29.545  30.050  1.00  0.00     0.001 A 
ATOM     70  C   UNL A   1      35.942  30.214  28.938  1.00  0.00     0.000 A 
ENDBRANCH  46  65
BRANCH  58  71
ATOM     71  C   UNL A   1      44.473  32.213  30.894  1.00  0.00    -0.014 A 
ATOM     72  C   UNL A   1      44.695  33.342  30.089  1.00  0.00     0.009 A 
ATOM     73  C   UNL A   1      44.476  32.369  32.290  1.00  0.00     0.009 A 
ATOM     74  C   UNL A   1      44.941  34.589  30.670  1.00  0.00     0.001 A 
ATOM     75  C   UNL A   1      44.691  33.622  32.867  1.00  0.00     0.001 A 
ATOM     76  C   UNL A   1      44.931  34.730  32.057  1.00  0.00     0.000 A 
ENDBRANCH  58  71
ENDBRANCH  32  33
ENDBRANCH  25  27
ENDBRANCH  24  25
ENDBRANCH  23  24
ENDBRANCH   1  23
TORSDOF 15
ENDMDL
