MODEL 1
REMARK VINA RESULT:      -9.1      0.000      0.000
REMARK SMILES CCN(Cc1ccc(Br)s1)C(=O)C[N@@H+](C)CC(=O)OCCOC(=O)c1ccc(-c2c3nc(c(-c4ccccc4)c4ccc([nH]4)c(-c4ccccc4)c4nc(c(-c5ccccc5)c5ccc2[nH]5)C=C4)C=C3)cc1
REMARK SMILES IDX 17 1 18 2 16 3 14 4 15 5 13 7 11 8 12 9 3 10 2 11 1 12 4 13
REMARK SMILES IDX 5 14 6 15 10 16 7 17 8 18 9 19 19 20 20 21 21 22 22 23 23 24
REMARK SMILES IDX 24 25 25 26 26 27 72 28 27 29 71 30 28 31 29 32 30 33 65 34
REMARK SMILES IDX 31 35 70 36 64 37 66 38 32 39 69 40 63 41 62 42 33 44 55 45
REMARK SMILES IDX 40 46 54 47 41 48 44 49 53 50 67 51 42 52 43 53 52 55 68 56
REMARK SMILES IDX 45 57 34 58 35 59 39 60 36 61 38 62 37 63 56 64 57 65 61 66
REMARK SMILES IDX 58 67 60 68 59 69 46 70 47 71 51 72 48 73 50 74 49 75
REMARK H PARENT 14 6 66 43 44 54
REMARK Flexibility Score: inf
ROOT
ATOM      1  C   UNL A   1      33.236  33.088  28.021  1.00  0.00     0.361 C 
ATOM      2  O   UNL A   1      32.185  33.166  27.389  1.00  0.00    -0.245 OA
ENDROOT
BRANCH   1   3
ATOM      3  C   UNL A   1      34.294  32.050  27.655  1.00  0.00     0.386 C 
BRANCH   3   4
ATOM      4  N   UNL A   1      33.926  30.622  27.576  1.00  0.00    -0.320 N 
ATOM      5  C   UNL A   1      35.019  29.709  27.892  1.00  0.00     0.333 C 
ATOM      6  H   UNL A   1      33.238  30.529  28.324  1.00  0.00     0.348 HD
BRANCH   4   7
ATOM      7  C   UNL A   1      33.220  30.223  26.346  1.00  0.00     0.364 C 
BRANCH   7   8
ATOM      8  C   UNL A   1      32.037  29.261  26.588  1.00  0.00     0.278 C 
ATOM      9  O   UNL A   1      31.425  29.331  27.658  1.00  0.00    -0.268 OA
BRANCH   8  10
ATOM     10  N   UNL A   1      31.611  28.388  25.593  1.00  0.00    -0.333 N 
BRANCH  10  11
ATOM     11  C   UNL A   1      31.586  28.870  24.207  1.00  0.00     0.116 C 
ATOM     12  C   UNL A   1      30.248  28.629  23.529  1.00  0.00     0.027 C 
ENDBRANCH  10  11
BRANCH  10  13
ATOM     13  C   UNL A   1      31.313  26.973  25.812  1.00  0.00     0.166 C 
BRANCH  13  14
ATOM     14  C   UNL A   1      32.450  26.132  25.306  1.00  0.00     0.025 A 
ATOM     15  C   UNL A   1      33.761  26.062  25.751  1.00  0.00     0.018 A 
ATOM     16  S   UNL A   1      32.183  25.038  24.007  1.00  0.00    -0.131 S 
ATOM     17  C   UNL A   1      34.509  25.047  25.087  1.00  0.00     0.028 A 
ATOM     18  C   UNL A   1      33.750  24.415  24.136  1.00  0.00     0.070 A 
ATOM     19  Br  UNL A   1      34.377  22.997  23.087  1.00  0.00    -0.039 Br
ENDBRANCH  13  14
ENDBRANCH  10  13
ENDBRANCH   8  10
ENDBRANCH   7   8
ENDBRANCH   4   7
ENDBRANCH   3   4
ENDBRANCH   1   3
BRANCH   1  20
ATOM     20  O   UNL A   1      33.541  33.874  29.084  1.00  0.00    -0.458 OA
BRANCH  20  21
ATOM     21  C   UNL A   1      33.804  35.265  28.802  1.00  0.00     0.274 C 
BRANCH  21  22
ATOM     22  C   UNL A   1      32.877  36.144  29.634  1.00  0.00     0.275 C 
BRANCH  22  23
ATOM     23  O   UNL A   1      32.356  35.363  30.721  1.00  0.00    -0.458 OA
BRANCH  23  24
ATOM     24  C   UNL A   1      32.624  35.825  31.965  1.00  0.00     0.338 C 
ATOM     25  O   UNL A   1      32.014  36.692  32.567  1.00  0.00    -0.246 OA
BRANCH  24  26
ATOM     26  C   UNL A   1      33.801  35.116  32.517  1.00  0.00     0.060 A 
ATOM     27  C   UNL A   1      35.064  35.710  32.516  1.00  0.00     0.016 A 
ATOM     28  C   UNL A   1      33.658  33.794  32.945  1.00  0.00     0.016 A 
ATOM     29  C   UNL A   1      36.188  34.955  32.852  1.00  0.00     0.010 A 
ATOM     30  C   UNL A   1      34.779  33.070  33.368  1.00  0.00     0.010 A 
ATOM     31  C   UNL A   1      36.066  33.626  33.290  1.00  0.00    -0.014 A 
BRANCH  31  32
ATOM     32  C   UNL A   1      37.275  32.819  33.634  1.00  0.00     0.031 A 
ATOM     33  C   UNL A   1      37.960  32.980  34.970  1.00  0.00     0.074 A 
ATOM     34  C   UNL A   1      37.774  31.926  32.755  1.00  0.00     0.049 A 
ATOM     35  N   UNL A   1      39.127  32.524  35.361  1.00  0.00    -0.248 NA
ATOM     36  C   UNL A   1      37.254  33.765  35.997  1.00  0.00     0.031 C 
ATOM     37  C   UNL A   1      37.212  31.619  31.439  1.00  0.00     0.029 A 
ATOM     38  N   UNL A   1      38.870  31.101  32.844  1.00  0.00    -0.354 N 
ATOM     39  C   UNL A   1      39.325  33.025  36.642  1.00  0.00     0.074 A 
ATOM     40  C   UNL A   1      38.154  33.811  36.971  1.00  0.00     0.031 C 
ATOM     41  C   UNL A   1      37.928  30.637  30.871  1.00  0.00     0.029 A 
ATOM     42  C   UNL A   1      39.058  30.316  31.732  1.00  0.00     0.049 A 
ATOM     43  H   UNL A   1      39.463  31.074  33.630  1.00  0.00     0.167 HD
ATOM     44  C   UNL A   1      40.387  32.851  37.466  1.00  0.00     0.031 A 
ATOM     45  C   UNL A   1      40.048  29.464  31.409  1.00  0.00     0.031 A 
ATOM     46  C   UNL A   1      41.528  32.021  37.175  1.00  0.00     0.049 A 
ATOM     47  C   UNL A   1      41.213  29.292  32.337  1.00  0.00     0.074 A 
ATOM     48  C   UNL A   1      42.647  31.784  37.959  1.00  0.00     0.029 A 
ATOM     49  N   UNL A   1      41.686  31.271  36.022  1.00  0.00    -0.354 N 
ATOM     50  N   UNL A   1      41.427  29.844  33.504  1.00  0.00    -0.248 NA
ATOM     51  C   UNL A   1      42.287  28.393  31.887  1.00  0.00     0.031 C 
ATOM     52  C   UNL A   1      43.493  30.910  37.268  1.00  0.00     0.029 A 
ATOM     53  C   UNL A   1      42.882  30.572  36.073  1.00  0.00     0.049 A 
ATOM     54  H   UNL A   1      41.045  31.238  35.276  1.00  0.00     0.167 HD
ATOM     55  C   UNL A   1      42.661  29.368  33.925  1.00  0.00     0.074 A 
ATOM     56  C   UNL A   1      43.131  28.453  32.906  1.00  0.00     0.031 C 
ATOM     57  C   UNL A   1      43.349  29.677  35.050  1.00  0.00     0.031 A 
BRANCH  44  58
ATOM     58  C   UNL A   1      40.393  33.596  38.773  1.00  0.00    -0.014 A 
ATOM     59  C   UNL A   1      40.936  34.885  38.880  1.00  0.00     0.009 A 
ATOM     60  C   UNL A   1      39.765  33.027  39.893  1.00  0.00     0.009 A 
ATOM     61  C   UNL A   1      40.861  35.582  40.088  1.00  0.00     0.001 A 
ATOM     62  C   UNL A   1      39.672  33.735  41.092  1.00  0.00     0.001 A 
ATOM     63  C   UNL A   1      40.224  35.011  41.190  1.00  0.00     0.000 A 
ENDBRANCH  44  58
BRANCH  45  64
ATOM     64  C   UNL A   1      40.012  28.752  30.106  1.00  0.00    -0.014 A 
ATOM     65  C   UNL A   1      39.353  27.520  29.984  1.00  0.00     0.009 A 
ATOM     66  C   UNL A   1      40.631  29.308  28.975  1.00  0.00     0.009 A 
ATOM     67  C   UNL A   1      39.328  26.852  28.759  1.00  0.00     0.001 A 
ATOM     68  C   UNL A   1      40.577  28.653  27.744  1.00  0.00     0.001 A 
ATOM     69  C   UNL A   1      39.932  27.422  27.639  1.00  0.00     0.000 A 
ENDBRANCH  45  64
BRANCH  57  70
ATOM     70  C   UNL A   1      44.680  29.007  35.232  1.00  0.00    -0.014 A 
ATOM     71  C   UNL A   1      44.771  27.738  35.824  1.00  0.00     0.009 A 
ATOM     72  C   UNL A   1      45.853  29.653  34.814  1.00  0.00     0.009 A 
ATOM     73  C   UNL A   1      46.019  27.144  36.030  1.00  0.00     0.001 A 
ATOM     74  C   UNL A   1      47.096  29.047  35.000  1.00  0.00     0.001 A 
ATOM     75  C   UNL A   1      47.178  27.799  35.617  1.00  0.00     0.000 A 
ENDBRANCH  57  70
ENDBRANCH  31  32
ENDBRANCH  24  26
ENDBRANCH  23  24
ENDBRANCH  22  23
ENDBRANCH  21  22
ENDBRANCH  20  21
ENDBRANCH   1  20
TORSDOF 18
ENDMDL
MODEL 2
REMARK VINA RESULT:      -8.9      2.873      7.767
REMARK SMILES CCN(Cc1ccc(Br)s1)C(=O)C[N@@H+](C)CC(=O)OCCOC(=O)c1ccc(-c2c3nc(c(-c4ccccc4)c4ccc([nH]4)c(-c4ccccc4)c4nc(c(-c5ccccc5)c5ccc2[nH]5)C=C4)C=C3)cc1
REMARK SMILES IDX 17 1 18 2 16 3 14 4 15 5 13 7 11 8 12 9 3 10 2 11 1 12 4 13
REMARK SMILES IDX 5 14 6 15 10 16 7 17 8 18 9 19 19 20 20 21 21 22 22 23 23 24
REMARK SMILES IDX 24 25 25 26 26 27 72 28 27 29 71 30 28 31 29 32 30 33 65 34
REMARK SMILES IDX 31 35 70 36 64 37 66 38 32 39 69 40 63 41 62 42 33 44 55 45
REMARK SMILES IDX 40 46 54 47 41 48 44 49 53 50 67 51 42 52 43 53 52 55 68 56
REMARK SMILES IDX 45 57 34 58 35 59 39 60 36 61 38 62 37 63 56 64 57 65 61 66
REMARK SMILES IDX 58 67 60 68 59 69 46 70 47 71 51 72 48 73 50 74 49 75
REMARK H PARENT 14 6 66 43 44 54
REMARK Flexibility Score: inf
ROOT
ATOM      1  C   UNL A   1      31.107  26.522  25.997  1.00  0.00     0.361 C 
ATOM      2  O   UNL A   1      31.125  26.846  27.183  1.00  0.00    -0.245 OA
ENDROOT
BRANCH   1   3
ATOM      3  C   UNL A   1      30.386  25.256  25.542  1.00  0.00     0.386 C 
BRANCH   3   4
ATOM      4  N   UNL A   1      30.884  23.933  25.970  1.00  0.00    -0.320 N 
ATOM      5  C   UNL A   1      29.983  23.222  26.870  1.00  0.00     0.333 C 
ATOM      6  H   UNL A   1      30.900  23.409  25.093  1.00  0.00     0.348 HD
BRANCH   4   7
ATOM      7  C   UNL A   1      32.272  23.913  26.460  1.00  0.00     0.364 C 
BRANCH   7   8
ATOM      8  C   UNL A   1      32.935  22.520  26.409  1.00  0.00     0.278 C 
ATOM      9  O   UNL A   1      33.240  21.969  27.471  1.00  0.00    -0.268 OA
BRANCH   8  10
ATOM     10  N   UNL A   1      33.111  21.856  25.199  1.00  0.00    -0.333 N 
BRANCH  10  11
ATOM     11  C   UNL A   1      32.169  20.787  24.849  1.00  0.00     0.116 C 
ATOM     12  C   UNL A   1      32.767  19.401  25.025  1.00  0.00     0.027 C 
ENDBRANCH  10  11
BRANCH  10  13
ATOM     13  C   UNL A   1      34.091  22.240  24.185  1.00  0.00     0.166 C 
BRANCH  13  14
ATOM     14  C   UNL A   1      35.462  22.289  24.800  1.00  0.00     0.025 A 
ATOM     15  C   UNL A   1      36.426  21.297  24.882  1.00  0.00     0.018 A 
ATOM     16  S   UNL A   1      36.024  23.753  25.502  1.00  0.00    -0.131 S 
ATOM     17  C   UNL A   1      37.651  21.771  25.435  1.00  0.00     0.028 A 
ATOM     18  C   UNL A   1      37.555  23.093  25.788  1.00  0.00     0.070 A 
ATOM     19  Br  UNL A   1      38.976  24.076  26.509  1.00  0.00    -0.039 Br
ENDBRANCH  13  14
ENDBRANCH  10  13
ENDBRANCH   8  10
ENDBRANCH   7   8
ENDBRANCH   4   7
ENDBRANCH   3   4
ENDBRANCH   1   3
BRANCH   1  20
ATOM     20  O   UNL A   1      31.726  27.220  25.012  1.00  0.00    -0.458 OA
BRANCH  20  21
ATOM     21  C   UNL A   1      31.160  28.507  24.682  1.00  0.00     0.274 C 
BRANCH  21  22
ATOM     22  C   UNL A   1      32.154  29.610  25.024  1.00  0.00     0.275 C 
BRANCH  22  23
ATOM     23  O   UNL A   1      32.179  29.783  26.450  1.00  0.00    -0.458 OA
BRANCH  23  24
ATOM     24  C   UNL A   1      32.665  30.964  26.896  1.00  0.00     0.338 C 
ATOM     25  O   UNL A   1      32.101  32.044  26.860  1.00  0.00    -0.246 OA
BRANCH  24  26
ATOM     26  C   UNL A   1      34.023  30.766  27.450  1.00  0.00     0.060 A 
ATOM     27  C   UNL A   1      34.532  29.485  27.668  1.00  0.00     0.016 A 
ATOM     28  C   UNL A   1      34.759  31.881  27.858  1.00  0.00     0.016 A 
ATOM     29  C   UNL A   1      35.724  29.320  28.373  1.00  0.00     0.010 A 
ATOM     30  C   UNL A   1      36.000  31.711  28.485  1.00  0.00     0.010 A 
ATOM     31  C   UNL A   1      36.482  30.427  28.788  1.00  0.00    -0.014 A 
BRANCH  31  32
ATOM     32  C   UNL A   1      37.750  30.243  29.556  1.00  0.00     0.031 A 
ATOM     33  C   UNL A   1      38.936  29.542  28.937  1.00  0.00     0.074 A 
ATOM     34  C   UNL A   1      37.858  30.706  30.818  1.00  0.00     0.049 A 
ATOM     35  N   UNL A   1      40.034  29.111  29.514  1.00  0.00    -0.248 NA
ATOM     36  C   UNL A   1      38.880  29.277  27.490  1.00  0.00     0.031 C 
ATOM     37  C   UNL A   1      36.824  31.439  31.550  1.00  0.00     0.029 A 
ATOM     38  N   UNL A   1      38.903  30.635  31.709  1.00  0.00    -0.354 N 
ATOM     39  C   UNL A   1      40.759  28.464  28.520  1.00  0.00     0.074 A 
ATOM     40  C   UNL A   1      39.985  28.567  27.300  1.00  0.00     0.031 C 
ATOM     41  C   UNL A   1      37.303  31.799  32.750  1.00  0.00     0.029 A 
ATOM     42  C   UNL A   1      38.637  31.237  32.916  1.00  0.00     0.049 A 
ATOM     43  H   UNL A   1      39.760  30.195  31.503  1.00  0.00     0.167 HD
ATOM     44  C   UNL A   1      41.957  27.835  28.616  1.00  0.00     0.031 A 
ATOM     45  C   UNL A   1      39.357  31.297  34.051  1.00  0.00     0.031 A 
ATOM     46  C   UNL A   1      42.764  27.781  29.808  1.00  0.00     0.049 A 
ATOM     47  C   UNL A   1      40.678  30.592  34.132  1.00  0.00     0.074 A 
ATOM     48  C   UNL A   1      43.995  27.170  29.990  1.00  0.00     0.029 A 
ATOM     49  N   UNL A   1      42.436  28.379  31.013  1.00  0.00    -0.354 N 
ATOM     50  N   UNL A   1      41.305  29.908  33.210  1.00  0.00    -0.248 NA
ATOM     51  C   UNL A   1      41.376  30.650  35.425  1.00  0.00     0.031 C 
ATOM     52  C   UNL A   1      44.400  27.378  31.313  1.00  0.00     0.029 A 
ATOM     53  C   UNL A   1      43.440  28.152  31.942  1.00  0.00     0.049 A 
ATOM     54  H   UNL A   1      41.613  28.891  31.185  1.00  0.00     0.167 HD
ATOM     55  C   UNL A   1      42.468  29.446  33.811  1.00  0.00     0.074 A 
ATOM     56  C   UNL A   1      42.477  29.959  35.164  1.00  0.00     0.031 C 
ATOM     57  C   UNL A   1      43.434  28.652  33.289  1.00  0.00     0.031 A 
BRANCH  44  58
ATOM     58  C   UNL A   1      42.476  27.120  27.399  1.00  0.00    -0.014 A 
ATOM     59  C   UNL A   1      43.287  27.769  26.457  1.00  0.00     0.009 A 
ATOM     60  C   UNL A   1      42.216  25.748  27.244  1.00  0.00     0.009 A 
ATOM     61  C   UNL A   1      43.815  27.060  25.375  1.00  0.00     0.001 A 
ATOM     62  C   UNL A   1      42.764  25.038  26.174  1.00  0.00     0.001 A 
ATOM     63  C   UNL A   1      43.560  25.695  25.238  1.00  0.00     0.000 A 
ENDBRANCH  44  58
BRANCH  45  64
ATOM     64  C   UNL A   1      38.807  32.006  35.235  1.00  0.00    -0.014 A 
ATOM     65  C   UNL A   1      38.154  31.295  36.252  1.00  0.00     0.009 A 
ATOM     66  C   UNL A   1      38.941  33.398  35.354  1.00  0.00     0.009 A 
ATOM     67  C   UNL A   1      37.634  31.967  37.359  1.00  0.00     0.001 A 
ATOM     68  C   UNL A   1      38.447  34.063  36.477  1.00  0.00     0.001 A 
ATOM     69  C   UNL A   1      37.787  33.349  37.475  1.00  0.00     0.000 A 
ENDBRANCH  45  64
BRANCH  57  70
ATOM     70  C   UNL A   1      44.581  28.304  34.192  1.00  0.00    -0.014 A 
ATOM     71  C   UNL A   1      44.545  27.149  34.989  1.00  0.00     0.009 A 
ATOM     72  C   UNL A   1      45.706  29.140  34.250  1.00  0.00     0.009 A 
ATOM     73  C   UNL A   1      45.599  26.860  35.859  1.00  0.00     0.001 A 
ATOM     74  C   UNL A   1      46.767  28.837  35.103  1.00  0.00     0.001 A 
ATOM     75  C   UNL A   1      46.708  27.703  35.914  1.00  0.00     0.000 A 
ENDBRANCH  57  70
ENDBRANCH  31  32
ENDBRANCH  24  26
ENDBRANCH  23  24
ENDBRANCH  22  23
ENDBRANCH  21  22
ENDBRANCH  20  21
ENDBRANCH   1  20
TORSDOF 18
ENDMDL
MODEL 3
REMARK VINA RESULT:      -8.9      5.384      9.498
REMARK SMILES CCN(Cc1ccc(Br)s1)C(=O)C[N@@H+](C)CC(=O)OCCOC(=O)c1ccc(-c2c3nc(c(-c4ccccc4)c4ccc([nH]4)c(-c4ccccc4)c4nc(c(-c5ccccc5)c5ccc2[nH]5)C=C4)C=C3)cc1
REMARK SMILES IDX 17 1 18 2 16 3 14 4 15 5 13 7 11 8 12 9 3 10 2 11 1 12 4 13
REMARK SMILES IDX 5 14 6 15 10 16 7 17 8 18 9 19 19 20 20 21 21 22 22 23 23 24
REMARK SMILES IDX 24 25 25 26 26 27 72 28 27 29 71 30 28 31 29 32 30 33 65 34
REMARK SMILES IDX 31 35 70 36 64 37 66 38 32 39 69 40 63 41 62 42 33 44 55 45
REMARK SMILES IDX 40 46 54 47 41 48 44 49 53 50 67 51 42 52 43 53 52 55 68 56
REMARK SMILES IDX 45 57 34 58 35 59 39 60 36 61 38 62 37 63 56 64 57 65 61 66
REMARK SMILES IDX 58 67 60 68 59 69 46 70 47 71 51 72 48 73 50 74 49 75
REMARK H PARENT 14 6 66 43 44 54
REMARK Flexibility Score: inf
ROOT
ATOM      1  C   UNL A   1      33.038  22.787  26.976  1.00  0.00     0.361 C 
ATOM      2  O   UNL A   1      32.357  22.718  27.997  1.00  0.00    -0.245 OA
ENDROOT
BRANCH   1   3
ATOM      3  C   UNL A   1      32.871  23.951  26.002  1.00  0.00     0.386 C 
BRANCH   3   4
ATOM      4  N   UNL A   1      31.585  24.144  25.301  1.00  0.00    -0.320 N 
ATOM      5  C   UNL A   1      31.009  22.914  24.770  1.00  0.00     0.333 C 
ATOM      6  H   UNL A   1      30.970  24.459  26.051  1.00  0.00     0.348 HD
BRANCH   4   7
ATOM      7  C   UNL A   1      31.571  25.228  24.304  1.00  0.00     0.364 C 
BRANCH   7   8
ATOM      8  C   UNL A   1      30.567  26.357  24.621  1.00  0.00     0.278 C 
ATOM      9  O   UNL A   1      29.994  26.351  25.714  1.00  0.00    -0.268 OA
BRANCH   8  10
ATOM     10  N   UNL A   1      30.369  27.408  23.732  1.00  0.00    -0.333 N 
BRANCH  10  11
ATOM     11  C   UNL A   1      28.997  27.720  23.317  1.00  0.00     0.116 C 
ATOM     12  C   UNL A   1      28.825  29.174  22.911  1.00  0.00     0.027 C 
ENDBRANCH  10  11
BRANCH  10  13
ATOM     13  C   UNL A   1      31.424  28.316  23.284  1.00  0.00     0.166 C 
BRANCH  13  14
ATOM     14  C   UNL A   1      32.073  28.964  24.474  1.00  0.00     0.025 A 
ATOM     15  C   UNL A   1      31.563  29.909  25.350  1.00  0.00     0.018 A 
ATOM     16  S   UNL A   1      33.671  28.513  24.919  1.00  0.00    -0.131 S 
ATOM     17  C   UNL A   1      32.449  30.186  26.432  1.00  0.00     0.028 A 
ATOM     18  C   UNL A   1      33.613  29.472  26.312  1.00  0.00     0.070 A 
ATOM     19  Br  UNL A   1      35.002  29.540  27.565  1.00  0.00    -0.039 Br
ENDBRANCH  13  14
ENDBRANCH  10  13
ENDBRANCH   8  10
ENDBRANCH   7   8
ENDBRANCH   4   7
ENDBRANCH   3   4
ENDBRANCH   1   3
BRANCH   1  20
ATOM     20  O   UNL A   1      33.957  21.857  26.613  1.00  0.00    -0.458 OA
BRANCH  20  21
ATOM     21  C   UNL A   1      34.461  21.944  25.264  1.00  0.00     0.274 C 
BRANCH  21  22
ATOM     22  C   UNL A   1      35.624  20.975  25.084  1.00  0.00     0.275 C 
BRANCH  22  23
ATOM     23  O   UNL A   1      36.645  21.299  26.042  1.00  0.00    -0.458 OA
BRANCH  23  24
ATOM     24  C   UNL A   1      37.913  20.994  25.682  1.00  0.00     0.338 C 
ATOM     25  O   UNL A   1      38.305  19.936  25.220  1.00  0.00    -0.246 OA
BRANCH  24  26
ATOM     26  C   UNL A   1      38.796  22.156  25.935  1.00  0.00     0.060 A 
ATOM     27  C   UNL A   1      40.071  21.986  26.477  1.00  0.00     0.016 A 
ATOM     28  C   UNL A   1      38.299  23.444  25.726  1.00  0.00     0.016 A 
ATOM     29  C   UNL A   1      40.803  23.097  26.893  1.00  0.00     0.010 A 
ATOM     30  C   UNL A   1      39.077  24.558  26.061  1.00  0.00     0.010 A 
ATOM     31  C   UNL A   1      40.325  24.402  26.688  1.00  0.00    -0.014 A 
BRANCH  31  32
ATOM     32  C   UNL A   1      41.107  25.587  27.150  1.00  0.00     0.031 A 
ATOM     33  C   UNL A   1      40.549  26.527  28.193  1.00  0.00     0.074 A 
ATOM     34  C   UNL A   1      42.333  25.837  26.644  1.00  0.00     0.049 A 
ATOM     35  N   UNL A   1      40.989  27.708  28.560  1.00  0.00    -0.248 NA
ATOM     36  C   UNL A   1      39.335  26.095  28.905  1.00  0.00     0.031 C 
ATOM     37  C   UNL A   1      43.035  25.010  25.661  1.00  0.00     0.029 A 
ATOM     38  N   UNL A   1      43.213  26.861  26.899  1.00  0.00    -0.354 N 
ATOM     39  C   UNL A   1      40.069  28.186  29.486  1.00  0.00     0.074 A 
ATOM     40  C   UNL A   1      39.053  27.166  29.636  1.00  0.00     0.031 C 
ATOM     41  C   UNL A   1      44.254  25.524  25.441  1.00  0.00     0.029 A 
ATOM     42  C   UNL A   1      44.384  26.770  26.185  1.00  0.00     0.049 A 
ATOM     43  H   UNL A   1      43.024  27.590  27.534  1.00  0.00     0.167 HD
ATOM     44  C   UNL A   1      40.069  29.371  30.147  1.00  0.00     0.031 A 
ATOM     45  C   UNL A   1      45.430  27.610  26.093  1.00  0.00     0.031 A 
ATOM     46  C   UNL A   1      41.107  30.365  30.053  1.00  0.00     0.049 A 
ATOM     47  C   UNL A   1      45.404  28.914  26.832  1.00  0.00     0.074 A 
ATOM     48  C   UNL A   1      41.187  31.592  30.695  1.00  0.00     0.029 A 
ATOM     49  N   UNL A   1      42.256  30.240  29.292  1.00  0.00    -0.354 N 
ATOM     50  N   UNL A   1      44.484  29.391  27.632  1.00  0.00    -0.248 NA
ATOM     51  C   UNL A   1      46.556  29.808  26.633  1.00  0.00     0.031 C 
ATOM     52  C   UNL A   1      42.374  32.218  30.302  1.00  0.00     0.029 A 
ATOM     53  C   UNL A   1      43.051  31.365  29.447  1.00  0.00     0.049 A 
ATOM     54  H   UNL A   1      42.477  29.467  28.725  1.00  0.00     0.167 HD
ATOM     55  C   UNL A   1      44.939  30.642  28.025  1.00  0.00     0.074 A 
ATOM     56  C   UNL A   1      46.234  30.834  27.407  1.00  0.00     0.031 C 
ATOM     57  C   UNL A   1      44.329  31.556  28.817  1.00  0.00     0.031 A 
BRANCH  44  58
ATOM     58  C   UNL A   1      38.889  29.686  31.025  1.00  0.00    -0.014 A 
ATOM     59  C   UNL A   1      38.920  29.450  32.407  1.00  0.00     0.009 A 
ATOM     60  C   UNL A   1      37.762  30.310  30.466  1.00  0.00     0.009 A 
ATOM     61  C   UNL A   1      37.837  29.822  33.209  1.00  0.00     0.001 A 
ATOM     62  C   UNL A   1      36.692  30.700  31.273  1.00  0.00     0.001 A 
ATOM     63  C   UNL A   1      36.728  30.451  32.643  1.00  0.00     0.000 A 
ENDBRANCH  44  58
BRANCH  45  64
ATOM     64  C   UNL A   1      46.574  27.268  25.209  1.00  0.00    -0.014 A 
ATOM     65  C   UNL A   1      46.704  27.866  23.947  1.00  0.00     0.009 A 
ATOM     66  C   UNL A   1      47.544  26.345  25.629  1.00  0.00     0.009 A 
ATOM     67  C   UNL A   1      47.777  27.536  23.118  1.00  0.00     0.001 A 
ATOM     68  C   UNL A   1      48.633  26.040  24.810  1.00  0.00     0.001 A 
ATOM     69  C   UNL A   1      48.744  26.630  23.552  1.00  0.00     0.000 A 
ENDBRANCH  45  64
BRANCH  57  70
ATOM     70  C   UNL A   1      45.067  32.840  29.059  1.00  0.00    -0.014 A 
ATOM     71  C   UNL A   1      44.885  33.945  28.213  1.00  0.00     0.009 A 
ATOM     72  C   UNL A   1      45.957  32.943  30.138  1.00  0.00     0.009 A 
ATOM     73  C   UNL A   1      45.611  35.119  28.422  1.00  0.00     0.001 A 
ATOM     74  C   UNL A   1      46.665  34.125  30.357  1.00  0.00     0.001 A 
ATOM     75  C   UNL A   1      46.500  35.208  29.493  1.00  0.00     0.000 A 
ENDBRANCH  57  70
ENDBRANCH  31  32
ENDBRANCH  24  26
ENDBRANCH  23  24
ENDBRANCH  22  23
ENDBRANCH  21  22
ENDBRANCH  20  21
ENDBRANCH   1  20
TORSDOF 18
ENDMDL
