MODEL 1
REMARK VINA RESULT:     -12.1      0.000      0.000
REMARK SMILES Cc1nn(C)c(C)c1C[C@@H](C)C(=O)N[C@@H](C(=O)OCCOC(=O)c1ccc(-c2c3nc(c(-c4ccccc4)c4ccc([nH]4)c(-c4ccccc4)c4nc(c(-c5ccccc5)c5ccc2[nH]5)C=C4)C=C3)cc1)c1ccccc1Cl
REMARK SMILES IDX 19 1 18 2 16 3 17 4 15 5 14 6 12 7 13 8 10 10 11 11 9 12
REMARK SMILES IDX 8 13 1 14 2 15 3 16 4 17 6 18 5 19 7 20 72 21 73 22 77 23
REMARK SMILES IDX 74 24 76 25 78 26 75 27 20 28 21 29 22 30 23 31 24 32 25 33
REMARK SMILES IDX 71 34 26 35 70 36 27 37 28 38 29 39 64 40 30 41 69 42 63 43
REMARK SMILES IDX 65 44 31 45 68 46 62 47 61 48 32 50 54 51 39 52 53 53 40 54
REMARK SMILES IDX 43 55 52 56 66 57 41 58 42 59 51 61 67 62 44 63 33 64 34 65
REMARK SMILES IDX 38 66 35 67 37 68 36 69 55 70 56 71 60 72 57 73 59 74 58 75
REMARK SMILES IDX 45 76 46 77 50 78 47 79 49 80 48 81
REMARK H PARENT 14 9 65 49 43 60
REMARK Flexibility Score: inf
ROOT
ATOM      1  C   UNL A   1      31.607  28.364  25.657  1.00  0.00     0.274 C 
ENDROOT
BRANCH   1   2
ATOM      2  O   UNL A   1      32.686  27.872  24.834  1.00  0.00    -0.460 OA
BRANCH   2   3
ATOM      3  C   UNL A   1      32.672  28.247  23.522  1.00  0.00     0.333 C 
ATOM      4  O   UNL A   1      33.402  29.109  23.040  1.00  0.00    -0.249 OA
BRANCH   3   5
ATOM      5  C   UNL A   1      31.561  27.542  22.716  1.00  0.00     0.224 C 
BRANCH   5   6
ATOM      6  N   UNL A   1      32.010  26.941  21.464  1.00  0.00    -0.339 N 
ATOM      7  C   UNL A   1      32.642  25.761  21.229  1.00  0.00     0.224 C 
ATOM      8  O   UNL A   1      33.071  25.554  20.091  1.00  0.00    -0.275 OA
ATOM      9  H   UNL A   1      31.824  27.478  20.659  1.00  0.00     0.164 HD
BRANCH   7  10
ATOM     10  C   UNL A   1      32.800  24.700  22.316  1.00  0.00     0.080 C 
ATOM     11  C   UNL A   1      31.427  24.305  22.868  1.00  0.00     0.018 C 
BRANCH  10  12
ATOM     12  C   UNL A   1      33.896  25.099  23.319  1.00  0.00     0.052 C 
BRANCH  12  13
ATOM     13  C   UNL A   1      34.247  24.081  24.352  1.00  0.00    -0.003 A 
ATOM     14  C   UNL A   1      36.349  22.939  23.266  1.00  0.00     0.069 C 
ATOM     15  C   UNL A   1      35.311  23.137  24.309  1.00  0.00     0.063 A 
ATOM     16  N   UNL A   1      35.352  22.387  25.414  1.00  0.00    -0.178 NA
ATOM     17  N   UNL A   1      34.348  22.852  26.173  1.00  0.00    -0.272 N 
ATOM     18  C   UNL A   1      33.696  23.922  25.618  1.00  0.00     0.038 A 
ATOM     19  C   UNL A   1      34.109  22.226  27.452  1.00  0.00     0.174 C 
ATOM     20  C   UNL A   1      32.640  24.680  26.338  1.00  0.00     0.066 C 
ENDBRANCH  12  13
ENDBRANCH  10  12
ENDBRANCH   7  10
ENDBRANCH   5   6
BRANCH   5  21
ATOM     21  C   UNL A   1      30.270  28.340  22.598  1.00  0.00     0.004 A 
ATOM     22  C   UNL A   1      30.341  29.581  21.922  1.00  0.00     0.008 A 
ATOM     23  C   UNL A   1      29.022  27.952  23.109  1.00  0.00     0.046 A 
ATOM     24  C   UNL A   1      29.232  30.421  21.812  1.00  0.00     0.000 A 
ATOM     25  C   UNL A   1      27.915  28.807  23.016  1.00  0.00     0.021 A 
ATOM     26  Cl  UNL A   1      28.750  26.404  23.827  1.00  0.00    -0.084 Cl
ATOM     27  C   UNL A   1      28.021  30.042  22.375  1.00  0.00     0.002 A 
ENDBRANCH   5  21
ENDBRANCH   3   5
ENDBRANCH   2   3
ENDBRANCH   1   2
BRANCH   1  28
ATOM     28  C   UNL A   1      31.589  29.890  25.659  1.00  0.00     0.275 C 
BRANCH  28  29
ATOM     29  O   UNL A   1      31.797  30.350  27.004  1.00  0.00    -0.458 OA
BRANCH  29  30
ATOM     30  C   UNL A   1      32.461  31.519  27.142  1.00  0.00     0.338 C 
ATOM     31  O   UNL A   1      32.042  32.641  26.897  1.00  0.00    -0.246 OA
BRANCH  30  32
ATOM     32  C   UNL A   1      33.810  31.259  27.677  1.00  0.00     0.060 A 
ATOM     33  C   UNL A   1      34.287  29.953  27.780  1.00  0.00     0.016 A 
ATOM     34  C   UNL A   1      34.570  32.311  28.186  1.00  0.00     0.016 A 
ATOM     35  C   UNL A   1      35.461  29.686  28.476  1.00  0.00     0.010 A 
ATOM     36  C   UNL A   1      35.804  32.047  28.792  1.00  0.00     0.010 A 
ATOM     37  C   UNL A   1      36.245  30.726  28.986  1.00  0.00    -0.014 A 
BRANCH  37  38
ATOM     38  C   UNL A   1      37.477  30.429  29.771  1.00  0.00     0.031 A 
ATOM     39  C   UNL A   1      38.646  29.747  29.107  1.00  0.00     0.074 A 
ATOM     40  C   UNL A   1      37.589  30.794  31.064  1.00  0.00     0.049 A 
ATOM     41  N   UNL A   1      39.703  29.200  29.655  1.00  0.00    -0.248 NA
ATOM     42  C   UNL A   1      38.616  29.654  27.639  1.00  0.00     0.031 C 
ATOM     43  C   UNL A   1      36.591  31.540  31.834  1.00  0.00     0.029 A 
ATOM     44  N   UNL A   1      38.618  30.608  31.956  1.00  0.00    -0.354 N 
ATOM     45  C   UNL A   1      40.410  28.617  28.609  1.00  0.00     0.074 A 
ATOM     46  C   UNL A   1      39.677  28.899  27.394  1.00  0.00     0.031 C 
ATOM     47  C   UNL A   1      37.088  31.817  33.049  1.00  0.00     0.029 A 
ATOM     48  C   UNL A   1      38.387  31.169  33.187  1.00  0.00     0.049 A 
ATOM     49  H   UNL A   1      39.442  30.118  31.733  1.00  0.00     0.167 HD
ATOM     50  C   UNL A   1      41.556  27.896  28.661  1.00  0.00     0.031 A 
ATOM     51  C   UNL A   1      39.110  31.133  34.322  1.00  0.00     0.031 A 
ATOM     52  C   UNL A   1      42.324  27.673  29.858  1.00  0.00     0.049 A 
ATOM     53  C   UNL A   1      40.360  30.304  34.369  1.00  0.00     0.074 A 
ATOM     54  C   UNL A   1      43.498  26.956  30.011  1.00  0.00     0.029 A 
ATOM     55  N   UNL A   1      42.007  28.194  31.102  1.00  0.00    -0.354 N 
ATOM     56  N   UNL A   1      40.948  29.643  33.403  1.00  0.00    -0.248 NA
ATOM     57  C   UNL A   1      41.017  30.181  35.678  1.00  0.00     0.031 C 
ATOM     58  C   UNL A   1      43.879  27.022  31.357  1.00  0.00     0.029 A 
ATOM     59  C   UNL A   1      42.961  27.811  32.030  1.00  0.00     0.049 A 
ATOM     60  H   UNL A   1      41.221  28.753  31.298  1.00  0.00     0.167 HD
ATOM     61  C   UNL A   1      42.040  29.017  33.987  1.00  0.00     0.074 A 
ATOM     62  C   UNL A   1      42.049  29.401  35.385  1.00  0.00     0.031 C 
ATOM     63  C   UNL A   1      42.947  28.188  33.419  1.00  0.00     0.031 A 
BRANCH  50  64
ATOM     64  C   UNL A   1      42.013  27.239  27.390  1.00  0.00    -0.014 A 
ATOM     65  C   UNL A   1      42.910  27.865  26.513  1.00  0.00     0.009 A 
ATOM     66  C   UNL A   1      41.537  25.955  27.077  1.00  0.00     0.009 A 
ATOM     67  C   UNL A   1      43.296  27.231  25.329  1.00  0.00     0.001 A 
ATOM     68  C   UNL A   1      41.944  25.313  25.906  1.00  0.00     0.001 A 
ATOM     69  C   UNL A   1      42.814  25.955  25.028  1.00  0.00     0.000 A 
ENDBRANCH  50  64
BRANCH  51  70
ATOM     70  C   UNL A   1      38.637  31.861  35.525  1.00  0.00    -0.014 A 
ATOM     71  C   UNL A   1      38.711  33.261  35.577  1.00  0.00     0.009 A 
ATOM     72  C   UNL A   1      38.091  31.167  36.616  1.00  0.00     0.009 A 
ATOM     73  C   UNL A   1      38.246  33.951  36.698  1.00  0.00     0.001 A 
ATOM     74  C   UNL A   1      37.602  31.862  37.724  1.00  0.00     0.001 A 
ATOM     75  C   UNL A   1      37.684  33.253  37.766  1.00  0.00     0.000 A 
ENDBRANCH  51  70
BRANCH  63  76
ATOM     76  C   UNL A   1      44.029  27.654  34.309  1.00  0.00    -0.014 A 
ATOM     77  C   UNL A   1      45.230  28.358  34.485  1.00  0.00     0.009 A 
ATOM     78  C   UNL A   1      43.840  26.443  34.991  1.00  0.00     0.009 A 
ATOM     79  C   UNL A   1      46.234  27.843  35.307  1.00  0.00     0.001 A 
ATOM     80  C   UNL A   1      44.837  25.940  35.827  1.00  0.00     0.001 A 
ATOM     81  C   UNL A   1      46.036  26.636  35.978  1.00  0.00     0.000 A 
ENDBRANCH  63  76
ENDBRANCH  37  38
ENDBRANCH  30  32
ENDBRANCH  29  30
ENDBRANCH  28  29
ENDBRANCH   1  28
TORSDOF 16
ENDMDL
MODEL 2
REMARK VINA RESULT:     -12.0      3.484      6.600
REMARK SMILES Cc1nn(C)c(C)c1C[C@@H](C)C(=O)N[C@@H](C(=O)OCCOC(=O)c1ccc(-c2c3nc(c(-c4ccccc4)c4ccc([nH]4)c(-c4ccccc4)c4nc(c(-c5ccccc5)c5ccc2[nH]5)C=C4)C=C3)cc1)c1ccccc1Cl
REMARK SMILES IDX 19 1 18 2 16 3 17 4 15 5 14 6 12 7 13 8 10 10 11 11 9 12
REMARK SMILES IDX 8 13 1 14 2 15 3 16 4 17 6 18 5 19 7 20 72 21 73 22 77 23
REMARK SMILES IDX 74 24 76 25 78 26 75 27 20 28 21 29 22 30 23 31 24 32 25 33
REMARK SMILES IDX 71 34 26 35 70 36 27 37 28 38 29 39 64 40 30 41 69 42 63 43
REMARK SMILES IDX 65 44 31 45 68 46 62 47 61 48 32 50 54 51 39 52 53 53 40 54
REMARK SMILES IDX 43 55 52 56 66 57 41 58 42 59 51 61 67 62 44 63 33 64 34 65
REMARK SMILES IDX 38 66 35 67 37 68 36 69 55 70 56 71 60 72 57 73 59 74 58 75
REMARK SMILES IDX 45 76 46 77 50 78 47 79 49 80 48 81
REMARK H PARENT 14 9 65 49 43 60
REMARK Flexibility Score: inf
ROOT
ATOM      1  C   UNL A   1      32.384  28.446  25.921  1.00  0.00     0.274 C 
ENDROOT
BRANCH   1   2
ATOM      2  O   UNL A   1      32.091  29.212  24.732  1.00  0.00    -0.460 OA
BRANCH   2   3
ATOM      3  C   UNL A   1      32.561  28.711  23.553  1.00  0.00     0.333 C 
ATOM      4  O   UNL A   1      33.665  28.964  23.083  1.00  0.00    -0.249 OA
BRANCH   3   5
ATOM      5  C   UNL A   1      31.507  27.862  22.809  1.00  0.00     0.224 C 
BRANCH   5   6
ATOM      6  N   UNL A   1      32.009  27.181  21.619  1.00  0.00    -0.339 N 
ATOM      7  C   UNL A   1      32.595  25.963  21.482  1.00  0.00     0.224 C 
ATOM      8  O   UNL A   1      33.088  25.681  20.387  1.00  0.00    -0.275 OA
ATOM      9  H   UNL A   1      31.905  27.688  20.780  1.00  0.00     0.164 HD
BRANCH   7  10
ATOM     10  C   UNL A   1      32.624  24.948  22.623  1.00  0.00     0.080 C 
ATOM     11  C   UNL A   1      31.197  24.556  23.014  1.00  0.00     0.018 C 
BRANCH  10  12
ATOM     12  C   UNL A   1      33.581  25.403  23.738  1.00  0.00     0.052 C 
BRANCH  12  13
ATOM     13  C   UNL A   1      34.058  24.341  24.672  1.00  0.00    -0.003 A 
ATOM     14  C   UNL A   1      32.291  24.520  26.608  1.00  0.00     0.069 C 
ATOM     15  C   UNL A   1      33.493  23.976  25.926  1.00  0.00     0.063 A 
ATOM     16  N   UNL A   1      34.158  22.967  26.494  1.00  0.00    -0.178 NA
ATOM     17  N   UNL A   1      35.124  22.664  25.613  1.00  0.00    -0.272 N 
ATOM     18  C   UNL A   1      35.065  23.407  24.463  1.00  0.00     0.038 A 
ATOM     19  C   UNL A   1      36.047  21.604  25.945  1.00  0.00     0.174 C 
ATOM     20  C   UNL A   1      35.951  23.154  23.297  1.00  0.00     0.066 C 
ENDBRANCH  12  13
ENDBRANCH  10  12
ENDBRANCH   7  10
ENDBRANCH   5   6
BRANCH   5  21
ATOM     21  C   UNL A   1      30.168  28.558  22.613  1.00  0.00     0.004 A 
ATOM     22  C   UNL A   1      30.171  29.759  21.863  1.00  0.00     0.008 A 
ATOM     23  C   UNL A   1      28.936  28.113  23.116  1.00  0.00     0.046 A 
ATOM     24  C   UNL A   1      29.010  30.509  21.676  1.00  0.00     0.000 A 
ATOM     25  C   UNL A   1      27.776  28.880  22.945  1.00  0.00     0.021 A 
ATOM     26  Cl  UNL A   1      28.752  26.595  23.920  1.00  0.00    -0.084 Cl
ATOM     27  C   UNL A   1      27.812  30.079  22.233  1.00  0.00     0.002 A 
ENDBRANCH   5  21
ENDBRANCH   3   5
ENDBRANCH   2   3
ENDBRANCH   1   2
BRANCH   1  28
ATOM     28  C   UNL A   1      32.622  29.373  27.109  1.00  0.00     0.275 C 
BRANCH  28  29
ATOM     29  O   UNL A   1      33.978  29.212  27.554  1.00  0.00    -0.458 OA
BRANCH  29  30
ATOM     30  C   UNL A   1      34.580  30.314  28.054  1.00  0.00     0.338 C 
ATOM     31  O   UNL A   1      34.059  31.390  28.309  1.00  0.00    -0.246 OA
BRANCH  30  32
ATOM     32  C   UNL A   1      36.008  30.030  28.291  1.00  0.00     0.060 A 
ATOM     33  C   UNL A   1      36.944  30.244  27.281  1.00  0.00     0.016 A 
ATOM     34  C   UNL A   1      36.410  29.442  29.489  1.00  0.00     0.016 A 
ATOM     35  C   UNL A   1      38.248  29.781  27.422  1.00  0.00     0.010 A 
ATOM     36  C   UNL A   1      37.748  29.074  29.667  1.00  0.00     0.010 A 
ATOM     37  C   UNL A   1      38.677  29.197  28.619  1.00  0.00    -0.014 A 
BRANCH  37  38
ATOM     38  C   UNL A   1      40.062  28.661  28.745  1.00  0.00     0.031 A 
ATOM     39  C   UNL A   1      41.155  29.529  29.314  1.00  0.00     0.074 A 
ATOM     40  C   UNL A   1      40.357  27.393  28.395  1.00  0.00     0.049 A 
ATOM     41  N   UNL A   1      42.452  29.341  29.298  1.00  0.00    -0.248 NA
ATOM     42  C   UNL A   1      40.739  30.777  29.974  1.00  0.00     0.031 C 
ATOM     43  C   UNL A   1      39.404  26.392  27.912  1.00  0.00     0.029 A 
ATOM     44  N   UNL A   1      41.554  26.717  28.421  1.00  0.00    -0.354 N 
ATOM     45  C   UNL A   1      43.006  30.488  29.855  1.00  0.00     0.074 A 
ATOM     46  C   UNL A   1      41.906  31.353  30.224  1.00  0.00     0.031 C 
ATOM     47  C   UNL A   1      40.032  25.216  27.768  1.00  0.00     0.029 A 
ATOM     48  C   UNL A   1      41.454  25.405  28.032  1.00  0.00     0.049 A 
ATOM     49  H   UNL A   1      42.402  27.136  28.694  1.00  0.00     0.167 HD
ATOM     50  C   UNL A   1      44.313  30.798  30.026  1.00  0.00     0.031 A 
ATOM     51  C   UNL A   1      42.400  24.464  27.856  1.00  0.00     0.031 A 
ATOM     52  C   UNL A   1      45.407  29.912  29.726  1.00  0.00     0.049 A 
ATOM     53  C   UNL A   1      43.844  24.835  28.020  1.00  0.00     0.074 A 
ATOM     54  C   UNL A   1      46.766  30.136  29.866  1.00  0.00     0.029 A 
ATOM     55  N   UNL A   1      45.261  28.618  29.254  1.00  0.00    -0.354 N 
ATOM     56  N   UNL A   1      44.364  25.969  28.419  1.00  0.00    -0.248 NA
ATOM     57  C   UNL A   1      44.831  23.806  27.664  1.00  0.00     0.031 C 
ATOM     58  C   UNL A   1      47.445  28.984  29.452  1.00  0.00     0.029 A 
ATOM     59  C   UNL A   1      46.505  28.032  29.092  1.00  0.00     0.049 A 
ATOM     60  H   UNL A   1      44.401  28.179  29.061  1.00  0.00     0.167 HD
ATOM     61  C   UNL A   1      45.739  25.796  28.354  1.00  0.00     0.074 A 
ATOM     62  C   UNL A   1      45.972  24.437  27.904  1.00  0.00     0.031 C 
ATOM     63  C   UNL A   1      46.721  26.686  28.630  1.00  0.00     0.031 A 
BRANCH  50  64
ATOM     64  C   UNL A   1      44.633  32.185  30.506  1.00  0.00    -0.014 A 
ATOM     65  C   UNL A   1      44.790  33.260  29.620  1.00  0.00     0.009 A 
ATOM     66  C   UNL A   1      44.766  32.415  31.886  1.00  0.00     0.009 A 
ATOM     67  C   UNL A   1      45.108  34.532  30.103  1.00  0.00     0.001 A 
ATOM     68  C   UNL A   1      45.059  33.692  32.368  1.00  0.00     0.001 A 
ATOM     69  C   UNL A   1      45.240  34.747  31.476  1.00  0.00     0.000 A 
ENDBRANCH  50  64
BRANCH  51  70
ATOM     70  C   UNL A   1      42.011  23.091  27.447  1.00  0.00    -0.014 A 
ATOM     71  C   UNL A   1      42.107  22.702  26.103  1.00  0.00     0.009 A 
ATOM     72  C   UNL A   1      41.567  22.157  28.398  1.00  0.00     0.009 A 
ATOM     73  C   UNL A   1      41.764  21.403  25.719  1.00  0.00     0.001 A 
ATOM     74  C   UNL A   1      41.251  20.853  28.014  1.00  0.00     0.001 A 
ATOM     75  C   UNL A   1      41.346  20.478  26.675  1.00  0.00     0.000 A 
ENDBRANCH  51  70
BRANCH  63  76
ATOM     76  C   UNL A   1      48.134  26.211  28.463  1.00  0.00    -0.014 A 
ATOM     77  C   UNL A   1      48.847  25.680  29.548  1.00  0.00     0.009 A 
ATOM     78  C   UNL A   1      48.752  26.282  27.207  1.00  0.00     0.009 A 
ATOM     79  C   UNL A   1      50.165  25.253  29.383  1.00  0.00     0.001 A 
ATOM     80  C   UNL A   1      50.063  25.837  27.039  1.00  0.00     0.001 A 
ATOM     81  C   UNL A   1      50.772  25.331  28.129  1.00  0.00     0.000 A 
ENDBRANCH  63  76
ENDBRANCH  37  38
ENDBRANCH  30  32
ENDBRANCH  29  30
ENDBRANCH  28  29
ENDBRANCH   1  28
TORSDOF 16
ENDMDL
MODEL 3
REMARK VINA RESULT:     -11.8      2.646      6.323
REMARK SMILES Cc1nn(C)c(C)c1C[C@@H](C)C(=O)N[C@@H](C(=O)OCCOC(=O)c1ccc(-c2c3nc(c(-c4ccccc4)c4ccc([nH]4)c(-c4ccccc4)c4nc(c(-c5ccccc5)c5ccc2[nH]5)C=C4)C=C3)cc1)c1ccccc1Cl
REMARK SMILES IDX 19 1 18 2 16 3 17 4 15 5 14 6 12 7 13 8 10 10 11 11 9 12
REMARK SMILES IDX 8 13 1 14 2 15 3 16 4 17 6 18 5 19 7 20 72 21 73 22 77 23
REMARK SMILES IDX 74 24 76 25 78 26 75 27 20 28 21 29 22 30 23 31 24 32 25 33
REMARK SMILES IDX 71 34 26 35 70 36 27 37 28 38 29 39 64 40 30 41 69 42 63 43
REMARK SMILES IDX 65 44 31 45 68 46 62 47 61 48 32 50 54 51 39 52 53 53 40 54
REMARK SMILES IDX 43 55 52 56 66 57 41 58 42 59 51 61 67 62 44 63 33 64 34 65
REMARK SMILES IDX 38 66 35 67 37 68 36 69 55 70 56 71 60 72 57 73 59 74 58 75
REMARK SMILES IDX 45 76 46 77 50 78 47 79 49 80 48 81
REMARK H PARENT 14 9 65 49 43 60
REMARK Flexibility Score: inf
ROOT
ATOM      1  C   UNL A   1      31.999  28.949  26.142  1.00  0.00     0.274 C 
ENDROOT
BRANCH   1   2
ATOM      2  O   UNL A   1      31.872  29.597  24.858  1.00  0.00    -0.460 OA
BRANCH   2   3
ATOM      3  C   UNL A   1      32.449  28.965  23.796  1.00  0.00     0.333 C 
ATOM      4  O   UNL A   1      33.592  29.177  23.401  1.00  0.00    -0.249 OA
BRANCH   3   5
ATOM      5  C   UNL A   1      31.472  28.018  23.067  1.00  0.00     0.224 C 
BRANCH   5   6
ATOM      6  N   UNL A   1      32.058  27.288  21.947  1.00  0.00    -0.339 N 
ATOM      7  C   UNL A   1      32.740  26.112  21.922  1.00  0.00     0.224 C 
ATOM      8  O   UNL A   1      33.285  25.785  20.865  1.00  0.00    -0.275 OA
ATOM      9  H   UNL A   1      31.939  27.716  21.068  1.00  0.00     0.164 HD
BRANCH   7  10
ATOM     10  C   UNL A   1      32.815  25.196  23.142  1.00  0.00     0.080 C 
ATOM     11  C   UNL A   1      34.236  24.648  23.302  1.00  0.00     0.018 C 
BRANCH  10  12
ATOM     12  C   UNL A   1      31.648  24.194  23.149  1.00  0.00     0.052 C 
BRANCH  12  13
ATOM     13  C   UNL A   1      31.884  22.912  23.876  1.00  0.00    -0.003 A 
ATOM     14  C   UNL A   1      31.613  23.673  26.376  1.00  0.00     0.069 C 
ATOM     15  C   UNL A   1      31.879  22.703  25.283  1.00  0.00     0.063 A 
ATOM     16  N   UNL A   1      32.105  21.424  25.594  1.00  0.00    -0.178 NA
ATOM     17  N   UNL A   1      32.231  20.807  24.409  1.00  0.00    -0.272 N 
ATOM     18  C   UNL A   1      32.031  21.639  23.339  1.00  0.00     0.038 A 
ATOM     19  C   UNL A   1      32.507  19.390  24.400  1.00  0.00     0.174 C 
ATOM     20  C   UNL A   1      31.991  21.147  21.937  1.00  0.00     0.066 C 
ENDBRANCH  12  13
ENDBRANCH  10  12
ENDBRANCH   7  10
ENDBRANCH   5   6
BRANCH   5  21
ATOM     21  C   UNL A   1      30.111  28.632  22.769  1.00  0.00     0.004 A 
ATOM     22  C   UNL A   1      30.099  29.848  22.044  1.00  0.00     0.008 A 
ATOM     23  C   UNL A   1      28.873  28.097  23.156  1.00  0.00     0.046 A 
ATOM     24  C   UNL A   1      28.911  30.526  21.771  1.00  0.00     0.000 A 
ATOM     25  C   UNL A   1      27.683  28.793  22.900  1.00  0.00     0.021 A 
ATOM     26  Cl  UNL A   1      28.721  26.553  23.915  1.00  0.00    -0.084 Cl
ATOM     27  C   UNL A   1      27.702  30.008  22.215  1.00  0.00     0.002 A 
ENDBRANCH   5  21
ENDBRANCH   3   5
ENDBRANCH   2   3
ENDBRANCH   1   2
BRANCH   1  28
ATOM     28  C   UNL A   1      32.488  29.939  27.194  1.00  0.00     0.275 C 
BRANCH  28  29
ATOM     29  O   UNL A   1      33.802  30.390  26.827  1.00  0.00    -0.458 OA
BRANCH  29  30
ATOM     30  C   UNL A   1      34.496  31.053  27.778  1.00  0.00     0.338 C 
ATOM     31  O   UNL A   1      34.171  32.085  28.347  1.00  0.00    -0.246 OA
BRANCH  30  32
ATOM     32  C   UNL A   1      35.743  30.324  28.076  1.00  0.00     0.060 A 
ATOM     33  C   UNL A   1      35.840  29.533  29.219  1.00  0.00     0.016 A 
ATOM     34  C   UNL A   1      36.866  30.512  27.272  1.00  0.00     0.016 A 
ATOM     35  C   UNL A   1      37.070  29.019  29.616  1.00  0.00     0.010 A 
ATOM     36  C   UNL A   1      38.078  29.905  27.619  1.00  0.00     0.010 A 
ATOM     37  C   UNL A   1      38.208  29.187  28.821  1.00  0.00    -0.014 A 
BRANCH  37  38
ATOM     38  C   UNL A   1      39.531  28.674  29.277  1.00  0.00     0.031 A 
ATOM     39  C   UNL A   1      40.329  29.449  30.295  1.00  0.00     0.074 A 
ATOM     40  C   UNL A   1      40.021  27.501  28.828  1.00  0.00     0.049 A 
ATOM     41  N   UNL A   1      41.581  29.302  30.649  1.00  0.00    -0.248 NA
ATOM     42  C   UNL A   1      39.633  30.541  30.994  1.00  0.00     0.031 C 
ATOM     43  C   UNL A   1      39.341  26.582  27.911  1.00  0.00     0.029 A 
ATOM     44  N   UNL A   1      41.206  26.864  29.108  1.00  0.00    -0.354 N 
ATOM     45  C   UNL A   1      41.847  30.339  31.536  1.00  0.00     0.074 A 
ATOM     46  C   UNL A   1      40.619  31.091  31.686  1.00  0.00     0.031 C 
ATOM     47  C   UNL A   1      40.078  25.471  27.773  1.00  0.00     0.029 A 
ATOM     48  C   UNL A   1      41.336  25.645  28.491  1.00  0.00     0.049 A 
ATOM     49  H   UNL A   1      41.896  27.247  29.697  1.00  0.00     0.167 HD
ATOM     50  C   UNL A   1      43.013  30.647  32.153  1.00  0.00     0.031 A 
ATOM     51  C   UNL A   1      42.364  24.778  28.460  1.00  0.00     0.031 A 
ATOM     52  C   UNL A   1      44.215  29.861  32.061  1.00  0.00     0.049 A 
ATOM     53  C   UNL A   1      43.658  25.150  29.124  1.00  0.00     0.074 A 
ATOM     54  C   UNL A   1      45.446  30.091  32.649  1.00  0.00     0.029 A 
ATOM     55  N   UNL A   1      44.324  28.673  31.355  1.00  0.00    -0.354 N 
ATOM     56  N   UNL A   1      43.939  26.204  29.850  1.00  0.00    -0.248 NA
ATOM     57  C   UNL A   1      44.787  24.232  28.922  1.00  0.00     0.031 C 
ATOM     58  C   UNL A   1      46.310  29.054  32.278  1.00  0.00     0.029 A 
ATOM     59  C   UNL A   1      45.603  28.161  31.490  1.00  0.00     0.049 A 
ATOM     60  H   UNL A   1      43.600  28.256  30.835  1.00  0.00     0.167 HD
ATOM     61  C   UNL A   1      45.280  26.082  30.185  1.00  0.00     0.074 A 
ATOM     62  C   UNL A   1      45.748  24.837  29.607  1.00  0.00     0.031 C 
ATOM     63  C   UNL A   1      46.057  26.931  30.897  1.00  0.00     0.031 A 
BRANCH  50  64
ATOM     64  C   UNL A   1      43.059  31.928  32.935  1.00  0.00    -0.014 A 
ATOM     65  C   UNL A   1      43.396  33.151  32.338  1.00  0.00     0.009 A 
ATOM     66  C   UNL A   1      42.742  31.903  34.304  1.00  0.00     0.009 A 
ATOM     67  C   UNL A   1      43.448  34.319  33.103  1.00  0.00     0.001 A 
ATOM     68  C   UNL A   1      42.770  33.076  35.061  1.00  0.00     0.001 A 
ATOM     69  C   UNL A   1      43.133  34.280  34.462  1.00  0.00     0.000 A 
ENDBRANCH  50  64
BRANCH  51  70
ATOM     70  C   UNL A   1      42.230  23.495  27.726  1.00  0.00    -0.014 A 
ATOM     71  C   UNL A   1      42.600  23.414  26.376  1.00  0.00     0.009 A 
ATOM     72  C   UNL A   1      41.757  22.343  28.374  1.00  0.00     0.009 A 
ATOM     73  C   UNL A   1      42.497  22.202  25.688  1.00  0.00     0.001 A 
ATOM     74  C   UNL A   1      41.681  21.128  27.691  1.00  0.00     0.001 A 
ATOM     75  C   UNL A   1      42.047  21.059  26.348  1.00  0.00     0.000 A 
ENDBRANCH  51  70
BRANCH  63  76
ATOM     76  C   UNL A   1      47.489  26.533  31.098  1.00  0.00    -0.014 A 
ATOM     77  C   UNL A   1      48.471  26.875  30.157  1.00  0.00     0.009 A 
ATOM     78  C   UNL A   1      47.862  25.822  32.248  1.00  0.00     0.009 A 
ATOM     79  C   UNL A   1      49.797  26.487  30.350  1.00  0.00     0.001 A 
ATOM     80  C   UNL A   1      49.192  25.452  32.449  1.00  0.00     0.001 A 
ATOM     81  C   UNL A   1      50.157  25.778  31.497  1.00  0.00     0.000 A 
ENDBRANCH  63  76
ENDBRANCH  37  38
ENDBRANCH  30  32
ENDBRANCH  29  30
ENDBRANCH  28  29
ENDBRANCH   1  28
TORSDOF 16
ENDMDL
