MODEL 1
REMARK VINA RESULT:      -9.8      0.000      0.000
REMARK SMILES COC(=O)c1cscc1NS(=O)(=O)c1cc(C)c(C(=O)OCCOC(=O)c2ccc(-c3c4nc(c(-c5ccccc5)c5ccc([nH]5)c(-c5ccccc5)c5nc(c(-c6ccccc6)c6ccc3[nH]6)C=C5)C=C4)cc2)s1
REMARK SMILES IDX 21 1 19 2 20 3 18 4 14 5 15 6 75 7 16 8 17 9 11 10 12 11
REMARK SMILES IDX 13 12 10 13 9 15 5 16 6 17 7 18 8 19 3 20 4 21 2 22 1 23
REMARK SMILES IDX 22 24 23 25 24 26 25 27 26 28 27 29 28 30 74 31 29 32 73 33
REMARK SMILES IDX 30 34 31 35 32 36 67 37 33 38 72 39 66 40 68 41 34 42 71 43
REMARK SMILES IDX 65 44 64 45 35 47 57 48 42 49 56 50 43 51 46 52 55 53 69 54
REMARK SMILES IDX 44 55 45 56 54 58 70 59 47 60 36 61 37 62 41 63 38 64 40 65
REMARK SMILES IDX 39 66 58 67 59 68 63 69 60 70 62 71 61 72 48 73 49 74 53 75
REMARK SMILES IDX 50 76 52 77 51 78
REMARK H PARENT 10 14 68 46 46 57
REMARK Flexibility Score: inf
ROOT
ATOM      1  O   UNL A   1      34.084  33.360  28.818  1.00  0.00    -0.458 OA
ENDROOT
BRANCH   1   2
ATOM      2  C   UNL A   1      35.227  32.693  28.486  1.00  0.00     0.348 C 
ATOM      3  O   UNL A   1      36.355  33.121  28.700  1.00  0.00    -0.245 OA
BRANCH   2   4
ATOM      4  C   UNL A   1      34.938  31.418  27.854  1.00  0.00     0.116 A 
ATOM      5  C   UNL A   1      33.572  29.488  27.117  1.00  0.00     0.141 A 
ATOM      6  C   UNL A   1      34.920  29.186  27.191  1.00  0.00     0.038 A 
ATOM      7  S   UNL A   1      33.333  31.156  27.312  1.00  0.00    -0.115 S 
ATOM      8  C   UNL A   1      35.732  30.304  27.610  1.00  0.00    -0.024 A 
ATOM      9  C   UNL A   1      37.203  30.226  27.847  1.00  0.00     0.046 C 
BRANCH   5  10
ATOM     10  S   UNL A   1      32.110  28.520  26.825  1.00  0.00     0.271 S 
ATOM     11  O   UNL A   1      31.407  29.259  25.796  1.00  0.00    -0.200 OA
ATOM     12  O   UNL A   1      31.498  28.300  28.119  1.00  0.00    -0.200 OA
BRANCH  10  13
ATOM     13  N   UNL A   1      32.457  26.998  26.162  1.00  0.00    -0.277 N 
ATOM     14  H   UNL A   1      32.610  26.265  26.801  1.00  0.00     0.180 HD
BRANCH  13  15
ATOM     15  C   UNL A   1      32.551  26.670  24.789  1.00  0.00     0.074 A 
ATOM     16  C   UNL A   1      31.407  26.224  24.015  1.00  0.00     0.094 A 
ATOM     17  C   UNL A   1      31.754  25.984  22.695  1.00  0.00     0.082 A 
ATOM     18  S   UNL A   1      33.388  26.332  22.363  1.00  0.00    -0.149 S 
ATOM     19  C   UNL A   1      33.643  26.853  23.968  1.00  0.00     0.092 A 
BRANCH  16  20
ATOM     20  C   UNL A   1      30.047  26.056  24.526  1.00  0.00     0.340 C 
ATOM     21  O   UNL A   1      29.814  25.857  25.713  1.00  0.00    -0.246 OA
BRANCH  20  22
ATOM     22  O   UNL A   1      29.097  26.178  23.555  1.00  0.00    -0.465 OA
ATOM     23  C   UNL A   1      27.836  26.699  23.982  1.00  0.00     0.282 C 
ENDBRANCH  20  22
ENDBRANCH  16  20
ENDBRANCH  13  15
ENDBRANCH  10  13
ENDBRANCH   5  10
ENDBRANCH   2   4
ENDBRANCH   1   2
BRANCH   1  24
ATOM     24  C   UNL A   1      34.198  34.798  28.829  1.00  0.00     0.275 C 
BRANCH  24  25
ATOM     25  C   UNL A   1      32.909  35.471  29.307  1.00  0.00     0.275 C 
BRANCH  25  26
ATOM     26  O   UNL A   1      32.489  34.977  30.593  1.00  0.00    -0.458 OA
BRANCH  26  27
ATOM     27  C   UNL A   1      32.956  35.674  31.654  1.00  0.00     0.338 C 
ATOM     28  O   UNL A   1      32.535  36.734  32.085  1.00  0.00    -0.246 OA
BRANCH  27  29
ATOM     29  C   UNL A   1      34.041  34.929  32.305  1.00  0.00     0.060 A 
ATOM     30  C   UNL A   1      35.343  35.413  32.189  1.00  0.00     0.016 A 
ATOM     31  C   UNL A   1      33.802  33.690  32.891  1.00  0.00     0.016 A 
ATOM     32  C   UNL A   1      36.425  34.627  32.561  1.00  0.00     0.010 A 
ATOM     33  C   UNL A   1      34.887  32.937  33.352  1.00  0.00     0.010 A 
ATOM     34  C   UNL A   1      36.208  33.386  33.162  1.00  0.00    -0.014 A 
BRANCH  34  35
ATOM     35  C   UNL A   1      37.357  32.542  33.572  1.00  0.00     0.031 A 
ATOM     36  C   UNL A   1      38.044  32.806  34.881  1.00  0.00     0.074 A 
ATOM     37  C   UNL A   1      37.791  31.553  32.766  1.00  0.00     0.049 A 
ATOM     38  N   UNL A   1      39.193  32.356  35.317  1.00  0.00    -0.248 NA
ATOM     39  C   UNL A   1      37.355  33.709  35.817  1.00  0.00     0.031 C 
ATOM     40  C   UNL A   1      37.164  31.142  31.508  1.00  0.00     0.029 A 
ATOM     41  N   UNL A   1      38.876  30.721  32.884  1.00  0.00    -0.354 N 
ATOM     42  C   UNL A   1      39.388  32.962  36.552  1.00  0.00     0.074 A 
ATOM     43  C   UNL A   1      38.243  33.814  36.794  1.00  0.00     0.031 C 
ATOM     44  C   UNL A   1      37.870  30.135  30.973  1.00  0.00     0.029 A 
ATOM     45  C   UNL A   1      39.043  29.891  31.803  1.00  0.00     0.049 A 
ATOM     46  H   UNL A   1      39.474  30.720  33.665  1.00  0.00     0.167 HD
ATOM     47  C   UNL A   1      40.436  32.824  37.399  1.00  0.00     0.031 A 
ATOM     48  C   UNL A   1      40.058  29.065  31.485  1.00  0.00     0.031 A 
ATOM     49  C   UNL A   1      41.555  31.953  37.156  1.00  0.00     0.049 A 
ATOM     50  C   UNL A   1      41.240  28.981  32.405  1.00  0.00     0.074 A 
ATOM     51  C   UNL A   1      42.669  31.736  37.949  1.00  0.00     0.029 A 
ATOM     52  N   UNL A   1      41.694  31.145  36.038  1.00  0.00    -0.354 N 
ATOM     53  N   UNL A   1      41.446  29.597  33.543  1.00  0.00    -0.248 NA
ATOM     54  C   UNL A   1      42.337  28.093  31.991  1.00  0.00     0.031 C 
ATOM     55  C   UNL A   1      43.504  30.829  37.286  1.00  0.00     0.029 A 
ATOM     56  C   UNL A   1      42.882  30.438  36.111  1.00  0.00     0.049 A 
ATOM     57  H   UNL A   1      41.044  31.082  35.301  1.00  0.00     0.167 HD
ATOM     58  C   UNL A   1      42.679  29.152  33.999  1.00  0.00     0.074 A 
ATOM     59  C   UNL A   1      43.171  28.207  33.016  1.00  0.00     0.031 C 
ATOM     60  C   UNL A   1      43.344  29.492  35.129  1.00  0.00     0.031 A 
BRANCH  47  61
ATOM     61  C   UNL A   1      40.443  33.672  38.641  1.00  0.00    -0.014 A 
ATOM     62  C   UNL A   1      41.004  34.959  38.653  1.00  0.00     0.009 A 
ATOM     63  C   UNL A   1      39.852  33.180  39.815  1.00  0.00     0.009 A 
ATOM     64  C   UNL A   1      41.001  35.719  39.825  1.00  0.00     0.001 A 
ATOM     65  C   UNL A   1      39.825  33.952  40.977  1.00  0.00     0.001 A 
ATOM     66  C   UNL A   1      40.408  35.217  40.985  1.00  0.00     0.000 A 
ENDBRANCH  47  61
BRANCH  48  67
ATOM     67  C   UNL A   1      40.018  28.297  30.213  1.00  0.00    -0.014 A 
ATOM     68  C   UNL A   1      40.640  28.794  29.058  1.00  0.00     0.009 A 
ATOM     69  C   UNL A   1      39.365  27.055  30.150  1.00  0.00     0.009 A 
ATOM     70  C   UNL A   1      40.592  28.074  27.863  1.00  0.00     0.001 A 
ATOM     71  C   UNL A   1      39.346  26.321  28.962  1.00  0.00     0.001 A 
ATOM     72  C   UNL A   1      39.952  26.836  27.817  1.00  0.00     0.000 A 
ENDBRANCH  48  67
BRANCH  60  73
ATOM     73  C   UNL A   1      44.643  28.790  35.396  1.00  0.00    -0.014 A 
ATOM     74  C   UNL A   1      44.689  27.569  36.084  1.00  0.00     0.009 A 
ATOM     75  C   UNL A   1      45.836  29.341  34.901  1.00  0.00     0.009 A 
ATOM     76  C   UNL A   1      45.910  26.926  36.296  1.00  0.00     0.001 A 
ATOM     77  C   UNL A   1      47.051  28.684  35.090  1.00  0.00     0.001 A 
ATOM     78  C   UNL A   1      47.088  27.481  35.794  1.00  0.00     0.000 A 
ENDBRANCH  60  73
ENDBRANCH  34  35
ENDBRANCH  27  29
ENDBRANCH  26  27
ENDBRANCH  25  26
ENDBRANCH  24  25
ENDBRANCH   1  24
TORSDOF 16
ENDMDL
MODEL 2
REMARK VINA RESULT:      -9.8      3.117      7.847
REMARK SMILES COC(=O)c1cscc1NS(=O)(=O)c1cc(C)c(C(=O)OCCOC(=O)c2ccc(-c3c4nc(c(-c5ccccc5)c5ccc([nH]5)c(-c5ccccc5)c5nc(c(-c6ccccc6)c6ccc3[nH]6)C=C5)C=C4)cc2)s1
REMARK SMILES IDX 21 1 19 2 20 3 18 4 14 5 15 6 75 7 16 8 17 9 11 10 12 11
REMARK SMILES IDX 13 12 10 13 9 15 5 16 6 17 7 18 8 19 3 20 4 21 2 22 1 23
REMARK SMILES IDX 22 24 23 25 24 26 25 27 26 28 27 29 28 30 74 31 29 32 73 33
REMARK SMILES IDX 30 34 31 35 32 36 67 37 33 38 72 39 66 40 68 41 34 42 71 43
REMARK SMILES IDX 65 44 64 45 35 47 57 48 42 49 56 50 43 51 46 52 55 53 69 54
REMARK SMILES IDX 44 55 45 56 54 58 70 59 47 60 36 61 37 62 41 63 38 64 40 65
REMARK SMILES IDX 39 66 58 67 59 68 63 69 60 70 62 71 61 72 48 73 49 74 53 75
REMARK SMILES IDX 50 76 52 77 51 78
REMARK H PARENT 10 14 68 46 46 57
REMARK Flexibility Score: inf
ROOT
ATOM      1  O   UNL A   1      31.691  29.292  23.625  1.00  0.00    -0.458 OA
ENDROOT
BRANCH   1   2
ATOM      2  C   UNL A   1      30.918  28.500  22.828  1.00  0.00     0.348 C 
ATOM      3  O   UNL A   1      30.126  28.931  21.999  1.00  0.00    -0.245 OA
BRANCH   2   4
ATOM      4  C   UNL A   1      31.154  27.090  23.084  1.00  0.00     0.116 A 
ATOM      5  C   UNL A   1      32.249  24.880  22.871  1.00  0.00     0.141 A 
ATOM      6  C   UNL A   1      30.955  24.785  23.350  1.00  0.00     0.038 A 
ATOM      7  S   UNL A   1      32.744  26.502  22.829  1.00  0.00    -0.115 S 
ATOM      8  C   UNL A   1      30.306  26.068  23.490  1.00  0.00    -0.024 A 
ATOM      9  C   UNL A   1      28.884  26.243  23.910  1.00  0.00     0.046 C 
BRANCH   5  10
ATOM     10  S   UNL A   1      33.460  23.682  22.357  1.00  0.00     0.271 S 
ATOM     11  O   UNL A   1      34.722  24.278  22.748  1.00  0.00    -0.200 OA
ATOM     12  O   UNL A   1      33.185  23.393  20.965  1.00  0.00    -0.200 OA
BRANCH  10  13
ATOM     13  N   UNL A   1      33.338  22.224  23.213  1.00  0.00    -0.277 N 
ATOM     14  H   UNL A   1      33.217  21.408  22.675  1.00  0.00     0.180 HD
BRANCH  13  15
ATOM     15  C   UNL A   1      33.393  22.054  24.616  1.00  0.00     0.074 A 
ATOM     16  C   UNL A   1      33.516  20.749  25.239  1.00  0.00     0.094 A 
ATOM     17  C   UNL A   1      33.567  20.852  26.620  1.00  0.00     0.082 A 
ATOM     18  S   UNL A   1      33.526  22.464  27.169  1.00  0.00    -0.149 S 
ATOM     19  C   UNL A   1      33.486  23.048  25.566  1.00  0.00     0.092 A 
BRANCH  16  20
ATOM     20  C   UNL A   1      33.596  19.472  24.530  1.00  0.00     0.340 C 
ATOM     21  O   UNL A   1      34.604  18.775  24.549  1.00  0.00    -0.246 OA
BRANCH  20  22
ATOM     22  O   UNL A   1      32.434  19.145  23.894  1.00  0.00    -0.465 OA
ATOM     23  C   UNL A   1      32.460  17.931  23.140  1.00  0.00     0.282 C 
ENDBRANCH  20  22
ENDBRANCH  16  20
ENDBRANCH  13  15
ENDBRANCH  10  13
ENDBRANCH   5  10
ENDBRANCH   2   4
ENDBRANCH   1   2
BRANCH   1  24
ATOM     24  C   UNL A   1      31.409  29.200  25.037  1.00  0.00     0.275 C 
BRANCH  24  25
ATOM     25  C   UNL A   1      31.564  30.550  25.742  1.00  0.00     0.275 C 
BRANCH  25  26
ATOM     26  O   UNL A   1      32.428  30.459  26.891  1.00  0.00    -0.458 OA
BRANCH  26  27
ATOM     27  C   UNL A   1      33.046  31.612  27.235  1.00  0.00     0.338 C 
ATOM     28  O   UNL A   1      32.576  32.737  27.214  1.00  0.00    -0.246 OA
BRANCH  27  29
ATOM     29  C   UNL A   1      34.399  31.328  27.729  1.00  0.00     0.060 A 
ATOM     30  C   UNL A   1      34.727  30.013  28.052  1.00  0.00     0.016 A 
ATOM     31  C   UNL A   1      35.284  32.363  28.016  1.00  0.00     0.016 A 
ATOM     32  C   UNL A   1      35.889  29.726  28.754  1.00  0.00     0.010 A 
ATOM     33  C   UNL A   1      36.499  32.063  28.641  1.00  0.00     0.010 A 
ATOM     34  C   UNL A   1      36.797  30.746  29.042  1.00  0.00    -0.014 A 
BRANCH  34  35
ATOM     35  C   UNL A   1      38.047  30.449  29.784  1.00  0.00     0.031 A 
ATOM     36  C   UNL A   1      39.111  29.608  29.141  1.00  0.00     0.074 A 
ATOM     37  C   UNL A   1      38.219  30.920  31.034  1.00  0.00     0.049 A 
ATOM     38  N   UNL A   1      40.155  29.037  29.685  1.00  0.00    -0.248 NA
ATOM     39  C   UNL A   1      38.973  29.362  27.697  1.00  0.00     0.031 C 
ATOM     40  C   UNL A   1      37.299  31.813  31.743  1.00  0.00     0.029 A 
ATOM     41  N   UNL A   1      39.227  30.698  31.938  1.00  0.00    -0.354 N 
ATOM     42  C   UNL A   1      40.768  28.323  28.663  1.00  0.00     0.074 A 
ATOM     43  C   UNL A   1      39.977  28.528  27.468  1.00  0.00     0.031 C 
ATOM     44  C   UNL A   1      37.787  32.067  32.966  1.00  0.00     0.029 A 
ATOM     45  C   UNL A   1      39.004  31.287  33.158  1.00  0.00     0.049 A 
ATOM     46  H   UNL A   1      40.032  30.170  31.731  1.00  0.00     0.167 HD
ATOM     47  C   UNL A   1      41.884  27.558  28.724  1.00  0.00     0.031 A 
ATOM     48  C   UNL A   1      39.670  31.167  34.321  1.00  0.00     0.031 A 
ATOM     49  C   UNL A   1      42.674  27.385  29.915  1.00  0.00     0.049 A 
ATOM     50  C   UNL A   1      40.864  30.259  34.383  1.00  0.00     0.074 A 
ATOM     51  C   UNL A   1      43.823  26.633  30.086  1.00  0.00     0.029 A 
ATOM     52  N   UNL A   1      42.398  27.983  31.135  1.00  0.00    -0.354 N 
ATOM     53  N   UNL A   1      41.406  29.543  33.429  1.00  0.00    -0.248 NA
ATOM     54  C   UNL A   1      41.533  30.136  35.686  1.00  0.00     0.031 C 
ATOM     55  C   UNL A   1      44.217  26.742  31.425  1.00  0.00     0.029 A 
ATOM     56  C   UNL A   1      43.347  27.607  32.069  1.00  0.00     0.049 A 
ATOM     57  H   UNL A   1      41.640  28.586  31.310  1.00  0.00     0.167 HD
ATOM     58  C   UNL A   1      42.496  28.906  34.005  1.00  0.00     0.074 A 
ATOM     59  C   UNL A   1      42.542  29.329  35.391  1.00  0.00     0.031 C 
ATOM     60  C   UNL A   1      43.382  28.052  33.438  1.00  0.00     0.031 A 
BRANCH  47  61
ATOM     61  C   UNL A   1      42.284  26.811  27.482  1.00  0.00    -0.014 A 
ATOM     62  C   UNL A   1      41.822  25.512  27.219  1.00  0.00     0.009 A 
ATOM     63  C   UNL A   1      43.123  27.434  26.545  1.00  0.00     0.009 A 
ATOM     64  C   UNL A   1      42.218  24.843  26.059  1.00  0.00     0.001 A 
ATOM     65  C   UNL A   1      43.495  26.774  25.372  1.00  0.00     0.001 A 
ATOM     66  C   UNL A   1      43.051  25.475  25.135  1.00  0.00     0.000 A 
ENDBRANCH  47  61
BRANCH  48  67
ATOM     67  C   UNL A   1      39.189  31.886  35.530  1.00  0.00    -0.014 A 
ATOM     68  C   UNL A   1      38.258  31.289  36.393  1.00  0.00     0.009 A 
ATOM     69  C   UNL A   1      39.667  33.172  35.833  1.00  0.00     0.009 A 
ATOM     70  C   UNL A   1      37.801  31.972  37.522  1.00  0.00     0.001 A 
ATOM     71  C   UNL A   1      39.233  33.839  36.980  1.00  0.00     0.001 A 
ATOM     72  C   UNL A   1      38.294  33.243  37.819  1.00  0.00     0.000 A 
ENDBRANCH  48  67
BRANCH  60  73
ATOM     73  C   UNL A   1      44.512  27.567  34.299  1.00  0.00    -0.014 A 
ATOM     74  C   UNL A   1      44.481  26.303  34.906  1.00  0.00     0.009 A 
ATOM     75  C   UNL A   1      45.649  28.375  34.458  1.00  0.00     0.009 A 
ATOM     76  C   UNL A   1      45.559  25.869  35.681  1.00  0.00     0.001 A 
ATOM     77  C   UNL A   1      46.736  27.928  35.210  1.00  0.00     0.001 A 
ATOM     78  C   UNL A   1      46.686  26.679  35.827  1.00  0.00     0.000 A 
ENDBRANCH  60  73
ENDBRANCH  34  35
ENDBRANCH  27  29
ENDBRANCH  26  27
ENDBRANCH  25  26
ENDBRANCH  24  25
ENDBRANCH   1  24
TORSDOF 16
ENDMDL
MODEL 3
REMARK VINA RESULT:      -9.7      5.187      9.435
REMARK SMILES COC(=O)c1cscc1NS(=O)(=O)c1cc(C)c(C(=O)OCCOC(=O)c2ccc(-c3c4nc(c(-c5ccccc5)c5ccc([nH]5)c(-c5ccccc5)c5nc(c(-c6ccccc6)c6ccc3[nH]6)C=C5)C=C4)cc2)s1
REMARK SMILES IDX 21 1 19 2 20 3 18 4 14 5 15 6 75 7 16 8 17 9 11 10 12 11
REMARK SMILES IDX 13 12 10 13 9 15 5 16 6 17 7 18 8 19 3 20 4 21 2 22 1 23
REMARK SMILES IDX 22 24 23 25 24 26 25 27 26 28 27 29 28 30 74 31 29 32 73 33
REMARK SMILES IDX 30 34 31 35 32 36 67 37 33 38 72 39 66 40 68 41 34 42 71 43
REMARK SMILES IDX 65 44 64 45 35 47 57 48 42 49 56 50 43 51 46 52 55 53 69 54
REMARK SMILES IDX 44 55 45 56 54 58 70 59 47 60 36 61 37 62 41 63 38 64 40 65
REMARK SMILES IDX 39 66 58 67 59 68 63 69 60 70 62 71 61 72 48 73 49 74 53 75
REMARK SMILES IDX 50 76 52 77 51 78
REMARK H PARENT 10 14 68 46 46 57
REMARK Flexibility Score: inf
ROOT
ATOM      1  O   UNL A   1      34.322  19.927  25.396  1.00  0.00    -0.458 OA
ENDROOT
BRANCH   1   2
ATOM      2  C   UNL A   1      32.991  20.192  25.250  1.00  0.00     0.348 C 
ATOM      3  O   UNL A   1      32.154  19.345  24.961  1.00  0.00    -0.245 OA
BRANCH   2   4
ATOM      4  C   UNL A   1      32.695  21.594  25.484  1.00  0.00     0.116 A 
ATOM      5  C   UNL A   1      32.230  23.959  24.916  1.00  0.00     0.141 A 
ATOM      6  C   UNL A   1      32.706  23.808  26.206  1.00  0.00     0.038 A 
ATOM      7  S   UNL A   1      31.883  22.444  24.237  1.00  0.00    -0.115 S 
ATOM      8  C   UNL A   1      32.973  22.432  26.556  1.00  0.00    -0.024 A 
ATOM      9  C   UNL A   1      33.567  22.002  27.856  1.00  0.00     0.046 C 
BRANCH   5  10
ATOM     10  S   UNL A   1      31.883  25.370  23.892  1.00  0.00     0.271 S 
ATOM     11  O   UNL A   1      31.127  24.816  22.787  1.00  0.00    -0.200 OA
ATOM     12  O   UNL A   1      33.151  26.028  23.656  1.00  0.00    -0.200 OA
BRANCH  10  13
ATOM     13  N   UNL A   1      30.862  26.491  24.651  1.00  0.00    -0.277 N 
ATOM     14  H   UNL A   1      29.965  26.170  24.900  1.00  0.00     0.180 HD
BRANCH  13  15
ATOM     15  C   UNL A   1      31.161  27.837  24.966  1.00  0.00     0.074 A 
ATOM     16  C   UNL A   1      30.706  28.948  24.151  1.00  0.00     0.094 A 
ATOM     17  C   UNL A   1      31.114  30.162  24.680  1.00  0.00     0.082 A 
ATOM     18  S   UNL A   1      31.972  29.996  26.141  1.00  0.00    -0.149 S 
ATOM     19  C   UNL A   1      31.770  28.302  26.112  1.00  0.00     0.092 A 
BRANCH  16  20
ATOM     20  C   UNL A   1      29.904  28.837  22.933  1.00  0.00     0.340 C 
ATOM     21  O   UNL A   1      30.287  28.210  21.952  1.00  0.00    -0.246 OA
BRANCH  20  22
ATOM     22  O   UNL A   1      28.698  29.468  23.033  1.00  0.00    -0.465 OA
ATOM     23  C   UNL A   1      28.594  30.720  22.351  1.00  0.00     0.282 C 
ENDBRANCH  20  22
ENDBRANCH  16  20
ENDBRANCH  13  15
ENDBRANCH  10  13
ENDBRANCH   5  10
ENDBRANCH   2   4
ENDBRANCH   1   2
BRANCH   1  24
ATOM     24  C   UNL A   1      35.205  20.857  24.736  1.00  0.00     0.275 C 
BRANCH  24  25
ATOM     25  C   UNL A   1      36.678  20.515  24.972  1.00  0.00     0.275 C 
BRANCH  25  26
ATOM     26  O   UNL A   1      37.401  21.618  25.552  1.00  0.00    -0.458 OA
BRANCH  26  27
ATOM     27  C   UNL A   1      38.671  21.339  25.922  1.00  0.00     0.338 C 
ATOM     28  O   UNL A   1      39.282  20.299  25.742  1.00  0.00    -0.246 OA
BRANCH  27  29
ATOM     29  C   UNL A   1      39.285  22.522  26.538  1.00  0.00     0.060 A 
ATOM     30  C   UNL A   1      38.799  23.781  26.191  1.00  0.00     0.016 A 
ATOM     31  C   UNL A   1      40.425  22.403  27.327  1.00  0.00     0.016 A 
ATOM     32  C   UNL A   1      39.497  24.929  26.539  1.00  0.00     0.010 A 
ATOM     33  C   UNL A   1      41.077  23.563  27.757  1.00  0.00     0.010 A 
ATOM     34  C   UNL A   1      40.636  24.834  27.341  1.00  0.00    -0.014 A 
BRANCH  34  35
ATOM     35  C   UNL A   1      41.384  26.055  27.726  1.00  0.00     0.031 A 
ATOM     36  C   UNL A   1      40.744  27.063  28.637  1.00  0.00     0.074 A 
ATOM     37  C   UNL A   1      42.626  26.265  27.250  1.00  0.00     0.049 A 
ATOM     38  N   UNL A   1      41.115  28.289  28.905  1.00  0.00    -0.248 NA
ATOM     39  C   UNL A   1      39.513  26.641  29.325  1.00  0.00     0.031 C 
ATOM     40  C   UNL A   1      43.391  25.329  26.423  1.00  0.00     0.029 A 
ATOM     41  N   UNL A   1      43.459  27.347  27.384  1.00  0.00    -0.354 N 
ATOM     42  C   UNL A   1      40.137  28.801  29.748  1.00  0.00     0.074 A 
ATOM     43  C   UNL A   1      39.154  27.756  29.944  1.00  0.00     0.031 C 
ATOM     44  C   UNL A   1      44.581  25.875  26.128  1.00  0.00     0.029 A 
ATOM     45  C   UNL A   1      44.626  27.227  26.670  1.00  0.00     0.049 A 
ATOM     46  H   UNL A   1      43.242  28.131  27.938  1.00  0.00     0.167 HD
ATOM     47  C   UNL A   1      40.065  30.036  30.298  1.00  0.00     0.031 A 
ATOM     48  C   UNL A   1      45.598  28.126  26.428  1.00  0.00     0.031 A 
ATOM     49  C   UNL A   1      41.063  31.056  30.114  1.00  0.00     0.049 A 
ATOM     50  C   UNL A   1      45.463  29.511  26.991  1.00  0.00     0.074 A 
ATOM     51  C   UNL A   1      41.089  32.341  30.627  1.00  0.00     0.029 A 
ATOM     52  N   UNL A   1      42.219  30.898  29.364  1.00  0.00    -0.354 N 
ATOM     53  N   UNL A   1      44.510  30.007  27.741  1.00  0.00    -0.248 NA
ATOM     54  C   UNL A   1      46.534  30.463  26.665  1.00  0.00     0.031 C 
ATOM     55  C   UNL A   1      42.241  32.976  30.149  1.00  0.00     0.029 A 
ATOM     56  C   UNL A   1      42.960  32.067  29.389  1.00  0.00     0.049 A 
ATOM     57  H   UNL A   1      42.475  30.077  28.887  1.00  0.00     0.167 HD
ATOM     58  C   UNL A   1      44.878  31.319  28.003  1.00  0.00     0.074 A 
ATOM     59  C   UNL A   1      46.146  31.538  27.337  1.00  0.00     0.031 C 
ATOM     60  C   UNL A   1      44.227  32.258  28.731  1.00  0.00     0.031 A 
BRANCH  47  61
ATOM     61  C   UNL A   1      38.841  30.368  31.107  1.00  0.00    -0.014 A 
ATOM     62  C   UNL A   1      38.800  30.174  32.496  1.00  0.00     0.009 A 
ATOM     63  C   UNL A   1      37.717  30.909  30.465  1.00  0.00     0.009 A 
ATOM     64  C   UNL A   1      37.645  30.485  33.219  1.00  0.00     0.001 A 
ATOM     65  C   UNL A   1      36.574  31.246  31.192  1.00  0.00     0.001 A 
ATOM     66  C   UNL A   1      36.535  31.024  32.568  1.00  0.00     0.000 A 
ENDBRANCH  47  61
BRANCH  48  67
ATOM     67  C   UNL A   1      46.754  27.755  25.571  1.00  0.00    -0.014 A 
ATOM     68  C   UNL A   1      46.707  27.951  24.183  1.00  0.00     0.009 A 
ATOM     69  C   UNL A   1      47.919  27.212  26.139  1.00  0.00     0.009 A 
ATOM     70  C   UNL A   1      47.792  27.591  23.380  1.00  0.00     0.001 A 
ATOM     71  C   UNL A   1      49.014  26.883  25.338  1.00  0.00     0.001 A 
ATOM     72  C   UNL A   1      48.947  27.065  23.958  1.00  0.00     0.000 A 
ENDBRANCH  48  67
BRANCH  60  73
ATOM     73  C   UNL A   1      44.905  33.586  28.900  1.00  0.00    -0.014 A 
ATOM     74  C   UNL A   1      44.659  34.651  28.021  1.00  0.00     0.009 A 
ATOM     75  C   UNL A   1      45.766  33.784  29.991  1.00  0.00     0.009 A 
ATOM     76  C   UNL A   1      45.286  35.883  28.218  1.00  0.00     0.001 A 
ATOM     77  C   UNL A   1      46.370  35.024  30.200  1.00  0.00     0.001 A 
ATOM     78  C   UNL A   1      46.135  36.070  29.309  1.00  0.00     0.000 A 
ENDBRANCH  60  73
ENDBRANCH  34  35
ENDBRANCH  27  29
ENDBRANCH  26  27
ENDBRANCH  25  26
ENDBRANCH  24  25
ENDBRANCH   1  24
TORSDOF 16
ENDMDL
