MODEL 1
REMARK VINA RESULT:      -9.7      0.000      0.000
REMARK SMILES O=C(CNc1nc(-c2ccccc2)c(-c2ccccc2)s1)OCCOC(=O)c1ccc(-c2c3nc(c(-c4ccccc4)c4ccc([nH]4)c(-c4ccccc4)c4nc(c(-c5ccccc5)c5ccc2[nH]5)C=C4)C=C3)cc1
REMARK SMILES IDX 23 1 22 2 2 3 1 4 3 5 4 6 5 8 6 9 21 10 7 11 14 12 8 13 9 14
REMARK SMILES IDX 13 15 10 16 12 17 11 18 15 19 16 20 20 21 17 22 19 23 18 24
REMARK SMILES IDX 24 25 25 26 26 27 27 28 28 29 29 30 75 31 30 32 74 33 31 34
REMARK SMILES IDX 32 35 33 36 68 37 34 38 73 39 67 40 69 41 35 42 72 43 66 44
REMARK SMILES IDX 65 45 36 47 58 48 43 49 57 50 44 51 47 52 56 53 70 54 45 55
REMARK SMILES IDX 46 56 55 58 71 59 48 60 37 61 38 62 42 63 39 64 41 65 40 66
REMARK SMILES IDX 59 67 60 68 64 69 61 70 63 71 62 72 49 73 50 74 54 75 51 76
REMARK SMILES IDX 53 77 52 78
REMARK H PARENT 4 7 69 46 47 57
REMARK Flexibility Score: inf
ROOT
ATOM      1  C   UNL A   1      42.292  19.894  26.304  1.00  0.00     0.274 C 
ENDROOT
BRANCH   1   2
ATOM      2  O   UNL A   1      42.778  19.332  25.065  1.00  0.00    -0.461 OA
BRANCH   2   3
ATOM      3  C   UNL A   1      44.063  18.995  24.793  1.00  0.00     0.325 C 
ATOM      4  O   UNL A   1      44.595  18.070  25.408  1.00  0.00    -0.250 OA
BRANCH   3   5
ATOM      5  C   UNL A   1      44.832  19.752  23.717  1.00  0.00     0.238 C 
BRANCH   5   6
ATOM      6  N   UNL A   1      46.001  20.427  24.253  1.00  0.00    -0.351 N 
ATOM      7  H   UNL A   1      46.897  20.055  24.088  1.00  0.00     0.163 HD
BRANCH   6   8
ATOM      8  C   UNL A   1      45.867  21.555  24.973  1.00  0.00     0.184 A 
ATOM      9  N   UNL A   1      45.356  21.626  26.181  1.00  0.00    -0.220 NA
ATOM     10  S   UNL A   1      46.280  23.061  24.264  1.00  0.00    -0.096 S 
ATOM     11  C   UNL A   1      45.222  22.951  26.568  1.00  0.00     0.091 A 
ATOM     12  C   UNL A   1      45.627  23.881  25.624  1.00  0.00     0.064 A 
BRANCH  11  13
ATOM     13  C   UNL A   1      44.719  23.301  27.890  1.00  0.00     0.002 A 
ATOM     14  C   UNL A   1      45.522  23.971  28.822  1.00  0.00     0.010 A 
ATOM     15  C   UNL A   1      43.429  22.903  28.262  1.00  0.00     0.010 A 
ATOM     16  C   UNL A   1      45.061  24.194  30.122  1.00  0.00     0.001 A 
ATOM     17  C   UNL A   1      42.970  23.123  29.563  1.00  0.00     0.001 A 
ATOM     18  C   UNL A   1      43.791  23.757  30.495  1.00  0.00     0.000 A 
ENDBRANCH  11  13
BRANCH  12  19
ATOM     19  C   UNL A   1      45.629  25.340  25.639  1.00  0.00    -0.006 A 
ATOM     20  C   UNL A   1      44.481  26.053  25.270  1.00  0.00     0.009 A 
ATOM     21  C   UNL A   1      46.772  26.040  26.041  1.00  0.00     0.009 A 
ATOM     22  C   UNL A   1      44.480  27.448  25.289  1.00  0.00     0.001 A 
ATOM     23  C   UNL A   1      46.771  27.436  26.057  1.00  0.00     0.001 A 
ATOM     24  C   UNL A   1      45.627  28.138  25.678  1.00  0.00     0.000 A 
ENDBRANCH  12  19
ENDBRANCH   6   8
ENDBRANCH   5   6
ENDBRANCH   3   5
ENDBRANCH   2   3
ENDBRANCH   1   2
BRANCH   1  25
ATOM     25  C   UNL A   1      40.881  20.460  26.163  1.00  0.00     0.275 C 
BRANCH  25  26
ATOM     26  O   UNL A   1      40.936  21.888  26.029  1.00  0.00    -0.458 OA
BRANCH  26  27
ATOM     27  C   UNL A   1      39.774  22.547  26.258  1.00  0.00     0.338 C 
ATOM     28  O   UNL A   1      38.646  22.093  26.184  1.00  0.00    -0.246 OA
BRANCH  27  29
ATOM     29  C   UNL A   1      40.093  23.869  26.838  1.00  0.00     0.060 A 
ATOM     30  C   UNL A   1      40.674  24.829  25.998  1.00  0.00     0.016 A 
ATOM     31  C   UNL A   1      39.766  24.192  28.159  1.00  0.00     0.016 A 
ATOM     32  C   UNL A   1      40.929  26.115  26.479  1.00  0.00     0.010 A 
ATOM     33  C   UNL A   1      40.030  25.475  28.641  1.00  0.00     0.010 A 
ATOM     34  C   UNL A   1      40.619  26.441  27.807  1.00  0.00    -0.014 A 
BRANCH  34  35
ATOM     35  C   UNL A   1      40.952  27.777  28.352  1.00  0.00     0.031 A 
ATOM     36  C   UNL A   1      42.354  28.060  28.807  1.00  0.00     0.074 A 
ATOM     37  C   UNL A   1      39.997  28.717  28.477  1.00  0.00     0.049 A 
ATOM     38  N   UNL A   1      42.837  29.141  29.364  1.00  0.00    -0.248 NA
ATOM     39  C   UNL A   1      43.341  26.986  28.612  1.00  0.00     0.031 C 
ATOM     40  C   UNL A   1      38.603  28.572  28.062  1.00  0.00     0.029 A 
ATOM     41  N   UNL A   1      40.061  29.981  29.010  1.00  0.00    -0.354 N 
ATOM     42  C   UNL A   1      44.182  28.880  29.586  1.00  0.00     0.074 A 
ATOM     43  C   UNL A   1      44.436  27.532  29.124  1.00  0.00     0.031 C 
ATOM     44  C   UNL A   1      37.935  29.696  28.376  1.00  0.00     0.029 A 
ATOM     45  C   UNL A   1      38.849  30.626  29.038  1.00  0.00     0.049 A 
ATOM     46  H   UNL A   1      40.895  30.385  29.342  1.00  0.00     0.167 HD
ATOM     47  C   UNL A   1      45.121  29.691  30.126  1.00  0.00     0.031 A 
ATOM     48  C   UNL A   1      38.509  31.818  29.564  1.00  0.00     0.031 A 
ATOM     49  C   UNL A   1      44.874  31.025  30.600  1.00  0.00     0.049 A 
ATOM     50  C   UNL A   1      39.559  32.661  30.238  1.00  0.00     0.074 A 
ATOM     51  C   UNL A   1      45.780  31.937  31.112  1.00  0.00     0.029 A 
ATOM     52  N   UNL A   1      43.629  31.628  30.642  1.00  0.00    -0.354 N 
ATOM     53  N   UNL A   1      40.842  32.432  30.374  1.00  0.00    -0.248 NA
ATOM     54  C   UNL A   1      39.108  33.928  30.836  1.00  0.00     0.031 C 
ATOM     55  C   UNL A   1      45.073  33.074  31.518  1.00  0.00     0.029 A 
ATOM     56  C   UNL A   1      43.734  32.884  31.215  1.00  0.00     0.049 A 
ATOM     57  H   UNL A   1      42.794  31.224  30.313  1.00  0.00     0.167 HD
ATOM     58  C   UNL A   1      41.353  33.532  31.052  1.00  0.00     0.074 A 
ATOM     59  C   UNL A   1      40.247  34.436  31.288  1.00  0.00     0.031 C 
ATOM     60  C   UNL A   1      42.627  33.771  31.448  1.00  0.00     0.031 A 
BRANCH  47  61
ATOM     61  C   UNL A   1      46.514  29.148  30.257  1.00  0.00    -0.014 A 
ATOM     62  C   UNL A   1      47.452  29.308  29.226  1.00  0.00     0.009 A 
ATOM     63  C   UNL A   1      46.908  28.531  31.453  1.00  0.00     0.009 A 
ATOM     64  C   UNL A   1      48.759  28.845  29.388  1.00  0.00     0.001 A 
ATOM     65  C   UNL A   1      48.220  28.086  31.618  1.00  0.00     0.001 A 
ATOM     66  C   UNL A   1      49.143  28.240  30.585  1.00  0.00     0.000 A 
ENDBRANCH  47  61
BRANCH  48  67
ATOM     67  C   UNL A   1      37.098  32.281  29.527  1.00  0.00    -0.014 A 
ATOM     68  C   UNL A   1      36.213  31.964  30.568  1.00  0.00     0.009 A 
ATOM     69  C   UNL A   1      36.617  32.997  28.420  1.00  0.00     0.009 A 
ATOM     70  C   UNL A   1      34.867  32.324  30.485  1.00  0.00     0.001 A 
ATOM     71  C   UNL A   1      35.276  33.379  28.351  1.00  0.00     0.001 A 
ATOM     72  C   UNL A   1      34.400  33.031  29.378  1.00  0.00     0.000 A 
ENDBRANCH  48  67
BRANCH  60  73
ATOM     73  C   UNL A   1      42.898  35.063  32.163  1.00  0.00    -0.014 A 
ATOM     74  C   UNL A   1      42.605  35.208  33.527  1.00  0.00     0.009 A 
ATOM     75  C   UNL A   1      43.501  36.129  31.476  1.00  0.00     0.009 A 
ATOM     76  C   UNL A   1      42.890  36.407  34.186  1.00  0.00     0.001 A 
ATOM     77  C   UNL A   1      43.806  37.317  32.143  1.00  0.00     0.001 A 
ATOM     78  C   UNL A   1      43.495  37.457  33.495  1.00  0.00     0.000 A 
ENDBRANCH  60  73
ENDBRANCH  34  35
ENDBRANCH  27  29
ENDBRANCH  26  27
ENDBRANCH  25  26
ENDBRANCH   1  25
TORSDOF 15
ENDMDL
MODEL 2
REMARK VINA RESULT:      -9.6      0.471      5.955
REMARK SMILES O=C(CNc1nc(-c2ccccc2)c(-c2ccccc2)s1)OCCOC(=O)c1ccc(-c2c3nc(c(-c4ccccc4)c4ccc([nH]4)c(-c4ccccc4)c4nc(c(-c5ccccc5)c5ccc2[nH]5)C=C4)C=C3)cc1
REMARK SMILES IDX 23 1 22 2 2 3 1 4 3 5 4 6 5 8 6 9 21 10 7 11 14 12 8 13 9 14
REMARK SMILES IDX 13 15 10 16 12 17 11 18 15 19 16 20 20 21 17 22 19 23 18 24
REMARK SMILES IDX 24 25 25 26 26 27 27 28 28 29 29 30 75 31 30 32 74 33 31 34
REMARK SMILES IDX 32 35 33 36 68 37 34 38 73 39 67 40 69 41 35 42 72 43 66 44
REMARK SMILES IDX 65 45 36 47 58 48 43 49 57 50 44 51 47 52 56 53 70 54 45 55
REMARK SMILES IDX 46 56 55 58 71 59 48 60 37 61 38 62 42 63 39 64 41 65 40 66
REMARK SMILES IDX 59 67 60 68 64 69 61 70 63 71 62 72 49 73 50 74 54 75 51 76
REMARK SMILES IDX 53 77 52 78
REMARK H PARENT 4 7 69 46 47 57
REMARK Flexibility Score: inf
ROOT
ATOM      1  C   UNL A   1      41.972  19.889  26.379  1.00  0.00     0.274 C 
ENDROOT
BRANCH   1   2
ATOM      2  O   UNL A   1      42.583  19.601  25.102  1.00  0.00    -0.461 OA
BRANCH   2   3
ATOM      3  C   UNL A   1      43.800  19.035  24.910  1.00  0.00     0.325 C 
ATOM      4  O   UNL A   1      44.181  18.136  25.662  1.00  0.00    -0.250 OA
BRANCH   3   5
ATOM      5  C   UNL A   1      44.680  19.506  23.758  1.00  0.00     0.238 C 
BRANCH   5   6
ATOM      6  N   UNL A   1      45.858  20.214  24.223  1.00  0.00    -0.351 N 
ATOM      7  H   UNL A   1      46.754  19.853  24.030  1.00  0.00     0.163 HD
BRANCH   6   8
ATOM      8  C   UNL A   1      45.736  21.360  24.918  1.00  0.00     0.184 A 
ATOM      9  N   UNL A   1      45.204  21.466  26.114  1.00  0.00    -0.220 NA
ATOM     10  S   UNL A   1      46.194  22.842  24.187  1.00  0.00    -0.096 S 
ATOM     11  C   UNL A   1      45.091  22.801  26.472  1.00  0.00     0.091 A 
ATOM     12  C   UNL A   1      45.534  23.703  25.517  1.00  0.00     0.064 A 
BRANCH  11  13
ATOM     13  C   UNL A   1      44.572  23.189  27.777  1.00  0.00     0.002 A 
ATOM     14  C   UNL A   1      45.403  23.751  28.755  1.00  0.00     0.010 A 
ATOM     15  C   UNL A   1      43.229  22.935  28.086  1.00  0.00     0.010 A 
ATOM     16  C   UNL A   1      44.912  24.007  30.038  1.00  0.00     0.001 A 
ATOM     17  C   UNL A   1      42.740  23.188  29.370  1.00  0.00     0.001 A 
ATOM     18  C   UNL A   1      43.584  23.713  30.348  1.00  0.00     0.000 A 
ENDBRANCH  11  13
BRANCH  12  19
ATOM     19  C   UNL A   1      45.567  25.162  25.504  1.00  0.00    -0.006 A 
ATOM     20  C   UNL A   1      44.402  25.893  25.237  1.00  0.00     0.009 A 
ATOM     21  C   UNL A   1      46.759  25.844  25.777  1.00  0.00     0.009 A 
ATOM     22  C   UNL A   1      44.432  27.288  25.227  1.00  0.00     0.001 A 
ATOM     23  C   UNL A   1      46.786  27.239  25.765  1.00  0.00     0.001 A 
ATOM     24  C   UNL A   1      45.625  27.959  25.487  1.00  0.00     0.000 A 
ENDBRANCH  12  19
ENDBRANCH   6   8
ENDBRANCH   5   6
ENDBRANCH   3   5
ENDBRANCH   2   3
ENDBRANCH   1   2
BRANCH   1  25
ATOM     25  C   UNL A   1      40.566  20.464  26.226  1.00  0.00     0.275 C 
BRANCH  25  26
ATOM     26  O   UNL A   1      40.639  21.863  25.913  1.00  0.00    -0.458 OA
BRANCH  26  27
ATOM     27  C   UNL A   1      39.516  22.581  26.160  1.00  0.00     0.338 C 
ATOM     28  O   UNL A   1      38.364  22.201  26.059  1.00  0.00    -0.246 OA
BRANCH  27  29
ATOM     29  C   UNL A   1      39.910  23.857  26.795  1.00  0.00     0.060 A 
ATOM     30  C   UNL A   1      40.631  24.778  26.023  1.00  0.00     0.016 A 
ATOM     31  C   UNL A   1      39.521  24.182  28.098  1.00  0.00     0.016 A 
ATOM     32  C   UNL A   1      40.964  26.026  26.554  1.00  0.00     0.010 A 
ATOM     33  C   UNL A   1      39.863  25.426  28.631  1.00  0.00     0.010 A 
ATOM     34  C   UNL A   1      40.591  26.351  27.866  1.00  0.00    -0.014 A 
BRANCH  34  35
ATOM     35  C   UNL A   1      41.002  27.641  28.468  1.00  0.00     0.031 A 
ATOM     36  C   UNL A   1      39.974  28.710  28.696  1.00  0.00     0.074 A 
ATOM     37  C   UNL A   1      42.294  27.867  28.771  1.00  0.00     0.049 A 
ATOM     38  N   UNL A   1      40.137  29.924  29.156  1.00  0.00    -0.248 NA
ATOM     39  C   UNL A   1      38.583  28.370  28.361  1.00  0.00     0.031 C 
ATOM     40  C   UNL A   1      43.385  26.908  28.609  1.00  0.00     0.029 A 
ATOM     41  N   UNL A   1      42.904  28.994  29.263  1.00  0.00    -0.354 N 
ATOM     42  C   UNL A   1      38.872  30.494  29.166  1.00  0.00     0.074 A 
ATOM     43  C   UNL A   1      37.953  29.502  28.647  1.00  0.00     0.031 C 
ATOM     44  C   UNL A   1      44.538  27.494  28.976  1.00  0.00     0.029 A 
ATOM     45  C   UNL A   1      44.269  28.876  29.370  1.00  0.00     0.049 A 
ATOM     46  H   UNL A   1      42.413  29.808  29.515  1.00  0.00     0.167 HD
ATOM     47  C   UNL A   1      38.507  31.732  29.573  1.00  0.00     0.031 A 
ATOM     48  C   UNL A   1      45.197  29.787  29.719  1.00  0.00     0.031 A 
ATOM     49  C   UNL A   1      39.413  32.727  30.075  1.00  0.00     0.049 A 
ATOM     50  C   UNL A   1      44.768  31.185  30.080  1.00  0.00     0.074 A 
ATOM     51  C   UNL A   1      39.122  33.990  30.561  1.00  0.00     0.029 A 
ATOM     52  N   UNL A   1      40.789  32.581  30.136  1.00  0.00    -0.354 N 
ATOM     53  N   UNL A   1      43.561  31.687  30.157  1.00  0.00    -0.248 NA
ATOM     54  C   UNL A   1      45.839  32.144  30.401  1.00  0.00     0.031 C 
ATOM     55  C   UNL A   1      40.327  34.631  30.862  1.00  0.00     0.029 A 
ATOM     56  C   UNL A   1      41.365  33.749  30.606  1.00  0.00     0.049 A 
ATOM     57  H   UNL A   1      41.283  31.768  29.882  1.00  0.00     0.167 HD
ATOM     58  C   UNL A   1      43.724  33.008  30.552  1.00  0.00     0.074 A 
ATOM     59  C   UNL A   1      45.145  33.229  30.715  1.00  0.00     0.031 C 
ATOM     60  C   UNL A   1      42.779  33.957  30.759  1.00  0.00     0.031 A 
BRANCH  47  61
ATOM     61  C   UNL A   1      37.055  32.096  29.469  1.00  0.00    -0.014 A 
ATOM     62  C   UNL A   1      36.192  31.943  30.565  1.00  0.00     0.009 A 
ATOM     63  C   UNL A   1      36.564  32.663  28.284  1.00  0.00     0.009 A 
ATOM     64  C   UNL A   1      34.856  32.339  30.467  1.00  0.00     0.001 A 
ATOM     65  C   UNL A   1      35.234  33.074  28.196  1.00  0.00     0.001 A 
ATOM     66  C   UNL A   1      34.381  32.908  29.286  1.00  0.00     0.000 A 
ENDBRANCH  47  61
BRANCH  48  67
ATOM     67  C   UNL A   1      46.640  29.436  29.698  1.00  0.00    -0.014 A 
ATOM     68  C   UNL A   1      47.397  29.587  28.526  1.00  0.00     0.009 A 
ATOM     69  C   UNL A   1      47.253  28.895  30.838  1.00  0.00     0.009 A 
ATOM     70  C   UNL A   1      48.729  29.170  28.488  1.00  0.00     0.001 A 
ATOM     71  C   UNL A   1      48.592  28.504  30.805  1.00  0.00     0.001 A 
ATOM     72  C   UNL A   1      49.325  28.630  29.627  1.00  0.00     0.000 A 
ENDBRANCH  48  67
BRANCH  60  73
ATOM     73  C   UNL A   1      43.247  35.316  31.198  1.00  0.00    -0.014 A 
ATOM     74  C   UNL A   1      43.585  36.300  30.257  1.00  0.00     0.009 A 
ATOM     75  C   UNL A   1      43.300  35.629  32.565  1.00  0.00     0.009 A 
ATOM     76  C   UNL A   1      43.991  37.568  30.680  1.00  0.00     0.001 A 
ATOM     77  C   UNL A   1      43.683  36.905  32.983  1.00  0.00     0.001 A 
ATOM     78  C   UNL A   1      44.034  37.870  32.041  1.00  0.00     0.000 A 
ENDBRANCH  60  73
ENDBRANCH  34  35
ENDBRANCH  27  29
ENDBRANCH  26  27
ENDBRANCH  25  26
ENDBRANCH   1  25
TORSDOF 15
ENDMDL
MODEL 3
REMARK VINA RESULT:      -9.4      4.642     11.390
REMARK SMILES O=C(CNc1nc(-c2ccccc2)c(-c2ccccc2)s1)OCCOC(=O)c1ccc(-c2c3nc(c(-c4ccccc4)c4ccc([nH]4)c(-c4ccccc4)c4nc(c(-c5ccccc5)c5ccc2[nH]5)C=C4)C=C3)cc1
REMARK SMILES IDX 23 1 22 2 2 3 1 4 3 5 4 6 5 8 6 9 21 10 7 11 14 12 8 13 9 14
REMARK SMILES IDX 13 15 10 16 12 17 11 18 15 19 16 20 20 21 17 22 19 23 18 24
REMARK SMILES IDX 24 25 25 26 26 27 27 28 28 29 29 30 75 31 30 32 74 33 31 34
REMARK SMILES IDX 32 35 33 36 68 37 34 38 73 39 67 40 69 41 35 42 72 43 66 44
REMARK SMILES IDX 65 45 36 47 58 48 43 49 57 50 44 51 47 52 56 53 70 54 45 55
REMARK SMILES IDX 46 56 55 58 71 59 48 60 37 61 38 62 42 63 39 64 41 65 40 66
REMARK SMILES IDX 59 67 60 68 64 69 61 70 63 71 62 72 49 73 50 74 54 75 51 76
REMARK SMILES IDX 53 77 52 78
REMARK H PARENT 4 7 69 46 47 57
REMARK Flexibility Score: inf
ROOT
ATOM      1  C   UNL A   1      34.021  34.239  27.847  1.00  0.00     0.274 C 
ENDROOT
BRANCH   1   2
ATOM      2  O   UNL A   1      34.109  35.410  28.688  1.00  0.00    -0.461 OA
BRANCH   2   3
ATOM      3  C   UNL A   1      33.094  35.955  29.403  1.00  0.00     0.325 C 
ATOM      4  O   UNL A   1      32.133  36.455  28.816  1.00  0.00    -0.250 OA
BRANCH   3   5
ATOM      5  C   UNL A   1      33.144  35.933  30.925  1.00  0.00     0.238 C 
BRANCH   5   6
ATOM      6  N   UNL A   1      33.444  34.610  31.443  1.00  0.00    -0.351 N 
ATOM      7  H   UNL A   1      32.778  33.890  31.358  1.00  0.00     0.163 HD
BRANCH   6   8
ATOM      8  C   UNL A   1      34.625  34.361  32.038  1.00  0.00     0.184 A 
ATOM      9  N   UNL A   1      35.803  34.615  31.516  1.00  0.00    -0.220 NA
ATOM     10  S   UNL A   1      34.653  33.552  33.549  1.00  0.00    -0.096 S 
ATOM     11  C   UNL A   1      36.806  34.094  32.320  1.00  0.00     0.091 A 
ATOM     12  C   UNL A   1      36.363  33.429  33.453  1.00  0.00     0.064 A 
BRANCH  11  13
ATOM     13  C   UNL A   1      38.211  34.281  31.986  1.00  0.00     0.002 A 
ATOM     14  C   UNL A   1      38.670  34.161  30.667  1.00  0.00     0.010 A 
ATOM     15  C   UNL A   1      39.136  34.519  33.011  1.00  0.00     0.010 A 
ATOM     16  C   UNL A   1      40.037  34.228  30.385  1.00  0.00     0.001 A 
ATOM     17  C   UNL A   1      40.503  34.582  32.728  1.00  0.00     0.001 A 
ATOM     18  C   UNL A   1      40.953  34.425  31.417  1.00  0.00     0.000 A 
ENDBRANCH  11  13
BRANCH  12  19
ATOM     19  C   UNL A   1      37.085  32.741  34.518  1.00  0.00    -0.006 A 
ATOM     20  C   UNL A   1      37.202  33.327  35.785  1.00  0.00     0.009 A 
ATOM     21  C   UNL A   1      37.651  31.482  34.288  1.00  0.00     0.009 A 
ATOM     22  C   UNL A   1      37.888  32.668  36.806  1.00  0.00     0.001 A 
ATOM     23  C   UNL A   1      38.339  30.825  35.309  1.00  0.00     0.001 A 
ATOM     24  C   UNL A   1      38.460  31.420  36.565  1.00  0.00     0.000 A 
ENDBRANCH  12  19
ENDBRANCH   6   8
ENDBRANCH   5   6
ENDBRANCH   3   5
ENDBRANCH   2   3
ENDBRANCH   1   2
BRANCH   1  25
ATOM     25  C   UNL A   1      34.983  33.139  28.292  1.00  0.00     0.275 C 
BRANCH  25  26
ATOM     26  O   UNL A   1      34.252  31.945  28.608  1.00  0.00    -0.458 OA
BRANCH  26  27
ATOM     27  C   UNL A   1      34.552  30.855  27.861  1.00  0.00     0.338 C 
ATOM     28  O   UNL A   1      33.972  30.467  26.863  1.00  0.00    -0.246 OA
BRANCH  27  29
ATOM     29  C   UNL A   1      35.850  30.317  28.322  1.00  0.00     0.060 A 
ATOM     30  C   UNL A   1      35.893  29.689  29.574  1.00  0.00     0.016 A 
ATOM     31  C   UNL A   1      36.992  30.360  27.515  1.00  0.00     0.016 A 
ATOM     32  C   UNL A   1      37.078  29.103  30.021  1.00  0.00     0.010 A 
ATOM     33  C   UNL A   1      38.179  29.781  27.968  1.00  0.00     0.010 A 
ATOM     34  C   UNL A   1      38.231  29.157  29.225  1.00  0.00    -0.014 A 
BRANCH  34  35
ATOM     35  C   UNL A   1      39.514  28.605  29.719  1.00  0.00     0.031 A 
ATOM     36  C   UNL A   1      40.288  29.356  30.763  1.00  0.00     0.074 A 
ATOM     37  C   UNL A   1      40.002  27.460  29.207  1.00  0.00     0.049 A 
ATOM     38  N   UNL A   1      41.454  29.076  31.284  1.00  0.00    -0.248 NA
ATOM     39  C   UNL A   1      39.670  30.585  31.285  1.00  0.00     0.031 C 
ATOM     40  C   UNL A   1      39.343  26.630  28.200  1.00  0.00     0.029 A 
ATOM     41  N   UNL A   1      41.185  26.809  29.460  1.00  0.00    -0.354 N 
ATOM     42  C   UNL A   1      41.711  30.090  32.196  1.00  0.00     0.074 A 
ATOM     43  C   UNL A   1      40.590  31.004  32.142  1.00  0.00     0.031 C 
ATOM     44  C   UNL A   1      40.141  25.589  27.903  1.00  0.00     0.029 A 
ATOM     45  C   UNL A   1      41.376  25.697  28.678  1.00  0.00     0.049 A 
ATOM     46  H   UNL A   1      41.834  27.112  30.135  1.00  0.00     0.167 HD
ATOM     47  C   UNL A   1      42.784  30.244  33.006  1.00  0.00     0.031 A 
ATOM     48  C   UNL A   1      42.439  24.875  28.578  1.00  0.00     0.031 A 
ATOM     49  C   UNL A   1      43.907  29.349  33.055  1.00  0.00     0.049 A 
ATOM     50  C   UNL A   1      43.655  25.125  29.429  1.00  0.00     0.074 A 
ATOM     51  C   UNL A   1      45.012  29.400  33.886  1.00  0.00     0.029 A 
ATOM     52  N   UNL A   1      44.078  28.254  32.225  1.00  0.00    -0.354 N 
ATOM     53  N   UNL A   1      43.853  26.045  30.340  1.00  0.00    -0.248 NA
ATOM     54  C   UNL A   1      44.799  24.219  29.231  1.00  0.00     0.031 C 
ATOM     55  C   UNL A   1      45.882  28.368  33.519  1.00  0.00     0.029 A 
ATOM     56  C   UNL A   1      45.294  27.649  32.491  1.00  0.00     0.049 A 
ATOM     57  H   UNL A   1      43.432  27.952  31.547  1.00  0.00     0.167 HD
ATOM     58  C   UNL A   1      45.130  25.817  30.837  1.00  0.00     0.074 A 
ATOM     59  C   UNL A   1      45.657  24.664  30.139  1.00  0.00     0.031 C 
ATOM     60  C   UNL A   1      45.809  26.506  31.787  1.00  0.00     0.031 A 
BRANCH  47  61
ATOM     61  C   UNL A   1      42.810  31.449  33.900  1.00  0.00    -0.014 A 
ATOM     62  C   UNL A   1      43.663  32.530  33.631  1.00  0.00     0.009 A 
ATOM     63  C   UNL A   1      41.921  31.530  34.982  1.00  0.00     0.009 A 
ATOM     64  C   UNL A   1      43.634  33.667  34.441  1.00  0.00     0.001 A 
ATOM     65  C   UNL A   1      41.883  32.674  35.779  1.00  0.00     0.001 A 
ATOM     66  C   UNL A   1      42.741  33.739  35.511  1.00  0.00     0.000 A 
ENDBRANCH  47  61
BRANCH  48  67
ATOM     67  C   UNL A   1      42.436  23.758  27.599  1.00  0.00    -0.014 A 
ATOM     68  C   UNL A   1      42.150  22.447  28.008  1.00  0.00     0.009 A 
ATOM     69  C   UNL A   1      42.774  23.993  26.257  1.00  0.00     0.009 A 
ATOM     70  C   UNL A   1      42.238  21.390  27.101  1.00  0.00     0.001 A 
ATOM     71  C   UNL A   1      42.835  22.937  25.346  1.00  0.00     0.001 A 
ATOM     72  C   UNL A   1      42.579  21.635  25.772  1.00  0.00     0.000 A 
ENDBRANCH  48  67
BRANCH  60  73
ATOM     73  C   UNL A   1      47.188  26.024  32.138  1.00  0.00    -0.014 A 
ATOM     74  C   UNL A   1      47.401  25.198  33.251  1.00  0.00     0.009 A 
ATOM     75  C   UNL A   1      48.275  26.359  31.316  1.00  0.00     0.009 A 
ATOM     76  C   UNL A   1      48.685  24.734  33.548  1.00  0.00     0.001 A 
ATOM     77  C   UNL A   1      49.553  25.874  31.602  1.00  0.00     0.001 A 
ATOM     78  C   UNL A   1      49.757  25.067  32.721  1.00  0.00     0.000 A 
ENDBRANCH  60  73
ENDBRANCH  34  35
ENDBRANCH  27  29
ENDBRANCH  26  27
ENDBRANCH  25  26
ENDBRANCH   1  25
TORSDOF 15
ENDMDL
