MODEL 1
REMARK VINA RESULT:     -10.8      0.000      0.000
REMARK SMILES O=C(C[C@@H]1CN(c2nc3ccccc3s2)CCO1)OCCOC(=O)c1ccc(-c2c3nc(c(-c4ccccc4)c4ccc([nH]4)c(-c4ccccc4)c4nc(c(-c5ccccc5)c5ccc2[nH]5)C=C4)C=C3)cc1
REMARK SMILES IDX 20 1 19 2 2 3 1 4 3 5 4 6 5 7 18 8 6 9 17 10 16 11 7 12 8 13
REMARK SMILES IDX 15 14 9 15 14 16 10 17 13 18 11 19 12 20 21 21 22 22 23 23
REMARK SMILES IDX 24 24 25 25 26 26 72 27 27 28 71 29 28 30 29 31 30 32 65 33
REMARK SMILES IDX 31 34 70 35 64 36 66 37 32 38 69 39 63 40 62 41 33 43 55 44
REMARK SMILES IDX 40 45 54 46 41 47 44 48 53 49 67 50 42 51 43 52 52 54 68 55
REMARK SMILES IDX 45 56 34 57 35 58 39 59 36 60 38 61 37 62 56 63 57 64 61 65
REMARK SMILES IDX 58 66 60 67 59 68 46 69 47 70 51 71 48 72 50 73 49 74
REMARK H PARENT 66 42 44 53
REMARK Flexibility Score: inf
ROOT
ATOM      1  C   UNL A   1      45.911  22.224  24.583  1.00  0.00     0.274 C 
ENDROOT
BRANCH   1   2
ATOM      2  O   UNL A   1      46.374  21.087  25.345  1.00  0.00    -0.462 OA
BRANCH   2   3
ATOM      3  C   UNL A   1      46.211  19.787  25.024  1.00  0.00     0.308 C 
ATOM      4  O   UNL A   1      47.030  18.952  25.402  1.00  0.00    -0.252 OA
BRANCH   3   5
ATOM      5  C   UNL A   1      44.998  19.351  24.247  1.00  0.00     0.156 C 
BRANCH   5   6
ATOM      6  C   UNL A   1      43.756  19.124  25.089  1.00  0.00     0.148 C 
ATOM      7  C   UNL A   1      43.206  20.405  25.736  1.00  0.00     0.151 C 
ATOM      8  O   UNL A   1      44.094  18.151  26.112  1.00  0.00    -0.374 OA
ATOM      9  N   UNL A   1      42.042  20.025  26.520  1.00  0.00    -0.343 N 
ATOM     10  C   UNL A   1      42.941  17.808  26.911  1.00  0.00     0.182 C 
ATOM     11  C   UNL A   1      42.283  19.042  27.564  1.00  0.00     0.147 C 
BRANCH   9  12
ATOM     12  C   UNL A   1      40.859  20.655  26.373  1.00  0.00     0.186 A 
ATOM     13  N   UNL A   1      40.620  21.882  26.766  1.00  0.00    -0.220 NA
ATOM     14  S   UNL A   1      39.519  19.848  25.640  1.00  0.00    -0.097 S 
ATOM     15  C   UNL A   1      39.363  22.278  26.345  1.00  0.00     0.084 A 
ATOM     16  C   UNL A   1      38.589  21.285  25.743  1.00  0.00     0.056 A 
ATOM     17  C   UNL A   1      38.820  23.573  26.466  1.00  0.00     0.030 A 
ATOM     18  C   UNL A   1      37.278  21.522  25.302  1.00  0.00     0.021 A 
ATOM     19  C   UNL A   1      37.527  23.831  25.998  1.00  0.00     0.002 A 
ATOM     20  C   UNL A   1      36.762  22.814  25.436  1.00  0.00     0.002 A 
ENDBRANCH   9  12
ENDBRANCH   5   6
ENDBRANCH   3   5
ENDBRANCH   2   3
ENDBRANCH   1   2
BRANCH   1  21
ATOM     21  C   UNL A   1      45.967  23.507  25.410  1.00  0.00     0.275 C 
BRANCH  21  22
ATOM     22  O   UNL A   1      44.810  23.578  26.261  1.00  0.00    -0.458 OA
BRANCH  22  23
ATOM     23  C   UNL A   1      43.712  24.151  25.710  1.00  0.00     0.338 C 
ATOM     24  O   UNL A   1      43.181  23.845  24.656  1.00  0.00    -0.246 OA
BRANCH  23  25
ATOM     25  C   UNL A   1      43.114  25.089  26.688  1.00  0.00     0.060 A 
ATOM     26  C   UNL A   1      43.450  26.444  26.578  1.00  0.00     0.016 A 
ATOM     27  C   UNL A   1      42.201  24.669  27.662  1.00  0.00     0.016 A 
ATOM     28  C   UNL A   1      42.906  27.372  27.465  1.00  0.00     0.010 A 
ATOM     29  C   UNL A   1      41.655  25.600  28.551  1.00  0.00     0.010 A 
ATOM     30  C   UNL A   1      42.030  26.952  28.475  1.00  0.00    -0.014 A 
BRANCH  30  31
ATOM     31  C   UNL A   1      41.638  27.910  29.535  1.00  0.00     0.031 A 
ATOM     32  C   UNL A   1      42.475  27.992  30.781  1.00  0.00     0.074 A 
ATOM     33  C   UNL A   1      40.589  28.736  29.377  1.00  0.00     0.049 A 
ATOM     34  N   UNL A   1      42.395  28.834  31.780  1.00  0.00    -0.248 NA
ATOM     35  C   UNL A   1      43.547  26.992  30.918  1.00  0.00     0.031 C 
ATOM     36  C   UNL A   1      39.692  28.762  28.222  1.00  0.00     0.029 A 
ATOM     37  N   UNL A   1      40.108  29.724  30.201  1.00  0.00    -0.354 N 
ATOM     38  C   UNL A   1      43.424  28.487  32.645  1.00  0.00     0.074 A 
ATOM     39  C   UNL A   1      44.076  27.324  32.086  1.00  0.00     0.031 C 
ATOM     40  C   UNL A   1      38.769  29.723  28.411  1.00  0.00     0.029 A 
ATOM     41  C   UNL A   1      39.011  30.376  29.697  1.00  0.00     0.049 A 
ATOM     42  H   UNL A   1      40.513  29.943  31.071  1.00  0.00     0.167 HD
ATOM     43  C   UNL A   1      43.809  29.092  33.792  1.00  0.00     0.031 A 
ATOM     44  C   UNL A   1      38.289  31.389  30.213  1.00  0.00     0.031 A 
ATOM     45  C   UNL A   1      43.146  30.225  34.379  1.00  0.00     0.049 A 
ATOM     46  C   UNL A   1      38.700  32.007  31.524  1.00  0.00     0.074 A 
ATOM     47  C   UNL A   1      43.466  30.906  35.542  1.00  0.00     0.029 A 
ATOM     48  N   UNL A   1      42.019  30.835  33.853  1.00  0.00    -0.354 N 
ATOM     49  N   UNL A   1      39.715  31.711  32.299  1.00  0.00    -0.248 NA
ATOM     50  C   UNL A   1      37.871  33.118  32.018  1.00  0.00     0.031 C 
ATOM     51  C   UNL A   1      42.505  31.903  35.741  1.00  0.00     0.029 A 
ATOM     52  C   UNL A   1      41.617  31.871  34.678  1.00  0.00     0.049 A 
ATOM     53  H   UNL A   1      41.572  30.571  33.017  1.00  0.00     0.167 HD
ATOM     54  C   UNL A   1      39.662  32.614  33.354  1.00  0.00     0.074 A 
ATOM     55  C   UNL A   1      38.526  33.480  33.111  1.00  0.00     0.031 C 
ATOM     56  C   UNL A   1      40.481  32.720  34.428  1.00  0.00     0.031 A 
BRANCH  43  57
ATOM     57  C   UNL A   1      45.012  28.526  34.489  1.00  0.00    -0.014 A 
ATOM     58  C   UNL A   1      46.300  29.000  34.193  1.00  0.00     0.009 A 
ATOM     59  C   UNL A   1      44.859  27.528  35.461  1.00  0.00     0.009 A 
ATOM     60  C   UNL A   1      47.416  28.461  34.836  1.00  0.00     0.001 A 
ATOM     61  C   UNL A   1      45.974  27.008  36.120  1.00  0.00     0.001 A 
ATOM     62  C   UNL A   1      47.250  27.469  35.802  1.00  0.00     0.000 A 
ENDBRANCH  43  57
BRANCH  44  63
ATOM     63  C   UNL A   1      37.096  31.902  29.490  1.00  0.00    -0.014 A 
ATOM     64  C   UNL A   1      35.869  31.226  29.561  1.00  0.00     0.009 A 
ATOM     65  C   UNL A   1      37.197  33.046  28.686  1.00  0.00     0.009 A 
ATOM     66  C   UNL A   1      34.774  31.668  28.813  1.00  0.00     0.001 A 
ATOM     67  C   UNL A   1      36.095  33.500  27.960  1.00  0.00     0.001 A 
ATOM     68  C   UNL A   1      34.888  32.805  28.015  1.00  0.00     0.000 A 
ENDBRANCH  44  63
BRANCH  56  69
ATOM     69  C   UNL A   1      40.193  33.822  35.409  1.00  0.00    -0.014 A 
ATOM     70  C   UNL A   1      40.593  35.144  35.157  1.00  0.00     0.009 A 
ATOM     71  C   UNL A   1      39.488  33.539  36.588  1.00  0.00     0.009 A 
ATOM     72  C   UNL A   1      40.326  36.153  36.084  1.00  0.00     0.001 A 
ATOM     73  C   UNL A   1      39.199  34.555  37.502  1.00  0.00     0.001 A 
ATOM     74  C   UNL A   1      39.626  35.858  37.254  1.00  0.00     0.000 A 
ENDBRANCH  56  69
ENDBRANCH  30  31
ENDBRANCH  23  25
ENDBRANCH  22  23
ENDBRANCH  21  22
ENDBRANCH   1  21
TORSDOF 13
ENDMDL
MODEL 2
REMARK VINA RESULT:     -10.7      4.595      9.433
REMARK SMILES O=C(C[C@@H]1CN(c2nc3ccccc3s2)CCO1)OCCOC(=O)c1ccc(-c2c3nc(c(-c4ccccc4)c4ccc([nH]4)c(-c4ccccc4)c4nc(c(-c5ccccc5)c5ccc2[nH]5)C=C4)C=C3)cc1
REMARK SMILES IDX 20 1 19 2 2 3 1 4 3 5 4 6 5 7 18 8 6 9 17 10 16 11 7 12 8 13
REMARK SMILES IDX 15 14 9 15 14 16 10 17 13 18 11 19 12 20 21 21 22 22 23 23
REMARK SMILES IDX 24 24 25 25 26 26 72 27 27 28 71 29 28 30 29 31 30 32 65 33
REMARK SMILES IDX 31 34 70 35 64 36 66 37 32 38 69 39 63 40 62 41 33 43 55 44
REMARK SMILES IDX 40 45 54 46 41 47 44 48 53 49 67 50 42 51 43 52 52 54 68 55
REMARK SMILES IDX 45 56 34 57 35 58 39 59 36 60 38 61 37 62 56 63 57 64 61 65
REMARK SMILES IDX 58 66 60 67 59 68 46 69 47 70 51 71 48 72 50 73 49 74
REMARK H PARENT 66 42 44 53
REMARK Flexibility Score: inf
ROOT
ATOM      1  C   UNL A   1      33.211  28.450  24.876  1.00  0.00     0.274 C 
ENDROOT
BRANCH   1   2
ATOM      2  O   UNL A   1      31.969  28.118  24.218  1.00  0.00    -0.462 OA
BRANCH   2   3
ATOM      3  C   UNL A   1      30.961  27.382  24.730  1.00  0.00     0.308 C 
ATOM      4  O   UNL A   1      30.006  27.068  24.022  1.00  0.00    -0.252 OA
BRANCH   3   5
ATOM      5  C   UNL A   1      31.031  26.901  26.154  1.00  0.00     0.156 C 
BRANCH   5   6
ATOM      6  C   UNL A   1      31.513  25.471  26.316  1.00  0.00     0.148 C 
ATOM      7  C   UNL A   1      32.382  24.977  25.148  1.00  0.00     0.151 C 
ATOM      8  O   UNL A   1      30.339  24.629  26.459  1.00  0.00    -0.374 OA
ATOM      9  N   UNL A   1      32.743  23.598  25.435  1.00  0.00    -0.343 N 
ATOM     10  C   UNL A   1      30.707  23.255  26.705  1.00  0.00     0.182 C 
ATOM     11  C   UNL A   1      31.628  22.681  25.608  1.00  0.00     0.147 C 
BRANCH   9  12
ATOM     12  C   UNL A   1      34.026  23.185  25.397  1.00  0.00     0.186 A 
ATOM     13  N   UNL A   1      35.060  23.966  25.590  1.00  0.00    -0.220 NA
ATOM     14  S   UNL A   1      34.409  21.534  25.064  1.00  0.00    -0.097 S 
ATOM     15  C   UNL A   1      36.222  23.214  25.626  1.00  0.00     0.084 A 
ATOM     16  C   UNL A   1      36.072  21.861  25.318  1.00  0.00     0.056 A 
ATOM     17  C   UNL A   1      37.508  23.693  25.947  1.00  0.00     0.030 A 
ATOM     18  C   UNL A   1      37.163  20.979  25.270  1.00  0.00     0.021 A 
ATOM     19  C   UNL A   1      38.598  22.816  25.938  1.00  0.00     0.002 A 
ATOM     20  C   UNL A   1      38.427  21.479  25.590  1.00  0.00     0.002 A 
ENDBRANCH   9  12
ENDBRANCH   5   6
ENDBRANCH   3   5
ENDBRANCH   2   3
ENDBRANCH   1   2
BRANCH   1  21
ATOM     21  C   UNL A   1      33.033  29.619  25.843  1.00  0.00     0.275 C 
BRANCH  21  22
ATOM     22  O   UNL A   1      33.773  29.359  27.049  1.00  0.00    -0.458 OA
BRANCH  22  23
ATOM     23  C   UNL A   1      34.319  30.446  27.647  1.00  0.00     0.338 C 
ATOM     24  O   UNL A   1      33.756  31.497  27.902  1.00  0.00    -0.246 OA
BRANCH  23  25
ATOM     25  C   UNL A   1      35.670  30.098  28.141  1.00  0.00     0.060 A 
ATOM     26  C   UNL A   1      36.738  30.205  27.241  1.00  0.00     0.016 A 
ATOM     27  C   UNL A   1      35.906  29.726  29.469  1.00  0.00     0.016 A 
ATOM     28  C   UNL A   1      38.034  29.901  27.657  1.00  0.00     0.010 A 
ATOM     29  C   UNL A   1      37.207  29.423  29.886  1.00  0.00     0.010 A 
ATOM     30  C   UNL A   1      38.271  29.479  28.972  1.00  0.00    -0.014 A 
BRANCH  30  31
ATOM     31  C   UNL A   1      39.609  28.954  29.331  1.00  0.00     0.031 A 
ATOM     32  C   UNL A   1      40.476  29.758  30.261  1.00  0.00     0.074 A 
ATOM     33  C   UNL A   1      40.034  27.759  28.886  1.00  0.00     0.049 A 
ATOM     34  N   UNL A   1      41.623  29.443  30.806  1.00  0.00    -0.248 NA
ATOM     35  C   UNL A   1      39.980  31.095  30.628  1.00  0.00     0.031 C 
ATOM     36  C   UNL A   1      39.299  26.877  27.980  1.00  0.00     0.029 A 
ATOM     37  N   UNL A   1      41.197  27.077  29.151  1.00  0.00    -0.354 N 
ATOM     38  C   UNL A   1      41.969  30.525  31.603  1.00  0.00     0.074 A 
ATOM     39  C   UNL A   1      40.943  31.529  31.426  1.00  0.00     0.031 C 
ATOM     40  C   UNL A   1      40.029  25.767  27.767  1.00  0.00     0.029 A 
ATOM     41  C   UNL A   1      41.279  25.862  28.519  1.00  0.00     0.049 A 
ATOM     42  H   UNL A   1      41.904  27.428  29.739  1.00  0.00     0.167 HD
ATOM     43  C   UNL A   1      43.033  30.668  32.427  1.00  0.00     0.031 A 
ATOM     44  C   UNL A   1      42.251  24.930  28.550  1.00  0.00     0.031 A 
ATOM     45  C   UNL A   1      44.079  29.694  32.583  1.00  0.00     0.049 A 
ATOM     46  C   UNL A   1      43.457  25.138  29.427  1.00  0.00     0.074 A 
ATOM     47  C   UNL A   1      45.199  29.753  33.396  1.00  0.00     0.029 A 
ATOM     48  N   UNL A   1      44.141  28.491  31.900  1.00  0.00    -0.354 N 
ATOM     49  N   UNL A   1      43.740  26.139  30.227  1.00  0.00    -0.248 NA
ATOM     50  C   UNL A   1      44.470  24.072  29.420  1.00  0.00     0.031 C 
ATOM     51  C   UNL A   1      45.961  28.601  33.172  1.00  0.00     0.029 A 
ATOM     52  C   UNL A   1      45.291  27.807  32.255  1.00  0.00     0.049 A 
ATOM     53  H   UNL A   1      43.468  28.171  31.257  1.00  0.00     0.167 HD
ATOM     54  C   UNL A   1      44.945  25.809  30.836  1.00  0.00     0.074 A 
ATOM     55  C   UNL A   1      45.331  24.509  30.327  1.00  0.00     0.031 C 
ATOM     56  C   UNL A   1      45.667  26.518  31.737  1.00  0.00     0.031 A 
BRANCH  43  57
ATOM     57  C   UNL A   1      43.111  31.937  33.224  1.00  0.00    -0.014 A 
ATOM     58  C   UNL A   1      43.776  33.063  32.713  1.00  0.00     0.009 A 
ATOM     59  C   UNL A   1      42.501  32.018  34.483  1.00  0.00     0.009 A 
ATOM     60  C   UNL A   1      43.856  34.237  33.463  1.00  0.00     0.001 A 
ATOM     61  C   UNL A   1      42.562  33.201  35.222  1.00  0.00     0.001 A 
ATOM     62  C   UNL A   1      43.244  34.306  34.715  1.00  0.00     0.000 A 
ENDBRANCH  43  57
BRANCH  44  63
ATOM     63  C   UNL A   1      42.132  23.697  27.729  1.00  0.00    -0.014 A 
ATOM     64  C   UNL A   1      41.643  22.507  28.289  1.00  0.00     0.009 A 
ATOM     65  C   UNL A   1      42.554  23.697  26.392  1.00  0.00     0.009 A 
ATOM     66  C   UNL A   1      41.611  21.332  27.533  1.00  0.00     0.001 A 
ATOM     67  C   UNL A   1      42.498  22.528  25.632  1.00  0.00     0.001 A 
ATOM     68  C   UNL A   1      42.038  21.344  26.206  1.00  0.00     0.000 A 
ENDBRANCH  44  63
BRANCH  56  69
ATOM     69  C   UNL A   1      46.935  25.893  32.247  1.00  0.00    -0.014 A 
ATOM     70  C   UNL A   1      46.951  25.140  33.432  1.00  0.00     0.009 A 
ATOM     71  C   UNL A   1      48.126  26.038  31.518  1.00  0.00     0.009 A 
ATOM     72  C   UNL A   1      48.141  24.576  33.896  1.00  0.00     0.001 A 
ATOM     73  C   UNL A   1      49.309  25.450  31.971  1.00  0.00     0.001 A 
ATOM     74  C   UNL A   1      49.318  24.729  33.163  1.00  0.00     0.000 A 
ENDBRANCH  56  69
ENDBRANCH  30  31
ENDBRANCH  23  25
ENDBRANCH  22  23
ENDBRANCH  21  22
ENDBRANCH   1  21
TORSDOF 13
ENDMDL
MODEL 3
REMARK VINA RESULT:     -10.6      1.014      6.100
REMARK SMILES O=C(C[C@@H]1CN(c2nc3ccccc3s2)CCO1)OCCOC(=O)c1ccc(-c2c3nc(c(-c4ccccc4)c4ccc([nH]4)c(-c4ccccc4)c4nc(c(-c5ccccc5)c5ccc2[nH]5)C=C4)C=C3)cc1
REMARK SMILES IDX 20 1 19 2 2 3 1 4 3 5 4 6 5 7 18 8 6 9 17 10 16 11 7 12 8 13
REMARK SMILES IDX 15 14 9 15 14 16 10 17 13 18 11 19 12 20 21 21 22 22 23 23
REMARK SMILES IDX 24 24 25 25 26 26 72 27 27 28 71 29 28 30 29 31 30 32 65 33
REMARK SMILES IDX 31 34 70 35 64 36 66 37 32 38 69 39 63 40 62 41 33 43 55 44
REMARK SMILES IDX 40 45 54 46 41 47 44 48 53 49 67 50 42 51 43 52 52 54 68 55
REMARK SMILES IDX 45 56 34 57 35 58 39 59 36 60 38 61 37 62 56 63 57 64 61 65
REMARK SMILES IDX 58 66 60 67 59 68 46 69 47 70 51 71 48 72 50 73 49 74
REMARK H PARENT 66 42 44 53
REMARK Flexibility Score: inf
ROOT
ATOM      1  C   UNL A   1      45.912  22.057  24.246  1.00  0.00     0.274 C 
ENDROOT
BRANCH   1   2
ATOM      2  O   UNL A   1      46.622  20.979  24.893  1.00  0.00    -0.462 OA
BRANCH   2   3
ATOM      3  C   UNL A   1      46.220  19.696  24.987  1.00  0.00     0.308 C 
ATOM      4  O   UNL A   1      46.820  18.914  25.721  1.00  0.00    -0.252 OA
BRANCH   3   5
ATOM      5  C   UNL A   1      45.001  19.235  24.235  1.00  0.00     0.156 C 
BRANCH   5   6
ATOM      6  C   UNL A   1      43.763  19.040  25.092  1.00  0.00     0.148 C 
ATOM      7  C   UNL A   1      43.247  20.338  25.733  1.00  0.00     0.151 C 
ATOM      8  O   UNL A   1      44.093  18.070  26.120  1.00  0.00    -0.374 OA
ATOM      9  N   UNL A   1      42.084  19.989  26.533  1.00  0.00    -0.343 N 
ATOM     10  C   UNL A   1      42.942  17.757  26.934  1.00  0.00     0.182 C 
ATOM     11  C   UNL A   1      42.316  19.010  27.582  1.00  0.00     0.147 C 
BRANCH   9  12
ATOM     12  C   UNL A   1      40.912  20.641  26.392  1.00  0.00     0.186 A 
ATOM     13  N   UNL A   1      40.694  21.866  26.802  1.00  0.00    -0.220 NA
ATOM     14  S   UNL A   1      39.560  19.869  25.644  1.00  0.00    -0.097 S 
ATOM     15  C   UNL A   1      39.445  22.291  26.384  1.00  0.00     0.084 A 
ATOM     16  C   UNL A   1      38.656  21.320  25.766  1.00  0.00     0.056 A 
ATOM     17  C   UNL A   1      38.924  23.593  26.523  1.00  0.00     0.030 A 
ATOM     18  C   UNL A   1      37.349  21.586  25.327  1.00  0.00     0.021 A 
ATOM     19  C   UNL A   1      37.637  23.880  26.057  1.00  0.00     0.002 A 
ATOM     20  C   UNL A   1      36.856  22.884  25.479  1.00  0.00     0.002 A 
ENDBRANCH   9  12
ENDBRANCH   5   6
ENDBRANCH   3   5
ENDBRANCH   2   3
ENDBRANCH   1   2
BRANCH   1  21
ATOM     21  C   UNL A   1      45.963  23.337  25.079  1.00  0.00     0.275 C 
BRANCH  21  22
ATOM     22  O   UNL A   1      44.953  23.283  26.101  1.00  0.00    -0.458 OA
BRANCH  22  23
ATOM     23  C   UNL A   1      43.825  23.990  25.848  1.00  0.00     0.338 C 
ATOM     24  O   UNL A   1      43.037  23.803  24.937  1.00  0.00    -0.246 OA
BRANCH  23  25
ATOM     25  C   UNL A   1      43.570  24.914  26.976  1.00  0.00     0.060 A 
ATOM     26  C   UNL A   1      42.614  24.532  27.926  1.00  0.00     0.016 A 
ATOM     27  C   UNL A   1      44.284  26.107  27.140  1.00  0.00     0.016 A 
ATOM     28  C   UNL A   1      42.343  25.359  29.015  1.00  0.00     0.010 A 
ATOM     29  C   UNL A   1      44.012  26.935  28.234  1.00  0.00     0.010 A 
ATOM     30  C   UNL A   1      43.018  26.579  29.159  1.00  0.00    -0.014 A 
BRANCH  30  31
ATOM     31  C   UNL A   1      42.563  27.536  30.194  1.00  0.00     0.031 A 
ATOM     32  C   UNL A   1      41.302  28.318  29.952  1.00  0.00     0.074 A 
ATOM     33  C   UNL A   1      43.225  27.676  31.356  1.00  0.00     0.049 A 
ATOM     34  N   UNL A   1      40.652  29.116  30.761  1.00  0.00    -0.248 NA
ATOM     35  C   UNL A   1      40.690  28.179  28.619  1.00  0.00     0.031 C 
ATOM     36  C   UNL A   1      44.460  26.983  31.722  1.00  0.00     0.029 A 
ATOM     37  N   UNL A   1      42.935  28.451  32.452  1.00  0.00    -0.354 N 
ATOM     38  C   UNL A   1      39.541  29.547  30.049  1.00  0.00     0.074 A 
ATOM     39  C   UNL A   1      39.634  28.971  28.725  1.00  0.00     0.031 C 
ATOM     40  C   UNL A   1      44.820  27.364  32.961  1.00  0.00     0.029 A 
ATOM     41  C   UNL A   1      43.844  28.325  33.472  1.00  0.00     0.049 A 
ATOM     42  H   UNL A   1      42.149  29.042  32.501  1.00  0.00     0.167 HD
ATOM     43  C   UNL A   1      38.520  30.332  30.462  1.00  0.00     0.031 A 
ATOM     44  C   UNL A   1      43.880  28.912  34.683  1.00  0.00     0.031 A 
ATOM     45  C   UNL A   1      38.434  30.942  31.761  1.00  0.00     0.049 A 
ATOM     46  C   UNL A   1      42.763  29.835  35.099  1.00  0.00     0.074 A 
ATOM     47  C   UNL A   1      37.436  31.756  32.269  1.00  0.00     0.029 A 
ATOM     48  N   UNL A   1      39.392  30.815  32.753  1.00  0.00    -0.354 N 
ATOM     49  N   UNL A   1      41.684  30.181  34.439  1.00  0.00    -0.248 NA
ATOM     50  C   UNL A   1      42.863  30.429  36.440  1.00  0.00     0.031 C 
ATOM     51  C   UNL A   1      37.812  32.156  33.556  1.00  0.00     0.029 A 
ATOM     52  C   UNL A   1      39.021  31.552  33.864  1.00  0.00     0.049 A 
ATOM     53  H   UNL A   1      40.215  30.279  32.679  1.00  0.00     0.167 HD
ATOM     54  C   UNL A   1      40.966  31.009  35.294  1.00  0.00     0.074 A 
ATOM     55  C   UNL A   1      41.723  31.099  36.526  1.00  0.00     0.031 C 
ATOM     56  C   UNL A   1      39.785  31.639  35.080  1.00  0.00     0.031 A 
BRANCH  43  57
ATOM     57  C   UNL A   1      37.410  30.577  29.481  1.00  0.00    -0.014 A 
ATOM     58  C   UNL A   1      37.240  31.841  28.893  1.00  0.00     0.009 A 
ATOM     59  C   UNL A   1      36.540  29.537  29.128  1.00  0.00     0.009 A 
ATOM     60  C   UNL A   1      36.199  32.065  27.991  1.00  0.00     0.001 A 
ATOM     61  C   UNL A   1      35.514  29.758  28.207  1.00  0.00     0.001 A 
ATOM     62  C   UNL A   1      35.340  31.022  27.646  1.00  0.00     0.000 A 
ENDBRANCH  43  57
BRANCH  44  63
ATOM     63  C   UNL A   1      45.010  28.649  35.611  1.00  0.00    -0.014 A 
ATOM     64  C   UNL A   1      46.182  29.418  35.551  1.00  0.00     0.009 A 
ATOM     65  C   UNL A   1      44.937  27.591  36.528  1.00  0.00     0.009 A 
ATOM     66  C   UNL A   1      47.271  29.111  36.370  1.00  0.00     0.001 A 
ATOM     67  C   UNL A   1      46.018  27.302  37.363  1.00  0.00     0.001 A 
ATOM     68  C   UNL A   1      47.188  28.055  37.275  1.00  0.00     0.000 A 
ENDBRANCH  44  63
BRANCH  56  69
ATOM     69  C   UNL A   1      39.229  32.460  36.209  1.00  0.00    -0.014 A 
ATOM     70  C   UNL A   1      39.593  33.805  36.380  1.00  0.00     0.009 A 
ATOM     71  C   UNL A   1      38.306  31.887  37.098  1.00  0.00     0.009 A 
ATOM     72  C   UNL A   1      39.073  34.549  37.441  1.00  0.00     0.001 A 
ATOM     73  C   UNL A   1      37.767  32.641  38.143  1.00  0.00     0.001 A 
ATOM     74  C   UNL A   1      38.158  33.967  38.320  1.00  0.00     0.000 A 
ENDBRANCH  56  69
ENDBRANCH  30  31
ENDBRANCH  23  25
ENDBRANCH  22  23
ENDBRANCH  21  22
ENDBRANCH   1  21
TORSDOF 13
ENDMDL
