MODEL 1
REMARK VINA RESULT:     -12.7      0.000      0.000
REMARK SMILES O=C(CSc1nnnn1-c1ccc(C(=O)OCCOC(=O)c2ccc(-c3c4nc(c(-c5ccccc5)c5ccc([nH]5)c(-c5ccccc5)c5nc(c(-c6ccccc6)c6ccc3[nH]6)C=C5)C=C4)cc2)cc1)Nc1nc(-c2ccccc2)cs1
REMARK SMILES IDX 14 1 15 2 13 3 10 4 11 5 71 6 12 7 70 8 9 9 5 10 6 11 7 12
REMARK SMILES IDX 8 13 4 14 3 15 2 16 1 17 72 18 73 20 74 21 83 22 75 23 82 24
REMARK SMILES IDX 76 25 77 26 81 27 78 28 80 29 79 30 16 31 17 32 18 33 19 34
REMARK SMILES IDX 20 35 21 36 22 37 23 38 69 39 24 40 68 41 25 42 26 43 27 44
REMARK SMILES IDX 62 45 28 46 67 47 61 48 63 49 29 50 66 51 60 52 59 53 30 55
REMARK SMILES IDX 52 56 37 57 51 58 38 59 41 60 50 61 64 62 39 63 40 64 49 66
REMARK SMILES IDX 65 67 42 68 31 69 32 70 36 71 33 72 35 73 34 74 53 75 54 76
REMARK SMILES IDX 58 77 55 78 57 79 56 80 43 81 44 82 48 83 45 84 47 85 46 86
REMARK H PARENT 72 19 63 54 41 65
REMARK Flexibility Score: inf
ROOT
ATOM      1  C   UNL A   1      35.294  31.179  27.954  1.00  0.00     0.338 C 
ATOM      2  O   UNL A   1      36.507  31.161  27.806  1.00  0.00    -0.246 OA
ENDROOT
BRANCH   1   3
ATOM      3  C   UNL A   1      34.377  30.256  27.242  1.00  0.00     0.060 A 
ATOM      4  C   UNL A   1      32.533  28.498  26.142  1.00  0.00     0.069 A 
ATOM      5  C   UNL A   1      32.156  29.828  26.344  1.00  0.00     0.029 A 
ATOM      6  C   UNL A   1      33.849  28.074  26.369  1.00  0.00     0.029 A 
ATOM      7  C   UNL A   1      33.080  30.699  26.927  1.00  0.00     0.018 A 
ATOM      8  C   UNL A   1      34.777  28.960  26.905  1.00  0.00     0.018 A 
BRANCH   4   9
ATOM      9  N   UNL A   1      31.549  27.535  25.862  1.00  0.00    -0.187 N 
ATOM     10  C   UNL A   1      31.054  27.163  24.626  1.00  0.00     0.214 A 
ATOM     11  N   UNL A   1      30.125  26.253  24.795  1.00  0.00    -0.101 NA
ATOM     12  N   UNL A   1      30.098  26.002  26.149  1.00  0.00    -0.022 NA
ATOM     13  N   UNL A   1      31.023  26.711  26.791  1.00  0.00    -0.039 NA
BRANCH  10  14
ATOM     14  S   UNL A   1      31.868  27.516  23.131  1.00  0.00    -0.074 SA
BRANCH  14  15
ATOM     15  C   UNL A   1      31.529  26.026  22.170  1.00  0.00     0.178 C 
BRANCH  15  16
ATOM     16  C   UNL A   1      32.207  24.778  22.704  1.00  0.00     0.236 C 
ATOM     17  O   UNL A   1      33.434  24.724  22.703  1.00  0.00    -0.274 OA
ATOM     18  N   UNL A   1      31.341  23.844  23.225  1.00  0.00    -0.301 N 
ATOM     19  H   UNL A   1      30.371  23.994  23.140  1.00  0.00     0.172 HD
BRANCH  18  20
ATOM     20  C   UNL A   1      31.782  22.719  23.855  1.00  0.00     0.189 A 
ATOM     21  N   UNL A   1      32.292  21.639  23.331  1.00  0.00    -0.220 NA
ATOM     22  S   UNL A   1      31.650  22.760  25.555  1.00  0.00    -0.105 S 
ATOM     23  C   UNL A   1      32.529  20.720  24.330  1.00  0.00     0.084 A 
ATOM     24  C   UNL A   1      32.230  21.143  25.612  1.00  0.00     0.097 A 
BRANCH  23  25
ATOM     25  C   UNL A   1      33.071  19.416  24.017  1.00  0.00     0.001 A 
ATOM     26  C   UNL A   1      34.280  19.016  24.599  1.00  0.00     0.010 A 
ATOM     27  C   UNL A   1      32.431  18.577  23.100  1.00  0.00     0.010 A 
ATOM     28  C   UNL A   1      34.834  17.776  24.281  1.00  0.00     0.001 A 
ATOM     29  C   UNL A   1      32.993  17.341  22.776  1.00  0.00     0.001 A 
ATOM     30  C   UNL A   1      34.190  16.940  23.369  1.00  0.00     0.000 A 
ENDBRANCH  23  25
ENDBRANCH  18  20
ENDBRANCH  15  16
ENDBRANCH  14  15
ENDBRANCH  10  14
ENDBRANCH   4   9
ENDBRANCH   1   3
BRANCH   1  31
ATOM     31  O   UNL A   1      34.596  31.952  28.824  1.00  0.00    -0.458 OA
BRANCH  31  32
ATOM     32  C   UNL A   1      35.113  32.018  30.163  1.00  0.00     0.275 C 
BRANCH  32  33
ATOM     33  C   UNL A   1      35.971  33.259  30.358  1.00  0.00     0.275 C 
BRANCH  33  34
ATOM     34  O   UNL A   1      37.196  32.944  31.018  1.00  0.00    -0.458 OA
BRANCH  34  35
ATOM     35  C   UNL A   1      38.295  32.971  30.232  1.00  0.00     0.338 C 
ATOM     36  O   UNL A   1      38.503  33.685  29.265  1.00  0.00    -0.246 OA
BRANCH  35  37
ATOM     37  C   UNL A   1      39.145  31.826  30.563  1.00  0.00     0.060 A 
ATOM     38  C   UNL A   1      40.516  31.943  30.307  1.00  0.00     0.016 A 
ATOM     39  C   UNL A   1      38.538  30.588  30.812  1.00  0.00     0.016 A 
ATOM     40  C   UNL A   1      41.253  30.792  30.128  1.00  0.00     0.010 A 
ATOM     41  C   UNL A   1      39.267  29.445  30.614  1.00  0.00     0.010 A 
ATOM     42  C   UNL A   1      40.596  29.562  30.204  1.00  0.00    -0.014 A 
BRANCH  42  43
ATOM     43  C   UNL A   1      41.342  28.351  29.933  1.00  0.00     0.031 A 
ATOM     44  C   UNL A   1      42.166  27.880  31.072  1.00  0.00     0.074 A 
ATOM     45  C   UNL A   1      41.109  27.632  28.817  1.00  0.00     0.049 A 
ATOM     46  N   UNL A   1      43.416  27.558  31.070  1.00  0.00    -0.248 NA
ATOM     47  C   UNL A   1      41.538  27.859  32.406  1.00  0.00     0.031 C 
ATOM     48  C   UNL A   1      40.095  27.884  27.787  1.00  0.00     0.029 A 
ATOM     49  N   UNL A   1      41.621  26.425  28.459  1.00  0.00    -0.354 N 
ATOM     50  C   UNL A   1      43.697  27.137  32.366  1.00  0.00     0.074 A 
ATOM     51  C   UNL A   1      42.555  27.475  33.173  1.00  0.00     0.031 C 
ATOM     52  C   UNL A   1      39.895  26.750  27.081  1.00  0.00     0.029 A 
ATOM     53  C   UNL A   1      40.835  25.741  27.540  1.00  0.00     0.049 A 
ATOM     54  H   UNL A   1      42.467  26.070  28.816  1.00  0.00     0.167 HD
ATOM     55  C   UNL A   1      44.750  26.324  32.641  1.00  0.00     0.031 A 
ATOM     56  C   UNL A   1      40.892  24.417  27.255  1.00  0.00     0.031 A 
ATOM     57  C   UNL A   1      45.736  26.344  31.595  1.00  0.00     0.049 A 
ATOM     58  C   UNL A   1      42.184  23.898  27.762  1.00  0.00     0.074 A 
ATOM     59  C   UNL A   1      46.512  27.331  31.022  1.00  0.00     0.029 A 
ATOM     60  N   UNL A   1      45.758  25.285  30.719  1.00  0.00    -0.354 N 
ATOM     61  N   UNL A   1      43.336  24.206  27.241  1.00  0.00    -0.248 NA
ATOM     62  C   UNL A   1      42.235  23.385  29.123  1.00  0.00     0.031 C 
ATOM     63  C   UNL A   1      46.560  27.002  29.637  1.00  0.00     0.029 A 
ATOM     64  C   UNL A   1      45.861  25.808  29.456  1.00  0.00     0.049 A 
ATOM     65  H   UNL A   1      45.710  24.331  30.956  1.00  0.00     0.167 HD
ATOM     66  C   UNL A   1      44.185  24.355  28.328  1.00  0.00     0.074 A 
ATOM     67  C   UNL A   1      43.489  23.721  29.444  1.00  0.00     0.031 C 
ATOM     68  C   UNL A   1      45.232  25.233  28.289  1.00  0.00     0.031 A 
BRANCH  55  69
ATOM     69  C   UNL A   1      44.671  25.218  33.659  1.00  0.00    -0.014 A 
ATOM     70  C   UNL A   1      44.212  23.955  33.252  1.00  0.00     0.009 A 
ATOM     71  C   UNL A   1      44.751  25.448  35.048  1.00  0.00     0.009 A 
ATOM     72  C   UNL A   1      43.786  23.003  34.185  1.00  0.00     0.001 A 
ATOM     73  C   UNL A   1      44.369  24.485  35.982  1.00  0.00     0.001 A 
ATOM     74  C   UNL A   1      43.857  23.272  35.549  1.00  0.00     0.000 A 
ENDBRANCH  55  69
BRANCH  56  75
ATOM     75  C   UNL A   1      39.800  23.527  26.803  1.00  0.00    -0.014 A 
ATOM     76  C   UNL A   1      38.532  24.043  26.495  1.00  0.00     0.009 A 
ATOM     77  C   UNL A   1      40.065  22.191  26.445  1.00  0.00     0.009 A 
ATOM     78  C   UNL A   1      37.578  23.259  25.830  1.00  0.00     0.001 A 
ATOM     79  C   UNL A   1      39.110  21.407  25.791  1.00  0.00     0.001 A 
ATOM     80  C   UNL A   1      37.871  21.946  25.470  1.00  0.00     0.000 A 
ENDBRANCH  56  75
BRANCH  68  81
ATOM     81  C   UNL A   1      45.565  25.877  26.964  1.00  0.00    -0.014 A 
ATOM     82  C   UNL A   1      44.924  27.040  26.501  1.00  0.00     0.009 A 
ATOM     83  C   UNL A   1      46.666  25.396  26.242  1.00  0.00     0.009 A 
ATOM     84  C   UNL A   1      45.348  27.680  25.333  1.00  0.00     0.001 A 
ATOM     85  C   UNL A   1      47.106  26.048  25.088  1.00  0.00     0.001 A 
ATOM     86  C   UNL A   1      46.444  27.185  24.630  1.00  0.00     0.000 A 
ENDBRANCH  68  81
ENDBRANCH  42  43
ENDBRANCH  35  37
ENDBRANCH  34  35
ENDBRANCH  33  34
ENDBRANCH  32  33
ENDBRANCH  31  32
ENDBRANCH   1  31
TORSDOF 17
ENDMDL
MODEL 2
REMARK VINA RESULT:     -12.0      3.673      9.216
REMARK SMILES O=C(CSc1nnnn1-c1ccc(C(=O)OCCOC(=O)c2ccc(-c3c4nc(c(-c5ccccc5)c5ccc([nH]5)c(-c5ccccc5)c5nc(c(-c6ccccc6)c6ccc3[nH]6)C=C5)C=C4)cc2)cc1)Nc1nc(-c2ccccc2)cs1
REMARK SMILES IDX 14 1 15 2 13 3 10 4 11 5 71 6 12 7 70 8 9 9 5 10 6 11 7 12
REMARK SMILES IDX 8 13 4 14 3 15 2 16 1 17 72 18 73 20 74 21 83 22 75 23 82 24
REMARK SMILES IDX 76 25 77 26 81 27 78 28 80 29 79 30 16 31 17 32 18 33 19 34
REMARK SMILES IDX 20 35 21 36 22 37 23 38 69 39 24 40 68 41 25 42 26 43 27 44
REMARK SMILES IDX 62 45 28 46 67 47 61 48 63 49 29 50 66 51 60 52 59 53 30 55
REMARK SMILES IDX 52 56 37 57 51 58 38 59 41 60 50 61 64 62 39 63 40 64 49 66
REMARK SMILES IDX 65 67 42 68 31 69 32 70 36 71 33 72 35 73 34 74 53 75 54 76
REMARK SMILES IDX 58 77 55 78 57 79 56 80 43 81 44 82 48 83 45 84 47 85 46 86
REMARK H PARENT 72 19 63 54 41 65
REMARK Flexibility Score: inf
ROOT
ATOM      1  C   UNL A   1      39.332  22.430  26.724  1.00  0.00     0.338 C 
ATOM      2  O   UNL A   1      39.901  21.378  26.978  1.00  0.00    -0.246 OA
ENDROOT
BRANCH   1   3
ATOM      3  C   UNL A   1      38.204  22.531  25.765  1.00  0.00     0.060 A 
ATOM      4  C   UNL A   1      35.932  22.699  24.183  1.00  0.00     0.069 A 
ATOM      5  C   UNL A   1      36.353  23.836  24.876  1.00  0.00     0.029 A 
ATOM      6  C   UNL A   1      36.698  21.525  24.177  1.00  0.00     0.029 A 
ATOM      7  C   UNL A   1      37.480  23.734  25.695  1.00  0.00     0.018 A 
ATOM      8  C   UNL A   1      37.846  21.448  24.957  1.00  0.00     0.018 A 
BRANCH   4   9
ATOM      9  N   UNL A   1      34.646  22.672  23.614  1.00  0.00    -0.187 N 
ATOM     10  C   UNL A   1      33.478  22.202  24.184  1.00  0.00     0.214 A 
ATOM     11  N   UNL A   1      32.501  22.327  23.317  1.00  0.00    -0.101 NA
ATOM     12  N   UNL A   1      33.057  22.954  22.224  1.00  0.00    -0.022 NA
ATOM     13  N   UNL A   1      34.337  23.248  22.435  1.00  0.00    -0.039 NA
BRANCH  10  14
ATOM     14  S   UNL A   1      33.291  21.942  25.893  1.00  0.00    -0.074 SA
BRANCH  14  15
ATOM     15  C   UNL A   1      31.592  22.490  26.161  1.00  0.00     0.178 C 
BRANCH  15  16
ATOM     16  C   UNL A   1      31.403  23.991  26.058  1.00  0.00     0.236 C 
ATOM     17  O   UNL A   1      31.403  24.661  27.088  1.00  0.00    -0.274 OA
ATOM     18  N   UNL A   1      31.330  24.465  24.768  1.00  0.00    -0.301 N 
ATOM     19  H   UNL A   1      31.314  23.820  24.024  1.00  0.00     0.172 HD
BRANCH  18  20
ATOM     20  C   UNL A   1      31.281  25.797  24.486  1.00  0.00     0.189 A 
ATOM     21  N   UNL A   1      30.235  26.557  24.324  1.00  0.00    -0.220 NA
ATOM     22  S   UNL A   1      32.807  26.548  24.346  1.00  0.00    -0.105 S 
ATOM     23  C   UNL A   1      30.646  27.826  23.976  1.00  0.00     0.084 A 
ATOM     24  C   UNL A   1      32.015  28.015  23.923  1.00  0.00     0.097 A 
BRANCH  23  25
ATOM     25  C   UNL A   1      29.678  28.866  23.709  1.00  0.00     0.001 A 
ATOM     26  C   UNL A   1      28.444  28.527  23.141  1.00  0.00     0.010 A 
ATOM     27  C   UNL A   1      29.981  30.208  23.961  1.00  0.00     0.010 A 
ATOM     28  C   UNL A   1      27.512  29.523  22.846  1.00  0.00     0.001 A 
ATOM     29  C   UNL A   1      29.051  31.202  23.655  1.00  0.00     0.001 A 
ATOM     30  C   UNL A   1      27.816  30.859  23.102  1.00  0.00     0.000 A 
ENDBRANCH  23  25
ENDBRANCH  18  20
ENDBRANCH  15  16
ENDBRANCH  14  15
ENDBRANCH  10  14
ENDBRANCH   4   9
ENDBRANCH   1   3
BRANCH   1  31
ATOM     31  O   UNL A   1      39.557  23.633  27.309  1.00  0.00    -0.458 OA
BRANCH  31  32
ATOM     32  C   UNL A   1      40.792  24.280  26.964  1.00  0.00     0.275 C 
BRANCH  32  33
ATOM     33  C   UNL A   1      41.835  24.087  28.055  1.00  0.00     0.275 C 
BRANCH  33  34
ATOM     34  O   UNL A   1      43.153  24.311  27.558  1.00  0.00    -0.458 OA
BRANCH  34  35
ATOM     35  C   UNL A   1      44.043  24.758  28.472  1.00  0.00     0.338 C 
ATOM     36  O   UNL A   1      44.811  24.096  29.149  1.00  0.00    -0.246 OA
BRANCH  35  37
ATOM     37  C   UNL A   1      43.795  26.179  28.721  1.00  0.00     0.060 A 
ATOM     38  C   UNL A   1      43.723  26.599  30.054  1.00  0.00     0.016 A 
ATOM     39  C   UNL A   1      43.337  26.976  27.664  1.00  0.00     0.016 A 
ATOM     40  C   UNL A   1      43.029  27.753  30.345  1.00  0.00     0.010 A 
ATOM     41  C   UNL A   1      42.629  28.114  27.956  1.00  0.00     0.010 A 
ATOM     42  C   UNL A   1      42.422  28.447  29.296  1.00  0.00    -0.014 A 
BRANCH  42  43
ATOM     43  C   UNL A   1      41.618  29.612  29.598  1.00  0.00     0.031 A 
ATOM     44  C   UNL A   1      42.348  30.898  29.481  1.00  0.00     0.074 A 
ATOM     45  C   UNL A   1      40.284  29.509  29.751  1.00  0.00     0.049 A 
ATOM     46  N   UNL A   1      42.416  31.855  30.344  1.00  0.00    -0.248 NA
ATOM     47  C   UNL A   1      43.190  31.099  28.288  1.00  0.00     0.031 C 
ATOM     48  C   UNL A   1      39.455  28.310  29.587  1.00  0.00     0.029 A 
ATOM     49  N   UNL A   1      39.366  30.499  29.918  1.00  0.00    -0.354 N 
ATOM     50  C   UNL A   1      43.175  32.852  29.740  1.00  0.00     0.074 A 
ATOM     51  C   UNL A   1      43.740  32.282  28.546  1.00  0.00     0.031 C 
ATOM     52  C   UNL A   1      38.170  28.685  29.406  1.00  0.00     0.029 A 
ATOM     53  C   UNL A   1      38.079  30.128  29.550  1.00  0.00     0.049 A 
ATOM     54  H   UNL A   1      39.592  31.391  30.267  1.00  0.00     0.167 HD
ATOM     55  C   UNL A   1      43.097  34.150  30.135  1.00  0.00     0.031 A 
ATOM     56  C   UNL A   1      37.043  30.960  29.283  1.00  0.00     0.031 A 
ATOM     57  C   UNL A   1      42.545  34.280  31.456  1.00  0.00     0.049 A 
ATOM     58  C   UNL A   1      37.374  32.291  29.844  1.00  0.00     0.074 A 
ATOM     59  C   UNL A   1      42.912  33.814  32.702  1.00  0.00     0.029 A 
ATOM     60  N   UNL A   1      41.230  34.663  31.564  1.00  0.00    -0.354 N 
ATOM     61  N   UNL A   1      37.432  32.539  31.121  1.00  0.00    -0.248 NA
ATOM     62  C   UNL A   1      38.074  33.245  28.995  1.00  0.00     0.031 C 
ATOM     63  C   UNL A   1      41.684  33.494  33.349  1.00  0.00     0.029 A 
ATOM     64  C   UNL A   1      40.643  33.835  32.485  1.00  0.00     0.049 A 
ATOM     65  H   UNL A   1      40.792  35.395  31.072  1.00  0.00     0.167 HD
ATOM     66  C   UNL A   1      38.520  33.387  31.266  1.00  0.00     0.074 A 
ATOM     67  C   UNL A   1      38.799  33.882  29.920  1.00  0.00     0.031 C 
ATOM     68  C   UNL A   1      39.274  33.378  32.406  1.00  0.00     0.031 A 
BRANCH  55  69
ATOM     69  C   UNL A   1      43.138  35.294  29.157  1.00  0.00    -0.014 A 
ATOM     70  C   UNL A   1      42.006  35.550  28.367  1.00  0.00     0.009 A 
ATOM     71  C   UNL A   1      44.334  35.938  28.782  1.00  0.00     0.009 A 
ATOM     72  C   UNL A   1      42.089  36.347  27.219  1.00  0.00     0.001 A 
ATOM     73  C   UNL A   1      44.410  36.768  27.663  1.00  0.00     0.001 A 
ATOM     74  C   UNL A   1      43.293  36.948  26.864  1.00  0.00     0.000 A 
ENDBRANCH  55  69
BRANCH  56  75
ATOM     75  C   UNL A   1      35.907  30.748  28.360  1.00  0.00    -0.014 A 
ATOM     76  C   UNL A   1      35.732  29.519  27.706  1.00  0.00     0.009 A 
ATOM     77  C   UNL A   1      34.851  31.677  28.297  1.00  0.00     0.009 A 
ATOM     78  C   UNL A   1      34.535  29.222  27.038  1.00  0.00     0.001 A 
ATOM     79  C   UNL A   1      33.661  31.385  27.622  1.00  0.00     0.001 A 
ATOM     80  C   UNL A   1      33.497  30.151  27.006  1.00  0.00     0.000 A 
ENDBRANCH  56  75
BRANCH  68  81
ATOM     81  C   UNL A   1      38.768  32.576  33.581  1.00  0.00    -0.014 A 
ATOM     82  C   UNL A   1      39.028  31.202  33.733  1.00  0.00     0.009 A 
ATOM     83  C   UNL A   1      38.155  33.255  34.643  1.00  0.00     0.009 A 
ATOM     84  C   UNL A   1      38.654  30.522  34.896  1.00  0.00     0.001 A 
ATOM     85  C   UNL A   1      37.804  32.582  35.816  1.00  0.00     0.001 A 
ATOM     86  C   UNL A   1      38.047  31.216  35.940  1.00  0.00     0.000 A 
ENDBRANCH  68  81
ENDBRANCH  42  43
ENDBRANCH  35  37
ENDBRANCH  34  35
ENDBRANCH  33  34
ENDBRANCH  32  33
ENDBRANCH  31  32
ENDBRANCH   1  31
TORSDOF 17
ENDMDL
MODEL 3
REMARK VINA RESULT:     -12.0      2.632      5.179
REMARK SMILES O=C(CSc1nnnn1-c1ccc(C(=O)OCCOC(=O)c2ccc(-c3c4nc(c(-c5ccccc5)c5ccc([nH]5)c(-c5ccccc5)c5nc(c(-c6ccccc6)c6ccc3[nH]6)C=C5)C=C4)cc2)cc1)Nc1nc(-c2ccccc2)cs1
REMARK SMILES IDX 14 1 15 2 13 3 10 4 11 5 71 6 12 7 70 8 9 9 5 10 6 11 7 12
REMARK SMILES IDX 8 13 4 14 3 15 2 16 1 17 72 18 73 20 74 21 83 22 75 23 82 24
REMARK SMILES IDX 76 25 77 26 81 27 78 28 80 29 79 30 16 31 17 32 18 33 19 34
REMARK SMILES IDX 20 35 21 36 22 37 23 38 69 39 24 40 68 41 25 42 26 43 27 44
REMARK SMILES IDX 62 45 28 46 67 47 61 48 63 49 29 50 66 51 60 52 59 53 30 55
REMARK SMILES IDX 52 56 37 57 51 58 38 59 41 60 50 61 64 62 39 63 40 64 49 66
REMARK SMILES IDX 65 67 42 68 31 69 32 70 36 71 33 72 35 73 34 74 53 75 54 76
REMARK SMILES IDX 58 77 55 78 57 79 56 80 43 81 44 82 48 83 45 84 47 85 46 86
REMARK H PARENT 72 19 63 54 41 65
REMARK Flexibility Score: inf
ROOT
ATOM      1  C   UNL A   1      31.381  29.923  25.450  1.00  0.00     0.338 C 
ATOM      2  O   UNL A   1      30.980  31.072  25.329  1.00  0.00    -0.246 OA
ENDROOT
BRANCH   1   3
ATOM      3  C   UNL A   1      31.682  29.043  24.295  1.00  0.00     0.060 A 
ATOM      4  C   UNL A   1      32.250  27.195  22.305  1.00  0.00     0.069 A 
ATOM      5  C   UNL A   1      30.938  27.296  22.774  1.00  0.00     0.029 A 
ATOM      6  C   UNL A   1      33.245  28.085  22.732  1.00  0.00     0.029 A 
ATOM      7  C   UNL A   1      30.667  28.206  23.797  1.00  0.00     0.018 A 
ATOM      8  C   UNL A   1      32.954  29.023  23.716  1.00  0.00     0.018 A 
BRANCH   4   9
ATOM      9  N   UNL A   1      32.621  26.089  21.520  1.00  0.00    -0.187 N 
ATOM     10  C   UNL A   1      33.044  24.846  21.953  1.00  0.00     0.214 A 
ATOM     11  N   UNL A   1      33.323  24.103  20.909  1.00  0.00    -0.101 NA
ATOM     12  N   UNL A   1      32.995  24.872  19.813  1.00  0.00    -0.022 NA
ATOM     13  N   UNL A   1      32.484  26.043  20.180  1.00  0.00    -0.039 NA
BRANCH  10  14
ATOM     14  S   UNL A   1      32.787  24.266  23.572  1.00  0.00    -0.074 SA
BRANCH  14  15
ATOM     15  C   UNL A   1      33.598  22.654  23.513  1.00  0.00     0.178 C 
BRANCH  15  16
ATOM     16  C   UNL A   1      35.088  22.699  23.795  1.00  0.00     0.236 C 
ATOM     17  O   UNL A   1      35.817  23.320  23.026  1.00  0.00    -0.274 OA
ATOM     18  N   UNL A   1      35.459  22.086  24.970  1.00  0.00    -0.301 N 
ATOM     19  H   UNL A   1      34.779  21.597  25.488  1.00  0.00     0.172 HD
BRANCH  18  20
ATOM     20  C   UNL A   1      36.737  22.135  25.440  1.00  0.00     0.189 A 
ATOM     21  N   UNL A   1      37.309  23.066  26.151  1.00  0.00    -0.220 NA
ATOM     22  S   UNL A   1      37.691  20.778  25.043  1.00  0.00    -0.105 S 
ATOM     23  C   UNL A   1      38.635  22.743  26.340  1.00  0.00     0.084 A 
ATOM     24  C   UNL A   1      39.037  21.537  25.797  1.00  0.00     0.097 A 
BRANCH  23  25
ATOM     25  C   UNL A   1      39.510  23.628  27.077  1.00  0.00     0.001 A 
ATOM     26  C   UNL A   1      40.685  23.118  27.642  1.00  0.00     0.010 A 
ATOM     27  C   UNL A   1      39.168  24.970  27.276  1.00  0.00     0.010 A 
ATOM     28  C   UNL A   1      41.523  23.951  28.384  1.00  0.00     0.001 A 
ATOM     29  C   UNL A   1      40.004  25.797  28.028  1.00  0.00     0.001 A 
ATOM     30  C   UNL A   1      41.182  25.289  28.578  1.00  0.00     0.000 A 
ENDBRANCH  23  25
ENDBRANCH  18  20
ENDBRANCH  15  16
ENDBRANCH  14  15
ENDBRANCH  10  14
ENDBRANCH   4   9
ENDBRANCH   1   3
BRANCH   1  31
ATOM     31  O   UNL A   1      31.696  29.294  26.611  1.00  0.00    -0.458 OA
BRANCH  31  32
ATOM     32  C   UNL A   1      33.098  29.134  26.881  1.00  0.00     0.275 C 
BRANCH  32  33
ATOM     33  C   UNL A   1      33.742  30.466  27.236  1.00  0.00     0.275 C 
BRANCH  33  34
ATOM     34  O   UNL A   1      35.165  30.390  27.165  1.00  0.00    -0.458 OA
BRANCH  34  35
ATOM     35  C   UNL A   1      35.826  31.360  27.834  1.00  0.00     0.338 C 
ATOM     36  O   UNL A   1      35.737  32.567  27.677  1.00  0.00    -0.246 OA
BRANCH  35  37
ATOM     37  C   UNL A   1      36.876  30.746  28.648  1.00  0.00     0.060 A 
ATOM     38  C   UNL A   1      37.771  31.602  29.302  1.00  0.00     0.016 A 
ATOM     39  C   UNL A   1      37.136  29.379  28.489  1.00  0.00     0.016 A 
ATOM     40  C   UNL A   1      39.013  31.117  29.648  1.00  0.00     0.010 A 
ATOM     41  C   UNL A   1      38.380  28.903  28.815  1.00  0.00     0.010 A 
ATOM     42  C   UNL A   1      39.326  29.795  29.322  1.00  0.00    -0.014 A 
BRANCH  42  43
ATOM     43  C   UNL A   1      40.657  29.300  29.602  1.00  0.00     0.031 A 
ATOM     44  C   UNL A   1      40.854  28.851  31.002  1.00  0.00     0.074 A 
ATOM     45  C   UNL A   1      41.535  29.079  28.605  1.00  0.00     0.049 A 
ATOM     46  N   UNL A   1      41.798  29.181  31.817  1.00  0.00    -0.248 NA
ATOM     47  C   UNL A   1      39.808  28.001  31.600  1.00  0.00     0.031 C 
ATOM     48  C   UNL A   1      41.305  29.222  27.163  1.00  0.00     0.029 A 
ATOM     49  N   UNL A   1      42.770  28.513  28.666  1.00  0.00    -0.354 N 
ATOM     50  C   UNL A   1      41.560  28.456  32.980  1.00  0.00     0.074 A 
ATOM     51  C   UNL A   1      40.257  27.863  32.844  1.00  0.00     0.031 C 
ATOM     52  C   UNL A   1      42.248  28.523  26.495  1.00  0.00     0.029 A 
ATOM     53  C   UNL A   1      43.196  27.982  27.455  1.00  0.00     0.049 A 
ATOM     54  H   UNL A   1      43.309  28.483  29.489  1.00  0.00     0.167 HD
ATOM     55  C   UNL A   1      42.548  28.196  33.876  1.00  0.00     0.031 A 
ATOM     56  C   UNL A   1      44.194  27.083  27.273  1.00  0.00     0.031 A 
ATOM     57  C   UNL A   1      43.660  29.095  33.730  1.00  0.00     0.049 A 
ATOM     58  C   UNL A   1      45.023  27.071  28.501  1.00  0.00     0.074 A 
ATOM     59  C   UNL A   1      43.807  30.465  33.807  1.00  0.00     0.029 A 
ATOM     60  N   UNL A   1      44.778  28.628  33.080  1.00  0.00    -0.354 N 
ATOM     61  N   UNL A   1      45.788  28.061  28.862  1.00  0.00    -0.248 NA
ATOM     62  C   UNL A   1      44.673  26.139  29.563  1.00  0.00     0.031 C 
ATOM     63  C   UNL A   1      44.750  30.790  32.790  1.00  0.00     0.029 A 
ATOM     64  C   UNL A   1      45.164  29.599  32.193  1.00  0.00     0.049 A 
ATOM     65  H   UNL A   1      45.217  27.759  33.225  1.00  0.00     0.167 HD
ATOM     66  C   UNL A   1      45.643  28.133  30.240  1.00  0.00     0.074 A 
ATOM     67  C   UNL A   1      45.046  26.858  30.627  1.00  0.00     0.031 C 
ATOM     68  C   UNL A   1      45.744  29.327  30.897  1.00  0.00     0.031 A 
BRANCH  55  69
ATOM     69  C   UNL A   1      42.661  26.876  34.591  1.00  0.00    -0.014 A 
ATOM     70  C   UNL A   1      43.428  25.854  34.009  1.00  0.00     0.009 A 
ATOM     71  C   UNL A   1      41.817  26.508  35.658  1.00  0.00     0.009 A 
ATOM     72  C   UNL A   1      43.295  24.524  34.422  1.00  0.00     0.001 A 
ATOM     73  C   UNL A   1      41.715  25.189  36.102  1.00  0.00     0.001 A 
ATOM     74  C   UNL A   1      42.433  24.191  35.463  1.00  0.00     0.000 A 
ENDBRANCH  55  69
BRANCH  56  75
ATOM     75  C   UNL A   1      44.326  26.057  26.216  1.00  0.00    -0.014 A 
ATOM     76  C   UNL A   1      45.586  25.561  25.848  1.00  0.00     0.009 A 
ATOM     77  C   UNL A   1      43.191  25.385  25.722  1.00  0.00     0.009 A 
ATOM     78  C   UNL A   1      45.703  24.421  25.040  1.00  0.00     0.001 A 
ATOM     79  C   UNL A   1      43.308  24.254  24.909  1.00  0.00     0.001 A 
ATOM     80  C   UNL A   1      44.565  23.763  24.580  1.00  0.00     0.000 A 
ENDBRANCH  56  75
BRANCH  68  81
ATOM     81  C   UNL A   1      46.225  30.526  30.115  1.00  0.00    -0.014 A 
ATOM     82  C   UNL A   1      45.358  31.345  29.369  1.00  0.00     0.009 A 
ATOM     83  C   UNL A   1      47.557  30.937  30.267  1.00  0.00     0.009 A 
ATOM     84  C   UNL A   1      45.819  32.518  28.765  1.00  0.00     0.001 A 
ATOM     85  C   UNL A   1      48.012  32.122  29.685  1.00  0.00     0.001 A 
ATOM     86  C   UNL A   1      47.145  32.909  28.929  1.00  0.00     0.000 A 
ENDBRANCH  68  81
ENDBRANCH  42  43
ENDBRANCH  35  37
ENDBRANCH  34  35
ENDBRANCH  33  34
ENDBRANCH  32  33
ENDBRANCH  31  32
ENDBRANCH   1  31
TORSDOF 17
ENDMDL
