MODEL 1
REMARK VINA RESULT:     -11.2      0.000      0.000
REMARK SMILES Cc1nn(C)cc1-c1cc(C(=O)OCCOC(=O)c2ccc(-c3c4nc(c(-c5ccccc5)c5ccc([nH]5)c(-c5ccccc5)c5nc(c(-c6ccccc6)c6ccc3[nH]6)C=C5)C=C4)cc2)n2nc(C)c(Br)c2n1
REMARK SMILES IDX 15 1 14 2 13 3 11 4 12 5 10 6 8 7 9 8 74 9 73 10 67 11 71 12
REMARK SMILES IDX 68 13 69 14 72 15 70 16 7 17 1 18 2 19 3 20 4 21 6 22 5 23
REMARK SMILES IDX 16 24 17 25 18 26 19 27 20 28 66 29 21 30 65 31 22 32 23 33
REMARK SMILES IDX 24 34 59 35 25 36 64 37 58 38 60 39 26 40 63 41 57 42 56 43
REMARK SMILES IDX 27 45 49 46 34 47 48 48 35 49 38 50 47 51 61 52 36 53 37 54
REMARK SMILES IDX 46 56 62 57 39 58 28 59 29 60 33 61 30 62 32 63 31 64 50 65
REMARK SMILES IDX 51 66 55 67 52 68 54 69 53 70 40 71 41 72 45 73 42 74 44 75
REMARK SMILES IDX 43 76
REMARK H PARENT 60 44 38 55
REMARK Flexibility Score: inf
ROOT
ATOM      1  C   UNL A   1      33.640  31.172  27.621  1.00  0.00     0.275 C 
ENDROOT
BRANCH   1   2
ATOM      2  C   UNL A   1      33.310  30.101  26.580  1.00  0.00     0.275 C 
BRANCH   2   3
ATOM      3  O   UNL A   1      33.206  28.790  27.176  1.00  0.00    -0.457 OA
BRANCH   3   4
ATOM      4  C   UNL A   1      32.009  28.148  27.067  1.00  0.00     0.357 C 
ATOM      5  O   UNL A   1      31.244  27.943  28.000  1.00  0.00    -0.244 OA
BRANCH   4   6
ATOM      6  C   UNL A   1      31.748  27.750  25.661  1.00  0.00     0.154 A 
ATOM      7  C   UNL A   1      30.547  27.953  23.598  1.00  0.00     0.079 A 
ATOM      8  C   UNL A   1      30.735  28.360  25.011  1.00  0.00     0.065 A 
ATOM      9  N   UNL A   1      31.145  26.982  22.988  1.00  0.00    -0.227 NA
ATOM     10  C   UNL A   1      32.138  26.367  23.692  1.00  0.00     0.171 A 
ATOM     11  N   UNL A   1      32.517  26.783  24.984  1.00  0.00    -0.206 N 
ATOM     12  C   UNL A   1      32.963  25.321  23.375  1.00  0.00     0.085 A 
ATOM     13  N   UNL A   1      33.646  26.123  25.379  1.00  0.00    -0.170 NA
ATOM     14  C   UNL A   1      33.902  25.234  24.409  1.00  0.00     0.076 A 
ATOM     15  Br  UNL A   1      32.917  24.253  21.838  1.00  0.00    -0.045 Br
ATOM     16  C   UNL A   1      35.061  24.310  24.509  1.00  0.00     0.070 C 
BRANCH   7  17
ATOM     17  C   UNL A   1      29.636  28.772  22.842  1.00  0.00     0.041 A 
ATOM     18  C   UNL A   1      27.275  27.829  23.502  1.00  0.00     0.069 C 
ATOM     19  C   UNL A   1      28.215  28.729  22.786  1.00  0.00     0.069 A 
ATOM     20  N   UNL A   1      27.721  29.709  22.017  1.00  0.00    -0.178 NA
ATOM     21  N   UNL A   1      28.808  30.409  21.643  1.00  0.00    -0.275 N 
ATOM     22  C   UNL A   1      29.976  29.883  22.099  1.00  0.00     0.119 A 
ATOM     23  C   UNL A   1      28.643  31.620  20.879  1.00  0.00     0.173 C 
ENDBRANCH   7  17
ENDBRANCH   4   6
ENDBRANCH   3   4
ENDBRANCH   2   3
ENDBRANCH   1   2
BRANCH   1  24
ATOM     24  O   UNL A   1      35.004  31.609  27.495  1.00  0.00    -0.458 OA
BRANCH  24  25
ATOM     25  C   UNL A   1      35.375  32.480  28.461  1.00  0.00     0.338 C 
ATOM     26  O   UNL A   1      34.705  33.391  28.923  1.00  0.00    -0.246 OA
BRANCH  25  27
ATOM     27  C   UNL A   1      36.698  32.174  29.015  1.00  0.00     0.060 A 
ATOM     28  C   UNL A   1      37.521  31.254  28.373  1.00  0.00     0.016 A 
ATOM     29  C   UNL A   1      36.955  32.569  30.330  1.00  0.00     0.016 A 
ATOM     30  C   UNL A   1      38.501  30.607  29.114  1.00  0.00     0.010 A 
ATOM     31  C   UNL A   1      37.943  31.919  31.063  1.00  0.00     0.010 A 
ATOM     32  C   UNL A   1      38.658  30.870  30.477  1.00  0.00    -0.014 A 
BRANCH  32  33
ATOM     33  C   UNL A   1      39.684  30.086  31.186  1.00  0.00     0.031 A 
ATOM     34  C   UNL A   1      39.697  28.676  30.715  1.00  0.00     0.074 A 
ATOM     35  C   UNL A   1      40.825  30.617  31.683  1.00  0.00     0.049 A 
ATOM     36  N   UNL A   1      40.219  28.367  29.566  1.00  0.00    -0.248 NA
ATOM     37  C   UNL A   1      38.855  27.629  31.287  1.00  0.00     0.031 C 
ATOM     38  C   UNL A   1      41.493  31.810  31.144  1.00  0.00     0.029 A 
ATOM     39  N   UNL A   1      41.735  30.110  32.588  1.00  0.00    -0.354 N 
ATOM     40  C   UNL A   1      39.728  27.129  29.213  1.00  0.00     0.074 A 
ATOM     41  C   UNL A   1      38.902  26.696  30.320  1.00  0.00     0.031 C 
ATOM     42  C   UNL A   1      42.776  31.818  31.565  1.00  0.00     0.029 A 
ATOM     43  C   UNL A   1      42.981  30.732  32.519  1.00  0.00     0.049 A 
ATOM     44  H   UNL A   1      41.524  29.385  33.219  1.00  0.00     0.167 HD
ATOM     45  C   UNL A   1      40.025  26.557  28.018  1.00  0.00     0.031 A 
ATOM     46  C   UNL A   1      44.169  30.100  32.742  1.00  0.00     0.031 A 
ATOM     47  C   UNL A   1      40.893  27.326  27.174  1.00  0.00     0.049 A 
ATOM     48  C   UNL A   1      44.291  29.286  31.472  1.00  0.00     0.074 A 
ATOM     49  C   UNL A   1      40.777  28.175  26.094  1.00  0.00     0.029 A 
ATOM     50  N   UNL A   1      42.226  27.358  27.503  1.00  0.00    -0.354 N 
ATOM     51  N   UNL A   1      44.620  29.733  30.289  1.00  0.00    -0.248 NA
ATOM     52  C   UNL A   1      43.643  27.972  31.468  1.00  0.00     0.031 C 
ATOM     53  C   UNL A   1      41.943  29.004  26.137  1.00  0.00     0.029 A 
ATOM     54  C   UNL A   1      42.680  28.628  27.259  1.00  0.00     0.049 A 
ATOM     55  H   UNL A   1      42.759  26.607  27.850  1.00  0.00     0.167 HD
ATOM     56  C   UNL A   1      43.926  28.927  29.386  1.00  0.00     0.074 A 
ATOM     57  C   UNL A   1      43.364  27.849  30.178  1.00  0.00     0.031 C 
ATOM     58  C   UNL A   1      43.675  29.274  28.089  1.00  0.00     0.031 A 
BRANCH  45  59
ATOM     59  C   UNL A   1      39.696  25.168  27.655  1.00  0.00    -0.014 A 
ATOM     60  C   UNL A   1      40.660  24.189  27.935  1.00  0.00     0.009 A 
ATOM     61  C   UNL A   1      38.586  24.836  26.873  1.00  0.00     0.009 A 
ATOM     62  C   UNL A   1      40.548  22.908  27.404  1.00  0.00     0.001 A 
ATOM     63  C   UNL A   1      38.468  23.542  26.352  1.00  0.00     0.001 A 
ATOM     64  C   UNL A   1      39.455  22.587  26.605  1.00  0.00     0.000 A 
ENDBRANCH  45  59
BRANCH  46  65
ATOM     65  C   UNL A   1      44.344  29.490  34.104  1.00  0.00    -0.014 A 
ATOM     66  C   UNL A   1      43.770  30.154  35.207  1.00  0.00     0.009 A 
ATOM     67  C   UNL A   1      45.040  28.301  34.369  1.00  0.00     0.009 A 
ATOM     68  C   UNL A   1      43.760  29.584  36.482  1.00  0.00     0.001 A 
ATOM     69  C   UNL A   1      45.009  27.713  35.641  1.00  0.00     0.001 A 
ATOM     70  C   UNL A   1      44.348  28.343  36.692  1.00  0.00     0.000 A 
ENDBRANCH  46  65
BRANCH  58  71
ATOM     71  C   UNL A   1      44.323  30.524  27.590  1.00  0.00    -0.014 A 
ATOM     72  C   UNL A   1      43.773  31.770  27.910  1.00  0.00     0.009 A 
ATOM     73  C   UNL A   1      45.536  30.474  26.884  1.00  0.00     0.009 A 
ATOM     74  C   UNL A   1      44.448  32.944  27.575  1.00  0.00     0.001 A 
ATOM     75  C   UNL A   1      46.217  31.650  26.561  1.00  0.00     0.001 A 
ATOM     76  C   UNL A   1      45.675  32.884  26.917  1.00  0.00     0.000 A 
ENDBRANCH  58  71
ENDBRANCH  32  33
ENDBRANCH  25  27
ENDBRANCH  24  25
ENDBRANCH   1  24
TORSDOF 12
ENDMDL
MODEL 2
REMARK VINA RESULT:     -10.9      3.131      6.812
REMARK SMILES Cc1nn(C)cc1-c1cc(C(=O)OCCOC(=O)c2ccc(-c3c4nc(c(-c5ccccc5)c5ccc([nH]5)c(-c5ccccc5)c5nc(c(-c6ccccc6)c6ccc3[nH]6)C=C5)C=C4)cc2)n2nc(C)c(Br)c2n1
REMARK SMILES IDX 15 1 14 2 13 3 11 4 12 5 10 6 8 7 9 8 74 9 73 10 67 11 71 12
REMARK SMILES IDX 68 13 69 14 72 15 70 16 7 17 1 18 2 19 3 20 4 21 6 22 5 23
REMARK SMILES IDX 16 24 17 25 18 26 19 27 20 28 66 29 21 30 65 31 22 32 23 33
REMARK SMILES IDX 24 34 59 35 25 36 64 37 58 38 60 39 26 40 63 41 57 42 56 43
REMARK SMILES IDX 27 45 49 46 34 47 48 48 35 49 38 50 47 51 61 52 36 53 37 54
REMARK SMILES IDX 46 56 62 57 39 58 28 59 29 60 33 61 30 62 32 63 31 64 50 65
REMARK SMILES IDX 51 66 55 67 52 68 54 69 53 70 40 71 41 72 45 73 42 74 44 75
REMARK SMILES IDX 43 76
REMARK H PARENT 60 44 38 55
REMARK Flexibility Score: inf
ROOT
ATOM      1  C   UNL A   1      38.892  21.694  25.748  1.00  0.00     0.275 C 
ENDROOT
BRANCH   1   2
ATOM      2  C   UNL A   1      37.419  22.034  25.514  1.00  0.00     0.275 C 
BRANCH   2   3
ATOM      3  O   UNL A   1      37.263  23.303  24.843  1.00  0.00    -0.457 OA
BRANCH   3   4
ATOM      4  C   UNL A   1      36.370  23.359  23.815  1.00  0.00     0.357 C 
ATOM      5  O   UNL A   1      36.621  23.040  22.660  1.00  0.00    -0.244 OA
BRANCH   4   6
ATOM      6  C   UNL A   1      35.048  23.840  24.288  1.00  0.00     0.154 A 
ATOM      7  C   UNL A   1      33.515  25.594  24.843  1.00  0.00     0.079 A 
ATOM      8  C   UNL A   1      34.866  25.171  24.408  1.00  0.00     0.065 A 
ATOM      9  N   UNL A   1      32.562  24.826  25.261  1.00  0.00    -0.227 NA
ATOM     10  C   UNL A   1      32.798  23.486  25.158  1.00  0.00     0.171 A 
ATOM     11  N   UNL A   1      33.984  22.969  24.599  1.00  0.00    -0.206 N 
ATOM     12  C   UNL A   1      32.036  22.400  25.498  1.00  0.00     0.085 A 
ATOM     13  N   UNL A   1      33.883  21.615  24.449  1.00  0.00    -0.170 NA
ATOM     14  C   UNL A   1      32.711  21.277  25.005  1.00  0.00     0.076 A 
ATOM     15  Br  UNL A   1      30.384  22.393  26.378  1.00  0.00    -0.045 Br
ATOM     16  C   UNL A   1      32.270  19.860  25.049  1.00  0.00     0.070 C 
BRANCH   7  17
ATOM     17  C   UNL A   1      33.250  27.005  24.735  1.00  0.00     0.041 A 
ATOM     18  C   UNL A   1      33.601  27.498  22.178  1.00  0.00     0.069 C 
ATOM     19  C   UNL A   1      33.286  27.847  23.588  1.00  0.00     0.069 A 
ATOM     20  N   UNL A   1      32.905  29.097  23.881  1.00  0.00    -0.178 NA
ATOM     21  N   UNL A   1      32.564  29.038  25.181  1.00  0.00    -0.275 N 
ATOM     22  C   UNL A   1      32.764  27.815  25.740  1.00  0.00     0.119 A 
ATOM     23  C   UNL A   1      31.996  30.199  25.819  1.00  0.00     0.173 C 
ENDBRANCH   7  17
ENDBRANCH   4   6
ENDBRANCH   3   4
ENDBRANCH   2   3
ENDBRANCH   1   2
BRANCH   1  24
ATOM     24  O   UNL A   1      39.380  22.319  26.947  1.00  0.00    -0.458 OA
BRANCH  24  25
ATOM     25  C   UNL A   1      40.710  22.153  27.130  1.00  0.00     0.338 C 
ATOM     26  O   UNL A   1      41.377  21.179  26.815  1.00  0.00    -0.246 OA
BRANCH  25  27
ATOM     27  C   UNL A   1      41.352  23.345  27.693  1.00  0.00     0.060 A 
ATOM     28  C   UNL A   1      40.572  24.365  28.228  1.00  0.00     0.016 A 
ATOM     29  C   UNL A   1      42.698  23.559  27.386  1.00  0.00     0.016 A 
ATOM     30  C   UNL A   1      41.103  25.646  28.292  1.00  0.00     0.010 A 
ATOM     31  C   UNL A   1      43.224  24.846  27.458  1.00  0.00     0.010 A 
ATOM     32  C   UNL A   1      42.394  25.910  27.828  1.00  0.00    -0.014 A 
BRANCH  32  33
ATOM     33  C   UNL A   1      42.842  27.312  27.883  1.00  0.00     0.031 A 
ATOM     34  C   UNL A   1      41.698  28.243  27.695  1.00  0.00     0.074 A 
ATOM     35  C   UNL A   1      43.914  27.731  28.594  1.00  0.00     0.049 A 
ATOM     36  N   UNL A   1      40.849  28.450  28.657  1.00  0.00    -0.248 NA
ATOM     37  C   UNL A   1      41.239  28.699  26.386  1.00  0.00     0.031 C 
ATOM     38  C   UNL A   1      44.419  27.071  29.806  1.00  0.00     0.029 A 
ATOM     39  N   UNL A   1      44.623  28.913  28.541  1.00  0.00    -0.354 N 
ATOM     40  C   UNL A   1      39.715  28.989  28.091  1.00  0.00     0.074 A 
ATOM     41  C   UNL A   1      40.007  29.148  26.682  1.00  0.00     0.031 C 
ATOM     42  C   UNL A   1      45.189  27.947  30.488  1.00  0.00     0.029 A 
ATOM     43  C   UNL A   1      45.361  29.162  29.698  1.00  0.00     0.049 A 
ATOM     44  H   UNL A   1      44.611  29.518  27.764  1.00  0.00     0.167 HD
ATOM     45  C   UNL A   1      38.604  29.248  28.827  1.00  0.00     0.031 A 
ATOM     46  C   UNL A   1      45.588  30.405  30.213  1.00  0.00     0.031 A 
ATOM     47  C   UNL A   1      38.712  28.937  30.223  1.00  0.00     0.049 A 
ATOM     48  C   UNL A   1      44.223  30.720  30.785  1.00  0.00     0.074 A 
ATOM     49  C   UNL A   1      38.344  27.915  31.073  1.00  0.00     0.029 A 
ATOM     50  N   UNL A   1      39.444  29.796  31.005  1.00  0.00    -0.354 N 
ATOM     51  N   UNL A   1      43.708  30.234  31.883  1.00  0.00    -0.248 NA
ATOM     52  C   UNL A   1      43.250  31.325  29.871  1.00  0.00     0.031 C 
ATOM     53  C   UNL A   1      39.254  27.994  32.176  1.00  0.00     0.029 A 
ATOM     54  C   UNL A   1      40.139  29.038  31.912  1.00  0.00     0.049 A 
ATOM     55  H   UNL A   1      39.466  30.778  30.929  1.00  0.00     0.167 HD
ATOM     56  C   UNL A   1      42.333  30.168  31.645  1.00  0.00     0.074 A 
ATOM     57  C   UNL A   1      42.119  30.877  30.398  1.00  0.00     0.031 C 
ATOM     58  C   UNL A   1      41.473  29.381  32.356  1.00  0.00     0.031 A 
BRANCH  45  59
ATOM     59  C   UNL A   1      37.432  29.993  28.334  1.00  0.00    -0.014 A 
ATOM     60  C   UNL A   1      37.403  31.373  28.580  1.00  0.00     0.009 A 
ATOM     61  C   UNL A   1      36.290  29.359  27.837  1.00  0.00     0.009 A 
ATOM     62  C   UNL A   1      36.237  32.107  28.382  1.00  0.00     0.001 A 
ATOM     63  C   UNL A   1      35.123  30.102  27.624  1.00  0.00     0.001 A 
ATOM     64  C   UNL A   1      35.094  31.468  27.912  1.00  0.00     0.000 A 
ENDBRANCH  45  59
BRANCH  46  65
ATOM     65  C   UNL A   1      46.322  31.363  29.318  1.00  0.00    -0.014 A 
ATOM     66  C   UNL A   1      46.220  32.741  29.595  1.00  0.00     0.009 A 
ATOM     67  C   UNL A   1      47.109  30.991  28.218  1.00  0.00     0.009 A 
ATOM     68  C   UNL A   1      46.983  33.686  28.906  1.00  0.00     0.001 A 
ATOM     69  C   UNL A   1      47.898  31.934  27.542  1.00  0.00     0.001 A 
ATOM     70  C   UNL A   1      47.853  33.277  27.902  1.00  0.00     0.000 A 
ENDBRANCH  46  65
BRANCH  58  71
ATOM     71  C   UNL A   1      42.033  28.679  33.550  1.00  0.00    -0.014 A 
ATOM     72  C   UNL A   1      42.723  27.472  33.389  1.00  0.00     0.009 A 
ATOM     73  C   UNL A   1      41.966  29.262  34.826  1.00  0.00     0.009 A 
ATOM     74  C   UNL A   1      43.375  26.884  34.472  1.00  0.00     0.001 A 
ATOM     75  C   UNL A   1      42.631  28.678  35.907  1.00  0.00     0.001 A 
ATOM     76  C   UNL A   1      43.343  27.494  35.725  1.00  0.00     0.000 A 
ENDBRANCH  58  71
ENDBRANCH  32  33
ENDBRANCH  25  27
ENDBRANCH  24  25
ENDBRANCH   1  24
TORSDOF 12
ENDMDL
MODEL 3
REMARK VINA RESULT:     -10.7     14.636     19.180
REMARK SMILES Cc1nn(C)cc1-c1cc(C(=O)OCCOC(=O)c2ccc(-c3c4nc(c(-c5ccccc5)c5ccc([nH]5)c(-c5ccccc5)c5nc(c(-c6ccccc6)c6ccc3[nH]6)C=C5)C=C4)cc2)n2nc(C)c(Br)c2n1
REMARK SMILES IDX 15 1 14 2 13 3 11 4 12 5 10 6 8 7 9 8 74 9 73 10 67 11 71 12
REMARK SMILES IDX 68 13 69 14 72 15 70 16 7 17 1 18 2 19 3 20 4 21 6 22 5 23
REMARK SMILES IDX 16 24 17 25 18 26 19 27 20 28 66 29 21 30 65 31 22 32 23 33
REMARK SMILES IDX 24 34 59 35 25 36 64 37 58 38 60 39 26 40 63 41 57 42 56 43
REMARK SMILES IDX 27 45 49 46 34 47 48 48 35 49 38 50 47 51 61 52 36 53 37 54
REMARK SMILES IDX 46 56 62 57 39 58 28 59 29 60 33 61 30 62 32 63 31 64 50 65
REMARK SMILES IDX 51 66 55 67 52 68 54 69 53 70 40 71 41 72 45 73 42 74 44 75
REMARK SMILES IDX 43 76
REMARK H PARENT 60 44 38 55
REMARK Flexibility Score: inf
ROOT
ATOM      1  C   UNL A   1      40.936  43.299  19.673  1.00  0.00     0.275 C 
ENDROOT
BRANCH   1   2
ATOM      2  C   UNL A   1      41.371  43.673  18.256  1.00  0.00     0.275 C 
BRANCH   2   3
ATOM      3  O   UNL A   1      42.652  43.096  17.920  1.00  0.00    -0.457 OA
BRANCH   3   4
ATOM      4  C   UNL A   1      43.421  43.767  17.017  1.00  0.00     0.357 C 
ATOM      5  O   UNL A   1      43.581  43.426  15.853  1.00  0.00    -0.244 OA
BRANCH   4   6
ATOM      6  C   UNL A   1      44.021  44.979  17.629  1.00  0.00     0.154 A 
ATOM      7  C   UNL A   1      45.669  46.061  18.989  1.00  0.00     0.079 A 
ATOM      8  C   UNL A   1      45.087  44.814  18.440  1.00  0.00     0.065 A 
ATOM      9  N   UNL A   1      45.173  47.252  18.896  1.00  0.00    -0.227 NA
ATOM     10  C   UNL A   1      44.074  47.371  18.097  1.00  0.00     0.171 A 
ATOM     11  N   UNL A   1      43.534  46.279  17.388  1.00  0.00    -0.206 N 
ATOM     12  C   UNL A   1      43.297  48.452  17.774  1.00  0.00     0.085 A 
ATOM     13  N   UNL A   1      42.561  46.709  16.530  1.00  0.00    -0.170 NA
ATOM     14  C   UNL A   1      42.415  48.018  16.778  1.00  0.00     0.076 A 
ATOM     15  Br  UNL A   1      43.419  50.191  18.456  1.00  0.00    -0.045 Br
ATOM     16  C   UNL A   1      41.412  48.826  16.038  1.00  0.00     0.070 C 
BRANCH   7  17
ATOM     17  C   UNL A   1      46.940  45.905  19.647  1.00  0.00     0.041 A 
ATOM     18  C   UNL A   1      46.342  46.144  22.194  1.00  0.00     0.069 C 
ATOM     19  C   UNL A   1      47.250  45.941  21.035  1.00  0.00     0.069 A 
ATOM     20  N   UNL A   1      48.545  45.680  21.259  1.00  0.00    -0.178 NA
ATOM     21  N   UNL A   1      49.039  45.412  20.036  1.00  0.00    -0.275 N 
ATOM     22  C   UNL A   1      48.125  45.545  19.039  1.00  0.00     0.119 A 
ATOM     23  C   UNL A   1      50.408  44.978  19.904  1.00  0.00     0.173 C 
ENDBRANCH   7  17
ENDBRANCH   4   6
ENDBRANCH   3   4
ENDBRANCH   2   3
ENDBRANCH   1   2
BRANCH   1  24
ATOM     24  O   UNL A   1      41.678  44.044  20.653  1.00  0.00    -0.458 OA
BRANCH  24  25
ATOM     25  C   UNL A   1      41.709  43.446  21.866  1.00  0.00     0.338 C 
ATOM     26  O   UNL A   1      40.792  42.852  22.413  1.00  0.00    -0.246 OA
BRANCH  25  27
ATOM     27  C   UNL A   1      43.039  43.489  22.480  1.00  0.00     0.060 A 
ATOM     28  C   UNL A   1      44.153  43.086  21.750  1.00  0.00     0.016 A 
ATOM     29  C   UNL A   1      43.105  43.625  23.869  1.00  0.00     0.016 A 
ATOM     30  C   UNL A   1      45.280  42.657  22.437  1.00  0.00     0.010 A 
ATOM     31  C   UNL A   1      44.242  43.198  24.549  1.00  0.00     0.010 A 
ATOM     32  C   UNL A   1      45.299  42.627  23.833  1.00  0.00    -0.014 A 
BRANCH  32  33
ATOM     33  C   UNL A   1      46.520  42.098  24.465  1.00  0.00     0.031 A 
ATOM     34  C   UNL A   1      47.366  43.200  24.995  1.00  0.00     0.074 A 
ATOM     35  C   UNL A   1      46.596  40.880  25.050  1.00  0.00     0.049 A 
ATOM     36  N   UNL A   1      47.037  43.819  26.090  1.00  0.00    -0.248 NA
ATOM     37  C   UNL A   1      48.375  43.893  24.199  1.00  0.00     0.031 C 
ATOM     38  C   UNL A   1      45.458  40.174  25.655  1.00  0.00     0.029 A 
ATOM     39  N   UNL A   1      47.690  40.130  25.429  1.00  0.00    -0.354 N 
ATOM     40  C   UNL A   1      47.724  45.013  26.106  1.00  0.00     0.074 A 
ATOM     41  C   UNL A   1      48.561  45.009  24.925  1.00  0.00     0.031 C 
ATOM     42  C   UNL A   1      45.931  39.230  26.498  1.00  0.00     0.029 A 
ATOM     43  C   UNL A   1      47.384  39.156  26.379  1.00  0.00     0.049 A 
ATOM     44  H   UNL A   1      48.594  40.267  25.064  1.00  0.00     0.167 HD
ATOM     45  C   UNL A   1      47.537  45.931  27.089  1.00  0.00     0.031 A 
ATOM     46  C   UNL A   1      48.231  38.756  27.371  1.00  0.00     0.031 A 
ATOM     47  C   UNL A   1      46.594  45.554  28.102  1.00  0.00     0.049 A 
ATOM     48  C   UNL A   1      48.159  39.952  28.294  1.00  0.00     0.074 A 
ATOM     49  C   UNL A   1      45.271  45.797  28.406  1.00  0.00     0.029 A 
ATOM     50  N   UNL A   1      47.002  44.628  29.030  1.00  0.00    -0.354 N 
ATOM     51  N   UNL A   1      47.177  40.257  29.099  1.00  0.00    -0.248 NA
ATOM     52  C   UNL A   1      49.081  41.057  28.013  1.00  0.00     0.031 C 
ATOM     53  C   UNL A   1      44.851  44.676  29.192  1.00  0.00     0.029 A 
ATOM     54  C   UNL A   1      45.936  43.806  29.289  1.00  0.00     0.049 A 
ATOM     55  H   UNL A   1      47.897  44.565  29.436  1.00  0.00     0.167 HD
ATOM     56  C   UNL A   1      47.164  41.653  29.152  1.00  0.00     0.074 A 
ATOM     57  C   UNL A   1      48.377  42.078  28.480  1.00  0.00     0.031 C 
ATOM     58  C   UNL A   1      46.089  42.391  29.554  1.00  0.00     0.031 A 
BRANCH  45  59
ATOM     59  C   UNL A   1      48.366  47.134  27.274  1.00  0.00    -0.014 A 
ATOM     60  C   UNL A   1      47.866  48.129  28.126  1.00  0.00     0.009 A 
ATOM     61  C   UNL A   1      49.492  47.402  26.490  1.00  0.00     0.009 A 
ATOM     62  C   UNL A   1      48.448  49.393  28.162  1.00  0.00     0.001 A 
ATOM     63  C   UNL A   1      50.084  48.669  26.539  1.00  0.00     0.001 A 
ATOM     64  C   UNL A   1      49.552  49.665  27.362  1.00  0.00     0.000 A 
ENDBRANCH  45  59
BRANCH  46  65
ATOM     65  C   UNL A   1      49.539  38.168  26.921  1.00  0.00    -0.014 A 
ATOM     66  C   UNL A   1      49.521  37.256  25.846  1.00  0.00     0.009 A 
ATOM     67  C   UNL A   1      50.788  38.457  27.491  1.00  0.00     0.009 A 
ATOM     68  C   UNL A   1      50.701  36.776  25.273  1.00  0.00     0.001 A 
ATOM     69  C   UNL A   1      51.975  37.999  26.901  1.00  0.00     0.001 A 
ATOM     70  C   UNL A   1      51.931  37.179  25.777  1.00  0.00     0.000 A 
ENDBRANCH  46  65
BRANCH  58  71
ATOM     71  C   UNL A   1      44.925  41.638  30.112  1.00  0.00    -0.014 A 
ATOM     72  C   UNL A   1      44.791  41.488  31.497  1.00  0.00     0.009 A 
ATOM     73  C   UNL A   1      43.905  41.161  29.272  1.00  0.00     0.009 A 
ATOM     74  C   UNL A   1      43.638  40.916  32.034  1.00  0.00     0.001 A 
ATOM     75  C   UNL A   1      42.746  40.602  29.812  1.00  0.00     0.001 A 
ATOM     76  C   UNL A   1      42.610  40.489  31.195  1.00  0.00     0.000 A 
ENDBRANCH  58  71
ENDBRANCH  32  33
ENDBRANCH  25  27
ENDBRANCH  24  25
ENDBRANCH   1  24
TORSDOF 12
ENDMDL
