MODEL 1
REMARK VINA RESULT:     -10.7      0.000      0.000
REMARK SMILES CC[C@@]1(C(=O)OCCOC(=O)c2ccc(-c3c4nc(c(-c5ccccc5)c5ccc([nH]5)c(-c5ccccc5)c5nc(c(-c6ccccc6)c6ccc3[nH]6)C=C5)C=C4)cc2)CCC[N@@H+](Cc2ccc(C3CC3)cc2)C1
REMARK SMILES IDX 7 1 6 2 4 3 5 4 3 5 60 6 74 7 61 8 63 9 62 10 2 12 1 13
REMARK SMILES IDX 64 14 65 15 66 16 73 17 67 18 72 19 68 20 69 21 70 22 71 23
REMARK SMILES IDX 8 24 9 25 10 26 11 27 12 28 13 29 59 30 14 31 58 32 15 33
REMARK SMILES IDX 16 34 17 35 52 36 18 37 57 38 51 39 53 40 19 41 56 42 50 43
REMARK SMILES IDX 49 44 20 46 42 47 27 48 41 49 28 50 31 51 40 52 54 53 29 54
REMARK SMILES IDX 30 55 39 57 55 58 32 59 21 60 22 61 26 62 23 63 25 64 24 65
REMARK SMILES IDX 43 66 44 67 48 68 45 69 47 70 46 71 33 72 34 73 38 74 35 75
REMARK SMILES IDX 37 76 36 77
REMARK H PARENT 63 11 53 45 31 56
REMARK Flexibility Score: inf
ROOT
ATOM      1  C   UNL A   1      31.460  28.061  25.328  1.00  0.00     0.274 C 
ENDROOT
BRANCH   1   2
ATOM      2  O   UNL A   1      32.070  27.548  24.126  1.00  0.00    -0.461 OA
BRANCH   2   3
ATOM      3  C   UNL A   1      32.770  26.386  24.242  1.00  0.00     0.317 C 
ATOM      4  O   UNL A   1      33.904  26.315  24.707  1.00  0.00    -0.251 OA
BRANCH   3   5
ATOM      5  C   UNL A   1      32.073  25.188  23.577  1.00  0.00     0.117 C 
ATOM      6  C   UNL A   1      30.880  24.637  24.390  1.00  0.00     0.030 C 
ATOM      7  C   UNL A   1      33.091  24.036  23.345  1.00  0.00     0.281 C 
ATOM      8  C   UNL A   1      31.326  23.836  25.616  1.00  0.00     0.063 C 
ATOM      9  N   UNL A   1      33.443  23.235  24.527  1.00  0.00    -0.330 N 
ATOM     10  C   UNL A   1      32.272  22.705  25.223  1.00  0.00     0.262 C 
ATOM     11  H   UNL A   1      33.893  23.894  25.163  1.00  0.00     0.348 HD
BRANCH   5  12
ATOM     12  C   UNL A   1      31.660  25.762  22.172  1.00  0.00     0.021 C 
ATOM     13  C   UNL A   1      32.746  25.884  21.118  1.00  0.00     0.005 C 
ENDBRANCH   5  12
BRANCH   9  14
ATOM     14  C   UNL A   1      34.447  22.184  24.256  1.00  0.00     0.299 C 
BRANCH  14  15
ATOM     15  C   UNL A   1      35.823  22.318  24.865  1.00  0.00     0.006 A 
ATOM     16  C   UNL A   1      36.752  21.277  24.787  1.00  0.00     0.010 A 
ATOM     17  C   UNL A   1      36.182  23.468  25.575  1.00  0.00     0.010 A 
ATOM     18  C   UNL A   1      38.031  21.424  25.340  1.00  0.00     0.004 A 
ATOM     19  C   UNL A   1      37.468  23.618  26.097  1.00  0.00     0.004 A 
ATOM     20  C   UNL A   1      38.436  22.612  25.974  1.00  0.00    -0.045 A 
BRANCH  20  21
ATOM     21  C   UNL A   1      39.863  22.768  26.466  1.00  0.00     0.019 C 
ATOM     22  C   UNL A   1      40.382  21.848  27.549  1.00  0.00     0.009 C 
ATOM     23  C   UNL A   1      40.940  21.759  26.157  1.00  0.00     0.009 C 
ENDBRANCH  20  21
ENDBRANCH  14  15
ENDBRANCH   9  14
ENDBRANCH   3   5
ENDBRANCH   2   3
ENDBRANCH   1   2
BRANCH   1  24
ATOM     24  C   UNL A   1      31.715  29.560  25.475  1.00  0.00     0.275 C 
BRANCH  24  25
ATOM     25  O   UNL A   1      32.105  29.835  26.829  1.00  0.00    -0.458 OA
BRANCH  25  26
ATOM     26  C   UNL A   1      32.733  31.015  27.047  1.00  0.00     0.338 C 
ATOM     27  O   UNL A   1      32.228  32.124  27.007  1.00  0.00    -0.246 OA
BRANCH  26  28
ATOM     28  C   UNL A   1      34.156  30.778  27.406  1.00  0.00     0.060 A 
ATOM     29  C   UNL A   1      34.662  29.488  27.524  1.00  0.00     0.016 A 
ATOM     30  C   UNL A   1      34.970  31.853  27.765  1.00  0.00     0.016 A 
ATOM     31  C   UNL A   1      35.896  29.266  28.136  1.00  0.00     0.010 A 
ATOM     32  C   UNL A   1      36.253  31.626  28.292  1.00  0.00     0.010 A 
ATOM     33  C   UNL A   1      36.705  30.324  28.572  1.00  0.00    -0.014 A 
BRANCH  33  34
ATOM     34  C   UNL A   1      37.919  30.086  29.429  1.00  0.00     0.031 A 
ATOM     35  C   UNL A   1      39.142  29.397  28.846  1.00  0.00     0.074 A 
ATOM     36  C   UNL A   1      38.020  30.535  30.699  1.00  0.00     0.049 A 
ATOM     37  N   UNL A   1      40.166  28.855  29.463  1.00  0.00    -0.248 NA
ATOM     38  C   UNL A   1      39.221  29.297  27.379  1.00  0.00     0.031 C 
ATOM     39  C   UNL A   1      37.020  31.323  31.421  1.00  0.00     0.029 A 
ATOM     40  N   UNL A   1      39.047  30.407  31.611  1.00  0.00    -0.354 N 
ATOM     41  C   UNL A   1      40.951  28.276  28.470  1.00  0.00     0.074 A 
ATOM     42  C   UNL A   1      40.304  28.552  27.207  1.00  0.00     0.031 C 
ATOM     43  C   UNL A   1      37.512  31.677  32.617  1.00  0.00     0.029 A 
ATOM     44  C   UNL A   1      38.795  31.016  32.817  1.00  0.00     0.049 A 
ATOM     45  H   UNL A   1      39.883  29.925  31.415  1.00  0.00     0.167 HD
ATOM     46  C   UNL A   1      42.098  27.563  28.594  1.00  0.00     0.031 A 
ATOM     47  C   UNL A   1      39.466  30.993  33.986  1.00  0.00     0.031 A 
ATOM     48  C   UNL A   1      42.799  27.344  29.831  1.00  0.00     0.049 A 
ATOM     49  C   UNL A   1      40.691  30.138  34.129  1.00  0.00     0.074 A 
ATOM     50  C   UNL A   1      43.945  26.600  30.054  1.00  0.00     0.029 A 
ATOM     51  N   UNL A   1      42.442  27.902  31.045  1.00  0.00    -0.354 N 
ATOM     52  N   UNL A   1      41.318  29.434  33.221  1.00  0.00    -0.248 NA
ATOM     53  C   UNL A   1      41.269  30.037  35.477  1.00  0.00     0.031 C 
ATOM     54  C   UNL A   1      44.266  26.684  31.413  1.00  0.00     0.029 A 
ATOM     55  C   UNL A   1      43.343  27.516  32.023  1.00  0.00     0.049 A 
ATOM     56  H   UNL A   1      41.664  28.486  31.192  1.00  0.00     0.167 HD
ATOM     57  C   UNL A   1      42.360  28.803  33.887  1.00  0.00     0.074 A 
ATOM     58  C   UNL A   1      42.300  29.230  35.269  1.00  0.00     0.031 C 
ATOM     59  C   UNL A   1      43.276  27.934  33.397  1.00  0.00     0.031 A 
BRANCH  46  60
ATOM     60  C   UNL A   1      42.642  26.903  27.358  1.00  0.00    -0.014 A 
ATOM     61  C   UNL A   1      43.610  27.519  26.552  1.00  0.00     0.009 A 
ATOM     62  C   UNL A   1      42.206  25.608  27.031  1.00  0.00     0.009 A 
ATOM     63  C   UNL A   1      44.112  26.858  25.429  1.00  0.00     0.001 A 
ATOM     64  C   UNL A   1      42.729  24.941  25.924  1.00  0.00     0.001 A 
ATOM     65  C   UNL A   1      43.677  25.569  25.119  1.00  0.00     0.000 A 
ENDBRANCH  46  60
BRANCH  47  66
ATOM     66  C   UNL A   1      38.918  31.718  35.165  1.00  0.00    -0.014 A 
ATOM     67  C   UNL A   1      39.120  33.097  35.315  1.00  0.00     0.009 A 
ATOM     68  C   UNL A   1      38.195  31.024  36.148  1.00  0.00     0.009 A 
ATOM     69  C   UNL A   1      38.607  33.765  36.431  1.00  0.00     0.001 A 
ATOM     70  C   UNL A   1      37.654  31.701  37.241  1.00  0.00     0.001 A 
ATOM     71  C   UNL A   1      37.867  33.070  37.386  1.00  0.00     0.000 A 
ENDBRANCH  47  66
BRANCH  59  72
ATOM     72  C   UNL A   1      44.303  27.408  34.357  1.00  0.00    -0.014 A 
ATOM     73  C   UNL A   1      45.468  28.138  34.642  1.00  0.00     0.009 A 
ATOM     74  C   UNL A   1      44.098  26.173  34.990  1.00  0.00     0.009 A 
ATOM     75  C   UNL A   1      46.425  27.623  35.518  1.00  0.00     0.001 A 
ATOM     76  C   UNL A   1      45.047  25.672  35.884  1.00  0.00     0.001 A 
ATOM     77  C   UNL A   1      46.213  26.391  36.139  1.00  0.00     0.000 A 
ENDBRANCH  59  72
ENDBRANCH  33  34
ENDBRANCH  26  28
ENDBRANCH  25  26
ENDBRANCH  24  25
ENDBRANCH   1  24
TORSDOF 15
ENDMDL
MODEL 2
REMARK VINA RESULT:     -10.6      1.597      2.769
REMARK SMILES CC[C@@]1(C(=O)OCCOC(=O)c2ccc(-c3c4nc(c(-c5ccccc5)c5ccc([nH]5)c(-c5ccccc5)c5nc(c(-c6ccccc6)c6ccc3[nH]6)C=C5)C=C4)cc2)CCC[N@@H+](Cc2ccc(C3CC3)cc2)C1
REMARK SMILES IDX 7 1 6 2 4 3 5 4 3 5 60 6 74 7 61 8 63 9 62 10 2 12 1 13
REMARK SMILES IDX 64 14 65 15 66 16 73 17 67 18 72 19 68 20 69 21 70 22 71 23
REMARK SMILES IDX 8 24 9 25 10 26 11 27 12 28 13 29 59 30 14 31 58 32 15 33
REMARK SMILES IDX 16 34 17 35 52 36 18 37 57 38 51 39 53 40 19 41 56 42 50 43
REMARK SMILES IDX 49 44 20 46 42 47 27 48 41 49 28 50 31 51 40 52 54 53 29 54
REMARK SMILES IDX 30 55 39 57 55 58 32 59 21 60 22 61 26 62 23 63 25 64 24 65
REMARK SMILES IDX 43 66 44 67 48 68 45 69 47 70 46 71 33 72 34 73 38 74 35 75
REMARK SMILES IDX 37 76 36 77
REMARK H PARENT 63 11 53 45 31 56
REMARK Flexibility Score: inf
ROOT
ATOM      1  C   UNL A   1      32.202  29.356  24.847  1.00  0.00     0.274 C 
ENDROOT
BRANCH   1   2
ATOM      2  O   UNL A   1      31.214  28.375  24.473  1.00  0.00    -0.461 OA
BRANCH   2   3
ATOM      3  C   UNL A   1      31.609  27.072  24.485  1.00  0.00     0.317 C 
ATOM      4  O   UNL A   1      32.783  26.715  24.514  1.00  0.00    -0.251 OA
BRANCH   3   5
ATOM      5  C   UNL A   1      30.449  26.083  24.284  1.00  0.00     0.117 C 
ATOM      6  C   UNL A   1      29.962  25.426  25.595  1.00  0.00     0.030 C 
ATOM      7  C   UNL A   1      30.866  24.962  23.291  1.00  0.00     0.281 C 
ATOM      8  C   UNL A   1      30.930  24.357  26.109  1.00  0.00     0.063 C 
ATOM      9  N   UNL A   1      31.735  23.907  23.833  1.00  0.00    -0.330 N 
ATOM     10  C   UNL A   1      31.194  23.295  25.045  1.00  0.00     0.262 C 
ATOM     11  H   UNL A   1      32.593  24.388  24.101  1.00  0.00     0.348 HD
BRANCH   5  12
ATOM     12  C   UNL A   1      29.353  26.969  23.585  1.00  0.00     0.021 C 
ATOM     13  C   UNL A   1      27.903  26.715  23.958  1.00  0.00     0.005 C 
ENDBRANCH   5  12
BRANCH   9  14
ATOM     14  C   UNL A   1      32.133  22.892  22.834  1.00  0.00     0.299 C 
BRANCH  14  15
ATOM     15  C   UNL A   1      32.598  21.538  23.318  1.00  0.00     0.006 A 
ATOM     16  C   UNL A   1      33.583  21.421  24.302  1.00  0.00     0.010 A 
ATOM     17  C   UNL A   1      32.094  20.364  22.749  1.00  0.00     0.010 A 
ATOM     18  C   UNL A   1      33.989  20.159  24.755  1.00  0.00     0.004 A 
ATOM     19  C   UNL A   1      32.482  19.111  23.226  1.00  0.00     0.004 A 
ATOM     20  C   UNL A   1      33.422  18.972  24.257  1.00  0.00    -0.045 A 
BRANCH  20  21
ATOM     21  C   UNL A   1      33.815  17.631  24.847  1.00  0.00     0.019 C 
ATOM     22  C   UNL A   1      32.737  16.683  25.325  1.00  0.00     0.009 C 
ATOM     23  C   UNL A   1      33.570  16.328  24.128  1.00  0.00     0.009 C 
ENDBRANCH  20  21
ENDBRANCH  14  15
ENDBRANCH   9  14
ENDBRANCH   3   5
ENDBRANCH   2   3
ENDBRANCH   1   2
BRANCH   1  24
ATOM     24  C   UNL A   1      31.595  30.428  25.750  1.00  0.00     0.275 C 
BRANCH  24  25
ATOM     25  O   UNL A   1      32.314  30.452  26.993  1.00  0.00    -0.458 OA
BRANCH  25  26
ATOM     26  C   UNL A   1      33.035  31.568  27.250  1.00  0.00     0.338 C 
ATOM     27  O   UNL A   1      32.622  32.716  27.252  1.00  0.00    -0.246 OA
BRANCH  26  28
ATOM     28  C   UNL A   1      34.434  31.204  27.596  1.00  0.00     0.060 A 
ATOM     29  C   UNL A   1      34.813  29.875  27.754  1.00  0.00     0.016 A 
ATOM     30  C   UNL A   1      35.357  32.205  27.902  1.00  0.00     0.016 A 
ATOM     31  C   UNL A   1      36.030  29.553  28.355  1.00  0.00     0.010 A 
ATOM     32  C   UNL A   1      36.621  31.870  28.416  1.00  0.00     0.010 A 
ATOM     33  C   UNL A   1      36.948  30.541  28.738  1.00  0.00    -0.014 A 
BRANCH  33  34
ATOM     34  C   UNL A   1      38.149  30.214  29.585  1.00  0.00     0.031 A 
ATOM     35  C   UNL A   1      39.314  29.439  28.990  1.00  0.00     0.074 A 
ATOM     36  C   UNL A   1      38.293  30.652  30.855  1.00  0.00     0.049 A 
ATOM     37  N   UNL A   1      40.301  28.824  29.598  1.00  0.00    -0.248 NA
ATOM     38  C   UNL A   1      39.373  29.337  27.522  1.00  0.00     0.031 C 
ATOM     39  C   UNL A   1      37.359  31.509  31.586  1.00  0.00     0.029 A 
ATOM     40  N   UNL A   1      39.315  30.448  31.757  1.00  0.00    -0.354 N 
ATOM     41  C   UNL A   1      41.033  28.191  28.598  1.00  0.00     0.074 A 
ATOM     42  C   UNL A   1      40.397  28.515  27.341  1.00  0.00     0.031 C 
ATOM     43  C   UNL A   1      37.885  31.824  32.778  1.00  0.00     0.029 A 
ATOM     44  C   UNL A   1      39.119  31.071  32.966  1.00  0.00     0.049 A 
ATOM     45  H   UNL A   1      40.112  29.907  31.553  1.00  0.00     0.167 HD
ATOM     46  C   UNL A   1      42.127  27.397  28.710  1.00  0.00     0.031 A 
ATOM     47  C   UNL A   1      39.796  30.998  34.129  1.00  0.00     0.031 A 
ATOM     48  C   UNL A   1      42.820  27.125  29.941  1.00  0.00     0.049 A 
ATOM     49  C   UNL A   1      40.957  30.057  34.260  1.00  0.00     0.074 A 
ATOM     50  C   UNL A   1      43.912  26.300  30.154  1.00  0.00     0.029 A 
ATOM     51  N   UNL A   1      42.516  27.705  31.159  1.00  0.00    -0.354 N 
ATOM     52  N   UNL A   1      41.523  29.310  33.346  1.00  0.00    -0.248 NA
ATOM     53  C   UNL A   1      41.538  29.911  35.603  1.00  0.00     0.031 C 
ATOM     54  C   UNL A   1      44.249  26.358  31.510  1.00  0.00     0.029 A 
ATOM     55  C   UNL A   1      43.394  27.253  32.129  1.00  0.00     0.049 A 
ATOM     56  H   UNL A   1      41.783  28.344  31.314  1.00  0.00     0.167 HD
ATOM     57  C   UNL A   1      42.523  28.604  34.003  1.00  0.00     0.074 A 
ATOM     58  C   UNL A   1      42.506  29.032  35.385  1.00  0.00     0.031 C 
ATOM     59  C   UNL A   1      43.369  27.672  33.504  1.00  0.00     0.031 A 
BRANCH  46  60
ATOM     60  C   UNL A   1      42.612  26.702  27.469  1.00  0.00    -0.014 A 
ATOM     61  C   UNL A   1      41.947  25.589  26.933  1.00  0.00     0.009 A 
ATOM     62  C   UNL A   1      43.734  27.215  26.797  1.00  0.00     0.009 A 
ATOM     63  C   UNL A   1      42.413  24.991  25.760  1.00  0.00     0.001 A 
ATOM     64  C   UNL A   1      44.181  26.631  25.612  1.00  0.00     0.001 A 
ATOM     65  C   UNL A   1      43.524  25.515  25.097  1.00  0.00     0.000 A 
ENDBRANCH  46  60
BRANCH  47  66
ATOM     66  C   UNL A   1      39.312  31.758  35.314  1.00  0.00    -0.014 A 
ATOM     67  C   UNL A   1      38.351  31.208  36.175  1.00  0.00     0.009 A 
ATOM     68  C   UNL A   1      39.809  33.044  35.580  1.00  0.00     0.009 A 
ATOM     69  C   UNL A   1      37.899  31.936  37.280  1.00  0.00     0.001 A 
ATOM     70  C   UNL A   1      39.382  33.752  36.704  1.00  0.00     0.001 A 
ATOM     71  C   UNL A   1      38.422  33.200  37.549  1.00  0.00     0.000 A 
ENDBRANCH  47  66
BRANCH  59  72
ATOM     72  C   UNL A   1      44.364  27.072  34.454  1.00  0.00    -0.014 A 
ATOM     73  C   UNL A   1      44.087  25.875  35.131  1.00  0.00     0.009 A 
ATOM     74  C   UNL A   1      45.597  27.708  34.666  1.00  0.00     0.009 A 
ATOM     75  C   UNL A   1      45.013  25.343  36.030  1.00  0.00     0.001 A 
ATOM     76  C   UNL A   1      46.530  27.162  35.549  1.00  0.00     0.001 A 
ATOM     77  C   UNL A   1      46.235  25.986  36.237  1.00  0.00     0.000 A 
ENDBRANCH  59  72
ENDBRANCH  33  34
ENDBRANCH  26  28
ENDBRANCH  25  26
ENDBRANCH  24  25
ENDBRANCH   1  24
TORSDOF 15
ENDMDL
MODEL 3
REMARK VINA RESULT:     -10.5      3.470      8.824
REMARK SMILES CC[C@@]1(C(=O)OCCOC(=O)c2ccc(-c3c4nc(c(-c5ccccc5)c5ccc([nH]5)c(-c5ccccc5)c5nc(c(-c6ccccc6)c6ccc3[nH]6)C=C5)C=C4)cc2)CCC[N@@H+](Cc2ccc(C3CC3)cc2)C1
REMARK SMILES IDX 7 1 6 2 4 3 5 4 3 5 60 6 74 7 61 8 63 9 62 10 2 12 1 13
REMARK SMILES IDX 64 14 65 15 66 16 73 17 67 18 72 19 68 20 69 21 70 22 71 23
REMARK SMILES IDX 8 24 9 25 10 26 11 27 12 28 13 29 59 30 14 31 58 32 15 33
REMARK SMILES IDX 16 34 17 35 52 36 18 37 57 38 51 39 53 40 19 41 56 42 50 43
REMARK SMILES IDX 49 44 20 46 42 47 27 48 41 49 28 50 31 51 40 52 54 53 29 54
REMARK SMILES IDX 30 55 39 57 55 58 32 59 21 60 22 61 26 62 23 63 25 64 24 65
REMARK SMILES IDX 43 66 44 67 48 68 45 69 47 70 46 71 33 72 34 73 38 74 35 75
REMARK SMILES IDX 37 76 36 77
REMARK H PARENT 63 11 53 45 31 56
REMARK Flexibility Score: inf
ROOT
ATOM      1  C   UNL A   1      35.213  22.253  26.446  1.00  0.00     0.274 C 
ENDROOT
BRANCH   1   2
ATOM      2  O   UNL A   1      33.861  22.421  25.973  1.00  0.00    -0.461 OA
BRANCH   2   3
ATOM      3  C   UNL A   1      33.463  23.693  25.696  1.00  0.00     0.317 C 
ATOM      4  O   UNL A   1      34.208  24.667  25.744  1.00  0.00    -0.251 OA
BRANCH   3   5
ATOM      5  C   UNL A   1      31.946  23.822  25.484  1.00  0.00     0.117 C 
ATOM      6  C   UNL A   1      31.502  23.579  24.025  1.00  0.00     0.030 C 
ATOM      7  C   UNL A   1      31.461  25.233  25.923  1.00  0.00     0.281 C 
ATOM      8  C   UNL A   1      31.841  24.755  23.105  1.00  0.00     0.063 C 
ATOM      9  N   UNL A   1      31.734  26.332  24.984  1.00  0.00    -0.330 N 
ATOM     10  C   UNL A   1      31.248  26.058  23.633  1.00  0.00     0.262 C 
ATOM     11  H   UNL A   1      32.751  26.381  24.929  1.00  0.00     0.348 HD
BRANCH   5  12
ATOM     12  C   UNL A   1      31.362  22.771  26.498  1.00  0.00     0.021 C 
ATOM     13  C   UNL A   1      29.914  22.940  26.928  1.00  0.00     0.005 C 
ENDBRANCH   5  12
BRANCH   9  14
ATOM     14  C   UNL A   1      31.290  27.656  25.472  1.00  0.00     0.299 C 
BRANCH  14  15
ATOM     15  C   UNL A   1      32.293  28.549  26.164  1.00  0.00     0.006 A 
ATOM     16  C   UNL A   1      31.959  29.851  26.544  1.00  0.00     0.010 A 
ATOM     17  C   UNL A   1      33.603  28.113  26.389  1.00  0.00     0.010 A 
ATOM     18  C   UNL A   1      32.894  30.661  27.202  1.00  0.00     0.004 A 
ATOM     19  C   UNL A   1      34.519  28.915  27.072  1.00  0.00     0.004 A 
ATOM     20  C   UNL A   1      34.185  30.201  27.519  1.00  0.00    -0.045 A 
BRANCH  20  21
ATOM     21  C   UNL A   1      35.131  31.072  28.324  1.00  0.00     0.019 C 
ATOM     22  C   UNL A   1      35.487  32.452  27.817  1.00  0.00     0.009 C 
ATOM     23  C   UNL A   1      34.666  32.301  29.065  1.00  0.00     0.009 C 
ENDBRANCH  20  21
ENDBRANCH  14  15
ENDBRANCH   9  14
ENDBRANCH   3   5
ENDBRANCH   2   3
ENDBRANCH   1   2
BRANCH   1  24
ATOM     24  C   UNL A   1      36.000  21.314  25.534  1.00  0.00     0.275 C 
BRANCH  24  25
ATOM     25  O   UNL A   1      37.178  21.994  25.071  1.00  0.00    -0.458 OA
BRANCH  25  26
ATOM     26  C   UNL A   1      38.348  21.633  25.649  1.00  0.00     0.338 C 
ATOM     27  O   UNL A   1      38.909  20.555  25.539  1.00  0.00    -0.246 OA
BRANCH  26  28
ATOM     28  C   UNL A   1      38.912  22.772  26.418  1.00  0.00     0.060 A 
ATOM     29  C   UNL A   1      38.368  24.048  26.315  1.00  0.00     0.016 A 
ATOM     30  C   UNL A   1      40.086  22.602  27.152  1.00  0.00     0.016 A 
ATOM     31  C   UNL A   1      39.064  25.156  26.799  1.00  0.00     0.010 A 
ATOM     32  C   UNL A   1      40.733  23.712  27.722  1.00  0.00     0.010 A 
ATOM     33  C   UNL A   1      40.282  25.022  27.479  1.00  0.00    -0.014 A 
BRANCH  33  34
ATOM     34  C   UNL A   1      41.141  26.216  27.799  1.00  0.00     0.031 A 
ATOM     35  C   UNL A   1      40.671  27.243  28.816  1.00  0.00     0.074 A 
ATOM     36  C   UNL A   1      42.378  26.390  27.283  1.00  0.00     0.049 A 
ATOM     37  N   UNL A   1      41.112  28.460  29.033  1.00  0.00    -0.248 NA
ATOM     38  C   UNL A   1      39.557  26.856  29.697  1.00  0.00     0.031 C 
ATOM     39  C   UNL A   1      43.078  25.472  26.383  1.00  0.00     0.029 A 
ATOM     40  N   UNL A   1      43.285  27.411  27.469  1.00  0.00    -0.354 N 
ATOM     41  C   UNL A   1      40.273  29.005  30.001  1.00  0.00     0.074 A 
ATOM     42  C   UNL A   1      39.312  27.983  30.350  1.00  0.00     0.031 C 
ATOM     43  C   UNL A   1      44.321  25.923  26.168  1.00  0.00     0.029 A 
ATOM     44  C   UNL A   1      44.462  27.238  26.782  1.00  0.00     0.049 A 
ATOM     45  H   UNL A   1      43.106  28.192  28.041  1.00  0.00     0.167 HD
ATOM     46  C   UNL A   1      40.284  30.249  30.541  1.00  0.00     0.031 A 
ATOM     47  C   UNL A   1      45.514  28.058  26.589  1.00  0.00     0.031 A 
ATOM     48  C   UNL A   1      41.276  31.254  30.266  1.00  0.00     0.049 A 
ATOM     49  C   UNL A   1      45.478  29.458  27.128  1.00  0.00     0.074 A 
ATOM     50  C   UNL A   1      41.342  32.555  30.737  1.00  0.00     0.029 A 
ATOM     51  N   UNL A   1      42.396  31.057  29.480  1.00  0.00    -0.354 N 
ATOM     52  N   UNL A   1      44.577  30.029  27.888  1.00  0.00    -0.248 NA
ATOM     53  C   UNL A   1      46.585  30.343  26.737  1.00  0.00     0.031 C 
ATOM     54  C   UNL A   1      42.491  33.155  30.210  1.00  0.00     0.029 A 
ATOM     55  C   UNL A   1      43.159  32.213  29.447  1.00  0.00     0.049 A 
ATOM     56  H   UNL A   1      42.619  30.220  29.012  1.00  0.00     0.167 HD
ATOM     57  C   UNL A   1      45.005  31.339  28.061  1.00  0.00     0.074 A 
ATOM     58  C   UNL A   1      46.261  31.471  27.354  1.00  0.00     0.031 C 
ATOM     59  C   UNL A   1      44.401  32.345  28.736  1.00  0.00     0.031 A 
BRANCH  46  60
ATOM     60  C   UNL A   1      39.144  30.625  31.445  1.00  0.00    -0.014 A 
ATOM     61  C   UNL A   1      39.207  30.446  32.834  1.00  0.00     0.009 A 
ATOM     62  C   UNL A   1      38.001  31.221  30.886  1.00  0.00     0.009 A 
ATOM     63  C   UNL A   1      38.137  30.837  33.642  1.00  0.00     0.001 A 
ATOM     64  C   UNL A   1      36.946  31.634  31.698  1.00  0.00     0.001 A 
ATOM     65  C   UNL A   1      37.011  31.436  33.075  1.00  0.00     0.000 A 
ENDBRANCH  46  60
BRANCH  47  66
ATOM     66  C   UNL A   1      46.651  27.614  25.737  1.00  0.00    -0.014 A 
ATOM     67  C   UNL A   1      47.713  26.881  26.285  1.00  0.00     0.009 A 
ATOM     68  C   UNL A   1      46.676  27.931  24.369  1.00  0.00     0.009 A 
ATOM     69  C   UNL A   1      48.779  26.477  25.476  1.00  0.00     0.001 A 
ATOM     70  C   UNL A   1      47.723  27.495  23.559  1.00  0.00     0.001 A 
ATOM     71  C   UNL A   1      48.777  26.774  24.114  1.00  0.00     0.000 A 
ENDBRANCH  47  66
BRANCH  59  72
ATOM     72  C   UNL A   1      45.104  33.671  28.762  1.00  0.00    -0.014 A 
ATOM     73  C   UNL A   1      46.053  33.967  29.752  1.00  0.00     0.009 A 
ATOM     74  C   UNL A   1      44.819  34.630  27.779  1.00  0.00     0.009 A 
ATOM     75  C   UNL A   1      46.680  35.214  29.777  1.00  0.00     0.001 A 
ATOM     76  C   UNL A   1      45.464  35.868  27.793  1.00  0.00     0.001 A 
ATOM     77  C   UNL A   1      46.386  36.163  28.796  1.00  0.00     0.000 A 
ENDBRANCH  59  72
ENDBRANCH  33  34
ENDBRANCH  26  28
ENDBRANCH  25  26
ENDBRANCH  24  25
ENDBRANCH   1  24
TORSDOF 15
ENDMDL
