MODEL 1
REMARK VINA RESULT:      -9.3      0.000      0.000
REMARK SMILES C=CCc1cccc(-c2ccc([C@@H](C)C(=O)OCCOC(=O)c3ccc(-c4c5nc(c(-c6ccccc6)c6ccc([nH]6)c(-c6ccccc6)c6nc(c(-c7ccccc7)c7ccc4[nH]7)C=C6)C=C5)cc3)cc2)c1
REMARK SMILES IDX 18 1 17 2 15 3 16 4 13 5 14 6 12 7 9 8 10 9 72 10 11 11
REMARK SMILES IDX 71 12 8 13 4 14 5 15 73 16 6 17 7 18 3 19 2 20 1 21 19 22
REMARK SMILES IDX 20 23 21 24 22 25 23 26 24 27 70 28 25 29 69 30 26 31 27 32
REMARK SMILES IDX 28 33 63 34 29 35 68 36 62 37 64 38 30 39 67 40 61 41 60 42
REMARK SMILES IDX 31 44 53 45 38 46 52 47 39 48 42 49 51 50 65 51 40 52 41 53
REMARK SMILES IDX 50 55 66 56 43 57 32 58 33 59 37 60 34 61 36 62 35 63 54 64
REMARK SMILES IDX 55 65 59 66 56 67 58 68 57 69 44 70 45 71 49 72 46 73 48 74
REMARK SMILES IDX 47 75
REMARK H PARENT 64 43 42 54
REMARK Flexibility Score: inf
ROOT
ATOM      1  C   UNL A   1      33.778  34.534  29.172  1.00  0.00     0.274 C 
ENDROOT
BRANCH   1   2
ATOM      2  O   UNL A   1      33.634  33.988  30.498  1.00  0.00    -0.462 OA
BRANCH   2   3
ATOM      3  C   UNL A   1      34.544  34.378  31.428  1.00  0.00     0.313 C 
ATOM      4  O   UNL A   1      34.529  35.466  31.997  1.00  0.00    -0.252 OA
BRANCH   3   5
ATOM      5  C   UNL A   1      35.641  33.350  31.679  1.00  0.00     0.126 C 
ATOM      6  C   UNL A   1      35.672  32.973  33.158  1.00  0.00     0.025 C 
BRANCH   5   7
ATOM      7  C   UNL A   1      37.015  33.708  31.133  1.00  0.00    -0.034 A 
ATOM      8  C   UNL A   1      39.568  34.363  30.067  1.00  0.00    -0.018 A 
ATOM      9  C   UNL A   1      39.272  34.572  31.420  1.00  0.00     0.009 A 
ATOM     10  C   UNL A   1      38.562  33.825  29.252  1.00  0.00     0.009 A 
ATOM     11  C   UNL A   1      38.018  34.248  31.948  1.00  0.00     0.005 A 
ATOM     12  C   UNL A   1      37.306  33.500  29.776  1.00  0.00     0.005 A 
BRANCH   8  13
ATOM     13  C   UNL A   1      40.898  34.683  29.523  1.00  0.00    -0.018 A 
ATOM     14  C   UNL A   1      42.325  35.926  27.961  1.00  0.00    -0.044 A 
ATOM     15  C   UNL A   1      43.450  35.273  28.481  1.00  0.00     0.004 A 
ATOM     16  C   UNL A   1      41.058  35.626  28.493  1.00  0.00     0.012 A 
ATOM     17  C   UNL A   1      43.311  34.340  29.506  1.00  0.00     0.001 A 
ATOM     18  C   UNL A   1      42.047  34.048  30.020  1.00  0.00     0.009 A 
BRANCH  14  19
ATOM     19  C   UNL A   1      42.473  36.952  26.862  1.00  0.00     0.062 C 
BRANCH  19  20
ATOM     20  C   UNL A   1      41.728  38.226  27.150  1.00  0.00    -0.030 C 
ATOM     21  C   UNL A   1      42.230  39.453  26.956  1.00  0.00     0.004 C 
ENDBRANCH  19  20
ENDBRANCH  14  19
ENDBRANCH   8  13
ENDBRANCH   5   7
ENDBRANCH   3   5
ENDBRANCH   2   3
ENDBRANCH   1   2
BRANCH   1  22
ATOM     22  C   UNL A   1      34.023  33.429  28.144  1.00  0.00     0.275 C 
BRANCH  22  23
ATOM     23  O   UNL A   1      34.253  32.166  28.795  1.00  0.00    -0.458 OA
BRANCH  23  24
ATOM     24  C   UNL A   1      34.462  31.119  27.965  1.00  0.00     0.338 C 
ATOM     25  O   UNL A   1      33.789  30.772  27.012  1.00  0.00    -0.246 OA
BRANCH  24  26
ATOM     26  C   UNL A   1      35.731  30.471  28.322  1.00  0.00     0.060 A 
ATOM     27  C   UNL A   1      35.829  29.847  29.567  1.00  0.00     0.016 A 
ATOM     28  C   UNL A   1      36.837  30.553  27.475  1.00  0.00     0.016 A 
ATOM     29  C   UNL A   1      37.043  29.308  29.983  1.00  0.00     0.010 A 
ATOM     30  C   UNL A   1      38.053  30.004  27.889  1.00  0.00     0.010 A 
ATOM     31  C   UNL A   1      38.166  29.392  29.150  1.00  0.00    -0.014 A 
BRANCH  31  32
ATOM     32  C   UNL A   1      39.472  28.880  29.624  1.00  0.00     0.031 A 
ATOM     33  C   UNL A   1      40.247  29.648  30.654  1.00  0.00     0.074 A 
ATOM     34  C   UNL A   1      39.953  27.720  29.141  1.00  0.00     0.049 A 
ATOM     35  N   UNL A   1      41.438  29.407  31.141  1.00  0.00    -0.248 NA
ATOM     36  C   UNL A   1      39.598  30.845  31.210  1.00  0.00     0.031 C 
ATOM     37  C   UNL A   1      39.271  26.859  28.173  1.00  0.00     0.029 A 
ATOM     38  N   UNL A   1      41.130  27.068  29.401  1.00  0.00    -0.354 N 
ATOM     39  C   UNL A   1      41.689  30.430  32.046  1.00  0.00     0.074 A 
ATOM     40  C   UNL A   1      40.534  31.302  32.030  1.00  0.00     0.031 C 
ATOM     41  C   UNL A   1      40.044  25.789  27.924  1.00  0.00     0.029 A 
ATOM     42  C   UNL A   1      41.287  25.912  28.678  1.00  0.00     0.049 A 
ATOM     43  H   UNL A   1      41.799  27.397  30.045  1.00  0.00     0.167 HD
ATOM     44  C   UNL A   1      42.784  30.624  32.819  1.00  0.00     0.031 A 
ATOM     45  C   UNL A   1      42.328  25.062  28.609  1.00  0.00     0.031 A 
ATOM     46  C   UNL A   1      43.932  29.759  32.833  1.00  0.00     0.049 A 
ATOM     47  C   UNL A   1      43.558  25.335  29.429  1.00  0.00     0.074 A 
ATOM     48  C   UNL A   1      45.091  29.873  33.583  1.00  0.00     0.029 A 
ATOM     49  N   UNL A   1      44.069  28.618  32.058  1.00  0.00    -0.354 N 
ATOM     50  N   UNL A   1      43.787  26.312  30.272  1.00  0.00    -0.248 NA
ATOM     51  C   UNL A   1      44.673  24.389  29.284  1.00  0.00     0.031 C 
ATOM     52  C   UNL A   1      45.944  28.821  33.232  1.00  0.00     0.029 A 
ATOM     53  C   UNL A   1      45.298  28.028  32.297  1.00  0.00     0.049 A 
ATOM     54  H   UNL A   1      43.391  28.277  31.430  1.00  0.00     0.167 HD
ATOM     55  C   UNL A   1      45.064  26.090  30.770  1.00  0.00     0.074 A 
ATOM     56  C   UNL A   1      45.553  24.877  30.147  1.00  0.00     0.031 C 
ATOM     57  C   UNL A   1      45.769  26.826  31.663  1.00  0.00     0.031 A 
BRANCH  44  58
ATOM     58  C   UNL A   1      42.800  31.847  33.690  1.00  0.00    -0.014 A 
ATOM     59  C   UNL A   1      42.327  31.807  35.010  1.00  0.00     0.009 A 
ATOM     60  C   UNL A   1      43.319  33.050  33.187  1.00  0.00     0.009 A 
ATOM     61  C   UNL A   1      42.346  32.959  35.800  1.00  0.00     0.001 A 
ATOM     62  C   UNL A   1      43.357  34.193  33.987  1.00  0.00     0.001 A 
ATOM     63  C   UNL A   1      42.863  34.149  35.290  1.00  0.00     0.000 A 
ENDBRANCH  44  58
BRANCH  45  64
ATOM     64  C   UNL A   1      42.266  23.887  27.704  1.00  0.00    -0.014 A 
ATOM     65  C   UNL A   1      41.775  22.657  28.165  1.00  0.00     0.009 A 
ATOM     66  C   UNL A   1      42.698  23.993  26.374  1.00  0.00     0.009 A 
ATOM     67  C   UNL A   1      41.735  21.550  27.313  1.00  0.00     0.001 A 
ATOM     68  C   UNL A   1      42.634  22.892  25.518  1.00  0.00     0.001 A 
ATOM     69  C   UNL A   1      42.159  21.670  25.989  1.00  0.00     0.000 A 
ENDBRANCH  45  64
BRANCH  57  70
ATOM     70  C   UNL A   1      47.134  26.322  32.035  1.00  0.00    -0.014 A 
ATOM     71  C   UNL A   1      47.306  25.403  33.080  1.00  0.00     0.009 A 
ATOM     72  C   UNL A   1      48.256  26.748  31.307  1.00  0.00     0.009 A 
ATOM     73  C   UNL A   1      48.583  24.941  33.408  1.00  0.00     0.001 A 
ATOM     74  C   UNL A   1      49.527  26.268  31.623  1.00  0.00     0.001 A 
ATOM     75  C   UNL A   1      49.690  25.370  32.677  1.00  0.00     0.000 A 
ENDBRANCH  57  70
ENDBRANCH  31  32
ENDBRANCH  24  26
ENDBRANCH  23  24
ENDBRANCH  22  23
ENDBRANCH   1  22
TORSDOF 15
ENDMDL
MODEL 2
REMARK VINA RESULT:      -9.2      5.524     11.434
REMARK SMILES C=CCc1cccc(-c2ccc([C@@H](C)C(=O)OCCOC(=O)c3ccc(-c4c5nc(c(-c6ccccc6)c6ccc([nH]6)c(-c6ccccc6)c6nc(c(-c7ccccc7)c7ccc4[nH]7)C=C6)C=C5)cc3)cc2)c1
REMARK SMILES IDX 18 1 17 2 15 3 16 4 13 5 14 6 12 7 9 8 10 9 72 10 11 11
REMARK SMILES IDX 71 12 8 13 4 14 5 15 73 16 6 17 7 18 3 19 2 20 1 21 19 22
REMARK SMILES IDX 20 23 21 24 22 25 23 26 24 27 70 28 25 29 69 30 26 31 27 32
REMARK SMILES IDX 28 33 63 34 29 35 68 36 62 37 64 38 30 39 67 40 61 41 60 42
REMARK SMILES IDX 31 44 53 45 38 46 52 47 39 48 42 49 51 50 65 51 40 52 41 53
REMARK SMILES IDX 50 55 66 56 43 57 32 58 33 59 37 60 34 61 36 62 35 63 54 64
REMARK SMILES IDX 55 65 59 66 56 67 58 68 57 69 44 70 45 71 49 72 46 73 48 74
REMARK SMILES IDX 47 75
REMARK H PARENT 64 43 42 54
REMARK Flexibility Score: inf
ROOT
ATOM      1  C   UNL A   1      42.781  18.528  26.613  1.00  0.00     0.274 C 
ENDROOT
BRANCH   1   2
ATOM      2  O   UNL A   1      41.905  19.609  26.239  1.00  0.00    -0.462 OA
BRANCH   2   3
ATOM      3  C   UNL A   1      41.272  20.267  27.245  1.00  0.00     0.313 C 
ATOM      4  O   UNL A   1      40.784  19.720  28.230  1.00  0.00    -0.252 OA
BRANCH   3   5
ATOM      5  C   UNL A   1      41.171  21.771  27.023  1.00  0.00     0.126 C 
ATOM      6  C   UNL A   1      41.636  22.514  28.272  1.00  0.00     0.025 C 
BRANCH   5   7
ATOM      7  C   UNL A   1      39.830  22.271  26.505  1.00  0.00    -0.034 A 
ATOM      8  C   UNL A   1      37.317  23.159  25.517  1.00  0.00    -0.018 A 
ATOM      9  C   UNL A   1      38.131  23.999  26.288  1.00  0.00     0.009 A 
ATOM     10  C   UNL A   1      37.779  21.862  25.253  1.00  0.00     0.009 A 
ATOM     11  C   UNL A   1      39.370  23.566  26.773  1.00  0.00     0.005 A 
ATOM     12  C   UNL A   1      39.017  21.425  25.736  1.00  0.00     0.005 A 
BRANCH   8  13
ATOM     13  C   UNL A   1      36.026  23.630  24.989  1.00  0.00    -0.018 A 
ATOM     14  C   UNL A   1      33.970  24.947  25.233  1.00  0.00    -0.044 A 
ATOM     15  C   UNL A   1      33.549  24.510  23.971  1.00  0.00     0.004 A 
ATOM     16  C   UNL A   1      35.210  24.504  25.728  1.00  0.00     0.012 A 
ATOM     17  C   UNL A   1      34.347  23.648  23.222  1.00  0.00     0.001 A 
ATOM     18  C   UNL A   1      35.573  23.212  23.728  1.00  0.00     0.009 A 
BRANCH  14  19
ATOM     19  C   UNL A   1      33.116  25.896  26.042  1.00  0.00     0.062 C 
BRANCH  19  20
ATOM     20  C   UNL A   1      31.646  25.606  25.918  1.00  0.00    -0.030 C 
ATOM     21  C   UNL A   1      30.722  26.521  25.599  1.00  0.00     0.004 C 
ENDBRANCH  19  20
ENDBRANCH  14  19
ENDBRANCH   8  13
ENDBRANCH   5   7
ENDBRANCH   3   5
ENDBRANCH   2   3
ENDBRANCH   1   2
BRANCH   1  22
ATOM     22  C   UNL A   1      43.643  18.083  25.431  1.00  0.00     0.275 C 
BRANCH  22  23
ATOM     23  O   UNL A   1      44.783  18.947  25.274  1.00  0.00    -0.458 OA
BRANCH  23  24
ATOM     24  C   UNL A   1      44.719  19.806  24.231  1.00  0.00     0.338 C 
ATOM     25  O   UNL A   1      44.599  19.541  23.050  1.00  0.00    -0.246 OA
BRANCH  24  26
ATOM     26  C   UNL A   1      44.715  21.183  24.743  1.00  0.00     0.060 A 
ATOM     27  C   UNL A   1      44.522  22.226  23.836  1.00  0.00     0.016 A 
ATOM     28  C   UNL A   1      44.984  21.445  26.087  1.00  0.00     0.016 A 
ATOM     29  C   UNL A   1      44.610  23.547  24.264  1.00  0.00     0.010 A 
ATOM     30  C   UNL A   1      45.064  22.771  26.518  1.00  0.00     0.010 A 
ATOM     31  C   UNL A   1      44.891  23.829  25.607  1.00  0.00    -0.014 A 
BRANCH  31  32
ATOM     32  C   UNL A   1      45.053  25.234  26.045  1.00  0.00     0.031 A 
ATOM     33  C   UNL A   1      46.406  25.881  25.998  1.00  0.00     0.074 A 
ATOM     34  C   UNL A   1      43.983  25.931  26.469  1.00  0.00     0.049 A 
ATOM     35  N   UNL A   1      46.767  27.071  26.406  1.00  0.00    -0.248 NA
ATOM     36  C   UNL A   1      47.498  25.084  25.416  1.00  0.00     0.031 C 
ATOM     37  C   UNL A   1      42.610  25.429  26.516  1.00  0.00     0.029 A 
ATOM     38  N   UNL A   1      43.889  27.214  26.943  1.00  0.00    -0.354 N 
ATOM     39  C   UNL A   1      48.128  27.161  26.147  1.00  0.00     0.074 A 
ATOM     40  C   UNL A   1      48.532  25.900  25.562  1.00  0.00     0.031 C 
ATOM     41  C   UNL A   1      41.808  26.397  26.990  1.00  0.00     0.029 A 
ATOM     42  C   UNL A   1      42.617  27.566  27.321  1.00  0.00     0.049 A 
ATOM     43  H   UNL A   1      44.659  27.825  27.006  1.00  0.00     0.167 HD
ATOM     44  C   UNL A   1      48.966  28.200  26.378  1.00  0.00     0.031 A 
ATOM     45  C   UNL A   1      42.160  28.695  27.893  1.00  0.00     0.031 A 
ATOM     46  C   UNL A   1      48.565  29.451  26.962  1.00  0.00     0.049 A 
ATOM     47  C   UNL A   1      43.121  29.809  28.199  1.00  0.00     0.074 A 
ATOM     48  C   UNL A   1      49.342  30.565  27.236  1.00  0.00     0.029 A 
ATOM     49  N   UNL A   1      47.275  29.755  27.366  1.00  0.00    -0.354 N 
ATOM     50  N   UNL A   1      44.408  29.877  27.960  1.00  0.00    -0.248 NA
ATOM     51  C   UNL A   1      42.565  31.000  28.856  1.00  0.00     0.031 C 
ATOM     52  C   UNL A   1      48.527  31.528  27.840  1.00  0.00     0.029 A 
ATOM     53  C   UNL A   1      47.235  31.031  27.902  1.00  0.00     0.049 A 
ATOM     54  H   UNL A   1      46.500  29.153  27.282  1.00  0.00     0.167 HD
ATOM     55  C   UNL A   1      44.813  31.122  28.422  1.00  0.00     0.074 A 
ATOM     56  C   UNL A   1      43.633  31.782  28.940  1.00  0.00     0.031 C 
ATOM     57  C   UNL A   1      46.053  31.669  28.418  1.00  0.00     0.031 A 
BRANCH  44  58
ATOM     58  C   UNL A   1      50.412  28.006  26.027  1.00  0.00    -0.014 A 
ATOM     59  C   UNL A   1      50.900  28.317  24.749  1.00  0.00     0.009 A 
ATOM     60  C   UNL A   1      51.305  27.527  26.999  1.00  0.00     0.009 A 
ATOM     61  C   UNL A   1      52.248  28.123  24.442  1.00  0.00     0.001 A 
ATOM     62  C   UNL A   1      52.656  27.355  26.696  1.00  0.00     0.001 A 
ATOM     63  C   UNL A   1      53.126  27.646  25.416  1.00  0.00     0.000 A 
ENDBRANCH  44  58
BRANCH  45  64
ATOM     64  C   UNL A   1      40.723  28.814  28.247  1.00  0.00    -0.014 A 
ATOM     65  C   UNL A   1      39.800  29.322  27.322  1.00  0.00     0.009 A 
ATOM     66  C   UNL A   1      40.270  28.421  29.516  1.00  0.00     0.009 A 
ATOM     67  C   UNL A   1      38.452  29.448  27.667  1.00  0.00     0.001 A 
ATOM     68  C   UNL A   1      38.918  28.525  29.849  1.00  0.00     0.001 A 
ATOM     69  C   UNL A   1      38.011  29.045  28.927  1.00  0.00     0.000 A 
ENDBRANCH  45  64
BRANCH  57  70
ATOM     70  C   UNL A   1      46.187  33.059  28.969  1.00  0.00    -0.014 A 
ATOM     71  C   UNL A   1      46.011  34.182  28.149  1.00  0.00     0.009 A 
ATOM     72  C   UNL A   1      46.457  33.243  30.334  1.00  0.00     0.009 A 
ATOM     73  C   UNL A   1      46.133  35.468  28.681  1.00  0.00     0.001 A 
ATOM     74  C   UNL A   1      46.557  34.529  30.867  1.00  0.00     0.001 A 
ATOM     75  C   UNL A   1      46.402  35.639  30.038  1.00  0.00     0.000 A 
ENDBRANCH  57  70
ENDBRANCH  31  32
ENDBRANCH  24  26
ENDBRANCH  23  24
ENDBRANCH  22  23
ENDBRANCH   1  22
TORSDOF 15
ENDMDL
MODEL 3
REMARK VINA RESULT:      -9.1      4.388     10.695
REMARK SMILES C=CCc1cccc(-c2ccc([C@@H](C)C(=O)OCCOC(=O)c3ccc(-c4c5nc(c(-c6ccccc6)c6ccc([nH]6)c(-c6ccccc6)c6nc(c(-c7ccccc7)c7ccc4[nH]7)C=C6)C=C5)cc3)cc2)c1
REMARK SMILES IDX 18 1 17 2 15 3 16 4 13 5 14 6 12 7 9 8 10 9 72 10 11 11
REMARK SMILES IDX 71 12 8 13 4 14 5 15 73 16 6 17 7 18 3 19 2 20 1 21 19 22
REMARK SMILES IDX 20 23 21 24 22 25 23 26 24 27 70 28 25 29 69 30 26 31 27 32
REMARK SMILES IDX 28 33 63 34 29 35 68 36 62 37 64 38 30 39 67 40 61 41 60 42
REMARK SMILES IDX 31 44 53 45 38 46 52 47 39 48 42 49 51 50 65 51 40 52 41 53
REMARK SMILES IDX 50 55 66 56 43 57 32 58 33 59 37 60 34 61 36 62 35 63 54 64
REMARK SMILES IDX 55 65 59 66 56 67 58 68 57 69 44 70 45 71 49 72 46 73 48 74
REMARK SMILES IDX 47 75
REMARK H PARENT 64 43 42 54
REMARK Flexibility Score: inf
ROOT
ATOM      1  C   UNL A   1      43.141  17.940  25.780  1.00  0.00     0.274 C 
ENDROOT
BRANCH   1   2
ATOM      2  O   UNL A   1      44.531  17.994  26.155  1.00  0.00    -0.462 OA
BRANCH   2   3
ATOM      3  C   UNL A   1      45.392  18.540  25.257  1.00  0.00     0.313 C 
ATOM      4  O   UNL A   1      46.597  18.310  25.226  1.00  0.00    -0.252 OA
BRANCH   3   5
ATOM      5  C   UNL A   1      44.732  19.525  24.299  1.00  0.00     0.126 C 
ATOM      6  C   UNL A   1      44.999  19.105  22.856  1.00  0.00     0.025 C 
BRANCH   5   7
ATOM      7  C   UNL A   1      45.037  20.994  24.551  1.00  0.00    -0.034 A 
ATOM      8  C   UNL A   1      45.629  23.726  25.067  1.00  0.00    -0.018 A 
ATOM      9  C   UNL A   1      45.022  23.330  23.868  1.00  0.00     0.009 A 
ATOM     10  C   UNL A   1      45.942  22.731  26.003  1.00  0.00     0.009 A 
ATOM     11  C   UNL A   1      44.727  21.986  23.613  1.00  0.00     0.005 A 
ATOM     12  C   UNL A   1      45.649  21.386  25.752  1.00  0.00     0.005 A 
BRANCH   8  13
ATOM     13  C   UNL A   1      45.914  25.145  25.340  1.00  0.00    -0.018 A 
ATOM     14  C   UNL A   1      45.146  27.449  25.687  1.00  0.00    -0.044 A 
ATOM     15  C   UNL A   1      46.476  27.860  25.847  1.00  0.00     0.004 A 
ATOM     16  C   UNL A   1      44.879  26.091  25.439  1.00  0.00     0.012 A 
ATOM     17  C   UNL A   1      47.514  26.935  25.757  1.00  0.00     0.001 A 
ATOM     18  C   UNL A   1      47.234  25.592  25.506  1.00  0.00     0.009 A 
BRANCH  14  19
ATOM     19  C   UNL A   1      44.016  28.446  25.800  1.00  0.00     0.062 C 
BRANCH  19  20
ATOM     20  C   UNL A   1      42.677  27.847  25.472  1.00  0.00    -0.030 C 
ATOM     21  C   UNL A   1      41.539  28.548  25.384  1.00  0.00     0.004 C 
ENDBRANCH  19  20
ENDBRANCH  14  19
ENDBRANCH   8  13
ENDBRANCH   5   7
ENDBRANCH   3   5
ENDBRANCH   2   3
ENDBRANCH   1   2
BRANCH   1  22
ATOM     22  C   UNL A   1      42.236  18.250  26.974  1.00  0.00     0.275 C 
BRANCH  22  23
ATOM     23  O   UNL A   1      42.378  19.622  27.383  1.00  0.00    -0.458 OA
BRANCH  23  24
ATOM     24  C   UNL A   1      41.569  20.501  26.749  1.00  0.00     0.338 C 
ATOM     25  O   UNL A   1      40.632  20.258  26.012  1.00  0.00    -0.246 OA
BRANCH  24  26
ATOM     26  C   UNL A   1      41.925  21.865  27.161  1.00  0.00     0.060 A 
ATOM     27  C   UNL A   1      42.075  22.127  28.525  1.00  0.00     0.016 A 
ATOM     28  C   UNL A   1      42.025  22.891  26.222  1.00  0.00     0.016 A 
ATOM     29  C   UNL A   1      42.314  23.425  28.962  1.00  0.00     0.010 A 
ATOM     30  C   UNL A   1      42.274  24.194  26.660  1.00  0.00     0.010 A 
ATOM     31  C   UNL A   1      42.406  24.470  28.033  1.00  0.00    -0.014 A 
BRANCH  31  32
ATOM     32  C   UNL A   1      42.591  25.861  28.507  1.00  0.00     0.031 A 
ATOM     33  C   UNL A   1      43.959  26.344  28.890  1.00  0.00     0.074 A 
ATOM     34  C   UNL A   1      41.535  26.691  28.577  1.00  0.00     0.049 A 
ATOM     35  N   UNL A   1      44.316  27.497  29.396  1.00  0.00    -0.248 NA
ATOM     36  C   UNL A   1      45.073  25.406  28.677  1.00  0.00     0.031 C 
ATOM     37  C   UNL A   1      40.166  26.355  28.187  1.00  0.00     0.029 A 
ATOM     38  N   UNL A   1      41.454  27.992  29.003  1.00  0.00    -0.354 N 
ATOM     39  C   UNL A   1      45.690  27.419  29.579  1.00  0.00     0.074 A 
ATOM     40  C   UNL A   1      46.101  26.100  29.144  1.00  0.00     0.031 C 
ATOM     41  C   UNL A   1      39.380  27.425  28.390  1.00  0.00     0.029 A 
ATOM     42  C   UNL A   1      40.181  28.502  28.963  1.00  0.00     0.049 A 
ATOM     43  H   UNL A   1      42.234  28.511  29.307  1.00  0.00     0.167 HD
ATOM     44  C   UNL A   1      46.534  28.361  30.065  1.00  0.00     0.031 A 
ATOM     45  C   UNL A   1      39.707  29.695  29.369  1.00  0.00     0.031 A 
ATOM     46  C   UNL A   1      46.125  29.669  30.500  1.00  0.00     0.049 A 
ATOM     47  C   UNL A   1      40.652  30.700  29.965  1.00  0.00     0.074 A 
ATOM     48  C   UNL A   1      46.906  30.693  31.009  1.00  0.00     0.029 A 
ATOM     49  N   UNL A   1      44.820  30.135  30.479  1.00  0.00    -0.354 N 
ATOM     50  N   UNL A   1      41.948  30.609  30.143  1.00  0.00    -0.248 NA
ATOM     51  C   UNL A   1      40.068  31.969  30.420  1.00  0.00     0.031 C 
ATOM     52  C   UNL A   1      46.066  31.765  31.331  1.00  0.00     0.029 A 
ATOM     53  C   UNL A   1      44.770  31.424  30.981  1.00  0.00     0.049 A 
ATOM     54  H   UNL A   1      44.044  29.624  30.154  1.00  0.00     0.167 HD
ATOM     55  C   UNL A   1      42.336  31.813  30.715  1.00  0.00     0.074 A 
ATOM     56  C   UNL A   1      41.143  32.624  30.839  1.00  0.00     0.031 C 
ATOM     57  C   UNL A   1      43.572  32.212  31.103  1.00  0.00     0.031 A 
BRANCH  44  58
ATOM     58  C   UNL A   1      47.982  27.987  30.185  1.00  0.00    -0.014 A 
ATOM     59  C   UNL A   1      48.487  27.394  31.353  1.00  0.00     0.009 A 
ATOM     60  C   UNL A   1      48.849  28.210  29.104  1.00  0.00     0.009 A 
ATOM     61  C   UNL A   1      49.840  27.060  31.445  1.00  0.00     0.001 A 
ATOM     62  C   UNL A   1      50.196  27.854  29.192  1.00  0.00     0.001 A 
ATOM     63  C   UNL A   1      50.692  27.286  30.364  1.00  0.00     0.000 A 
ENDBRANCH  44  58
BRANCH  45  64
ATOM     64  C   UNL A   1      38.257  29.993  29.254  1.00  0.00    -0.014 A 
ATOM     65  C   UNL A   1      37.400  29.798  30.346  1.00  0.00     0.009 A 
ATOM     66  C   UNL A   1      37.725  30.476  28.049  1.00  0.00     0.009 A 
ATOM     67  C   UNL A   1      36.034  30.065  30.227  1.00  0.00     0.001 A 
ATOM     68  C   UNL A   1      36.364  30.764  27.939  1.00  0.00     0.001 A 
ATOM     69  C   UNL A   1      35.518  30.552  29.026  1.00  0.00     0.000 A 
ENDBRANCH  45  64
BRANCH  57  70
ATOM     70  C   UNL A   1      43.694  33.594  31.675  1.00  0.00    -0.014 A 
ATOM     71  C   UNL A   1      43.886  34.707  30.843  1.00  0.00     0.009 A 
ATOM     72  C   UNL A   1      43.581  33.788  33.060  1.00  0.00     0.009 A 
ATOM     73  C   UNL A   1      43.992  35.987  31.392  1.00  0.00     0.001 A 
ATOM     74  C   UNL A   1      43.664  35.070  33.604  1.00  0.00     0.001 A 
ATOM     75  C   UNL A   1      43.877  36.167  32.770  1.00  0.00     0.000 A 
ENDBRANCH  57  70
ENDBRANCH  31  32
ENDBRANCH  24  26
ENDBRANCH  23  24
ENDBRANCH  22  23
ENDBRANCH   1  22
TORSDOF 15
ENDMDL
