MODEL 1
REMARK VINA RESULT:     -10.6      0.000      0.000
REMARK SMILES [NH3+]C1CC[NH+](CC(=O)Nc2cc(Cl)ccc2C(=O)OCCOC(=O)c2ccc(-c3c4nc(c(-c5ccccc5)c5ccc([nH]5)c(-c5ccccc5)c5nc(c(-c6ccccc6)c6ccc3[nH]6)C=C5)C=C4)cc2)CC1
REMARK SMILES IDX 20 1 19 2 17 3 18 4 16 5 10 6 11 7 12 8 15 9 13 10 14 11
REMARK SMILES IDX 9 12 7 13 8 14 6 16 5 17 2 18 3 19 74 20 4 21 73 22 1 24
REMARK SMILES IDX 21 28 22 29 23 30 24 31 25 32 26 33 72 34 27 35 71 36 28 37
REMARK SMILES IDX 29 38 30 39 65 40 31 41 70 42 64 43 66 44 32 45 69 46 63 47
REMARK SMILES IDX 62 48 33 50 55 51 40 52 54 53 41 54 44 55 53 56 67 57 42 58
REMARK SMILES IDX 43 59 52 61 68 62 45 63 34 64 35 65 39 66 36 67 38 68 37 69
REMARK SMILES IDX 56 70 57 71 61 72 58 73 60 74 59 75 46 76 47 77 51 78 48 79
REMARK SMILES IDX 50 80 49 81
REMARK H PARENT 9 15 5 23 1 25 1 26 1 27 66 49 44 60
REMARK Flexibility Score: inf
ROOT
ATOM      1  C   UNL A   1      42.056  18.754  26.417  1.00  0.00     0.275 C 
ENDROOT
BRANCH   1   2
ATOM      2  O   UNL A   1      41.389  19.787  25.665  1.00  0.00    -0.458 OA
BRANCH   2   3
ATOM      3  C   UNL A   1      40.035  19.845  25.750  1.00  0.00     0.340 C 
ATOM      4  O   UNL A   1      39.271  18.910  25.665  1.00  0.00    -0.246 OA
BRANCH   3   5
ATOM      5  C   UNL A   1      39.606  21.224  26.153  1.00  0.00     0.083 A 
ATOM      6  C   UNL A   1      38.385  21.835  25.771  1.00  0.00     0.057 A 
ATOM      7  C   UNL A   1      38.204  23.182  26.090  1.00  0.00     0.047 A 
ATOM      8  C   UNL A   1      39.138  23.870  26.878  1.00  0.00     0.043 A 
ATOM      9  C   UNL A   1      40.517  21.920  26.976  1.00  0.00     0.019 A 
ATOM     10  Cl  UNL A   1      38.837  25.505  27.328  1.00  0.00    -0.084 Cl
ATOM     11  C   UNL A   1      40.283  23.239  27.341  1.00  0.00     0.021 A 
BRANCH   6  12
ATOM     12  N   UNL A   1      37.398  21.031  25.157  1.00  0.00    -0.320 N 
ATOM     13  C   UNL A   1      36.059  20.816  25.297  1.00  0.00     0.279 C 
ATOM     14  O   UNL A   1      35.599  19.878  24.627  1.00  0.00    -0.268 OA
ATOM     15  H   UNL A   1      37.779  20.480  24.436  1.00  0.00     0.170 HD
BRANCH  13  16
ATOM     16  C   UNL A   1      35.132  21.606  26.209  1.00  0.00     0.363 C 
BRANCH  16  17
ATOM     17  N   UNL A   1      34.268  22.615  25.577  1.00  0.00    -0.327 N 
ATOM     18  C   UNL A   1      33.081  22.574  22.850  1.00  0.00     0.192 C 
ATOM     19  C   UNL A   1      34.527  23.035  23.084  1.00  0.00     0.126 C 
ATOM     20  C   UNL A   1      32.641  21.642  23.976  1.00  0.00     0.126 C 
ATOM     21  C   UNL A   1      34.845  23.450  24.527  1.00  0.00     0.268 C 
ATOM     22  C   UNL A   1      32.879  22.276  25.343  1.00  0.00     0.268 C 
ATOM     23  H   UNL A   1      34.228  23.237  26.384  1.00  0.00     0.348 HD
BRANCH  18  24
ATOM     24  N   UNL A   1      32.145  23.696  22.711  1.00  0.00    -0.355 N 
ATOM     25  H   UNL A   1      32.660  24.575  22.757  1.00  0.00     0.344 HD
ATOM     26  H   UNL A   1      31.460  23.662  23.465  1.00  0.00     0.344 HD
ATOM     27  H   UNL A   1      31.666  23.628  21.813  1.00  0.00     0.344 HD
ENDBRANCH  18  24
ENDBRANCH  16  17
ENDBRANCH  13  16
ENDBRANCH   6  12
ENDBRANCH   3   5
ENDBRANCH   2   3
ENDBRANCH   1   2
BRANCH   1  28
ATOM     28  C   UNL A   1      43.396  18.436  25.752  1.00  0.00     0.275 C 
BRANCH  28  29
ATOM     29  O   UNL A   1      43.586  19.309  24.621  1.00  0.00    -0.458 OA
BRANCH  29  30
ATOM     30  C   UNL A   1      44.872  19.528  24.263  1.00  0.00     0.338 C 
ATOM     31  O   UNL A   1      45.651  18.746  23.746  1.00  0.00    -0.246 OA
BRANCH  30  32
ATOM     32  C   UNL A   1      45.210  20.938  24.499  1.00  0.00     0.060 A 
ATOM     33  C   UNL A   1      45.687  21.306  25.753  1.00  0.00     0.016 A 
ATOM     34  C   UNL A   1      44.903  21.911  23.554  1.00  0.00     0.016 A 
ATOM     35  C   UNL A   1      45.748  22.648  26.117  1.00  0.00     0.010 A 
ATOM     36  C   UNL A   1      45.088  23.260  23.879  1.00  0.00     0.010 A 
ATOM     37  C   UNL A   1      45.473  23.649  25.179  1.00  0.00    -0.014 A 
BRANCH  37  38
ATOM     38  C   UNL A   1      45.540  25.096  25.542  1.00  0.00     0.031 A 
ATOM     39  C   UNL A   1      46.855  25.827  25.438  1.00  0.00     0.074 A 
ATOM     40  C   UNL A   1      44.453  25.765  25.978  1.00  0.00     0.049 A 
ATOM     41  N   UNL A   1      47.228  26.947  26.001  1.00  0.00    -0.248 NA
ATOM     42  C   UNL A   1      47.895  25.199  24.604  1.00  0.00     0.031 C 
ATOM     43  C   UNL A   1      43.088  25.238  26.050  1.00  0.00     0.029 A 
ATOM     44  N   UNL A   1      44.332  27.048  26.462  1.00  0.00    -0.354 N 
ATOM     45  C   UNL A   1      48.564  27.118  25.654  1.00  0.00     0.074 A 
ATOM     46  C   UNL A   1      48.934  25.992  24.824  1.00  0.00     0.031 C 
ATOM     47  C   UNL A   1      42.269  26.190  26.523  1.00  0.00     0.029 A 
ATOM     48  C   UNL A   1      43.064  27.348  26.905  1.00  0.00     0.049 A 
ATOM     49  H   UNL A   1      45.079  27.688  26.489  1.00  0.00     0.167 HD
ATOM     50  C   UNL A   1      49.406  28.118  26.007  1.00  0.00     0.031 A 
ATOM     51  C   UNL A   1      42.601  28.399  27.610  1.00  0.00     0.031 A 
ATOM     52  C   UNL A   1      49.015  29.260  26.791  1.00  0.00     0.049 A 
ATOM     53  C   UNL A   1      43.565  29.465  28.050  1.00  0.00     0.074 A 
ATOM     54  C   UNL A   1      49.794  30.317  27.227  1.00  0.00     0.029 A 
ATOM     55  N   UNL A   1      47.724  29.507  27.227  1.00  0.00    -0.354 N 
ATOM     56  N   UNL A   1      44.851  29.563  27.815  1.00  0.00    -0.248 NA
ATOM     57  C   UNL A   1      43.017  30.554  28.870  1.00  0.00     0.031 C 
ATOM     58  C   UNL A   1      48.978  31.190  27.954  1.00  0.00     0.029 A 
ATOM     59  C   UNL A   1      47.683  30.702  27.923  1.00  0.00     0.049 A 
ATOM     60  H   UNL A   1      46.950  28.920  27.066  1.00  0.00     0.167 HD
ATOM     61  C   UNL A   1      45.258  30.738  28.432  1.00  0.00     0.074 A 
ATOM     62  C   UNL A   1      44.082  31.323  29.042  1.00  0.00     0.031 C 
ATOM     63  C   UNL A   1      46.496  31.283  28.492  1.00  0.00     0.031 A 
BRANCH  50  64
ATOM     64  C   UNL A   1      50.846  28.009  25.586  1.00  0.00    -0.014 A 
ATOM     65  C   UNL A   1      51.813  27.428  26.418  1.00  0.00     0.009 A 
ATOM     66  C   UNL A   1      51.224  28.444  24.305  1.00  0.00     0.009 A 
ATOM     67  C   UNL A   1      53.138  27.311  25.985  1.00  0.00     0.001 A 
ATOM     68  C   UNL A   1      52.541  28.300  23.865  1.00  0.00     0.001 A 
ATOM     69  C   UNL A   1      53.498  27.740  24.709  1.00  0.00     0.000 A 
ENDBRANCH  50  64
BRANCH  51  70
ATOM     70  C   UNL A   1      41.173  28.452  28.028  1.00  0.00    -0.014 A 
ATOM     71  C   UNL A   1      40.201  29.024  27.193  1.00  0.00     0.009 A 
ATOM     72  C   UNL A   1      40.779  27.954  29.280  1.00  0.00     0.009 A 
ATOM     73  C   UNL A   1      38.873  29.121  27.616  1.00  0.00     0.001 A 
ATOM     74  C   UNL A   1      39.444  28.017  29.684  1.00  0.00     0.001 A 
ATOM     75  C   UNL A   1      38.495  28.611  28.857  1.00  0.00     0.000 A 
ENDBRANCH  51  70
BRANCH  63  76
ATOM     76  C   UNL A   1      46.630  32.616  29.168  1.00  0.00    -0.014 A 
ATOM     77  C   UNL A   1      46.453  33.815  28.465  1.00  0.00     0.009 A 
ATOM     78  C   UNL A   1      46.885  32.661  30.548  1.00  0.00     0.009 A 
ATOM     79  C   UNL A   1      46.554  35.040  29.129  1.00  0.00     0.001 A 
ATOM     80  C   UNL A   1      46.959  33.884  31.214  1.00  0.00     0.001 A 
ATOM     81  C   UNL A   1      46.800  35.073  30.503  1.00  0.00     0.000 A 
ENDBRANCH  63  76
ENDBRANCH  37  38
ENDBRANCH  30  32
ENDBRANCH  29  30
ENDBRANCH  28  29
ENDBRANCH   1  28
TORSDOF 15
ENDMDL
MODEL 2
REMARK VINA RESULT:     -10.6      8.103     13.145
REMARK SMILES [NH3+]C1CC[NH+](CC(=O)Nc2cc(Cl)ccc2C(=O)OCCOC(=O)c2ccc(-c3c4nc(c(-c5ccccc5)c5ccc([nH]5)c(-c5ccccc5)c5nc(c(-c6ccccc6)c6ccc3[nH]6)C=C5)C=C4)cc2)CC1
REMARK SMILES IDX 20 1 19 2 17 3 18 4 16 5 10 6 11 7 12 8 15 9 13 10 14 11
REMARK SMILES IDX 9 12 7 13 8 14 6 16 5 17 2 18 3 19 74 20 4 21 73 22 1 24
REMARK SMILES IDX 21 28 22 29 23 30 24 31 25 32 26 33 72 34 27 35 71 36 28 37
REMARK SMILES IDX 29 38 30 39 65 40 31 41 70 42 64 43 66 44 32 45 69 46 63 47
REMARK SMILES IDX 62 48 33 50 55 51 40 52 54 53 41 54 44 55 53 56 67 57 42 58
REMARK SMILES IDX 43 59 52 61 68 62 45 63 34 64 35 65 39 66 36 67 38 68 37 69
REMARK SMILES IDX 56 70 57 71 61 72 58 73 60 74 59 75 46 76 47 77 51 78 48 79
REMARK SMILES IDX 50 80 49 81
REMARK H PARENT 9 15 5 23 1 25 1 26 1 27 66 49 44 60
REMARK Flexibility Score: inf
ROOT
ATOM      1  C   UNL A   1      33.291  36.015  28.753  1.00  0.00     0.275 C 
ENDROOT
BRANCH   1   2
ATOM      2  O   UNL A   1      33.568  34.640  29.088  1.00  0.00    -0.458 OA
BRANCH   2   3
ATOM      3  C   UNL A   1      33.157  33.689  28.209  1.00  0.00     0.340 C 
ATOM      4  O   UNL A   1      32.152  33.724  27.535  1.00  0.00    -0.246 OA
BRANCH   3   5
ATOM      5  C   UNL A   1      34.224  32.649  28.044  1.00  0.00     0.083 A 
ATOM      6  C   UNL A   1      34.000  31.329  27.578  1.00  0.00     0.057 A 
ATOM      7  C   UNL A   1      35.067  30.430  27.635  1.00  0.00     0.047 A 
ATOM      8  C   UNL A   1      36.350  30.853  28.013  1.00  0.00     0.043 A 
ATOM      9  C   UNL A   1      35.528  33.067  28.385  1.00  0.00     0.019 A 
ATOM     10  Cl  UNL A   1      37.660  29.737  27.984  1.00  0.00    -0.084 Cl
ATOM     11  C   UNL A   1      36.590  32.172  28.367  1.00  0.00     0.021 A 
BRANCH   6  12
ATOM     12  N   UNL A   1      32.740  31.021  27.019  1.00  0.00    -0.320 N 
ATOM     13  C   UNL A   1      32.269  30.338  25.937  1.00  0.00     0.279 C 
ATOM     14  O   UNL A   1      31.050  30.446  25.730  1.00  0.00    -0.268 OA
ATOM     15  H   UNL A   1      32.005  31.400  27.554  1.00  0.00     0.170 HD
BRANCH  13  16
ATOM     16  C   UNL A   1      33.116  29.504  24.987  1.00  0.00     0.363 C 
BRANCH  16  17
ATOM     17  N   UNL A   1      33.004  28.042  25.096  1.00  0.00    -0.327 N 
ATOM     18  C   UNL A   1      30.597  26.423  25.755  1.00  0.00     0.192 C 
ATOM     19  C   UNL A   1      31.446  27.077  26.856  1.00  0.00     0.126 C 
ATOM     20  C   UNL A   1      30.770  27.182  24.443  1.00  0.00     0.126 C 
ATOM     21  C   UNL A   1      32.869  27.462  26.429  1.00  0.00     0.268 C 
ATOM     22  C   UNL A   1      32.245  27.336  24.083  1.00  0.00     0.268 C 
ATOM     23  H   UNL A   1      33.973  27.845  24.845  1.00  0.00     0.348 HD
BRANCH  18  24
ATOM     24  N   UNL A   1      30.905  25.000  25.576  1.00  0.00    -0.355 N 
ATOM     25  H   UNL A   1      30.052  24.451  25.683  1.00  0.00     0.344 HD
ATOM     26  H   UNL A   1      31.587  24.709  26.276  1.00  0.00     0.344 HD
ATOM     27  H   UNL A   1      31.290  24.851  24.643  1.00  0.00     0.344 HD
ENDBRANCH  18  24
ENDBRANCH  16  17
ENDBRANCH  13  16
ENDBRANCH   6  12
ENDBRANCH   3   5
ENDBRANCH   2   3
ENDBRANCH   1   2
BRANCH   1  28
ATOM     28  C   UNL A   1      33.181  36.831  30.041  1.00  0.00     0.275 C 
BRANCH  28  29
ATOM     29  O   UNL A   1      32.318  36.144  30.970  1.00  0.00    -0.458 OA
BRANCH  29  30
ATOM     30  C   UNL A   1      32.706  36.185  32.265  1.00  0.00     0.338 C 
ATOM     31  O   UNL A   1      32.202  36.813  33.180  1.00  0.00    -0.246 OA
BRANCH  30  32
ATOM     32  C   UNL A   1      33.818  35.247  32.471  1.00  0.00     0.060 A 
ATOM     33  C   UNL A   1      33.524  33.944  32.859  1.00  0.00     0.016 A 
ATOM     34  C   UNL A   1      35.136  35.690  32.445  1.00  0.00     0.016 A 
ATOM     35  C   UNL A   1      34.529  33.110  33.340  1.00  0.00     0.010 A 
ATOM     36  C   UNL A   1      36.159  34.806  32.807  1.00  0.00     0.010 A 
ATOM     37  C   UNL A   1      35.868  33.517  33.299  1.00  0.00    -0.014 A 
BRANCH  37  38
ATOM     38  C   UNL A   1      36.965  32.638  33.801  1.00  0.00     0.031 A 
ATOM     39  C   UNL A   1      37.587  32.923  35.145  1.00  0.00     0.074 A 
ATOM     40  C   UNL A   1      37.428  31.601  33.073  1.00  0.00     0.049 A 
ATOM     41  N   UNL A   1      38.739  32.530  35.625  1.00  0.00    -0.248 NA
ATOM     42  C   UNL A   1      36.816  33.781  36.061  1.00  0.00     0.031 C 
ATOM     43  C   UNL A   1      36.879  31.129  31.799  1.00  0.00     0.029 A 
ATOM     44  N   UNL A   1      38.489  30.755  33.302  1.00  0.00    -0.354 N 
ATOM     45  C   UNL A   1      38.865  33.154  36.862  1.00  0.00     0.074 A 
ATOM     46  C   UNL A   1      37.669  33.944  37.063  1.00  0.00     0.031 C 
ATOM     47  C   UNL A   1      37.588  30.073  31.373  1.00  0.00     0.029 A 
ATOM     48  C   UNL A   1      38.713  29.868  32.275  1.00  0.00     0.049 A 
ATOM     49  H   UNL A   1      39.035  30.783  34.121  1.00  0.00     0.167 HD
ATOM     50  C   UNL A   1      39.892  33.083  37.742  1.00  0.00     0.031 A 
ATOM     51  C   UNL A   1      39.746  29.036  32.037  1.00  0.00     0.031 A 
ATOM     52  C   UNL A   1      41.055  32.255  37.557  1.00  0.00     0.049 A 
ATOM     53  C   UNL A   1      40.907  29.020  32.991  1.00  0.00     0.074 A 
ATOM     54  C   UNL A   1      42.164  32.128  38.373  1.00  0.00     0.029 A 
ATOM     55  N   UNL A   1      41.239  31.389  36.492  1.00  0.00    -0.354 N 
ATOM     56  N   UNL A   1      41.071  29.698  34.101  1.00  0.00    -0.248 NA
ATOM     57  C   UNL A   1      42.034  28.142  32.648  1.00  0.00     0.031 C 
ATOM     58  C   UNL A   1      43.036  31.205  37.786  1.00  0.00     0.029 A 
ATOM     59  C   UNL A   1      42.442  30.720  36.633  1.00  0.00     0.049 A 
ATOM     60  H   UNL A   1      40.608  31.267  35.745  1.00  0.00     0.167 HD
ATOM     61  C   UNL A   1      42.304  29.305  34.603  1.00  0.00     0.074 A 
ATOM     62  C   UNL A   1      42.841  28.323  33.684  1.00  0.00     0.031 C 
ATOM     63  C   UNL A   1      42.939  29.722  35.724  1.00  0.00     0.031 A 
BRANCH  50  64
ATOM     64  C   UNL A   1      39.829  33.950  38.969  1.00  0.00    -0.014 A 
ATOM     65  C   UNL A   1      39.319  33.473  40.184  1.00  0.00     0.009 A 
ATOM     66  C   UNL A   1      40.349  35.255  38.917  1.00  0.00     0.009 A 
ATOM     67  C   UNL A   1      39.304  34.294  41.315  1.00  0.00     0.001 A 
ATOM     68  C   UNL A   1      40.359  36.063  40.055  1.00  0.00     0.001 A 
ATOM     69  C   UNL A   1      39.830  35.583  41.252  1.00  0.00     0.000 A 
ENDBRANCH  50  64
BRANCH  51  70
ATOM     70  C   UNL A   1      39.778  28.214  30.795  1.00  0.00    -0.014 A 
ATOM     71  C   UNL A   1      40.582  28.587  29.708  1.00  0.00     0.009 A 
ATOM     72  C   UNL A   1      38.979  27.065  30.681  1.00  0.00     0.009 A 
ATOM     73  C   UNL A   1      40.564  27.843  28.525  1.00  0.00     0.001 A 
ATOM     74  C   UNL A   1      38.991  26.301  29.513  1.00  0.00     0.001 A 
ATOM     75  C   UNL A   1      39.774  26.697  28.432  1.00  0.00     0.000 A 
ENDBRANCH  51  70
BRANCH  63  76
ATOM     76  C   UNL A   1      44.242  29.060  36.065  1.00  0.00    -0.014 A 
ATOM     77  C   UNL A   1      44.287  27.829  36.734  1.00  0.00     0.009 A 
ATOM     78  C   UNL A   1      45.443  29.661  35.655  1.00  0.00     0.009 A 
ATOM     79  C   UNL A   1      45.514  27.223  37.010  1.00  0.00     0.001 A 
ATOM     80  C   UNL A   1      46.667  29.041  35.908  1.00  0.00     0.001 A 
ATOM     81  C   UNL A   1      46.702  27.826  36.591  1.00  0.00     0.000 A 
ENDBRANCH  63  76
ENDBRANCH  37  38
ENDBRANCH  30  32
ENDBRANCH  29  30
ENDBRANCH  28  29
ENDBRANCH   1  28
TORSDOF 15
ENDMDL
MODEL 3
REMARK VINA RESULT:     -10.3      5.501      9.687
REMARK SMILES [NH3+]C1CC[NH+](CC(=O)Nc2cc(Cl)ccc2C(=O)OCCOC(=O)c2ccc(-c3c4nc(c(-c5ccccc5)c5ccc([nH]5)c(-c5ccccc5)c5nc(c(-c6ccccc6)c6ccc3[nH]6)C=C5)C=C4)cc2)CC1
REMARK SMILES IDX 20 1 19 2 17 3 18 4 16 5 10 6 11 7 12 8 15 9 13 10 14 11
REMARK SMILES IDX 9 12 7 13 8 14 6 16 5 17 2 18 3 19 74 20 4 21 73 22 1 24
REMARK SMILES IDX 21 28 22 29 23 30 24 31 25 32 26 33 72 34 27 35 71 36 28 37
REMARK SMILES IDX 29 38 30 39 65 40 31 41 70 42 64 43 66 44 32 45 69 46 63 47
REMARK SMILES IDX 62 48 33 50 55 51 40 52 54 53 41 54 44 55 53 56 67 57 42 58
REMARK SMILES IDX 43 59 52 61 68 62 45 63 34 64 35 65 39 66 36 67 38 68 37 69
REMARK SMILES IDX 56 70 57 71 61 72 58 73 60 74 59 75 46 76 47 77 51 78 48 79
REMARK SMILES IDX 50 80 49 81
REMARK H PARENT 9 15 5 23 1 25 1 26 1 27 66 49 44 60
REMARK Flexibility Score: inf
ROOT
ATOM      1  C   UNL A   1      31.724  29.108  24.218  1.00  0.00     0.275 C 
ENDROOT
BRANCH   1   2
ATOM      2  O   UNL A   1      30.471  28.477  23.886  1.00  0.00    -0.458 OA
BRANCH   2   3
ATOM      3  C   UNL A   1      30.519  27.361  23.114  1.00  0.00     0.340 C 
ATOM      4  O   UNL A   1      30.665  27.327  21.912  1.00  0.00    -0.246 OA
BRANCH   3   5
ATOM      5  C   UNL A   1      30.552  26.139  23.982  1.00  0.00     0.083 A 
ATOM      6  C   UNL A   1      31.059  24.877  23.582  1.00  0.00     0.057 A 
ATOM      7  C   UNL A   1      30.869  23.796  24.445  1.00  0.00     0.047 A 
ATOM      8  C   UNL A   1      30.316  23.978  25.721  1.00  0.00     0.043 A 
ATOM      9  C   UNL A   1      30.032  26.311  25.282  1.00  0.00     0.019 A 
ATOM     10  Cl  UNL A   1      30.181  22.638  26.793  1.00  0.00    -0.084 Cl
ATOM     11  C   UNL A   1      29.916  25.235  26.152  1.00  0.00     0.021 A 
BRANCH   6  12
ATOM     12  N   UNL A   1      31.787  24.801  22.373  1.00  0.00    -0.320 N 
ATOM     13  C   UNL A   1      33.095  24.703  22.002  1.00  0.00     0.279 C 
ATOM     14  O   UNL A   1      33.313  24.821  20.785  1.00  0.00    -0.268 OA
ATOM     15  H   UNL A   1      31.191  24.824  21.590  1.00  0.00     0.170 HD
BRANCH  13  16
ATOM     16  C   UNL A   1      34.266  24.493  22.951  1.00  0.00     0.363 C 
BRANCH  16  17
ATOM     17  N   UNL A   1      34.779  23.122  23.092  1.00  0.00    -0.327 N 
ATOM     18  C   UNL A   1      35.694  21.743  25.563  1.00  0.00     0.192 C 
ATOM     19  C   UNL A   1      36.622  22.691  24.787  1.00  0.00     0.126 C 
ATOM     20  C   UNL A   1      34.236  22.097  25.285  1.00  0.00     0.126 C 
ATOM     21  C   UNL A   1      36.209  22.947  23.332  1.00  0.00     0.268 C 
ATOM     22  C   UNL A   1      33.957  22.152  23.786  1.00  0.00     0.268 C 
ATOM     23  H   UNL A   1      34.667  22.869  22.111  1.00  0.00     0.348 HD
BRANCH  18  24
ATOM     24  N   UNL A   1      35.952  20.330  25.264  1.00  0.00    -0.355 N 
ATOM     25  H   UNL A   1      35.736  20.145  24.284  1.00  0.00     0.344 HD
ATOM     26  H   UNL A   1      35.365  19.745  25.858  1.00  0.00     0.344 HD
ATOM     27  H   UNL A   1      36.934  20.119  25.442  1.00  0.00     0.344 HD
ENDBRANCH  18  24
ENDBRANCH  16  17
ENDBRANCH  13  16
ENDBRANCH   6  12
ENDBRANCH   3   5
ENDBRANCH   2   3
ENDBRANCH   1   2
BRANCH   1  28
ATOM     28  C   UNL A   1      31.503  30.080  25.377  1.00  0.00     0.275 C 
BRANCH  28  29
ATOM     29  O   UNL A   1      32.556  29.915  26.348  1.00  0.00    -0.458 OA
BRANCH  29  30
ATOM     30  C   UNL A   1      32.967  31.048  26.960  1.00  0.00     0.338 C 
ATOM     31  O   UNL A   1      32.322  32.059  27.180  1.00  0.00    -0.246 OA
BRANCH  30  32
ATOM     32  C   UNL A   1      34.341  30.868  27.446  1.00  0.00     0.060 A 
ATOM     33  C   UNL A   1      34.785  29.579  27.723  1.00  0.00     0.016 A 
ATOM     34  C   UNL A   1      35.126  31.966  27.784  1.00  0.00     0.016 A 
ATOM     35  C   UNL A   1      35.957  29.377  28.445  1.00  0.00     0.010 A 
ATOM     36  C   UNL A   1      36.366  31.754  28.398  1.00  0.00     0.010 A 
ATOM     37  C   UNL A   1      36.781  30.460  28.774  1.00  0.00    -0.014 A 
BRANCH  37  38
ATOM     38  C   UNL A   1      38.047  30.269  29.542  1.00  0.00     0.031 A 
ATOM     39  C   UNL A   1      39.177  29.483  28.926  1.00  0.00     0.074 A 
ATOM     40  C   UNL A   1      38.202  30.771  30.785  1.00  0.00     0.049 A 
ATOM     41  N   UNL A   1      40.201  28.910  29.504  1.00  0.00    -0.248 NA
ATOM     42  C   UNL A   1      39.134  29.300  27.465  1.00  0.00     0.031 C 
ATOM     43  C   UNL A   1      37.250  31.632  31.491  1.00  0.00     0.029 A 
ATOM     44  N   UNL A   1      39.228  30.612  31.688  1.00  0.00    -0.354 N 
ATOM     45  C   UNL A   1      40.879  28.237  28.494  1.00  0.00     0.074 A 
ATOM     46  C   UNL A   1      40.156  28.480  27.264  1.00  0.00     0.031 C 
ATOM     47  C   UNL A   1      37.743  31.942  32.700  1.00  0.00     0.029 A 
ATOM     48  C   UNL A   1      38.983  31.207  32.904  1.00  0.00     0.049 A 
ATOM     49  H   UNL A   1      40.057  30.122  31.483  1.00  0.00     0.167 HD
ATOM     50  C   UNL A   1      41.996  27.477  28.587  1.00  0.00     0.031 A 
ATOM     51  C   UNL A   1      39.635  31.111  34.080  1.00  0.00     0.031 A 
ATOM     52  C   UNL A   1      42.736  27.283  29.806  1.00  0.00     0.049 A 
ATOM     53  C   UNL A   1      40.832  30.210  34.181  1.00  0.00     0.074 A 
ATOM     54  C   UNL A   1      43.866  26.512  30.018  1.00  0.00     0.029 A 
ATOM     55  N   UNL A   1      42.436  27.894  31.013  1.00  0.00    -0.354 N 
ATOM     56  N   UNL A   1      41.402  29.487  33.247  1.00  0.00    -0.248 NA
ATOM     57  C   UNL A   1      41.465  30.095  35.503  1.00  0.00     0.031 C 
ATOM     58  C   UNL A   1      44.232  26.633  31.362  1.00  0.00     0.029 A 
ATOM     59  C   UNL A   1      43.361  27.521  31.971  1.00  0.00     0.049 A 
ATOM     60  H   UNL A   1      41.677  28.502  31.165  1.00  0.00     0.167 HD
ATOM     61  C   UNL A   1      42.475  28.856  33.862  1.00  0.00     0.074 A 
ATOM     62  C   UNL A   1      42.485  29.289  35.244  1.00  0.00     0.031 C 
ATOM     63  C   UNL A   1      43.372  27.991  33.331  1.00  0.00     0.031 A 
BRANCH  50  64
ATOM     64  C   UNL A   1      42.467  26.762  27.351  1.00  0.00    -0.014 A 
ATOM     65  C   UNL A   1      43.473  27.293  26.532  1.00  0.00     0.009 A 
ATOM     66  C   UNL A   1      41.931  25.502  27.038  1.00  0.00     0.009 A 
ATOM     67  C   UNL A   1      43.913  26.589  25.407  1.00  0.00     0.001 A 
ATOM     68  C   UNL A   1      42.392  24.788  25.930  1.00  0.00     0.001 A 
ATOM     69  C   UNL A   1      43.378  25.336  25.112  1.00  0.00     0.000 A 
ENDBRANCH  50  64
BRANCH  51  70
ATOM     70  C   UNL A   1      39.115  31.816  35.285  1.00  0.00    -0.014 A 
ATOM     71  C   UNL A   1      38.263  31.163  36.187  1.00  0.00     0.009 A 
ATOM     72  C   UNL A   1      39.450  33.159  35.523  1.00  0.00     0.009 A 
ATOM     73  C   UNL A   1      37.735  31.848  37.285  1.00  0.00     0.001 A 
ATOM     74  C   UNL A   1      38.952  33.830  36.642  1.00  0.00     0.001 A 
ATOM     75  C   UNL A   1      38.085  33.178  37.515  1.00  0.00     0.000 A 
ENDBRANCH  51  70
BRANCH  63  76
ATOM     76  C   UNL A   1      44.486  27.522  34.220  1.00  0.00    -0.014 A 
ATOM     77  C   UNL A   1      44.379  26.343  34.970  1.00  0.00     0.009 A 
ATOM     78  C   UNL A   1      45.685  28.252  34.258  1.00  0.00     0.009 A 
ATOM     79  C   UNL A   1      45.445  25.916  35.764  1.00  0.00     0.001 A 
ATOM     80  C   UNL A   1      46.758  27.809  35.031  1.00  0.00     0.001 A 
ATOM     81  C   UNL A   1      46.635  26.645  35.788  1.00  0.00     0.000 A 
ENDBRANCH  63  76
ENDBRANCH  37  38
ENDBRANCH  30  32
ENDBRANCH  29  30
ENDBRANCH  28  29
ENDBRANCH   1  28
TORSDOF 15
ENDMDL
