MODEL 1
REMARK VINA RESULT:     -10.7      0.000      0.000
REMARK SMILES C[N@@H+]([C@@H]1CCOC2(CCCC2)C1)C(C)(C)C(=O)OCCOC(=O)c1ccc(-c2c3nc(c(-c4ccccc4)c4ccc([nH]4)c(-c4ccccc4)c4nc(c(-c5ccccc5)c5ccc2[nH]5)C=C4)C=C3)cc1
REMARK SMILES IDX 19 1 18 2 16 3 17 4 13 5 14 6 15 7 2 8 1 9 3 11 4 12 12 13
REMARK SMILES IDX 5 14 7 15 6 16 8 17 11 18 9 19 10 20 20 21 21 22 22 23 23 24
REMARK SMILES IDX 24 25 25 26 71 27 26 28 70 29 27 30 28 31 29 32 64 33 30 34
REMARK SMILES IDX 69 35 63 36 65 37 31 38 68 39 62 40 61 41 32 43 54 44 39 45
REMARK SMILES IDX 53 46 40 47 43 48 52 49 66 50 41 51 42 52 51 54 67 55 44 56
REMARK SMILES IDX 33 57 34 58 38 59 35 60 37 61 36 62 55 63 56 64 60 65 57 66
REMARK SMILES IDX 59 67 58 68 45 69 46 70 50 71 47 72 49 73 48 74
REMARK H PARENT 2 10 65 42 43 53
REMARK Flexibility Score: inf
ROOT
ATOM      1  C   UNL A   1      35.729  21.565  25.929  1.00  0.00     0.274 C 
ENDROOT
BRANCH   1   2
ATOM      2  O   UNL A   1      34.526  22.340  26.107  1.00  0.00    -0.457 OA
BRANCH   2   3
ATOM      3  C   UNL A   1      33.663  22.355  25.051  1.00  0.00     0.367 C 
ATOM      4  O   UNL A   1      33.628  21.475  24.191  1.00  0.00    -0.245 OA
BRANCH   3   5
ATOM      5  C   UNL A   1      32.665  23.551  25.072  1.00  0.00     0.190 C 
ATOM      6  C   UNL A   1      32.527  23.928  26.566  1.00  0.00     0.092 C 
ATOM      7  C   UNL A   1      31.274  23.065  24.592  1.00  0.00     0.092 C 
BRANCH   5   8
ATOM      8  N   UNL A   1      33.124  24.724  24.226  1.00  0.00    -0.321 N 
ATOM      9  C   UNL A   1      34.403  24.446  23.556  1.00  0.00     0.333 C 
ATOM     10  H   UNL A   1      33.306  25.478  24.888  1.00  0.00     0.349 HD
BRANCH   8  11
ATOM     11  C   UNL A   1      32.084  25.340  23.355  1.00  0.00     0.189 C 
ATOM     12  C   UNL A   1      32.574  25.936  22.021  1.00  0.00     0.093 C 
ATOM     13  C   UNL A   1      31.347  26.514  24.062  1.00  0.00     0.100 C 
ATOM     14  C   UNL A   1      33.368  27.207  22.248  1.00  0.00     0.167 C 
ATOM     15  C   UNL A   1      32.297  27.680  24.447  1.00  0.00     0.074 C 
ATOM     16  O   UNL A   1      32.691  28.136  23.092  1.00  0.00    -0.375 OA
ATOM     17  C   UNL A   1      31.403  29.330  25.212  1.00  0.00     0.036 C 
ATOM     18  C   UNL A   1      33.816  27.196  25.693  1.00  0.00     0.036 C 
ATOM     19  C   UNL A   1      32.448  29.919  26.875  1.00  0.00     0.003 C 
ATOM     20  C   UNL A   1      34.115  28.749  27.000  1.00  0.00     0.003 C 
ENDBRANCH   8  11
ENDBRANCH   5   8
ENDBRANCH   3   5
ENDBRANCH   2   3
ENDBRANCH   1   2
BRANCH   1  21
ATOM     21  C   UNL A   1      36.942  22.404  25.513  1.00  0.00     0.275 C 
BRANCH  21  22
ATOM     22  O   UNL A   1      38.198  21.664  25.540  1.00  0.00    -0.458 OA
BRANCH  22  23
ATOM     23  C   UNL A   1      39.339  22.258  26.208  1.00  0.00     0.338 C 
ATOM     24  O   UNL A   1      40.072  21.234  26.347  1.00  0.00    -0.246 OA
BRANCH  23  25
ATOM     25  C   UNL A   1      39.634  24.274  26.838  1.00  0.00     0.060 A 
ATOM     26  C   UNL A   1      39.028  25.021  27.997  1.00  0.00     0.016 A 
ATOM     27  C   UNL A   1      40.405  25.433  26.177  1.00  0.00     0.016 A 
ATOM     28  C   UNL A   1      39.360  26.263  28.534  1.00  0.00     0.010 A 
ATOM     29  C   UNL A   1      40.699  26.735  26.656  1.00  0.00     0.010 A 
ATOM     30  C   UNL A   1      40.244  27.091  27.895  1.00  0.00    -0.014 A 
BRANCH  30  31
ATOM     31  C   UNL A   1      40.594  28.283  28.655  1.00  0.00     0.031 A 
ATOM     32  C   UNL A   1      39.537  29.327  28.783  1.00  0.00     0.074 A 
ATOM     33  C   UNL A   1      41.623  28.153  29.512  1.00  0.00     0.049 A 
ATOM     34  N   UNL A   1      39.437  30.290  29.652  1.00  0.00    -0.248 NA
ATOM     35  C   UNL A   1      38.381  29.199  27.873  1.00  0.00     0.031 C 
ATOM     36  C   UNL A   1      42.514  26.988  29.581  1.00  0.00     0.029 A 
ATOM     37  N   UNL A   1      42.019  28.934  30.558  1.00  0.00    -0.354 N 
ATOM     38  C   UNL A   1      38.212  30.884  29.394  1.00  0.00     0.074 A 
ATOM     39  C   UNL A   1      37.570  30.136  28.340  1.00  0.00     0.031 C 
ATOM     40  C   UNL A   1      43.317  27.110  30.649  1.00  0.00     0.029 A 
ATOM     41  C   UNL A   1      43.046  28.387  31.291  1.00  0.00     0.049 A 
ATOM     42  H   UNL A   1      41.609  29.805  30.768  1.00  0.00     0.167 HD
ATOM     43  C   UNL A   1      37.714  32.007  29.955  1.00  0.00     0.031 A 
ATOM     44  C   UNL A   1      43.699  28.900  32.350  1.00  0.00     0.031 A 
ATOM     45  C   UNL A   1      38.470  32.776  30.903  1.00  0.00     0.049 A 
ATOM     46  C   UNL A   1      43.236  30.253  32.817  1.00  0.00     0.074 A 
ATOM     47  C   UNL A   1      38.238  34.050  31.378  1.00  0.00     0.029 A 
ATOM     48  N   UNL A   1      39.647  32.327  31.493  1.00  0.00    -0.354 N 
ATOM     49  N   UNL A   1      42.164  30.924  32.459  1.00  0.00    -0.248 NA
ATOM     50  C   UNL A   1      44.083  30.941  33.793  1.00  0.00     0.031 C 
ATOM     51  C   UNL A   1      39.319  34.398  32.198  1.00  0.00     0.029 A 
ATOM     52  C   UNL A   1      40.175  33.310  32.304  1.00  0.00     0.049 A 
ATOM     53  H   UNL A   1      40.046  31.439  31.351  1.00  0.00     0.167 HD
ATOM     54  C   UNL A   1      42.210  32.121  33.156  1.00  0.00     0.074 A 
ATOM     55  C   UNL A   1      43.394  32.054  33.996  1.00  0.00     0.031 C 
ATOM     56  C   UNL A   1      41.372  33.186  33.102  1.00  0.00     0.031 A 
BRANCH  43  57
ATOM     57  C   UNL A   1      36.439  32.530  29.365  1.00  0.00    -0.014 A 
ATOM     58  C   UNL A   1      36.424  33.420  28.278  1.00  0.00     0.009 A 
ATOM     59  C   UNL A   1      35.227  32.216  30.000  1.00  0.00     0.009 A 
ATOM     60  C   UNL A   1      35.224  34.011  27.868  1.00  0.00     0.001 A 
ATOM     61  C   UNL A   1      34.029  32.789  29.574  1.00  0.00     0.001 A 
ATOM     62  C   UNL A   1      34.029  33.696  28.516  1.00  0.00     0.000 A 
ENDBRANCH  43  57
BRANCH  44  63
ATOM     63  C   UNL A   1      44.894  28.222  32.933  1.00  0.00    -0.014 A 
ATOM     64  C   UNL A   1      46.183  28.411  32.410  1.00  0.00     0.009 A 
ATOM     65  C   UNL A   1      44.740  27.325  34.006  1.00  0.00     0.009 A 
ATOM     66  C   UNL A   1      47.275  27.701  32.928  1.00  0.00     0.001 A 
ATOM     67  C   UNL A   1      45.835  26.647  34.547  1.00  0.00     0.001 A 
ATOM     68  C   UNL A   1      47.100  26.825  33.999  1.00  0.00     0.000 A 
ENDBRANCH  44  63
BRANCH  56  69
ATOM     69  C   UNL A   1      41.709  34.336  34.003  1.00  0.00    -0.014 A 
ATOM     70  C   UNL A   1      42.506  35.403  33.562  1.00  0.00     0.009 A 
ATOM     71  C   UNL A   1      41.190  34.355  35.306  1.00  0.00     0.009 A 
ATOM     72  C   UNL A   1      42.818  36.446  34.432  1.00  0.00     0.001 A 
ATOM     73  C   UNL A   1      41.473  35.418  36.160  1.00  0.00     0.001 A 
ATOM     74  C   UNL A   1      42.299  36.455  35.726  1.00  0.00     0.000 A 
ENDBRANCH  56  69
ENDBRANCH  30  31
ENDBRANCH  23  25
ENDBRANCH  22  23
ENDBRANCH  21  22
ENDBRANCH   1  21
TORSDOF 13
ENDMDL
MODEL 2
REMARK VINA RESULT:     -10.6      3.358      8.370
REMARK SMILES C[N@@H+]([C@@H]1CCOC2(CCCC2)C1)C(C)(C)C(=O)OCCOC(=O)c1ccc(-c2c3nc(c(-c4ccccc4)c4ccc([nH]4)c(-c4ccccc4)c4nc(c(-c5ccccc5)c5ccc2[nH]5)C=C4)C=C3)cc1
REMARK SMILES IDX 19 1 18 2 16 3 17 4 13 5 14 6 15 7 2 8 1 9 3 11 4 12 12 13
REMARK SMILES IDX 5 14 7 15 6 16 8 17 11 18 9 19 10 20 20 21 21 22 22 23 23 24
REMARK SMILES IDX 24 25 25 26 71 27 26 28 70 29 27 30 28 31 29 32 64 33 30 34
REMARK SMILES IDX 69 35 63 36 65 37 31 38 68 39 62 40 61 41 32 43 54 44 39 45
REMARK SMILES IDX 53 46 40 47 43 48 52 49 66 50 41 51 42 52 51 54 67 55 44 56
REMARK SMILES IDX 33 57 34 58 38 59 35 60 37 61 36 62 55 63 56 64 60 65 57 66
REMARK SMILES IDX 59 67 58 68 45 69 46 70 50 71 47 72 49 73 48 74
REMARK H PARENT 2 10 65 42 43 53
REMARK Flexibility Score: inf
ROOT
ATOM      1  C   UNL A   1      32.151  29.402  26.102  1.00  0.00     0.274 C 
ENDROOT
BRANCH   1   2
ATOM      2  O   UNL A   1      32.334  27.985  25.913  1.00  0.00    -0.457 OA
BRANCH   2   3
ATOM      3  C   UNL A   1      31.416  27.364  25.118  1.00  0.00     0.367 C 
ATOM      4  O   UNL A   1      30.750  27.952  24.266  1.00  0.00    -0.245 OA
BRANCH   3   5
ATOM      5  C   UNL A   1      31.342  25.822  25.329  1.00  0.00     0.190 C 
ATOM      6  C   UNL A   1      29.880  25.549  25.756  1.00  0.00     0.092 C 
ATOM      7  C   UNL A   1      32.248  25.426  26.522  1.00  0.00     0.092 C 
BRANCH   5   8
ATOM      8  N   UNL A   1      31.734  25.033  24.094  1.00  0.00    -0.321 N 
ATOM      9  C   UNL A   1      30.558  24.607  23.322  1.00  0.00     0.333 C 
ATOM     10  H   UNL A   1      32.168  24.180  24.448  1.00  0.00     0.349 HD
BRANCH   8  11
ATOM     11  C   UNL A   1      32.840  25.612  23.281  1.00  0.00     0.189 C 
ATOM     12  C   UNL A   1      32.776  25.361  21.762  1.00  0.00     0.093 C 
ATOM     13  C   UNL A   1      34.232  25.065  23.709  1.00  0.00     0.100 C 
ATOM     14  C   UNL A   1      33.074  23.912  21.432  1.00  0.00     0.167 C 
ATOM     15  C   UNL A   1      34.359  23.528  23.532  1.00  0.00     0.074 C 
ATOM     16  O   UNL A   1      34.268  23.441  22.054  1.00  0.00    -0.375 OA
ATOM     17  C   UNL A   1      36.193  22.746  23.895  1.00  0.00     0.036 C 
ATOM     18  C   UNL A   1      33.024  22.414  24.567  1.00  0.00     0.036 C 
ATOM     19  C   UNL A   1      35.966  21.082  25.072  1.00  0.00     0.003 C 
ATOM     20  C   UNL A   1      33.965  20.722  25.248  1.00  0.00     0.003 C 
ENDBRANCH   8  11
ENDBRANCH   5   8
ENDBRANCH   3   5
ENDBRANCH   2   3
ENDBRANCH   1   2
BRANCH   1  21
ATOM     21  C   UNL A   1      33.434  30.138  26.504  1.00  0.00     0.275 C 
BRANCH  21  22
ATOM     22  O   UNL A   1      33.248  31.074  27.606  1.00  0.00    -0.458 OA
BRANCH  22  23
ATOM     23  C   UNL A   1      34.374  31.352  28.477  1.00  0.00     0.338 C 
ATOM     24  O   UNL A   1      34.027  32.483  28.932  1.00  0.00    -0.246 OA
BRANCH  23  25
ATOM     25  C   UNL A   1      36.137  30.201  28.812  1.00  0.00     0.060 A 
ATOM     26  C   UNL A   1      37.116  29.626  27.823  1.00  0.00     0.016 A 
ATOM     27  C   UNL A   1      36.710  29.590  30.106  1.00  0.00     0.016 A 
ATOM     28  C   UNL A   1      38.366  29.049  28.033  1.00  0.00     0.010 A 
ATOM     29  C   UNL A   1      37.941  28.929  30.346  1.00  0.00     0.010 A 
ATOM     30  C   UNL A   1      38.804  28.760  29.298  1.00  0.00    -0.014 A 
BRANCH  30  31
ATOM     31  C   UNL A   1      40.183  28.298  29.358  1.00  0.00     0.031 A 
ATOM     32  C   UNL A   1      40.443  26.909  28.882  1.00  0.00     0.074 A 
ATOM     33  C   UNL A   1      41.124  29.259  29.406  1.00  0.00     0.049 A 
ATOM     34  N   UNL A   1      41.563  26.369  28.501  1.00  0.00    -0.248 NA
ATOM     35  C   UNL A   1      39.257  26.047  28.710  1.00  0.00     0.031 C 
ATOM     36  C   UNL A   1      40.852  30.689  29.600  1.00  0.00     0.029 A 
ATOM     37  N   UNL A   1      42.468  29.206  29.175  1.00  0.00    -0.354 N 
ATOM     38  C   UNL A   1      41.220  25.105  28.047  1.00  0.00     0.074 A 
ATOM     39  C   UNL A   1      39.784  24.980  28.130  1.00  0.00     0.031 C 
ATOM     40  C   UNL A   1      41.989  31.381  29.428  1.00  0.00     0.029 A 
ATOM     41  C   UNL A   1      43.073  30.442  29.184  1.00  0.00     0.049 A 
ATOM     42  H   UNL A   1      42.957  28.366  29.018  1.00  0.00     0.167 HD
ATOM     43  C   UNL A   1      42.058  24.119  27.664  1.00  0.00     0.031 A 
ATOM     44  C   UNL A   1      44.375  30.750  29.034  1.00  0.00     0.031 A 
ATOM     45  C   UNL A   1      43.483  24.270  27.735  1.00  0.00     0.049 A 
ATOM     46  C   UNL A   1      45.304  29.589  28.808  1.00  0.00     0.074 A 
ATOM     47  C   UNL A   1      44.471  23.312  27.632  1.00  0.00     0.029 A 
ATOM     48  N   UNL A   1      44.117  25.486  27.971  1.00  0.00    -0.354 N 
ATOM     49  N   UNL A   1      45.006  28.335  28.547  1.00  0.00    -0.248 NA
ATOM     50  C   UNL A   1      46.739  29.864  28.896  1.00  0.00     0.031 C 
ATOM     51  C   UNL A   1      45.698  23.941  27.881  1.00  0.00     0.029 A 
ATOM     52  C   UNL A   1      45.482  25.302  28.050  1.00  0.00     0.049 A 
ATOM     53  H   UNL A   1      43.659  26.352  28.069  1.00  0.00     0.167 HD
ATOM     54  C   UNL A   1      46.215  27.665  28.451  1.00  0.00     0.074 A 
ATOM     55  C   UNL A   1      47.250  28.669  28.631  1.00  0.00     0.031 C 
ATOM     56  C   UNL A   1      46.459  26.345  28.250  1.00  0.00     0.031 A 
BRANCH  43  57
ATOM     57  C   UNL A   1      41.427  22.787  27.386  1.00  0.00    -0.014 A 
ATOM     58  C   UNL A   1      41.715  21.645  28.152  1.00  0.00     0.009 A 
ATOM     59  C   UNL A   1      40.620  22.652  26.246  1.00  0.00     0.009 A 
ATOM     60  C   UNL A   1      41.234  20.393  27.757  1.00  0.00     0.001 A 
ATOM     61  C   UNL A   1      40.123  21.405  25.867  1.00  0.00     0.001 A 
ATOM     62  C   UNL A   1      40.440  20.274  26.615  1.00  0.00     0.000 A 
ENDBRANCH  43  57
BRANCH  44  63
ATOM     63  C   UNL A   1      44.872  32.144  29.219  1.00  0.00    -0.014 A 
ATOM     64  C   UNL A   1      45.129  32.678  30.491  1.00  0.00     0.009 A 
ATOM     65  C   UNL A   1      45.048  32.981  28.101  1.00  0.00     0.009 A 
ATOM     66  C   UNL A   1      45.522  34.015  30.638  1.00  0.00     0.001 A 
ATOM     67  C   UNL A   1      45.477  34.303  28.246  1.00  0.00     0.001 A 
ATOM     68  C   UNL A   1      45.700  34.824  29.517  1.00  0.00     0.000 A 
ENDBRANCH  44  63
BRANCH  56  69
ATOM     69  C   UNL A   1      47.902  25.945  28.191  1.00  0.00    -0.014 A 
ATOM     70  C   UNL A   1      48.610  25.930  26.980  1.00  0.00     0.009 A 
ATOM     71  C   UNL A   1      48.564  25.604  29.380  1.00  0.00     0.009 A 
ATOM     72  C   UNL A   1      49.945  25.531  26.956  1.00  0.00     0.001 A 
ATOM     73  C   UNL A   1      49.908  25.243  29.358  1.00  0.00     0.001 A 
ATOM     74  C   UNL A   1      50.593  25.193  28.144  1.00  0.00     0.000 A 
ENDBRANCH  56  69
ENDBRANCH  30  31
ENDBRANCH  23  25
ENDBRANCH  22  23
ENDBRANCH  21  22
ENDBRANCH   1  21
TORSDOF 13
ENDMDL
MODEL 3
REMARK VINA RESULT:     -10.6      3.335      6.502
REMARK SMILES C[N@@H+]([C@@H]1CCOC2(CCCC2)C1)C(C)(C)C(=O)OCCOC(=O)c1ccc(-c2c3nc(c(-c4ccccc4)c4ccc([nH]4)c(-c4ccccc4)c4nc(c(-c5ccccc5)c5ccc2[nH]5)C=C4)C=C3)cc1
REMARK SMILES IDX 19 1 18 2 16 3 17 4 13 5 14 6 15 7 2 8 1 9 3 11 4 12 12 13
REMARK SMILES IDX 5 14 7 15 6 16 8 17 11 18 9 19 10 20 20 21 21 22 22 23 23 24
REMARK SMILES IDX 24 25 25 26 71 27 26 28 70 29 27 30 28 31 29 32 64 33 30 34
REMARK SMILES IDX 69 35 63 36 65 37 31 38 68 39 62 40 61 41 32 43 54 44 39 45
REMARK SMILES IDX 53 46 40 47 43 48 52 49 66 50 41 51 42 52 51 54 67 55 44 56
REMARK SMILES IDX 33 57 34 58 38 59 35 60 37 61 36 62 55 63 56 64 60 65 57 66
REMARK SMILES IDX 59 67 58 68 45 69 46 70 50 71 47 72 49 73 48 74
REMARK H PARENT 2 10 65 42 43 53
REMARK Flexibility Score: inf
ROOT
ATOM      1  C   UNL A   1      36.277  21.288  25.716  1.00  0.00     0.274 C 
ENDROOT
BRANCH   1   2
ATOM      2  O   UNL A   1      34.888  21.314  25.332  1.00  0.00    -0.457 OA
BRANCH   2   3
ATOM      3  C   UNL A   1      34.161  22.374  25.789  1.00  0.00     0.367 C 
ATOM      4  O   UNL A   1      34.425  22.978  26.828  1.00  0.00    -0.245 OA
BRANCH   3   5
ATOM      5  C   UNL A   1      33.009  22.804  24.833  1.00  0.00     0.190 C 
ATOM      6  C   UNL A   1      31.795  23.053  25.760  1.00  0.00     0.092 C 
ATOM      7  C   UNL A   1      32.642  21.616  23.908  1.00  0.00     0.092 C 
BRANCH   5   8
ATOM      8  N   UNL A   1      33.351  24.024  23.999  1.00  0.00    -0.321 N 
ATOM      9  C   UNL A   1      34.690  23.917  23.400  1.00  0.00     0.333 C 
ATOM     10  H   UNL A   1      33.395  24.798  24.662  1.00  0.00     0.349 HD
BRANCH   8  11
ATOM     11  C   UNL A   1      32.286  24.492  23.068  1.00  0.00     0.189 C 
ATOM     12  C   UNL A   1      32.762  25.121  21.745  1.00  0.00     0.093 C 
ATOM     13  C   UNL A   1      31.378  25.577  23.714  1.00  0.00     0.100 C 
ATOM     14  C   UNL A   1      33.382  26.484  21.978  1.00  0.00     0.167 C 
ATOM     15  C   UNL A   1      32.158  26.858  24.115  1.00  0.00     0.074 C 
ATOM     16  O   UNL A   1      32.557  27.336  22.769  1.00  0.00    -0.375 OA
ATOM     17  C   UNL A   1      31.032  28.398  24.800  1.00  0.00     0.036 C 
ATOM     18  C   UNL A   1      33.663  26.588  25.439  1.00  0.00     0.036 C 
ATOM     19  C   UNL A   1      31.916  29.141  26.496  1.00  0.00     0.003 C 
ATOM     20  C   UNL A   1      33.706  28.189  26.723  1.00  0.00     0.003 C 
ENDBRANCH   8  11
ENDBRANCH   5   8
ENDBRANCH   3   5
ENDBRANCH   2   3
ENDBRANCH   1   2
BRANCH   1  21
ATOM     21  C   UNL A   1      37.209  20.771  24.613  1.00  0.00     0.275 C 
BRANCH  21  22
ATOM     22  O   UNL A   1      38.137  19.744  25.069  1.00  0.00    -0.458 OA
BRANCH  22  23
ATOM     23  C   UNL A   1      39.364  20.159  25.721  1.00  0.00     0.338 C 
ATOM     24  O   UNL A   1      40.024  19.078  25.658  1.00  0.00    -0.246 OA
BRANCH  23  25
ATOM     25  C   UNL A   1      39.857  22.038  26.600  1.00  0.00     0.060 A 
ATOM     26  C   UNL A   1      40.774  22.353  27.752  1.00  0.00     0.016 A 
ATOM     27  C   UNL A   1      39.283  23.447  26.352  1.00  0.00     0.016 A 
ATOM     28  C   UNL A   1      41.256  23.579  28.203  1.00  0.00     0.010 A 
ATOM     29  C   UNL A   1      39.694  24.708  26.851  1.00  0.00     0.010 A 
ATOM     30  C   UNL A   1      40.760  24.755  27.706  1.00  0.00    -0.014 A 
BRANCH  30  31
ATOM     31  C   UNL A   1      41.466  25.940  28.172  1.00  0.00     0.031 A 
ATOM     32  C   UNL A   1      42.745  26.270  27.480  1.00  0.00     0.074 A 
ATOM     33  C   UNL A   1      40.725  26.843  28.840  1.00  0.00     0.049 A 
ATOM     34  N   UNL A   1      43.385  27.401  27.436  1.00  0.00    -0.248 NA
ATOM     35  C   UNL A   1      43.321  25.206  26.633  1.00  0.00     0.031 C 
ATOM     36  C   UNL A   1      39.344  26.623  29.292  1.00  0.00     0.029 A 
ATOM     37  N   UNL A   1      40.970  28.149  29.148  1.00  0.00    -0.354 N 
ATOM     38  C   UNL A   1      44.439  27.187  26.561  1.00  0.00     0.074 A 
ATOM     39  C   UNL A   1      44.316  25.847  26.041  1.00  0.00     0.031 C 
ATOM     40  C   UNL A   1      38.850  27.775  29.770  1.00  0.00     0.029 A 
ATOM     41  C   UNL A   1      39.895  28.786  29.725  1.00  0.00     0.049 A 
ATOM     42  H   UNL A   1      41.832  28.593  28.974  1.00  0.00     0.167 HD
ATOM     43  C   UNL A   1      45.456  28.032  26.285  1.00  0.00     0.031 A 
ATOM     44  C   UNL A   1      39.804  30.047  30.184  1.00  0.00     0.031 A 
ATOM     45  C   UNL A   1      45.584  29.299  26.945  1.00  0.00     0.049 A 
ATOM     46  C   UNL A   1      41.039  30.894  30.035  1.00  0.00     0.074 A 
ATOM     47  C   UNL A   1      46.661  30.161  26.981  1.00  0.00     0.029 A 
ATOM     48  N   UNL A   1      44.583  29.864  27.728  1.00  0.00    -0.354 N 
ATOM     49  N   UNL A   1      42.133  30.639  29.351  1.00  0.00    -0.248 NA
ATOM     50  C   UNL A   1      41.054  32.172  30.746  1.00  0.00     0.031 C 
ATOM     51  C   UNL A   1      46.334  31.211  27.848  1.00  0.00     0.029 A 
ATOM     52  C   UNL A   1      45.024  31.049  28.280  1.00  0.00     0.049 A 
ATOM     53  H   UNL A   1      43.689  29.475  27.868  1.00  0.00     0.167 HD
ATOM     54  C   UNL A   1      42.974  31.721  29.557  1.00  0.00     0.074 A 
ATOM     55  C   UNL A   1      42.236  32.655  30.390  1.00  0.00     0.031 C 
ATOM     56  C   UNL A   1      44.242  31.926  29.120  1.00  0.00     0.031 A 
BRANCH  43  57
ATOM     57  C   UNL A   1      46.560  27.478  25.435  1.00  0.00    -0.014 A 
ATOM     58  C   UNL A   1      47.551  26.627  25.952  1.00  0.00     0.009 A 
ATOM     59  C   UNL A   1      46.676  27.927  24.110  1.00  0.00     0.009 A 
ATOM     60  C   UNL A   1      48.652  26.270  25.166  1.00  0.00     0.001 A 
ATOM     61  C   UNL A   1      47.764  27.551  23.322  1.00  0.00     0.001 A 
ATOM     62  C   UNL A   1      48.758  26.732  23.854  1.00  0.00     0.000 A 
ENDBRANCH  43  57
BRANCH  44  63
ATOM     63  C   UNL A   1      38.595  30.525  30.917  1.00  0.00    -0.014 A 
ATOM     64  C   UNL A   1      37.578  31.251  30.278  1.00  0.00     0.009 A 
ATOM     65  C   UNL A   1      38.475  30.294  32.300  1.00  0.00     0.009 A 
ATOM     66  C   UNL A   1      36.492  31.753  31.007  1.00  0.00     0.001 A 
ATOM     67  C   UNL A   1      37.372  30.762  33.020  1.00  0.00     0.001 A 
ATOM     68  C   UNL A   1      36.388  31.503  32.375  1.00  0.00     0.000 A 
ENDBRANCH  44  63
BRANCH  56  69
ATOM     69  C   UNL A   1      44.876  33.223  29.523  1.00  0.00    -0.014 A 
ATOM     70  C   UNL A   1      44.743  34.378  28.738  1.00  0.00     0.009 A 
ATOM     71  C   UNL A   1      45.594  33.285  30.726  1.00  0.00     0.009 A 
ATOM     72  C   UNL A   1      45.363  35.563  29.131  1.00  0.00     0.001 A 
ATOM     73  C   UNL A   1      46.180  34.480  31.133  1.00  0.00     0.001 A 
ATOM     74  C   UNL A   1      46.076  35.614  30.328  1.00  0.00     0.000 A 
ENDBRANCH  56  69
ENDBRANCH  30  31
ENDBRANCH  23  25
ENDBRANCH  22  23
ENDBRANCH  21  22
ENDBRANCH   1  21
TORSDOF 13
ENDMDL
