MODEL 1
REMARK VINA RESULT:     -10.7      0.000      0.000
REMARK SMILES O=C(OCCOC(=O)c1ccc(Cn2ccc3ccc(Br)cc32)nc1)c1ccc(-c2c3nc(c(-c4ccccc4)c4ccc([nH]4)c(-c4ccccc4)c4nc(c(-c5ccccc5)c5ccc2[nH]5)C=C4)C=C3)cc1
REMARK SMILES IDX 4 1 3 2 2 3 1 4 26 5 27 6 73 7 28 8 72 9 29 10 30 11 31 12
REMARK SMILES IDX 66 13 32 14 71 15 65 16 67 17 33 18 70 19 64 20 63 21 34 23
REMARK SMILES IDX 56 24 41 25 55 26 42 27 45 28 54 29 68 30 43 31 44 32 53 34
REMARK SMILES IDX 69 35 46 36 35 37 36 38 40 39 37 40 39 41 38 42 57 43 58 44
REMARK SMILES IDX 62 45 59 46 61 47 60 48 47 49 48 50 52 51 49 52 51 53 50 54
REMARK SMILES IDX 5 55 6 56 7 57 8 58 9 59 10 60 25 61 11 62 24 63 12 64 13 65
REMARK SMILES IDX 14 66 15 67 23 68 16 69 17 70 22 71 18 72 20 73 19 74 21 75
REMARK H PARENT 67 22 45 33
REMARK Flexibility Score: inf
ROOT
ATOM      1  C   UNL A   1      42.655  18.045  26.337  1.00  0.00     0.275 C 
ENDROOT
BRANCH   1   2
ATOM      2  O   UNL A   1      41.465  18.628  25.739  1.00  0.00    -0.458 OA
BRANCH   2   3
ATOM      3  C   UNL A   1      40.853  19.799  26.076  1.00  0.00     0.338 C 
ATOM      4  O   UNL A   1      39.669  20.004  25.847  1.00  0.00    -0.246 OA
BRANCH   3   5
ATOM      5  C   UNL A   1      41.713  20.903  26.543  1.00  0.00     0.060 A 
ATOM      6  C   UNL A   1      42.091  20.866  27.882  1.00  0.00     0.016 A 
ATOM      7  C   UNL A   1      41.896  22.055  25.779  1.00  0.00     0.016 A 
ATOM      8  C   UNL A   1      42.302  22.070  28.528  1.00  0.00     0.010 A 
ATOM      9  C   UNL A   1      42.103  23.264  26.429  1.00  0.00     0.010 A 
ATOM     10  C   UNL A   1      42.183  23.279  27.820  1.00  0.00    -0.014 A 
BRANCH  10  11
ATOM     11  C   UNL A   1      42.379  24.517  28.578  1.00  0.00     0.031 A 
ATOM     12  C   UNL A   1      41.316  25.508  28.270  1.00  0.00     0.074 A 
ATOM     13  C   UNL A   1      43.316  24.740  29.523  1.00  0.00     0.049 A 
ATOM     14  N   UNL A   1      41.445  26.698  27.782  1.00  0.00    -0.248 NA
ATOM     15  C   UNL A   1      39.928  25.009  28.323  1.00  0.00     0.031 C 
ATOM     16  C   UNL A   1      44.274  23.791  30.090  1.00  0.00     0.029 A 
ATOM     17  N   UNL A   1      43.528  25.860  30.280  1.00  0.00    -0.354 N 
ATOM     18  C   UNL A   1      40.143  27.157  27.623  1.00  0.00     0.074 A 
ATOM     19  C   UNL A   1      39.275  26.017  27.755  1.00  0.00     0.031 C 
ATOM     20  C   UNL A   1      44.751  24.277  31.258  1.00  0.00     0.029 A 
ATOM     21  C   UNL A   1      44.224  25.613  31.461  1.00  0.00     0.049 A 
ATOM     22  H   UNL A   1      43.216  26.755  30.015  1.00  0.00     0.167 HD
ATOM     23  C   UNL A   1      39.824  28.475  27.673  1.00  0.00     0.031 A 
ATOM     24  C   UNL A   1      44.266  26.403  32.566  1.00  0.00     0.031 A 
ATOM     25  C   UNL A   1      40.949  29.323  27.402  1.00  0.00     0.049 A 
ATOM     26  C   UNL A   1      43.841  27.764  32.166  1.00  0.00     0.074 A 
ATOM     27  C   UNL A   1      41.788  29.483  26.318  1.00  0.00     0.029 A 
ATOM     28  N   UNL A   1      41.589  29.905  28.469  1.00  0.00    -0.354 N 
ATOM     29  N   UNL A   1      44.537  28.544  31.393  1.00  0.00    -0.248 NA
ATOM     30  C   UNL A   1      42.427  28.086  32.276  1.00  0.00     0.031 C 
ATOM     31  C   UNL A   1      43.074  29.721  26.878  1.00  0.00     0.029 A 
ATOM     32  C   UNL A   1      42.939  29.762  28.266  1.00  0.00     0.049 A 
ATOM     33  H   UNL A   1      41.159  30.343  29.238  1.00  0.00     0.167 HD
ATOM     34  C   UNL A   1      43.596  29.164  30.585  1.00  0.00     0.074 A 
ATOM     35  C   UNL A   1      42.311  28.910  31.232  1.00  0.00     0.031 C 
ATOM     36  C   UNL A   1      43.910  29.577  29.324  1.00  0.00     0.031 A 
BRANCH  23  37
ATOM     37  C   UNL A   1      38.559  28.937  28.342  1.00  0.00    -0.014 A 
ATOM     38  C   UNL A   1      38.358  28.833  29.737  1.00  0.00     0.009 A 
ATOM     39  C   UNL A   1      37.626  29.695  27.625  1.00  0.00     0.009 A 
ATOM     40  C   UNL A   1      37.260  29.398  30.381  1.00  0.00     0.001 A 
ATOM     41  C   UNL A   1      36.548  30.310  28.277  1.00  0.00     0.001 A 
ATOM     42  C   UNL A   1      36.361  30.153  29.650  1.00  0.00     0.000 A 
ENDBRANCH  23  37
BRANCH  24  43
ATOM     43  C   UNL A   1      44.235  25.977  33.990  1.00  0.00    -0.014 A 
ATOM     44  C   UNL A   1      45.428  25.877  34.730  1.00  0.00     0.009 A 
ATOM     45  C   UNL A   1      43.085  25.377  34.534  1.00  0.00     0.009 A 
ATOM     46  C   UNL A   1      45.485  25.169  35.936  1.00  0.00     0.001 A 
ATOM     47  C   UNL A   1      43.143  24.662  35.740  1.00  0.00     0.001 A 
ATOM     48  C   UNL A   1      44.346  24.545  36.431  1.00  0.00     0.000 A 
ENDBRANCH  24  43
BRANCH  36  49
ATOM     49  C   UNL A   1      45.364  29.578  28.898  1.00  0.00    -0.014 A 
ATOM     50  C   UNL A   1      46.048  30.804  28.904  1.00  0.00     0.009 A 
ATOM     51  C   UNL A   1      45.999  28.468  28.313  1.00  0.00     0.009 A 
ATOM     52  C   UNL A   1      47.311  30.927  28.320  1.00  0.00     0.001 A 
ATOM     53  C   UNL A   1      47.276  28.585  27.752  1.00  0.00     0.001 A 
ATOM     54  C   UNL A   1      47.924  29.819  27.743  1.00  0.00     0.000 A 
ENDBRANCH  36  49
ENDBRANCH  10  11
ENDBRANCH   3   5
ENDBRANCH   2   3
ENDBRANCH   1   2
BRANCH   1  55
ATOM     55  C   UNL A   1      43.939  18.075  25.493  1.00  0.00     0.275 C 
BRANCH  55  56
ATOM     56  O   UNL A   1      43.890  19.083  24.485  1.00  0.00    -0.458 OA
BRANCH  56  57
ATOM     57  C   UNL A   1      45.060  19.556  24.005  1.00  0.00     0.339 C 
ATOM     58  O   UNL A   1      45.841  19.002  23.265  1.00  0.00    -0.246 OA
BRANCH  57  59
ATOM     59  C   UNL A   1      45.183  20.939  24.478  1.00  0.00     0.078 A 
ATOM     60  C   UNL A   1      44.903  22.044  23.676  1.00  0.00     0.019 A 
ATOM     61  C   UNL A   1      45.652  21.150  25.759  1.00  0.00     0.127 A 
ATOM     62  C   UNL A   1      45.050  23.327  24.214  1.00  0.00     0.026 A 
ATOM     63  N   UNL A   1      45.852  22.382  26.276  1.00  0.00    -0.258 NA
ATOM     64  C   UNL A   1      45.492  23.460  25.532  1.00  0.00     0.060 A 
BRANCH  64  65
ATOM     65  C   UNL A   1      45.467  24.794  26.247  1.00  0.00     0.178 C 
BRANCH  65  66
ATOM     66  N   UNL A   1      46.813  25.130  26.715  1.00  0.00    -0.341 N 
ATOM     67  C   UNL A   1      47.303  24.834  27.963  1.00  0.00     0.087 A 
ATOM     68  C   UNL A   1      47.819  25.673  25.933  1.00  0.00     0.049 A 
ATOM     69  C   UNL A   1      48.660  25.064  27.948  1.00  0.00     0.028 A 
ATOM     70  C   UNL A   1      49.006  25.555  26.659  1.00  0.00    -0.000 A 
ATOM     71  C   UNL A   1      47.799  26.187  24.624  1.00  0.00     0.042 A 
ATOM     72  C   UNL A   1      50.223  25.904  26.038  1.00  0.00     0.011 A 
ATOM     73  C   UNL A   1      49.019  26.505  24.026  1.00  0.00     0.020 A 
ATOM     74  C   UNL A   1      50.219  26.360  24.713  1.00  0.00     0.016 A 
ATOM     75  Br  UNL A   1      49.036  27.106  22.231  1.00  0.00    -0.051 Br
ENDBRANCH  65  66
ENDBRANCH  64  65
ENDBRANCH  57  59
ENDBRANCH  56  57
ENDBRANCH  55  56
ENDBRANCH   1  55
TORSDOF 13
ENDMDL
MODEL 2
REMARK VINA RESULT:     -10.1      4.189      7.906
REMARK SMILES O=C(OCCOC(=O)c1ccc(Cn2ccc3ccc(Br)cc32)nc1)c1ccc(-c2c3nc(c(-c4ccccc4)c4ccc([nH]4)c(-c4ccccc4)c4nc(c(-c5ccccc5)c5ccc2[nH]5)C=C4)C=C3)cc1
REMARK SMILES IDX 4 1 3 2 2 3 1 4 26 5 27 6 73 7 28 8 72 9 29 10 30 11 31 12
REMARK SMILES IDX 66 13 32 14 71 15 65 16 67 17 33 18 70 19 64 20 63 21 34 23
REMARK SMILES IDX 56 24 41 25 55 26 42 27 45 28 54 29 68 30 43 31 44 32 53 34
REMARK SMILES IDX 69 35 46 36 35 37 36 38 40 39 37 40 39 41 38 42 57 43 58 44
REMARK SMILES IDX 62 45 59 46 61 47 60 48 47 49 48 50 52 51 49 52 51 53 50 54
REMARK SMILES IDX 5 55 6 56 7 57 8 58 9 59 10 60 25 61 11 62 24 63 12 64 13 65
REMARK SMILES IDX 14 66 15 67 23 68 16 69 17 70 22 71 18 72 20 73 19 74 21 75
REMARK H PARENT 67 22 45 33
REMARK Flexibility Score: inf
ROOT
ATOM      1  C   UNL A   1      38.904  21.345  25.939  1.00  0.00     0.275 C 
ENDROOT
BRANCH   1   2
ATOM      2  O   UNL A   1      39.648  20.201  25.435  1.00  0.00    -0.458 OA
BRANCH   2   3
ATOM      3  C   UNL A   1      40.887  19.781  25.819  1.00  0.00     0.338 C 
ATOM      4  O   UNL A   1      41.210  18.601  25.794  1.00  0.00    -0.246 OA
BRANCH   3   5
ATOM      5  C   UNL A   1      41.769  20.771  26.464  1.00  0.00     0.060 A 
ATOM      6  C   UNL A   1      41.793  20.763  27.855  1.00  0.00     0.016 A 
ATOM      7  C   UNL A   1      42.315  21.834  25.745  1.00  0.00     0.016 A 
ATOM      8  C   UNL A   1      42.026  21.960  28.506  1.00  0.00     0.010 A 
ATOM      9  C   UNL A   1      42.545  23.038  26.398  1.00  0.00     0.010 A 
ATOM     10  C   UNL A   1      42.279  23.127  27.763  1.00  0.00    -0.014 A 
BRANCH  10  11
ATOM     11  C   UNL A   1      42.476  24.368  28.517  1.00  0.00     0.031 A 
ATOM     12  C   UNL A   1      41.414  25.358  28.206  1.00  0.00     0.074 A 
ATOM     13  C   UNL A   1      43.413  24.592  29.463  1.00  0.00     0.049 A 
ATOM     14  N   UNL A   1      41.543  26.546  27.715  1.00  0.00    -0.248 NA
ATOM     15  C   UNL A   1      40.025  24.860  28.261  1.00  0.00     0.031 C 
ATOM     16  C   UNL A   1      44.369  23.644  30.033  1.00  0.00     0.029 A 
ATOM     17  N   UNL A   1      43.624  25.714  30.216  1.00  0.00    -0.354 N 
ATOM     18  C   UNL A   1      40.242  27.006  27.554  1.00  0.00     0.074 A 
ATOM     19  C   UNL A   1      39.373  25.866  27.690  1.00  0.00     0.031 C 
ATOM     20  C   UNL A   1      44.847  24.133  31.199  1.00  0.00     0.029 A 
ATOM     21  C   UNL A   1      44.320  25.471  31.398  1.00  0.00     0.049 A 
ATOM     22  H   UNL A   1      43.313  26.609  29.949  1.00  0.00     0.167 HD
ATOM     23  C   UNL A   1      39.923  28.325  27.601  1.00  0.00     0.031 A 
ATOM     24  C   UNL A   1      44.362  26.264  32.501  1.00  0.00     0.031 A 
ATOM     25  C   UNL A   1      41.048  29.171  27.328  1.00  0.00     0.049 A 
ATOM     26  C   UNL A   1      43.938  27.623  32.097  1.00  0.00     0.074 A 
ATOM     27  C   UNL A   1      41.888  29.327  26.244  1.00  0.00     0.029 A 
ATOM     28  N   UNL A   1      41.688  29.755  28.393  1.00  0.00    -0.354 N 
ATOM     29  N   UNL A   1      44.635  28.401  31.322  1.00  0.00    -0.248 NA
ATOM     30  C   UNL A   1      42.524  27.946  32.205  1.00  0.00     0.031 C 
ATOM     31  C   UNL A   1      43.175  29.566  26.803  1.00  0.00     0.029 A 
ATOM     32  C   UNL A   1      43.039  29.612  28.191  1.00  0.00     0.049 A 
ATOM     33  H   UNL A   1      41.259  30.196  29.161  1.00  0.00     0.167 HD
ATOM     34  C   UNL A   1      43.695  29.019  30.512  1.00  0.00     0.074 A 
ATOM     35  C   UNL A   1      42.410  28.768  31.159  1.00  0.00     0.031 C 
ATOM     36  C   UNL A   1      44.010  29.428  29.250  1.00  0.00     0.031 A 
BRANCH  23  37
ATOM     37  C   UNL A   1      38.659  28.788  28.268  1.00  0.00    -0.014 A 
ATOM     38  C   UNL A   1      38.417  28.603  29.648  1.00  0.00     0.009 A 
ATOM     39  C   UNL A   1      37.772  29.626  27.580  1.00  0.00     0.009 A 
ATOM     40  C   UNL A   1      37.323  29.165  30.301  1.00  0.00     0.001 A 
ATOM     41  C   UNL A   1      36.700  30.237  28.245  1.00  0.00     0.001 A 
ATOM     42  C   UNL A   1      36.471  29.999  29.600  1.00  0.00     0.000 A 
ENDBRANCH  23  37
BRANCH  24  43
ATOM     43  C   UNL A   1      44.331  25.841  33.927  1.00  0.00    -0.014 A 
ATOM     44  C   UNL A   1      43.116  25.819  34.636  1.00  0.00     0.009 A 
ATOM     45  C   UNL A   1      45.518  25.756  34.675  1.00  0.00     0.009 A 
ATOM     46  C   UNL A   1      43.085  25.763  36.034  1.00  0.00     0.001 A 
ATOM     47  C   UNL A   1      45.487  25.706  36.078  1.00  0.00     0.001 A 
ATOM     48  C   UNL A   1      44.272  25.726  36.756  1.00  0.00     0.000 A 
ENDBRANCH  24  43
BRANCH  36  49
ATOM     49  C   UNL A   1      45.463  29.427  28.825  1.00  0.00    -0.014 A 
ATOM     50  C   UNL A   1      46.146  30.654  28.819  1.00  0.00     0.009 A 
ATOM     51  C   UNL A   1      46.100  28.312  28.251  1.00  0.00     0.009 A 
ATOM     52  C   UNL A   1      47.409  30.774  28.234  1.00  0.00     0.001 A 
ATOM     53  C   UNL A   1      47.378  28.426  27.689  1.00  0.00     0.001 A 
ATOM     54  C   UNL A   1      48.024  29.660  27.668  1.00  0.00     0.000 A 
ENDBRANCH  36  49
ENDBRANCH  10  11
ENDBRANCH   3   5
ENDBRANCH   2   3
ENDBRANCH   1   2
BRANCH   1  55
ATOM     55  C   UNL A   1      37.508  21.579  25.343  1.00  0.00     0.275 C 
BRANCH  55  56
ATOM     56  O   UNL A   1      37.361  22.904  24.834  1.00  0.00    -0.458 OA
BRANCH  56  57
ATOM     57  C   UNL A   1      36.489  23.100  23.822  1.00  0.00     0.339 C 
ATOM     58  O   UNL A   1      36.647  22.867  22.646  1.00  0.00    -0.246 OA
BRANCH  57  59
ATOM     59  C   UNL A   1      35.240  23.577  24.427  1.00  0.00     0.078 A 
ATOM     60  C   UNL A   1      35.207  24.490  25.480  1.00  0.00     0.019 A 
ATOM     61  C   UNL A   1      34.050  23.050  23.966  1.00  0.00     0.127 A 
ATOM     62  C   UNL A   1      33.967  24.885  25.994  1.00  0.00     0.026 A 
ATOM     63  N   UNL A   1      32.849  23.380  24.487  1.00  0.00    -0.258 NA
ATOM     64  C   UNL A   1      32.803  24.339  25.449  1.00  0.00     0.060 A 
BRANCH  64  65
ATOM     65  C   UNL A   1      31.432  24.875  25.801  1.00  0.00     0.178 C 
BRANCH  65  66
ATOM     66  N   UNL A   1      31.045  25.909  24.840  1.00  0.00    -0.341 N 
ATOM     67  C   UNL A   1      30.255  25.693  23.737  1.00  0.00     0.087 A 
ATOM     68  C   UNL A   1      31.308  27.263  24.971  1.00  0.00     0.049 A 
ATOM     69  C   UNL A   1      29.897  26.922  23.229  1.00  0.00     0.028 A 
ATOM     70  C   UNL A   1      30.522  27.922  24.023  1.00  0.00    -0.000 A 
ATOM     71  C   UNL A   1      32.109  27.965  25.888  1.00  0.00     0.042 A 
ATOM     72  C   UNL A   1      30.487  29.332  24.029  1.00  0.00     0.011 A 
ATOM     73  C   UNL A   1      32.038  29.359  25.886  1.00  0.00     0.020 A 
ATOM     74  C   UNL A   1      31.234  30.040  24.980  1.00  0.00     0.016 A 
ATOM     75  Br  UNL A   1      33.029  30.333  27.174  1.00  0.00    -0.051 Br
ENDBRANCH  65  66
ENDBRANCH  64  65
ENDBRANCH  57  59
ENDBRANCH  56  57
ENDBRANCH  55  56
ENDBRANCH   1  55
TORSDOF 13
ENDMDL
MODEL 3
REMARK VINA RESULT:     -10.0      4.995     11.034
REMARK SMILES O=C(OCCOC(=O)c1ccc(Cn2ccc3ccc(Br)cc32)nc1)c1ccc(-c2c3nc(c(-c4ccccc4)c4ccc([nH]4)c(-c4ccccc4)c4nc(c(-c5ccccc5)c5ccc2[nH]5)C=C4)C=C3)cc1
REMARK SMILES IDX 4 1 3 2 2 3 1 4 26 5 27 6 73 7 28 8 72 9 29 10 30 11 31 12
REMARK SMILES IDX 66 13 32 14 71 15 65 16 67 17 33 18 70 19 64 20 63 21 34 23
REMARK SMILES IDX 56 24 41 25 55 26 42 27 45 28 54 29 68 30 43 31 44 32 53 34
REMARK SMILES IDX 69 35 46 36 35 37 36 38 40 39 37 40 39 41 38 42 57 43 58 44
REMARK SMILES IDX 62 45 59 46 61 47 60 48 47 49 48 50 52 51 49 52 51 53 50 54
REMARK SMILES IDX 5 55 6 56 7 57 8 58 9 59 10 60 25 61 11 62 24 63 12 64 13 65
REMARK SMILES IDX 14 66 15 67 23 68 16 69 17 70 22 71 18 72 20 73 19 74 21 75
REMARK H PARENT 67 22 45 33
REMARK Flexibility Score: inf
ROOT
ATOM      1  C   UNL A   1      36.844  34.193  31.771  1.00  0.00     0.275 C 
ENDROOT
BRANCH   1   2
ATOM      2  O   UNL A   1      37.718  33.094  32.149  1.00  0.00    -0.458 OA
BRANCH   2   3
ATOM      3  C   UNL A   1      39.072  33.019  31.999  1.00  0.00     0.338 C 
ATOM      4  O   UNL A   1      39.830  33.827  32.518  1.00  0.00    -0.246 OA
BRANCH   3   5
ATOM      5  C   UNL A   1      39.592  32.048  31.018  1.00  0.00     0.060 A 
ATOM      6  C   UNL A   1      38.818  30.911  30.805  1.00  0.00     0.016 A 
ATOM      7  C   UNL A   1      40.905  32.117  30.553  1.00  0.00     0.016 A 
ATOM      8  C   UNL A   1      39.468  29.740  30.462  1.00  0.00     0.010 A 
ATOM      9  C   UNL A   1      41.559  30.940  30.212  1.00  0.00     0.010 A 
ATOM     10  C   UNL A   1      40.863  29.735  30.289  1.00  0.00    -0.014 A 
BRANCH  10  11
ATOM     11  C   UNL A   1      41.490  28.450  29.966  1.00  0.00     0.031 A 
ATOM     12  C   UNL A   1      42.282  27.938  31.113  1.00  0.00     0.074 A 
ATOM     13  C   UNL A   1      41.314  27.732  28.837  1.00  0.00     0.049 A 
ATOM     14  N   UNL A   1      43.545  27.664  31.159  1.00  0.00    -0.248 NA
ATOM     15  C   UNL A   1      41.604  27.939  32.424  1.00  0.00     0.031 C 
ATOM     16  C   UNL A   1      40.395  27.996  27.731  1.00  0.00     0.029 A 
ATOM     17  N   UNL A   1      41.847  26.520  28.495  1.00  0.00    -0.354 N 
ATOM     18  C   UNL A   1      43.779  27.297  32.478  1.00  0.00     0.074 A 
ATOM     19  C   UNL A   1      42.624  27.696  33.238  1.00  0.00     0.031 C 
ATOM     20  C   UNL A   1      40.231  26.868  27.004  1.00  0.00     0.029 A 
ATOM     21  C   UNL A   1      41.117  25.842  27.523  1.00  0.00     0.049 A 
ATOM     22  H   UNL A   1      42.670  26.160  28.900  1.00  0.00     0.167 HD
ATOM     23  C   UNL A   1      44.771  26.440  32.831  1.00  0.00     0.031 A 
ATOM     24  C   UNL A   1      41.159  24.512  27.245  1.00  0.00     0.031 A 
ATOM     25  C   UNL A   1      45.809  26.365  31.844  1.00  0.00     0.049 A 
ATOM     26  C   UNL A   1      42.415  23.972  27.812  1.00  0.00     0.074 A 
ATOM     27  C   UNL A   1      46.684  27.285  31.302  1.00  0.00     0.029 A 
ATOM     28  N   UNL A   1      45.807  25.291  30.988  1.00  0.00    -0.354 N 
ATOM     29  N   UNL A   1      43.600  24.261  27.360  1.00  0.00    -0.248 NA
ATOM     30  C   UNL A   1      42.370  23.450  29.169  1.00  0.00     0.031 C 
ATOM     31  C   UNL A   1      46.794  26.927  29.929  1.00  0.00     0.029 A 
ATOM     32  C   UNL A   1      46.039  25.771  29.723  1.00  0.00     0.049 A 
ATOM     33  H   UNL A   1      45.665  24.349  31.235  1.00  0.00     0.167 HD
ATOM     34  C   UNL A   1      44.387  24.382  28.495  1.00  0.00     0.074 A 
ATOM     35  C   UNL A   1      43.598  23.787  29.571  1.00  0.00     0.031 C 
ATOM     36  C   UNL A   1      45.474  25.205  28.516  1.00  0.00     0.031 A 
BRANCH  23  37
ATOM     37  C   UNL A   1      44.558  25.418  33.913  1.00  0.00    -0.014 A 
ATOM     38  C   UNL A   1      43.912  24.184  33.673  1.00  0.00     0.009 A 
ATOM     39  C   UNL A   1      45.197  25.565  35.150  1.00  0.00     0.009 A 
ATOM     40  C   UNL A   1      43.849  23.172  34.628  1.00  0.00     0.001 A 
ATOM     41  C   UNL A   1      45.183  24.528  36.093  1.00  0.00     0.001 A 
ATOM     42  C   UNL A   1      44.502  23.339  35.836  1.00  0.00     0.000 A 
ENDBRANCH  23  37
BRANCH  24  43
ATOM     43  C   UNL A   1      40.021  23.616  26.909  1.00  0.00    -0.014 A 
ATOM     44  C   UNL A   1      40.249  22.271  26.571  1.00  0.00     0.009 A 
ATOM     45  C   UNL A   1      38.750  24.149  26.623  1.00  0.00     0.009 A 
ATOM     46  C   UNL A   1      39.272  21.500  25.930  1.00  0.00     0.001 A 
ATOM     47  C   UNL A   1      37.773  23.378  25.975  1.00  0.00     0.001 A 
ATOM     48  C   UNL A   1      38.040  22.061  25.614  1.00  0.00     0.000 A 
ENDBRANCH  24  43
BRANCH  36  49
ATOM     49  C   UNL A   1      45.963  25.800  27.212  1.00  0.00    -0.014 A 
ATOM     50  C   UNL A   1      45.291  26.928  26.712  1.00  0.00     0.009 A 
ATOM     51  C   UNL A   1      46.911  25.173  26.384  1.00  0.00     0.009 A 
ATOM     52  C   UNL A   1      45.534  27.397  25.419  1.00  0.00     0.001 A 
ATOM     53  C   UNL A   1      47.174  25.661  25.098  1.00  0.00     0.001 A 
ATOM     54  C   UNL A   1      46.474  26.763  24.612  1.00  0.00     0.000 A 
ENDBRANCH  36  49
ENDBRANCH  10  11
ENDBRANCH   3   5
ENDBRANCH   2   3
ENDBRANCH   1   2
BRANCH   1  55
ATOM     55  C   UNL A   1      35.737  33.877  30.755  1.00  0.00     0.275 C 
BRANCH  55  56
ATOM     56  O   UNL A   1      35.854  32.555  30.232  1.00  0.00    -0.458 OA
BRANCH  56  57
ATOM     57  C   UNL A   1      36.248  32.414  28.948  1.00  0.00     0.339 C 
ATOM     58  O   UNL A   1      37.182  32.944  28.393  1.00  0.00    -0.246 OA
BRANCH  57  59
ATOM     59  C   UNL A   1      35.373  31.402  28.346  1.00  0.00     0.078 A 
ATOM     60  C   UNL A   1      35.806  30.117  28.026  1.00  0.00     0.019 A 
ATOM     61  C   UNL A   1      34.078  31.764  28.032  1.00  0.00     0.127 A 
ATOM     62  C   UNL A   1      34.898  29.219  27.451  1.00  0.00     0.026 A 
ATOM     63  N   UNL A   1      33.205  30.928  27.429  1.00  0.00    -0.258 NA
ATOM     64  C   UNL A   1      33.593  29.646  27.201  1.00  0.00     0.060 A 
BRANCH  64  65
ATOM     65  C   UNL A   1      32.505  28.677  26.789  1.00  0.00     0.178 C 
BRANCH  65  66
ATOM     66  N   UNL A   1      32.826  28.099  25.483  1.00  0.00    -0.341 N 
ATOM     67  C   UNL A   1      32.923  28.815  24.314  1.00  0.00     0.087 A 
ATOM     68  C   UNL A   1      33.201  26.784  25.259  1.00  0.00     0.049 A 
ATOM     69  C   UNL A   1      33.487  27.994  23.364  1.00  0.00     0.028 A 
ATOM     70  C   UNL A   1      33.705  26.721  23.959  1.00  0.00    -0.000 A 
ATOM     71  C   UNL A   1      33.209  25.667  26.113  1.00  0.00     0.042 A 
ATOM     72  C   UNL A   1      34.293  25.520  23.513  1.00  0.00     0.011 A 
ATOM     73  C   UNL A   1      33.817  24.497  25.654  1.00  0.00     0.020 A 
ATOM     74  C   UNL A   1      34.361  24.419  24.377  1.00  0.00     0.016 A 
ATOM     75  Br  UNL A   1      33.933  23.004  26.813  1.00  0.00    -0.051 Br
ENDBRANCH  65  66
ENDBRANCH  64  65
ENDBRANCH  57  59
ENDBRANCH  56  57
ENDBRANCH  55  56
ENDBRANCH   1  55
TORSDOF 13
ENDMDL
