MODEL 1
REMARK VINA RESULT:     -12.9      0.000      0.000
REMARK SMILES O=C(OCCOC(=O)[C@H]1[C@H]2CC[C@H](CC2)[C@@H]1C(=O)Nc1sc2c(c1C(=O)N1CCCCC1)CCCC2)c1ccc(-c2c3nc(c(-c4ccccc4)c4ccc([nH]4)c(-c4ccccc4)c4nc(c(-c5ccccc5)c5ccc2[nH]5)C=C4)C=C3)cc1
REMARK SMILES IDX 5 1 4 2 3 3 2 4 1 5 37 6 38 7 84 8 39 9 83 10 40 11 41 12
REMARK SMILES IDX 42 13 77 14 43 15 82 16 76 17 78 18 44 19 81 20 75 21 74 22
REMARK SMILES IDX 45 24 67 25 52 26 66 27 53 28 56 29 65 30 79 31 54 32 55 33
REMARK SMILES IDX 64 35 80 36 57 37 46 38 47 39 51 40 48 41 50 42 49 43 68 44
REMARK SMILES IDX 69 45 73 46 70 47 72 48 71 49 58 50 59 51 63 52 60 53 62 54
REMARK SMILES IDX 61 55 6 56 7 57 8 58 9 59 10 60 16 61 15 62 11 63 13 64
REMARK SMILES IDX 14 65 12 66 17 67 18 68 19 69 20 71 21 72 24 73 22 74 23 75
REMARK SMILES IDX 36 76 33 77 35 78 34 79 25 80 26 81 27 82 28 83 32 84 29 85
REMARK SMILES IDX 31 86 30 87
REMARK H PARENT 78 23 56 34 19 70
REMARK Flexibility Score: inf
ROOT
ATOM      1  C   UNL A   1      31.904  29.326  25.763  1.00  0.00     0.274 C 
ENDROOT
BRANCH   1   2
ATOM      2  C   UNL A   1      32.519  30.463  26.581  1.00  0.00     0.275 C 
BRANCH   2   3
ATOM      3  O   UNL A   1      33.874  30.215  27.001  1.00  0.00    -0.458 OA
BRANCH   3   4
ATOM      4  C   UNL A   1      34.574  30.814  27.998  1.00  0.00     0.338 C 
ATOM      5  O   UNL A   1      34.170  31.886  28.445  1.00  0.00    -0.246 OA
BRANCH   4   6
ATOM      6  C   UNL A   1      35.922  30.335  28.443  1.00  0.00     0.060 A 
ATOM      7  C   UNL A   1      36.257  29.879  29.723  1.00  0.00     0.016 A 
ATOM      8  C   UNL A   1      36.927  30.312  27.459  1.00  0.00     0.016 A 
ATOM      9  C   UNL A   1      37.510  29.309  29.989  1.00  0.00     0.010 A 
ATOM     10  C   UNL A   1      38.176  29.738  27.718  1.00  0.00     0.010 A 
ATOM     11  C   UNL A   1      38.474  29.217  28.986  1.00  0.00    -0.014 A 
BRANCH  11  12
ATOM     12  C   UNL A   1      39.846  28.744  29.285  1.00  0.00     0.031 A 
ATOM     13  C   UNL A   1      40.829  29.742  29.813  1.00  0.00     0.074 A 
ATOM     14  C   UNL A   1      40.233  27.465  29.102  1.00  0.00     0.049 A 
ATOM     15  N   UNL A   1      42.076  29.556  30.151  1.00  0.00    -0.248 NA
ATOM     16  C   UNL A   1      40.326  31.104  30.063  1.00  0.00     0.031 C 
ATOM     17  C   UNL A   1      39.357  26.348  28.774  1.00  0.00     0.029 A 
ATOM     18  N   UNL A   1      41.482  26.895  29.107  1.00  0.00    -0.354 N 
ATOM     19  C   UNL A   1      42.481  30.750  30.723  1.00  0.00     0.074 A 
ATOM     20  C   UNL A   1      41.385  31.684  30.606  1.00  0.00     0.031 C 
ATOM     21  C   UNL A   1      40.095  25.285  28.412  1.00  0.00     0.029 A 
ATOM     22  C   UNL A   1      41.501  25.625  28.573  1.00  0.00     0.049 A 
ATOM     23  H   UNL A   1      42.283  27.347  29.456  1.00  0.00     0.167 HD
ATOM     24  C   UNL A   1      43.649  31.017  31.347  1.00  0.00     0.031 A 
ATOM     25  C   UNL A   1      42.537  24.827  28.254  1.00  0.00     0.031 A 
ATOM     26  C   UNL A   1      44.746  30.093  31.413  1.00  0.00     0.049 A 
ATOM     27  C   UNL A   1      43.902  25.242  28.720  1.00  0.00     0.074 A 
ATOM     28  C   UNL A   1      45.966  30.248  32.042  1.00  0.00     0.029 A 
ATOM     29  N   UNL A   1      44.762  28.853  30.793  1.00  0.00    -0.354 N 
ATOM     30  N   UNL A   1      44.247  26.328  29.368  1.00  0.00    -0.248 NA
ATOM     31  C   UNL A   1      45.000  24.292  28.501  1.00  0.00     0.031 C 
ATOM     32  C   UNL A   1      46.750  29.130  31.740  1.00  0.00     0.029 A 
ATOM     33  C   UNL A   1      45.996  28.255  30.972  1.00  0.00     0.049 A 
ATOM     34  H   UNL A   1      44.007  28.457  30.300  1.00  0.00     0.167 HD
ATOM     35  C   UNL A   1      45.580  26.158  29.706  1.00  0.00     0.074 A 
ATOM     36  C   UNL A   1      45.985  24.873  29.171  1.00  0.00     0.031 C 
ATOM     37  C   UNL A   1      46.382  26.979  30.426  1.00  0.00     0.031 A 
BRANCH  24  38
ATOM     38  C   UNL A   1      43.781  32.362  31.989  1.00  0.00    -0.014 A 
ATOM     39  C   UNL A   1      44.296  33.455  31.272  1.00  0.00     0.009 A 
ATOM     40  C   UNL A   1      43.384  32.543  33.321  1.00  0.00     0.009 A 
ATOM     41  C   UNL A   1      44.433  34.700  31.887  1.00  0.00     0.001 A 
ATOM     42  C   UNL A   1      43.503  33.795  33.926  1.00  0.00     0.001 A 
ATOM     43  C   UNL A   1      44.033  34.870  33.211  1.00  0.00     0.000 A 
ENDBRANCH  24  38
BRANCH  25  44
ATOM     44  C   UNL A   1      42.334  23.560  27.501  1.00  0.00    -0.014 A 
ATOM     45  C   UNL A   1      41.999  22.367  28.156  1.00  0.00     0.009 A 
ATOM     46  C   UNL A   1      42.541  23.531  26.111  1.00  0.00     0.009 A 
ATOM     47  C   UNL A   1      41.918  21.165  27.445  1.00  0.00     0.001 A 
ATOM     48  C   UNL A   1      42.441  22.331  25.399  1.00  0.00     0.001 A 
ATOM     49  C   UNL A   1      42.142  21.147  26.069  1.00  0.00     0.000 A 
ENDBRANCH  25  44
BRANCH  37  50
ATOM     50  C   UNL A   1      47.773  26.493  30.705  1.00  0.00    -0.014 A 
ATOM     51  C   UNL A   1      48.077  25.799  31.883  1.00  0.00     0.009 A 
ATOM     52  C   UNL A   1      48.781  26.698  29.749  1.00  0.00     0.009 A 
ATOM     53  C   UNL A   1      49.375  25.344  32.115  1.00  0.00     0.001 A 
ATOM     54  C   UNL A   1      50.069  26.212  29.968  1.00  0.00     0.001 A 
ATOM     55  C   UNL A   1      50.367  25.544  31.155  1.00  0.00     0.000 A 
ENDBRANCH  37  50
ENDBRANCH  11  12
ENDBRANCH   4   6
ENDBRANCH   3   4
ENDBRANCH   2   3
ENDBRANCH   1   2
BRANCH   1  56
ATOM     56  O   UNL A   1      31.706  28.152  26.561  1.00  0.00    -0.462 OA
BRANCH  56  57
ATOM     57  C   UNL A   1      32.425  27.046  26.196  1.00  0.00     0.310 C 
ATOM     58  O   UNL A   1      33.633  26.948  26.279  1.00  0.00    -0.252 OA
BRANCH  57  59
ATOM     59  C   UNL A   1      31.475  25.956  25.704  1.00  0.00     0.115 C 
ATOM     60  C   UNL A   1      30.864  26.301  24.338  1.00  0.00     0.004 C 
ATOM     61  C   UNL A   1      32.123  24.564  25.647  1.00  0.00     0.096 C 
ATOM     62  C   UNL A   1      31.964  26.397  23.277  1.00  0.00     0.005 C 
ATOM     63  C   UNL A   1      29.896  25.173  23.915  1.00  0.00     0.005 C 
ATOM     64  C   UNL A   1      32.112  24.041  24.182  1.00  0.00     0.002 C 
ATOM     65  C   UNL A   1      32.793  25.106  23.287  1.00  0.00     0.005 C 
ATOM     66  C   UNL A   1      30.671  23.873  23.678  1.00  0.00     0.005 C 
BRANCH  61  67
ATOM     67  C   UNL A   1      31.383  23.593  26.598  1.00  0.00     0.229 C 
ATOM     68  O   UNL A   1      30.266  23.862  27.051  1.00  0.00    -0.274 OA
ATOM     69  N   UNL A   1      31.884  22.342  26.824  1.00  0.00    -0.317 N 
ATOM     70  H   UNL A   1      31.272  21.670  27.202  1.00  0.00     0.170 HD
BRANCH  69  71
ATOM     71  C   UNL A   1      33.172  21.944  26.567  1.00  0.00     0.108 A 
ATOM     72  S   UNL A   1      34.411  22.693  27.457  1.00  0.00    -0.122 S 
ATOM     73  C   UNL A   1      33.615  20.922  25.741  1.00  0.00     0.078 A 
ATOM     74  C   UNL A   1      35.552  22.115  26.355  1.00  0.00     0.011 A 
ATOM     75  C   UNL A   1      35.060  21.067  25.592  1.00  0.00    -0.019 A 
ATOM     76  C   UNL A   1      36.928  22.699  26.293  1.00  0.00     0.047 C 
ATOM     77  C   UNL A   1      35.980  20.332  24.667  1.00  0.00     0.037 C 
ATOM     78  C   UNL A   1      37.651  22.211  25.031  1.00  0.00     0.006 C 
ATOM     79  C   UNL A   1      37.458  20.707  24.850  1.00  0.00     0.005 C 
BRANCH  73  80
ATOM     80  C   UNL A   1      32.628  20.074  25.038  1.00  0.00     0.257 C 
ATOM     81  O   UNL A   1      31.609  20.554  24.536  1.00  0.00    -0.269 OA
ATOM     82  N   UNL A   1      32.946  18.740  24.825  1.00  0.00    -0.339 N 
ATOM     83  C   UNL A   1      32.684  18.210  23.496  1.00  0.00     0.120 C 
ATOM     84  C   UNL A   1      32.759  17.770  25.893  1.00  0.00     0.120 C 
ATOM     85  C   UNL A   1      33.664  17.084  23.201  1.00  0.00     0.022 C 
ATOM     86  C   UNL A   1      33.655  16.546  25.685  1.00  0.00     0.022 C 
ATOM     87  C   UNL A   1      33.572  15.987  24.263  1.00  0.00     0.004 C 
ENDBRANCH  73  80
ENDBRANCH  69  71
ENDBRANCH  61  67
ENDBRANCH  57  59
ENDBRANCH  56  57
ENDBRANCH   1  56
TORSDOF 14
ENDMDL
MODEL 2
REMARK VINA RESULT:     -12.8      0.532      5.584
REMARK SMILES O=C(OCCOC(=O)[C@H]1[C@H]2CC[C@H](CC2)[C@@H]1C(=O)Nc1sc2c(c1C(=O)N1CCCCC1)CCCC2)c1ccc(-c2c3nc(c(-c4ccccc4)c4ccc([nH]4)c(-c4ccccc4)c4nc(c(-c5ccccc5)c5ccc2[nH]5)C=C4)C=C3)cc1
REMARK SMILES IDX 5 1 4 2 3 3 2 4 1 5 37 6 38 7 84 8 39 9 83 10 40 11 41 12
REMARK SMILES IDX 42 13 77 14 43 15 82 16 76 17 78 18 44 19 81 20 75 21 74 22
REMARK SMILES IDX 45 24 67 25 52 26 66 27 53 28 56 29 65 30 79 31 54 32 55 33
REMARK SMILES IDX 64 35 80 36 57 37 46 38 47 39 51 40 48 41 50 42 49 43 68 44
REMARK SMILES IDX 69 45 73 46 70 47 72 48 71 49 58 50 59 51 63 52 60 53 62 54
REMARK SMILES IDX 61 55 6 56 7 57 8 58 9 59 10 60 16 61 15 62 11 63 13 64
REMARK SMILES IDX 14 65 12 66 17 67 18 68 19 69 20 71 21 72 24 73 22 74 23 75
REMARK SMILES IDX 36 76 33 77 35 78 34 79 25 80 26 81 27 82 28 83 32 84 29 85
REMARK SMILES IDX 31 86 30 87
REMARK H PARENT 78 23 56 34 19 70
REMARK Flexibility Score: inf
ROOT
ATOM      1  C   UNL A   1      31.768  28.962  26.493  1.00  0.00     0.274 C 
ENDROOT
BRANCH   1   2
ATOM      2  C   UNL A   1      32.594  30.173  26.932  1.00  0.00     0.275 C 
BRANCH   2   3
ATOM      3  O   UNL A   1      33.848  29.831  27.553  1.00  0.00    -0.458 OA
BRANCH   3   4
ATOM      4  C   UNL A   1      34.669  30.620  28.293  1.00  0.00     0.338 C 
ATOM      5  O   UNL A   1      34.322  31.774  28.535  1.00  0.00    -0.246 OA
BRANCH   4   6
ATOM      6  C   UNL A   1      36.065  30.218  28.659  1.00  0.00     0.060 A 
ATOM      7  C   UNL A   1      36.506  29.825  29.928  1.00  0.00     0.016 A 
ATOM      8  C   UNL A   1      37.001  30.205  27.610  1.00  0.00     0.016 A 
ATOM      9  C   UNL A   1      37.799  29.321  30.126  1.00  0.00     0.010 A 
ATOM     10  C   UNL A   1      38.290  29.697  27.802  1.00  0.00     0.010 A 
ATOM     11  C   UNL A   1      38.697  29.236  29.063  1.00  0.00    -0.014 A 
BRANCH  11  12
ATOM     12  C   UNL A   1      40.107  28.836  29.282  1.00  0.00     0.031 A 
ATOM     13  C   UNL A   1      40.482  27.416  28.993  1.00  0.00     0.074 A 
ATOM     14  C   UNL A   1      41.049  29.694  29.725  1.00  0.00     0.049 A 
ATOM     15  N   UNL A   1      41.650  26.844  29.103  1.00  0.00    -0.248 NA
ATOM     16  C   UNL A   1      39.427  26.547  28.441  1.00  0.00     0.031 C 
ATOM     17  C   UNL A   1      40.888  31.134  29.874  1.00  0.00     0.029 A 
ATOM     18  N   UNL A   1      42.321  29.469  30.191  1.00  0.00    -0.354 N 
ATOM     19  C   UNL A   1      41.490  25.579  28.562  1.00  0.00     0.074 A 
ATOM     20  C   UNL A   1      40.097  25.429  28.210  1.00  0.00     0.031 C 
ATOM     21  C   UNL A   1      41.919  31.635  30.575  1.00  0.00     0.029 A 
ATOM     22  C   UNL A   1      42.860  30.558  30.842  1.00  0.00     0.049 A 
ATOM     23  H   UNL A   1      42.799  28.618  30.073  1.00  0.00     0.167 HD
ATOM     24  C   UNL A   1      42.442  24.652  28.326  1.00  0.00     0.031 A 
ATOM     25  C   UNL A   1      43.987  30.669  31.569  1.00  0.00     0.031 A 
ATOM     26  C   UNL A   1      43.813  24.798  28.725  1.00  0.00     0.049 A 
ATOM     27  C   UNL A   1      44.956  29.524  31.528  1.00  0.00     0.074 A 
ATOM     28  C   UNL A   1      44.870  23.932  28.514  1.00  0.00     0.029 A 
ATOM     29  N   UNL A   1      44.306  25.871  29.452  1.00  0.00    -0.354 N 
ATOM     30  N   UNL A   1      44.835  28.375  30.909  1.00  0.00    -0.248 NA
ATOM     31  C   UNL A   1      46.248  29.718  32.198  1.00  0.00     0.031 C 
ATOM     32  C   UNL A   1      45.987  24.449  29.179  1.00  0.00     0.029 A 
ATOM     33  C   UNL A   1      45.640  25.661  29.754  1.00  0.00     0.049 A 
ATOM     34  H   UNL A   1      43.784  26.664  29.715  1.00  0.00     0.167 HD
ATOM     35  C   UNL A   1      46.060  27.742  31.044  1.00  0.00     0.074 A 
ATOM     36  C   UNL A   1      46.903  28.628  31.823  1.00  0.00     0.031 C 
ATOM     37  C   UNL A   1      46.459  26.551  30.536  1.00  0.00     0.031 A 
BRANCH  24  38
ATOM     38  C   UNL A   1      42.013  23.407  27.613  1.00  0.00    -0.014 A 
ATOM     39  C   UNL A   1      42.310  23.219  26.253  1.00  0.00     0.009 A 
ATOM     40  C   UNL A   1      41.310  22.412  28.305  1.00  0.00     0.009 A 
ATOM     41  C   UNL A   1      41.887  22.065  25.593  1.00  0.00     0.001 A 
ATOM     42  C   UNL A   1      40.907  21.250  27.646  1.00  0.00     0.001 A 
ATOM     43  C   UNL A   1      41.190  21.080  26.291  1.00  0.00     0.000 A 
ENDBRANCH  24  38
BRANCH  25  44
ATOM     44  C   UNL A   1      44.283  31.898  32.353  1.00  0.00    -0.014 A 
ATOM     45  C   UNL A   1      45.052  32.940  31.816  1.00  0.00     0.009 A 
ATOM     46  C   UNL A   1      43.840  32.004  33.683  1.00  0.00     0.009 A 
ATOM     47  C   UNL A   1      45.410  34.039  32.605  1.00  0.00     0.001 A 
ATOM     48  C   UNL A   1      44.183  33.113  34.464  1.00  0.00     0.001 A 
ATOM     49  C   UNL A   1      44.978  34.123  33.928  1.00  0.00     0.000 A 
ENDBRANCH  25  44
BRANCH  37  50
ATOM     50  C   UNL A   1      47.883  26.153  30.782  1.00  0.00    -0.014 A 
ATOM     51  C   UNL A   1      48.272  25.551  31.985  1.00  0.00     0.009 A 
ATOM     52  C   UNL A   1      48.838  26.346  29.771  1.00  0.00     0.009 A 
ATOM     53  C   UNL A   1      49.600  25.176  32.186  1.00  0.00     0.001 A 
ATOM     54  C   UNL A   1      50.158  25.939  29.961  1.00  0.00     0.001 A 
ATOM     55  C   UNL A   1      50.539  25.362  31.171  1.00  0.00     0.000 A 
ENDBRANCH  37  50
ENDBRANCH  11  12
ENDBRANCH   4   6
ENDBRANCH   3   4
ENDBRANCH   2   3
ENDBRANCH   1   2
BRANCH   1  56
ATOM     56  O   UNL A   1      32.330  28.336  25.332  1.00  0.00    -0.462 OA
BRANCH  56  57
ATOM     57  C   UNL A   1      32.862  27.089  25.518  1.00  0.00     0.310 C 
ATOM     58  O   UNL A   1      33.994  26.870  25.900  1.00  0.00    -0.252 OA
BRANCH  57  59
ATOM     59  C   UNL A   1      31.808  26.029  25.202  1.00  0.00     0.115 C 
ATOM     60  C   UNL A   1      31.158  26.257  23.829  1.00  0.00     0.004 C 
ATOM     61  C   UNL A   1      32.345  24.592  25.290  1.00  0.00     0.096 C 
ATOM     62  C   UNL A   1      32.208  26.136  22.721  1.00  0.00     0.005 C 
ATOM     63  C   UNL A   1      30.087  25.169  23.588  1.00  0.00     0.005 C 
ATOM     64  C   UNL A   1      32.221  23.900  23.902  1.00  0.00     0.002 C 
ATOM     65  C   UNL A   1      32.935  24.792  22.857  1.00  0.00     0.005 C 
ATOM     66  C   UNL A   1      30.748  23.792  23.482  1.00  0.00     0.005 C 
BRANCH  61  67
ATOM     67  C   UNL A   1      31.581  23.806  26.383  1.00  0.00     0.229 C 
ATOM     68  O   UNL A   1      30.494  24.199  26.819  1.00  0.00    -0.274 OA
ATOM     69  N   UNL A   1      32.019  22.569  26.768  1.00  0.00    -0.317 N 
ATOM     70  H   UNL A   1      31.382  21.993  27.249  1.00  0.00     0.170 HD
BRANCH  69  71
ATOM     71  C   UNL A   1      33.274  22.065  26.539  1.00  0.00     0.108 A 
ATOM     72  S   UNL A   1      34.568  22.788  27.370  1.00  0.00    -0.122 S 
ATOM     73  C   UNL A   1      33.639  20.956  25.790  1.00  0.00     0.078 A 
ATOM     74  C   UNL A   1      35.659  22.053  26.312  1.00  0.00     0.011 A 
ATOM     75  C   UNL A   1      35.089  20.988  25.629  1.00  0.00    -0.019 A 
ATOM     76  C   UNL A   1      37.071  22.532  26.206  1.00  0.00     0.047 C 
ATOM     77  C   UNL A   1      35.950  20.124  24.760  1.00  0.00     0.037 C 
ATOM     78  C   UNL A   1      37.750  21.904  24.982  1.00  0.00     0.006 C 
ATOM     79  C   UNL A   1      37.452  20.408  24.913  1.00  0.00     0.005 C 
BRANCH  73  80
ATOM     80  C   UNL A   1      32.591  20.130  25.153  1.00  0.00     0.257 C 
ATOM     81  O   UNL A   1      31.514  20.617  24.799  1.00  0.00    -0.269 OA
ATOM     82  N   UNL A   1      32.902  18.818  24.825  1.00  0.00    -0.339 N 
ATOM     83  C   UNL A   1      32.498  18.361  23.504  1.00  0.00     0.120 C 
ATOM     84  C   UNL A   1      32.851  17.783  25.847  1.00  0.00     0.120 C 
ATOM     85  C   UNL A   1      33.455  17.276  23.033  1.00  0.00     0.022 C 
ATOM     86  C   UNL A   1      33.735  16.593  25.465  1.00  0.00     0.022 C 
ATOM     87  C   UNL A   1      33.499  16.116  24.030  1.00  0.00     0.004 C 
ENDBRANCH  73  80
ENDBRANCH  69  71
ENDBRANCH  61  67
ENDBRANCH  57  59
ENDBRANCH  56  57
ENDBRANCH   1  56
TORSDOF 14
ENDMDL
MODEL 3
REMARK VINA RESULT:     -12.7      3.055      8.513
REMARK SMILES O=C(OCCOC(=O)[C@H]1[C@H]2CC[C@H](CC2)[C@@H]1C(=O)Nc1sc2c(c1C(=O)N1CCCCC1)CCCC2)c1ccc(-c2c3nc(c(-c4ccccc4)c4ccc([nH]4)c(-c4ccccc4)c4nc(c(-c5ccccc5)c5ccc2[nH]5)C=C4)C=C3)cc1
REMARK SMILES IDX 5 1 4 2 3 3 2 4 1 5 37 6 38 7 84 8 39 9 83 10 40 11 41 12
REMARK SMILES IDX 42 13 77 14 43 15 82 16 76 17 78 18 44 19 81 20 75 21 74 22
REMARK SMILES IDX 45 24 67 25 52 26 66 27 53 28 56 29 65 30 79 31 54 32 55 33
REMARK SMILES IDX 64 35 80 36 57 37 46 38 47 39 51 40 48 41 50 42 49 43 68 44
REMARK SMILES IDX 69 45 73 46 70 47 72 48 71 49 58 50 59 51 63 52 60 53 62 54
REMARK SMILES IDX 61 55 6 56 7 57 8 58 9 59 10 60 16 61 15 62 11 63 13 64
REMARK SMILES IDX 14 65 12 66 17 67 18 68 19 69 20 71 21 72 24 73 22 74 23 75
REMARK SMILES IDX 36 76 33 77 35 78 34 79 25 80 26 81 27 82 28 83 32 84 29 85
REMARK SMILES IDX 31 86 30 87
REMARK H PARENT 78 23 56 34 19 70
REMARK Flexibility Score: inf
ROOT
ATOM      1  C   UNL A   1      36.898  22.244  23.830  1.00  0.00     0.274 C 
ENDROOT
BRANCH   1   2
ATOM      2  C   UNL A   1      37.468  21.388  24.963  1.00  0.00     0.275 C 
BRANCH   2   3
ATOM      3  O   UNL A   1      37.975  22.152  26.074  1.00  0.00    -0.458 OA
BRANCH   3   4
ATOM      4  C   UNL A   1      39.221  22.663  26.251  1.00  0.00     0.338 C 
ATOM      5  O   UNL A   1      40.194  21.958  25.991  1.00  0.00    -0.246 OA
BRANCH   4   6
ATOM      6  C   UNL A   1      39.469  23.973  26.935  1.00  0.00     0.060 A 
ATOM      7  C   UNL A   1      38.951  24.371  28.172  1.00  0.00     0.016 A 
ATOM      8  C   UNL A   1      40.337  24.860  26.275  1.00  0.00     0.016 A 
ATOM      9  C   UNL A   1      39.372  25.556  28.791  1.00  0.00     0.010 A 
ATOM     10  C   UNL A   1      40.765  26.042  26.892  1.00  0.00     0.010 A 
ATOM     11  C   UNL A   1      40.294  26.393  28.166  1.00  0.00    -0.014 A 
BRANCH  11  12
ATOM     12  C   UNL A   1      40.645  27.713  28.743  1.00  0.00     0.031 A 
ATOM     13  C   UNL A   1      41.939  27.828  29.486  1.00  0.00     0.074 A 
ATOM     14  C   UNL A   1      39.850  28.796  28.621  1.00  0.00     0.049 A 
ATOM     15  N   UNL A   1      42.454  28.878  30.066  1.00  0.00    -0.248 NA
ATOM     16  C   UNL A   1      42.797  26.630  29.520  1.00  0.00     0.031 C 
ATOM     17  C   UNL A   1      38.663  28.894  27.783  1.00  0.00     0.029 A 
ATOM     18  N   UNL A   1      39.889  30.014  29.255  1.00  0.00    -0.354 N 
ATOM     19  C   UNL A   1      43.724  28.491  30.461  1.00  0.00     0.074 A 
ATOM     20  C   UNL A   1      43.871  27.089  30.143  1.00  0.00     0.031 C 
ATOM     21  C   UNL A   1      37.977  30.005  28.097  1.00  0.00     0.029 A 
ATOM     22  C   UNL A   1      38.731  30.744  29.098  1.00  0.00     0.049 A 
ATOM     23  H   UNL A   1      40.665  30.333  29.770  1.00  0.00     0.167 HD
ATOM     24  C   UNL A   1      44.699  29.261  30.987  1.00  0.00     0.031 A 
ATOM     25  C   UNL A   1      38.329  31.881  29.695  1.00  0.00     0.031 A 
ATOM     26  C   UNL A   1      44.521  30.641  31.341  1.00  0.00     0.049 A 
ATOM     27  C   UNL A   1      39.339  32.632  30.511  1.00  0.00     0.074 A 
ATOM     28  C   UNL A   1      45.449  31.526  31.857  1.00  0.00     0.029 A 
ATOM     29  N   UNL A   1      43.318  31.324  31.246  1.00  0.00    -0.354 N 
ATOM     30  N   UNL A   1      40.581  32.303  30.777  1.00  0.00    -0.248 NA
ATOM     31  C   UNL A   1      38.937  33.946  31.030  1.00  0.00     0.031 C 
ATOM     32  C   UNL A   1      44.787  32.724  32.143  1.00  0.00     0.029 A 
ATOM     33  C   UNL A   1      43.462  32.603  31.753  1.00  0.00     0.049 A 
ATOM     34  H   UNL A   1      42.485  30.953  30.873  1.00  0.00     0.167 HD
ATOM     35  C   UNL A   1      41.132  33.398  31.421  1.00  0.00     0.074 A 
ATOM     36  C   UNL A   1      40.083  34.394  31.525  1.00  0.00     0.031 C 
ATOM     37  C   UNL A   1      42.404  33.575  31.854  1.00  0.00     0.031 A 
BRANCH  24  38
ATOM     38  C   UNL A   1      46.029  28.611  31.211  1.00  0.00    -0.014 A 
ATOM     39  C   UNL A   1      46.965  28.512  30.168  1.00  0.00     0.009 A 
ATOM     40  C   UNL A   1      46.352  28.096  32.472  1.00  0.00     0.009 A 
ATOM     41  C   UNL A   1      48.194  27.886  30.381  1.00  0.00     0.001 A 
ATOM     42  C   UNL A   1      47.591  27.489  32.688  1.00  0.00     0.001 A 
ATOM     43  C   UNL A   1      48.507  27.379  31.641  1.00  0.00     0.000 A 
ENDBRANCH  24  38
BRANCH  25  44
ATOM     44  C   UNL A   1      36.945  32.398  29.521  1.00  0.00    -0.014 A 
ATOM     45  C   UNL A   1      36.599  33.209  28.430  1.00  0.00     0.009 A 
ATOM     46  C   UNL A   1      35.968  32.127  30.495  1.00  0.00     0.009 A 
ATOM     47  C   UNL A   1      35.322  33.773  28.341  1.00  0.00     0.001 A 
ATOM     48  C   UNL A   1      34.686  32.677  30.393  1.00  0.00     0.001 A 
ATOM     49  C   UNL A   1      34.369  33.509  29.323  1.00  0.00     0.000 A 
ENDBRANCH  25  44
BRANCH  37  50
ATOM     50  C   UNL A   1      42.737  34.909  32.450  1.00  0.00    -0.014 A 
ATOM     51  C   UNL A   1      43.390  35.897  31.701  1.00  0.00     0.009 A 
ATOM     52  C   UNL A   1      42.351  35.192  33.770  1.00  0.00     0.009 A 
ATOM     53  C   UNL A   1      43.678  37.136  32.273  1.00  0.00     0.001 A 
ATOM     54  C   UNL A   1      42.610  36.443  34.328  1.00  0.00     0.001 A 
ATOM     55  C   UNL A   1      43.281  37.411  33.582  1.00  0.00     0.000 A 
ENDBRANCH  37  50
ENDBRANCH  11  12
ENDBRANCH   4   6
ENDBRANCH   3   4
ENDBRANCH   2   3
ENDBRANCH   1   2
BRANCH   1  56
ATOM     56  O   UNL A   1      35.468  22.321  23.898  1.00  0.00    -0.462 OA
BRANCH  56  57
ATOM     57  C   UNL A   1      34.941  23.560  24.143  1.00  0.00     0.310 C 
ATOM     58  O   UNL A   1      35.478  24.420  24.811  1.00  0.00    -0.252 OA
BRANCH  57  59
ATOM     59  C   UNL A   1      33.600  23.698  23.424  1.00  0.00     0.115 C 
ATOM     60  C   UNL A   1      32.578  22.662  23.911  1.00  0.00     0.004 C 
ATOM     61  C   UNL A   1      32.999  25.109  23.524  1.00  0.00     0.096 C 
ATOM     62  C   UNL A   1      32.272  22.879  25.396  1.00  0.00     0.005 C 
ATOM     63  C   UNL A   1      31.259  22.841  23.126  1.00  0.00     0.005 C 
ATOM     64  C   UNL A   1      31.628  25.043  24.256  1.00  0.00     0.002 C 
ATOM     65  C   UNL A   1      31.845  24.337  25.617  1.00  0.00     0.005 C 
ATOM     66  C   UNL A   1      30.628  24.197  23.456  1.00  0.00     0.005 C 
BRANCH  61  67
ATOM     67  C   UNL A   1      32.856  25.727  22.112  1.00  0.00     0.229 C 
ATOM     68  O   UNL A   1      32.928  25.031  21.094  1.00  0.00    -0.274 OA
ATOM     69  N   UNL A   1      32.480  27.034  21.973  1.00  0.00    -0.317 N 
ATOM     70  H   UNL A   1      32.140  27.316  21.093  1.00  0.00     0.170 HD
BRANCH  69  71
ATOM     71  C   UNL A   1      32.538  27.986  22.959  1.00  0.00     0.108 A 
ATOM     72  S   UNL A   1      34.079  28.445  23.509  1.00  0.00    -0.122 S 
ATOM     73  C   UNL A   1      31.503  28.723  23.514  1.00  0.00     0.078 A 
ATOM     74  C   UNL A   1      33.381  29.161  24.869  1.00  0.00     0.011 A 
ATOM     75  C   UNL A   1      32.025  29.399  24.698  1.00  0.00    -0.019 A 
ATOM     76  C   UNL A   1      34.205  29.501  26.070  1.00  0.00     0.047 C 
ATOM     77  C   UNL A   1      31.273  30.165  25.742  1.00  0.00     0.037 C 
ATOM     78  C   UNL A   1      33.294  29.854  27.251  1.00  0.00     0.006 C 
ATOM     79  C   UNL A   1      32.181  30.801  26.806  1.00  0.00     0.005 C 
BRANCH  73  80
ATOM     80  C   UNL A   1      30.127  28.546  23.002  1.00  0.00     0.257 C 
ATOM     81  O   UNL A   1      29.621  27.427  22.888  1.00  0.00    -0.269 OA
ATOM     82  N   UNL A   1      29.358  29.682  22.789  1.00  0.00    -0.339 N 
ATOM     83  C   UNL A   1      27.987  29.644  23.276  1.00  0.00     0.120 C 
ATOM     84  C   UNL A   1      29.527  30.454  21.568  1.00  0.00     0.120 C 
ATOM     85  C   UNL A   1      27.537  31.056  23.622  1.00  0.00     0.022 C 
ATOM     86  C   UNL A   1      29.052  31.897  21.762  1.00  0.00     0.022 C 
ATOM     87  C   UNL A   1      27.669  31.982  22.411  1.00  0.00     0.004 C 
ENDBRANCH  73  80
ENDBRANCH  69  71
ENDBRANCH  61  67
ENDBRANCH  57  59
ENDBRANCH  56  57
ENDBRANCH   1  56
TORSDOF 14
ENDMDL
