MODEL 1
REMARK VINA RESULT:     -12.3      0.000      0.000
REMARK SMILES Cc1ccc(Cl)c2c1N[C@@H](c1ccc(C(=O)OCCOC(=O)c3ccc(-c4c5nc(c(-c6ccccc6)c6ccc([nH]6)c(-c6ccccc6)c6nc(c(-c7ccccc7)c7ccc4[nH]7)C=C6)C=C5)cc3)cc1)[C@H]1CC=C[C@@H]21
REMARK SMILES IDX 19 1 18 2 17 3 15 4 16 5 14 6 11 7 12 8 72 9 13 10 71 11
REMARK SMILES IDX 10 12 1 13 2 14 3 15 8 16 4 17 7 18 9 19 5 20 77 21 6 23
REMARK SMILES IDX 73 24 76 25 74 26 75 27 20 28 21 29 22 30 23 31 24 32 70 33
REMARK SMILES IDX 25 34 69 35 26 36 27 37 28 38 63 39 29 40 68 41 62 42 64 43
REMARK SMILES IDX 30 44 67 45 61 46 60 47 31 49 53 50 38 51 52 52 39 53 42 54
REMARK SMILES IDX 51 55 65 56 40 57 41 58 50 60 66 61 43 62 32 63 33 64 37 65
REMARK SMILES IDX 34 66 36 67 35 68 54 69 55 70 59 71 56 72 58 73 57 74 44 75
REMARK SMILES IDX 45 76 49 77 46 78 48 79 47 80
REMARK H PARENT 9 22 64 48 42 59
REMARK Flexibility Score: inf
ROOT
ATOM      1  C   UNL A   1      34.043  31.919  27.993  1.00  0.00     0.275 C 
ENDROOT
BRANCH   1   2
ATOM      2  C   UNL A   1      33.660  30.491  27.615  1.00  0.00     0.275 C 
BRANCH   2   3
ATOM      3  O   UNL A   1      33.275  30.444  26.228  1.00  0.00    -0.458 OA
BRANCH   3   4
ATOM      4  C   UNL A   1      31.941  30.556  26.009  1.00  0.00     0.338 C 
ATOM      5  O   UNL A   1      31.266  31.555  26.158  1.00  0.00    -0.246 OA
BRANCH   4   6
ATOM      6  C   UNL A   1      31.400  29.305  25.428  1.00  0.00     0.060 A 
ATOM      7  C   UNL A   1      30.622  26.797  24.394  1.00  0.00    -0.025 A 
ATOM      8  C   UNL A   1      31.128  26.921  25.695  1.00  0.00     0.007 A 
ATOM      9  C   UNL A   1      30.400  27.982  23.666  1.00  0.00     0.007 A 
ATOM     10  C   UNL A   1      31.556  28.146  26.185  1.00  0.00     0.016 A 
ATOM     11  C   UNL A   1      30.782  29.231  24.180  1.00  0.00     0.016 A 
BRANCH   7  12
ATOM     12  C   UNL A   1      30.480  25.430  23.713  1.00  0.00     0.114 C 
ATOM     13  C   UNL A   1      29.773  22.847  27.135  1.00  0.00     0.046 C 
ATOM     14  C   UNL A   1      31.145  23.065  26.551  1.00  0.00    -0.027 A 
ATOM     15  C   UNL A   1      32.245  22.608  27.292  1.00  0.00     0.007 A 
ATOM     16  C   UNL A   1      31.356  23.778  25.347  1.00  0.00     0.043 A 
ATOM     17  C   UNL A   1      33.539  22.797  26.825  1.00  0.00     0.021 A 
ATOM     18  C   UNL A   1      32.676  23.940  24.848  1.00  0.00     0.001 A 
ATOM     19  N   UNL A   1      30.275  24.361  24.686  1.00  0.00    -0.377 N 
ATOM     20  C   UNL A   1      33.754  23.434  25.604  1.00  0.00     0.046 A 
ATOM     21  C   UNL A   1      32.904  24.609  23.511  1.00  0.00     0.051 C 
ATOM     22  H   UNL A   1      29.361  24.047  24.878  1.00  0.00     0.161 HD
ATOM     23  Cl  UNL A   1      35.399  23.551  25.075  1.00  0.00    -0.084 Cl
ATOM     24  C   UNL A   1      31.618  25.002  22.751  1.00  0.00     0.031 C 
ATOM     25  C   UNL A   1      33.656  25.920  23.496  1.00  0.00    -0.023 C 
ATOM     26  C   UNL A   1      32.082  26.098  21.777  1.00  0.00     0.034 C 
ATOM     27  C   UNL A   1      33.216  26.726  22.521  1.00  0.00    -0.030 C 
ENDBRANCH   7  12
ENDBRANCH   4   6
ENDBRANCH   3   4
ENDBRANCH   2   3
ENDBRANCH   1   2
BRANCH   1  28
ATOM     28  O   UNL A   1      35.445  31.984  28.319  1.00  0.00    -0.458 OA
BRANCH  28  29
ATOM     29  C   UNL A   1      35.806  31.430  29.499  1.00  0.00     0.338 C 
ATOM     30  O   UNL A   1      35.252  31.556  30.580  1.00  0.00    -0.246 OA
BRANCH  29  31
ATOM     31  C   UNL A   1      37.027  30.625  29.327  1.00  0.00     0.060 A 
ATOM     32  C   UNL A   1      37.780  30.245  30.437  1.00  0.00     0.016 A 
ATOM     33  C   UNL A   1      37.497  30.358  28.041  1.00  0.00     0.016 A 
ATOM     34  C   UNL A   1      39.052  29.700  30.267  1.00  0.00     0.010 A 
ATOM     35  C   UNL A   1      38.730  29.719  27.873  1.00  0.00     0.010 A 
ATOM     36  C   UNL A   1      39.543  29.425  28.981  1.00  0.00    -0.014 A 
BRANCH  36  37
ATOM     37  C   UNL A   1      40.914  28.879  28.787  1.00  0.00     0.031 A 
ATOM     38  C   UNL A   1      42.118  29.770  28.969  1.00  0.00     0.074 A 
ATOM     39  C   UNL A   1      41.099  27.583  28.464  1.00  0.00     0.049 A 
ATOM     40  N   UNL A   1      43.377  29.520  28.710  1.00  0.00    -0.248 NA
ATOM     41  C   UNL A   1      41.874  31.118  29.508  1.00  0.00     0.031 C 
ATOM     42  C   UNL A   1      40.039  26.585  28.317  1.00  0.00     0.029 A 
ATOM     43  N   UNL A   1      42.253  26.880  28.214  1.00  0.00    -0.354 N 
ATOM     44  C   UNL A   1      44.066  30.686  29.018  1.00  0.00     0.074 A 
ATOM     45  C   UNL A   1      43.089  31.649  29.473  1.00  0.00     0.031 C 
ATOM     46  C   UNL A   1      40.592  25.393  28.044  1.00  0.00     0.029 A 
ATOM     47  C   UNL A   1      42.037  25.555  27.921  1.00  0.00     0.049 A 
ATOM     48  H   UNL A   1      43.149  27.287  28.241  1.00  0.00     0.167 HD
ATOM     49  C   UNL A   1      45.395  30.931  28.935  1.00  0.00     0.031 A 
ATOM     50  C   UNL A   1      42.895  24.581  27.563  1.00  0.00     0.031 A 
ATOM     51  C   UNL A   1      46.378  29.970  28.519  1.00  0.00     0.049 A 
ATOM     52  C   UNL A   1      44.354  24.896  27.402  1.00  0.00     0.074 A 
ATOM     53  C   UNL A   1      47.749  30.135  28.411  1.00  0.00     0.029 A 
ATOM     54  N   UNL A   1      46.101  28.662  28.157  1.00  0.00    -0.354 N 
ATOM     55  N   UNL A   1      44.981  26.022  27.636  1.00  0.00    -0.248 NA
ATOM     56  C   UNL A   1      45.219  23.815  26.905  1.00  0.00     0.031 C 
ATOM     57  C   UNL A   1      48.298  28.935  27.950  1.00  0.00     0.029 A 
ATOM     58  C   UNL A   1      47.272  28.014  27.810  1.00  0.00     0.049 A 
ATOM     59  H   UNL A   1      45.204  28.256  28.149  1.00  0.00     0.167 HD
ATOM     60  C   UNL A   1      46.312  25.787  27.319  1.00  0.00     0.074 A 
ATOM     61  C   UNL A   1      46.406  24.408  26.888  1.00  0.00     0.031 C 
ATOM     62  C   UNL A   1      47.357  26.645  27.378  1.00  0.00     0.031 A 
BRANCH  49  63
ATOM     63  C   UNL A   1      45.878  32.308  29.287  1.00  0.00    -0.014 A 
ATOM     64  C   UNL A   1      45.958  33.317  28.317  1.00  0.00     0.009 A 
ATOM     65  C   UNL A   1      46.170  32.620  30.625  1.00  0.00     0.009 A 
ATOM     66  C   UNL A   1      46.334  34.612  28.678  1.00  0.00     0.001 A 
ATOM     67  C   UNL A   1      46.526  33.920  30.985  1.00  0.00     0.001 A 
ATOM     68  C   UNL A   1      46.611  34.914  30.012  1.00  0.00     0.000 A 
ENDBRANCH  49  63
BRANCH  50  69
ATOM     69  C   UNL A   1      42.378  23.214  27.300  1.00  0.00    -0.014 A 
ATOM     70  C   UNL A   1      42.022  22.830  25.999  1.00  0.00     0.009 A 
ATOM     71  C   UNL A   1      42.281  22.275  28.339  1.00  0.00     0.009 A 
ATOM     72  C   UNL A   1      41.583  21.529  25.744  1.00  0.00     0.001 A 
ATOM     73  C   UNL A   1      41.862  20.970  28.077  1.00  0.00     0.001 A 
ATOM     74  C   UNL A   1      41.512  20.599  26.780  1.00  0.00     0.000 A 
ENDBRANCH  50  69
BRANCH  62  75
ATOM     75  C   UNL A   1      48.708  26.133  26.977  1.00  0.00    -0.014 A 
ATOM     76  C   UNL A   1      49.176  26.301  25.667  1.00  0.00     0.009 A 
ATOM     77  C   UNL A   1      49.564  25.586  27.946  1.00  0.00     0.009 A 
ATOM     78  C   UNL A   1      50.479  25.927  25.332  1.00  0.00     0.001 A 
ATOM     79  C   UNL A   1      50.871  25.230  27.612  1.00  0.00     0.001 A 
ATOM     80  C   UNL A   1      51.328  25.401  26.307  1.00  0.00     0.000 A 
ENDBRANCH  62  75
ENDBRANCH  36  37
ENDBRANCH  29  31
ENDBRANCH  28  29
ENDBRANCH   1  28
TORSDOF 12
ENDMDL
MODEL 2
REMARK VINA RESULT:     -12.2      3.369      8.144
REMARK SMILES Cc1ccc(Cl)c2c1N[C@@H](c1ccc(C(=O)OCCOC(=O)c3ccc(-c4c5nc(c(-c6ccccc6)c6ccc([nH]6)c(-c6ccccc6)c6nc(c(-c7ccccc7)c7ccc4[nH]7)C=C6)C=C5)cc3)cc1)[C@H]1CC=C[C@@H]21
REMARK SMILES IDX 19 1 18 2 17 3 15 4 16 5 14 6 11 7 12 8 72 9 13 10 71 11
REMARK SMILES IDX 10 12 1 13 2 14 3 15 8 16 4 17 7 18 9 19 5 20 77 21 6 23
REMARK SMILES IDX 73 24 76 25 74 26 75 27 20 28 21 29 22 30 23 31 24 32 70 33
REMARK SMILES IDX 25 34 69 35 26 36 27 37 28 38 63 39 29 40 68 41 62 42 64 43
REMARK SMILES IDX 30 44 67 45 61 46 60 47 31 49 53 50 38 51 52 52 39 53 42 54
REMARK SMILES IDX 51 55 65 56 40 57 41 58 50 60 66 61 43 62 32 63 33 64 37 65
REMARK SMILES IDX 34 66 36 67 35 68 54 69 55 70 59 71 56 72 58 73 57 74 44 75
REMARK SMILES IDX 45 76 49 77 46 78 48 79 47 80
REMARK H PARENT 9 22 64 48 42 59
REMARK Flexibility Score: inf
ROOT
ATOM      1  C   UNL A   1      39.599  21.185  26.524  1.00  0.00     0.275 C 
ENDROOT
BRANCH   1   2
ATOM      2  C   UNL A   1      38.672  21.590  25.380  1.00  0.00     0.275 C 
BRANCH   2   3
ATOM      3  O   UNL A   1      37.302  21.429  25.789  1.00  0.00    -0.458 OA
BRANCH   3   4
ATOM      4  C   UNL A   1      36.619  20.474  25.110  1.00  0.00     0.338 C 
ATOM      5  O   UNL A   1      36.946  19.311  24.973  1.00  0.00    -0.246 OA
BRANCH   4   6
ATOM      6  C   UNL A   1      35.315  20.998  24.638  1.00  0.00     0.060 A 
ATOM      7  C   UNL A   1      32.908  22.250  23.863  1.00  0.00    -0.025 A 
ATOM      8  C   UNL A   1      34.151  22.836  23.592  1.00  0.00     0.007 A 
ATOM      9  C   UNL A   1      32.906  20.958  24.425  1.00  0.00     0.007 A 
ATOM     10  C   UNL A   1      35.332  22.244  24.016  1.00  0.00     0.016 A 
ATOM     11  C   UNL A   1      34.102  20.331  24.808  1.00  0.00     0.016 A 
BRANCH   7  12
ATOM     12  C   UNL A   1      31.600  23.039  23.726  1.00  0.00     0.114 C 
ATOM     13  C   UNL A   1      32.557  25.705  20.432  1.00  0.00     0.046 C 
ATOM     14  C   UNL A   1      32.721  26.106  21.876  1.00  0.00    -0.027 A 
ATOM     15  C   UNL A   1      33.432  27.285  22.145  1.00  0.00     0.007 A 
ATOM     16  C   UNL A   1      32.265  25.301  22.946  1.00  0.00     0.043 A 
ATOM     17  C   UNL A   1      33.641  27.700  23.453  1.00  0.00     0.021 A 
ATOM     18  C   UNL A   1      32.444  25.742  24.284  1.00  0.00     0.001 A 
ATOM     19  N   UNL A   1      31.689  24.057  22.684  1.00  0.00    -0.377 N 
ATOM     20  C   UNL A   1      33.132  26.952  24.513  1.00  0.00     0.046 A 
ATOM     21  C   UNL A   1      31.869  24.939  25.431  1.00  0.00     0.051 C 
ATOM     22  H   UNL A   1      31.339  23.863  21.784  1.00  0.00     0.161 HD
ATOM     23  Cl  UNL A   1      33.381  27.596  26.101  1.00  0.00    -0.084 Cl
ATOM     24  C   UNL A   1      31.043  23.705  25.012  1.00  0.00     0.031 C 
ATOM     25  C   UNL A   1      32.835  24.318  26.412  1.00  0.00    -0.023 C 
ATOM     26  C   UNL A   1      31.059  22.805  26.259  1.00  0.00     0.034 C 
ATOM     27  C   UNL A   1      32.371  23.154  26.886  1.00  0.00    -0.030 C 
ENDBRANCH   7  12
ENDBRANCH   4   6
ENDBRANCH   3   4
ENDBRANCH   2   3
ENDBRANCH   1   2
BRANCH   1  28
ATOM     28  O   UNL A   1      40.275  19.954  26.199  1.00  0.00    -0.458 OA
BRANCH  28  29
ATOM     29  C   UNL A   1      41.594  20.058  25.920  1.00  0.00     0.338 C 
ATOM     30  O   UNL A   1      42.282  19.278  25.282  1.00  0.00    -0.246 OA
BRANCH  29  31
ATOM     31  C   UNL A   1      42.144  21.283  26.526  1.00  0.00     0.060 A 
ATOM     32  C   UNL A   1      42.237  21.399  27.913  1.00  0.00     0.016 A 
ATOM     33  C   UNL A   1      42.448  22.374  25.713  1.00  0.00     0.016 A 
ATOM     34  C   UNL A   1      42.524  22.634  28.493  1.00  0.00     0.010 A 
ATOM     35  C   UNL A   1      42.835  23.585  26.295  1.00  0.00     0.010 A 
ATOM     36  C   UNL A   1      42.831  23.744  27.692  1.00  0.00    -0.014 A 
BRANCH  36  37
ATOM     37  C   UNL A   1      43.101  25.075  28.301  1.00  0.00     0.031 A 
ATOM     38  C   UNL A   1      41.973  26.051  28.522  1.00  0.00     0.074 A 
ATOM     39  C   UNL A   1      44.350  25.419  28.676  1.00  0.00     0.049 A 
ATOM     40  N   UNL A   1      42.025  27.301  28.906  1.00  0.00    -0.248 NA
ATOM     41  C   UNL A   1      40.607  25.557  28.278  1.00  0.00     0.031 C 
ATOM     42  C   UNL A   1      45.531  24.559  28.585  1.00  0.00     0.029 A 
ATOM     43  N   UNL A   1      44.830  26.584  29.224  1.00  0.00    -0.354 N 
ATOM     44  C   UNL A   1      40.712  27.752  28.912  1.00  0.00     0.074 A 
ATOM     45  C   UNL A   1      39.882  26.648  28.484  1.00  0.00     0.031 C 
ATOM     46  C   UNL A   1      46.588  25.209  29.097  1.00  0.00     0.029 A 
ATOM     47  C   UNL A   1      46.179  26.555  29.482  1.00  0.00     0.049 A 
ATOM     48  H   UNL A   1      44.261  27.365  29.413  1.00  0.00     0.167 HD
ATOM     49  C   UNL A   1      40.238  28.975  29.249  1.00  0.00     0.031 A 
ATOM     50  C   UNL A   1      47.007  27.511  29.947  1.00  0.00     0.031 A 
ATOM     51  C   UNL A   1      41.049  30.067  29.710  1.00  0.00     0.049 A 
ATOM     52  C   UNL A   1      46.471  28.882  30.241  1.00  0.00     0.074 A 
ATOM     53  C   UNL A   1      40.647  31.341  30.077  1.00  0.00     0.029 A 
ATOM     54  N   UNL A   1      42.422  30.014  29.880  1.00  0.00    -0.354 N 
ATOM     55  N   UNL A   1      45.235  29.311  30.180  1.00  0.00    -0.248 NA
ATOM     56  C   UNL A   1      47.447  29.907  30.642  1.00  0.00     0.031 C 
ATOM     57  C   UNL A   1      41.784  32.069  30.439  1.00  0.00     0.029 A 
ATOM     58  C   UNL A   1      42.886  31.236  30.333  1.00  0.00     0.049 A 
ATOM     59  H   UNL A   1      42.984  29.223  29.706  1.00  0.00     0.167 HD
ATOM     60  C   UNL A   1      45.282  30.651  30.538  1.00  0.00     0.074 A 
ATOM     61  C   UNL A   1      46.665  30.964  30.827  1.00  0.00     0.031 C 
ATOM     62  C   UNL A   1      44.263  31.540  30.613  1.00  0.00     0.031 A 
BRANCH  49  63
ATOM     63  C   UNL A   1      38.762  29.215  29.119  1.00  0.00    -0.014 A 
ATOM     64  C   UNL A   1      37.909  29.101  30.226  1.00  0.00     0.009 A 
ATOM     65  C   UNL A   1      38.234  29.647  27.891  1.00  0.00     0.009 A 
ATOM     66  C   UNL A   1      36.552  29.404  30.104  1.00  0.00     0.001 A 
ATOM     67  C   UNL A   1      36.882  29.969  27.777  1.00  0.00     0.001 A 
ATOM     68  C   UNL A   1      36.041  29.844  28.882  1.00  0.00     0.000 A 
ENDBRANCH  49  63
BRANCH  50  69
ATOM     69  C   UNL A   1      48.447  27.200  30.132  1.00  0.00    -0.014 A 
ATOM     70  C   UNL A   1      49.359  27.426  29.091  1.00  0.00     0.009 A 
ATOM     71  C   UNL A   1      48.922  26.721  31.363  1.00  0.00     0.009 A 
ATOM     72  C   UNL A   1      50.720  27.180  29.281  1.00  0.00     0.001 A 
ATOM     73  C   UNL A   1      50.286  26.497  31.557  1.00  0.00     0.001 A 
ATOM     74  C   UNL A   1      51.183  26.725  30.515  1.00  0.00     0.000 A 
ENDBRANCH  50  69
BRANCH  62  75
ATOM     75  C   UNL A   1      44.586  32.943  31.031  1.00  0.00    -0.014 A 
ATOM     76  C   UNL A   1      44.840  33.934  30.072  1.00  0.00     0.009 A 
ATOM     77  C   UNL A   1      44.519  33.301  32.386  1.00  0.00     0.009 A 
ATOM     78  C   UNL A   1      45.023  35.261  30.465  1.00  0.00     0.001 A 
ATOM     79  C   UNL A   1      44.685  34.632  32.773  1.00  0.00     0.001 A 
ATOM     80  C   UNL A   1      44.937  35.610  31.813  1.00  0.00     0.000 A 
ENDBRANCH  62  75
ENDBRANCH  36  37
ENDBRANCH  29  31
ENDBRANCH  28  29
ENDBRANCH   1  28
TORSDOF 12
ENDMDL
MODEL 3
REMARK VINA RESULT:     -12.2      5.044      9.642
REMARK SMILES Cc1ccc(Cl)c2c1N[C@@H](c1ccc(C(=O)OCCOC(=O)c3ccc(-c4c5nc(c(-c6ccccc6)c6ccc([nH]6)c(-c6ccccc6)c6nc(c(-c7ccccc7)c7ccc4[nH]7)C=C6)C=C5)cc3)cc1)[C@H]1CC=C[C@@H]21
REMARK SMILES IDX 19 1 18 2 17 3 15 4 16 5 14 6 11 7 12 8 72 9 13 10 71 11
REMARK SMILES IDX 10 12 1 13 2 14 3 15 8 16 4 17 7 18 9 19 5 20 77 21 6 23
REMARK SMILES IDX 73 24 76 25 74 26 75 27 20 28 21 29 22 30 23 31 24 32 70 33
REMARK SMILES IDX 25 34 69 35 26 36 27 37 28 38 63 39 29 40 68 41 62 42 64 43
REMARK SMILES IDX 30 44 67 45 61 46 60 47 31 49 53 50 38 51 52 52 39 53 42 54
REMARK SMILES IDX 51 55 65 56 40 57 41 58 50 60 66 61 43 62 32 63 33 64 37 65
REMARK SMILES IDX 34 66 36 67 35 68 54 69 55 70 59 71 56 72 58 73 57 74 44 75
REMARK SMILES IDX 45 76 49 77 46 78 48 79 47 80
REMARK H PARENT 9 22 64 48 42 59
REMARK Flexibility Score: inf
ROOT
ATOM      1  C   UNL A   1      40.693  22.326  26.086  1.00  0.00     0.275 C 
ENDROOT
BRANCH   1   2
ATOM      2  C   UNL A   1      39.244  22.104  26.510  1.00  0.00     0.275 C 
BRANCH   2   3
ATOM      3  O   UNL A   1      38.379  22.253  25.370  1.00  0.00    -0.458 OA
BRANCH   3   4
ATOM      4  C   UNL A   1      37.744  21.115  24.991  1.00  0.00     0.338 C 
ATOM      5  O   UNL A   1      38.186  19.985  25.057  1.00  0.00    -0.246 OA
BRANCH   4   6
ATOM      6  C   UNL A   1      36.349  21.405  24.583  1.00  0.00     0.060 A 
ATOM      7  C   UNL A   1      33.739  22.230  23.899  1.00  0.00    -0.025 A 
ATOM      8  C   UNL A   1      34.863  22.947  23.469  1.00  0.00     0.007 A 
ATOM      9  C   UNL A   1      33.962  21.016  24.580  1.00  0.00     0.007 A 
ATOM     10  C   UNL A   1      36.143  22.569  23.847  1.00  0.00     0.016 A 
ATOM     11  C   UNL A   1      35.259  20.602  24.918  1.00  0.00     0.016 A 
BRANCH   7  12
ATOM     12  C   UNL A   1      32.324  22.815  23.800  1.00  0.00     0.114 C 
ATOM     13  C   UNL A   1      32.749  25.488  20.400  1.00  0.00     0.046 C 
ATOM     14  C   UNL A   1      32.909  25.953  21.825  1.00  0.00    -0.027 A 
ATOM     15  C   UNL A   1      33.449  27.231  22.033  1.00  0.00     0.007 A 
ATOM     16  C   UNL A   1      32.619  25.124  22.934  1.00  0.00     0.043 A 
ATOM     17  C   UNL A   1      33.646  27.713  23.320  1.00  0.00     0.021 A 
ATOM     18  C   UNL A   1      32.784  25.629  24.251  1.00  0.00     0.001 A 
ATOM     19  N   UNL A   1      32.222  23.802  22.729  1.00  0.00    -0.377 N 
ATOM     20  C   UNL A   1      33.295  26.933  24.420  1.00  0.00     0.046 A 
ATOM     21  C   UNL A   1      32.378  24.787  25.442  1.00  0.00     0.051 C 
ATOM     22  H   UNL A   1      31.870  23.531  21.850  1.00  0.00     0.161 HD
ATOM     23  Cl  UNL A   1      33.509  27.656  25.978  1.00  0.00    -0.084 Cl
ATOM     24  C   UNL A   1      31.726  23.433  25.091  1.00  0.00     0.031 C 
ATOM     25  C   UNL A   1      33.463  24.344  26.395  1.00  0.00    -0.023 C 
ATOM     26  C   UNL A   1      31.924  22.585  26.359  1.00  0.00     0.034 C 
ATOM     27  C   UNL A   1      33.193  23.141  26.919  1.00  0.00    -0.030 C 
ENDBRANCH   7  12
ENDBRANCH   4   6
ENDBRANCH   3   4
ENDBRANCH   2   3
ENDBRANCH   1   2
BRANCH   1  28
ATOM     28  O   UNL A   1      41.331  23.260  26.978  1.00  0.00    -0.458 OA
BRANCH  28  29
ATOM     29  C   UNL A   1      41.698  24.443  26.435  1.00  0.00     0.338 C 
ATOM     30  O   UNL A   1      42.270  24.628  25.373  1.00  0.00    -0.246 OA
BRANCH  29  31
ATOM     31  C   UNL A   1      41.326  25.549  27.334  1.00  0.00     0.060 A 
ATOM     32  C   UNL A   1      42.161  26.658  27.467  1.00  0.00     0.016 A 
ATOM     33  C   UNL A   1      40.201  25.422  28.150  1.00  0.00     0.016 A 
ATOM     34  C   UNL A   1      41.939  27.583  28.487  1.00  0.00     0.010 A 
ATOM     35  C   UNL A   1      39.924  26.404  29.106  1.00  0.00     0.010 A 
ATOM     36  C   UNL A   1      40.814  27.471  29.318  1.00  0.00    -0.014 A 
BRANCH  36  37
ATOM     37  C   UNL A   1      40.589  28.431  30.433  1.00  0.00     0.031 A 
ATOM     38  C   UNL A   1      39.517  29.485  30.321  1.00  0.00     0.074 A 
ATOM     39  C   UNL A   1      41.327  28.362  31.560  1.00  0.00     0.049 A 
ATOM     40  N   UNL A   1      39.262  30.492  31.117  1.00  0.00    -0.248 NA
ATOM     41  C   UNL A   1      38.614  29.397  29.161  1.00  0.00     0.031 C 
ATOM     42  C   UNL A   1      42.356  27.359  31.841  1.00  0.00     0.029 A 
ATOM     43  N   UNL A   1      41.313  29.147  32.687  1.00  0.00    -0.354 N 
ATOM     44  C   UNL A   1      38.201  31.176  30.537  1.00  0.00     0.074 A 
ATOM     45  C   UNL A   1      37.863  30.479  29.317  1.00  0.00     0.031 C 
ATOM     46  C   UNL A   1      42.844  27.564  33.074  1.00  0.00     0.029 A 
ATOM     47  C   UNL A   1      42.219  28.754  33.642  1.00  0.00     0.049 A 
ATOM     48  H   UNL A   1      40.710  29.917  32.800  1.00  0.00     0.167 HD
ATOM     49  C   UNL A   1      37.561  32.283  30.984  1.00  0.00     0.031 A 
ATOM     50  C   UNL A   1      42.540  29.303  34.829  1.00  0.00     0.031 A 
ATOM     51  C   UNL A   1      37.865  32.962  32.213  1.00  0.00     0.049 A 
ATOM     52  C   UNL A   1      41.872  30.574  35.268  1.00  0.00     0.074 A 
ATOM     53  C   UNL A   1      37.261  34.090  32.743  1.00  0.00     0.029 A 
ATOM     54  N   UNL A   1      38.846  32.571  33.109  1.00  0.00    -0.354 N 
ATOM     55  N   UNL A   1      40.914  31.243  34.677  1.00  0.00    -0.248 NA
ATOM     56  C   UNL A   1      42.345  31.178  36.523  1.00  0.00     0.031 C 
ATOM     57  C   UNL A   1      37.900  34.401  33.947  1.00  0.00     0.029 A 
ATOM     58  C   UNL A   1      38.874  33.444  34.182  1.00  0.00     0.049 A 
ATOM     59  H   UNL A   1      39.434  31.789  33.000  1.00  0.00     0.167 HD
ATOM     60  C   UNL A   1      40.666  32.343  35.487  1.00  0.00     0.074 A 
ATOM     61  C   UNL A   1      41.564  32.247  36.617  1.00  0.00     0.031 C 
ATOM     62  C   UNL A   1      39.773  33.344  35.299  1.00  0.00     0.031 A 
BRANCH  49  63
ATOM     63  C   UNL A   1      36.466  32.852  30.131  1.00  0.00    -0.014 A 
ATOM     64  C   UNL A   1      36.746  33.778  29.116  1.00  0.00     0.009 A 
ATOM     65  C   UNL A   1      35.150  32.387  30.289  1.00  0.00     0.009 A 
ATOM     66  C   UNL A   1      35.725  34.237  28.280  1.00  0.00     0.001 A 
ATOM     67  C   UNL A   1      34.137  32.833  29.440  1.00  0.00     0.001 A 
ATOM     68  C   UNL A   1      34.424  33.759  28.439  1.00  0.00     0.000 A 
ENDBRANCH  49  63
BRANCH  50  69
ATOM     69  C   UNL A   1      43.577  28.658  35.673  1.00  0.00    -0.014 A 
ATOM     70  C   UNL A   1      43.222  27.656  36.589  1.00  0.00     0.009 A 
ATOM     71  C   UNL A   1      44.930  29.007  35.535  1.00  0.00     0.009 A 
ATOM     72  C   UNL A   1      44.203  27.014  37.347  1.00  0.00     0.001 A 
ATOM     73  C   UNL A   1      45.910  28.348  36.279  1.00  0.00     0.001 A 
ATOM     74  C   UNL A   1      45.546  27.354  37.185  1.00  0.00     0.000 A 
ENDBRANCH  50  69
BRANCH  62  75
ATOM     75  C   UNL A   1      39.704  34.424  36.337  1.00  0.00    -0.014 A 
ATOM     76  C   UNL A   1      38.938  34.252  37.498  1.00  0.00     0.009 A 
ATOM     77  C   UNL A   1      40.502  35.571  36.205  1.00  0.00     0.009 A 
ATOM     78  C   UNL A   1      38.972  35.212  38.511  1.00  0.00     0.001 A 
ATOM     79  C   UNL A   1      40.547  36.520  37.228  1.00  0.00     0.001 A 
ATOM     80  C   UNL A   1      39.783  36.340  38.379  1.00  0.00     0.000 A 
ENDBRANCH  62  75
ENDBRANCH  36  37
ENDBRANCH  29  31
ENDBRANCH  28  29
ENDBRANCH   1  28
TORSDOF 12
ENDMDL
