MODEL 1
REMARK VINA RESULT:      -8.3      0.000      0.000
REMARK SMILES CC[C@](C)(Nc1cccc(Br)c1)C(=O)OCCOC(=O)c1ccc(-c2c3nc(c(-c4ccccc4)c4ccc([nH]4)c(-c4ccccc4)c4nc(c(-c5ccccc5)c5ccc2[nH]5)C=C4)C=C3)cc1
REMARK SMILES IDX 16 1 15 2 13 3 14 4 3 5 4 6 2 7 1 8 5 9 6 11 7 12 12 13 8 14
REMARK SMILES IDX 10 15 9 16 11 17 17 18 18 19 19 20 20 21 21 22 22 23 68 24
REMARK SMILES IDX 23 25 67 26 24 27 25 28 26 29 61 30 27 31 66 32 60 33 62 34
REMARK SMILES IDX 28 35 65 36 59 37 58 38 29 40 51 41 36 42 50 43 37 44 40 45
REMARK SMILES IDX 49 46 63 47 38 48 39 49 48 51 64 52 41 53 30 54 31 55 35 56
REMARK SMILES IDX 32 57 34 58 33 59 52 60 53 61 57 62 54 63 56 64 55 65 42 66
REMARK SMILES IDX 43 67 47 68 44 69 46 70 45 71
REMARK H PARENT 5 10 62 39 40 50
REMARK Flexibility Score: inf
ROOT
ATOM      1  C   UNL A   1      34.644  33.535  29.354  1.00  0.00     0.274 C 
ENDROOT
BRANCH   1   2
ATOM      2  O   UNL A   1      35.433  32.762  30.280  1.00  0.00    -0.460 OA
BRANCH   2   3
ATOM      3  C   UNL A   1      35.133  32.885  31.597  1.00  0.00     0.331 C 
ATOM      4  O   UNL A   1      33.989  32.781  32.034  1.00  0.00    -0.249 OA
BRANCH   3   5
ATOM      5  C   UNL A   1      36.341  33.252  32.505  1.00  0.00     0.132 C 
ATOM      6  C   UNL A   1      36.097  34.640  33.128  1.00  0.00     0.047 C 
BRANCH   5   7
ATOM      7  C   UNL A   1      37.612  33.274  31.609  1.00  0.00     0.037 C 
ATOM      8  C   UNL A   1      38.441  34.555  31.632  1.00  0.00     0.007 C 
ENDBRANCH   5   7
BRANCH   5   9
ATOM      9  N   UNL A   1      36.661  32.318  33.620  1.00  0.00    -0.370 N 
ATOM     10  H   UNL A   1      36.053  32.313  34.393  1.00  0.00     0.161 HD
BRANCH   9  11
ATOM     11  C   UNL A   1      37.743  31.458  33.655  1.00  0.00     0.036 A 
ATOM     12  C   UNL A   1      38.875  31.821  34.395  1.00  0.00     0.026 A 
ATOM     13  C   UNL A   1      37.699  30.180  33.094  1.00  0.00     0.041 A 
ATOM     14  C   UNL A   1      39.974  30.969  34.508  1.00  0.00     0.003 A 
ATOM     15  C   UNL A   1      38.791  29.317  33.224  1.00  0.00     0.020 A 
ATOM     16  C   UNL A   1      39.934  29.711  33.918  1.00  0.00     0.016 A 
ATOM     17  Br  UNL A   1      38.709  27.581  32.475  1.00  0.00    -0.051 Br
ENDBRANCH   9  11
ENDBRANCH   5   9
ENDBRANCH   3   5
ENDBRANCH   2   3
ENDBRANCH   1   2
BRANCH   1  18
ATOM     18  C   UNL A   1      34.404  32.763  28.057  1.00  0.00     0.275 C 
BRANCH  18  19
ATOM     19  O   UNL A   1      34.008  31.414  28.366  1.00  0.00    -0.458 OA
BRANCH  19  20
ATOM     20  C   UNL A   1      34.508  30.447  27.572  1.00  0.00     0.338 C 
ATOM     21  O   UNL A   1      33.945  29.863  26.656  1.00  0.00    -0.246 OA
BRANCH  20  22
ATOM     22  C   UNL A   1      35.878  30.128  27.997  1.00  0.00     0.060 A 
ATOM     23  C   UNL A   1      36.943  30.273  27.108  1.00  0.00     0.016 A 
ATOM     24  C   UNL A   1      36.091  29.588  29.265  1.00  0.00     0.016 A 
ATOM     25  C   UNL A   1      38.216  29.830  27.457  1.00  0.00     0.010 A 
ATOM     26  C   UNL A   1      37.379  29.204  29.640  1.00  0.00     0.010 A 
ATOM     27  C   UNL A   1      38.447  29.294  28.729  1.00  0.00    -0.014 A 
BRANCH  27  28
ATOM     28  C   UNL A   1      39.786  28.776  29.096  1.00  0.00     0.031 A 
ATOM     29  C   UNL A   1      40.734  29.652  29.864  1.00  0.00     0.074 A 
ATOM     30  C   UNL A   1      40.154  27.529  28.747  1.00  0.00     0.049 A 
ATOM     31  N   UNL A   1      42.008  29.477  30.110  1.00  0.00    -0.248 NA
ATOM     32  C   UNL A   1      40.177  30.897  30.420  1.00  0.00     0.031 C 
ATOM     33  C   UNL A   1      39.306  26.553  28.063  1.00  0.00     0.029 A 
ATOM     34  N   UNL A   1      41.345  26.872  28.925  1.00  0.00    -0.354 N 
ATOM     35  C   UNL A   1      42.416  30.612  30.798  1.00  0.00     0.074 A 
ATOM     36  C   UNL A   1      41.256  31.465  30.940  1.00  0.00     0.031 C 
ATOM     37  C   UNL A   1      39.998  25.414  27.897  1.00  0.00     0.029 A 
ATOM     38  C   UNL A   1      41.356  25.607  28.392  1.00  0.00     0.049 A 
ATOM     39  H   UNL A   1      42.118  27.269  29.388  1.00  0.00     0.167 HD
ATOM     40  C   UNL A   1      43.653  30.920  31.256  1.00  0.00     0.031 A 
ATOM     41  C   UNL A   1      42.359  24.718  28.275  1.00  0.00     0.031 A 
ATOM     42  C   UNL A   1      44.797  30.057  31.134  1.00  0.00     0.049 A 
ATOM     43  C   UNL A   1      43.730  25.093  28.758  1.00  0.00     0.074 A 
ATOM     44  C   UNL A   1      46.097  30.281  31.551  1.00  0.00     0.029 A 
ATOM     45  N   UNL A   1      44.769  28.794  30.565  1.00  0.00    -0.354 N 
ATOM     46  N   UNL A   1      44.125  26.201  29.337  1.00  0.00    -0.248 NA
ATOM     47  C   UNL A   1      44.797  24.103  28.553  1.00  0.00     0.031 C 
ATOM     48  C   UNL A   1      46.864  29.160  31.208  1.00  0.00     0.029 A 
ATOM     49  C   UNL A   1      46.030  28.227  30.613  1.00  0.00     0.049 A 
ATOM     50  H   UNL A   1      43.970  28.363  30.184  1.00  0.00     0.167 HD
ATOM     51  C   UNL A   1      45.483  26.043  29.568  1.00  0.00     0.074 A 
ATOM     52  C   UNL A   1      45.840  24.723  29.087  1.00  0.00     0.031 C 
ATOM     53  C   UNL A   1      46.360  26.914  30.123  1.00  0.00     0.031 A 
BRANCH  40  54
ATOM     54  C   UNL A   1      43.836  32.273  31.880  1.00  0.00    -0.014 A 
ATOM     55  C   UNL A   1      44.172  33.398  31.111  1.00  0.00     0.009 A 
ATOM     56  C   UNL A   1      43.658  32.422  33.264  1.00  0.00     0.009 A 
ATOM     57  C   UNL A   1      44.358  34.639  31.724  1.00  0.00     0.001 A 
ATOM     58  C   UNL A   1      43.823  33.668  33.870  1.00  0.00     0.001 A 
ATOM     59  C   UNL A   1      44.181  34.774  33.100  1.00  0.00     0.000 A 
ENDBRANCH  40  54
BRANCH  41  60
ATOM     60  C   UNL A   1      42.109  23.407  27.624  1.00  0.00    -0.014 A 
ATOM     61  C   UNL A   1      42.438  23.206  26.276  1.00  0.00     0.009 A 
ATOM     62  C   UNL A   1      41.562  22.342  28.358  1.00  0.00     0.009 A 
ATOM     63  C   UNL A   1      42.215  21.965  25.674  1.00  0.00     0.001 A 
ATOM     64  C   UNL A   1      41.364  21.097  27.760  1.00  0.00     0.001 A 
ATOM     65  C   UNL A   1      41.686  20.910  26.417  1.00  0.00     0.000 A 
ENDBRANCH  41  60
BRANCH  53  66
ATOM     66  C   UNL A   1      47.782  26.454  30.255  1.00  0.00    -0.014 A 
ATOM     67  C   UNL A   1      48.703  26.658  29.218  1.00  0.00     0.009 A 
ATOM     68  C   UNL A   1      48.206  25.838  31.441  1.00  0.00     0.009 A 
ATOM     69  C   UNL A   1      50.024  26.227  29.358  1.00  0.00     0.001 A 
ATOM     70  C   UNL A   1      49.532  25.426  31.585  1.00  0.00     0.001 A 
ATOM     71  C   UNL A   1      50.437  25.615  30.542  1.00  0.00     0.000 A 
ENDBRANCH  53  66
ENDBRANCH  27  28
ENDBRANCH  20  22
ENDBRANCH  19  20
ENDBRANCH  18  19
ENDBRANCH   1  18
TORSDOF 14
ENDMDL
MODEL 2
REMARK VINA RESULT:      -8.1      5.192      9.720
REMARK SMILES CC[C@](C)(Nc1cccc(Br)c1)C(=O)OCCOC(=O)c1ccc(-c2c3nc(c(-c4ccccc4)c4ccc([nH]4)c(-c4ccccc4)c4nc(c(-c5ccccc5)c5ccc2[nH]5)C=C4)C=C3)cc1
REMARK SMILES IDX 16 1 15 2 13 3 14 4 3 5 4 6 2 7 1 8 5 9 6 11 7 12 12 13 8 14
REMARK SMILES IDX 10 15 9 16 11 17 17 18 18 19 19 20 20 21 21 22 22 23 68 24
REMARK SMILES IDX 23 25 67 26 24 27 25 28 26 29 61 30 27 31 66 32 60 33 62 34
REMARK SMILES IDX 28 35 65 36 59 37 58 38 29 40 51 41 36 42 50 43 37 44 40 45
REMARK SMILES IDX 49 46 63 47 38 48 39 49 48 51 64 52 41 53 30 54 31 55 35 56
REMARK SMILES IDX 32 57 34 58 33 59 52 60 53 61 57 62 54 63 56 64 55 65 42 66
REMARK SMILES IDX 43 67 47 68 44 69 46 70 45 71
REMARK H PARENT 5 10 62 39 40 50
REMARK Flexibility Score: inf
ROOT
ATOM      1  C   UNL A   1      36.271  20.353  24.998  1.00  0.00     0.274 C 
ENDROOT
BRANCH   1   2
ATOM      2  O   UNL A   1      35.199  21.290  24.775  1.00  0.00    -0.460 OA
BRANCH   2   3
ATOM      3  C   UNL A   1      34.393  21.567  25.831  1.00  0.00     0.331 C 
ATOM      4  O   UNL A   1      34.802  21.613  26.989  1.00  0.00    -0.249 OA
BRANCH   3   5
ATOM      5  C   UNL A   1      32.890  21.741  25.471  1.00  0.00     0.132 C 
ATOM      6  C   UNL A   1      32.778  22.532  24.153  1.00  0.00     0.047 C 
BRANCH   5   7
ATOM      7  C   UNL A   1      32.216  22.523  26.634  1.00  0.00     0.037 C 
ATOM      8  C   UNL A   1      32.151  24.040  26.487  1.00  0.00     0.007 C 
ENDBRANCH   5   7
BRANCH   5   9
ATOM      9  N   UNL A   1      32.082  20.500  25.311  1.00  0.00    -0.370 N 
ATOM     10  H   UNL A   1      31.196  20.480  25.739  1.00  0.00     0.161 HD
BRANCH   9  11
ATOM     11  C   UNL A   1      32.475  19.376  24.609  1.00  0.00     0.036 A 
ATOM     12  C   UNL A   1      32.221  19.311  23.233  1.00  0.00     0.026 A 
ATOM     13  C   UNL A   1      33.237  18.361  25.192  1.00  0.00     0.041 A 
ATOM     14  C   UNL A   1      32.642  18.223  22.467  1.00  0.00     0.003 A 
ATOM     15  C   UNL A   1      33.677  17.281  24.420  1.00  0.00     0.020 A 
ATOM     16  C   UNL A   1      33.372  17.202  23.063  1.00  0.00     0.016 A 
ATOM     17  Br  UNL A   1      34.725  15.924  25.220  1.00  0.00    -0.051 Br
ENDBRANCH   9  11
ENDBRANCH   5   9
ENDBRANCH   3   5
ENDBRANCH   2   3
ENDBRANCH   1   2
BRANCH   1  18
ATOM     18  C   UNL A   1      37.628  20.987  24.691  1.00  0.00     0.275 C 
BRANCH  18  19
ATOM     19  O   UNL A   1      38.039  21.806  25.801  1.00  0.00    -0.458 OA
BRANCH  19  20
ATOM     20  C   UNL A   1      39.304  21.636  26.234  1.00  0.00     0.338 C 
ATOM     21  O   UNL A   1      39.977  20.615  26.199  1.00  0.00    -0.246 OA
BRANCH  20  22
ATOM     22  C   UNL A   1      39.786  22.888  26.831  1.00  0.00     0.060 A 
ATOM     23  C   UNL A   1      39.294  24.116  26.385  1.00  0.00     0.016 A 
ATOM     24  C   UNL A   1      40.808  22.845  27.779  1.00  0.00     0.016 A 
ATOM     25  C   UNL A   1      39.857  25.306  26.840  1.00  0.00     0.010 A 
ATOM     26  C   UNL A   1      41.328  24.037  28.284  1.00  0.00     0.010 A 
ATOM     27  C   UNL A   1      40.877  25.277  27.798  1.00  0.00    -0.014 A 
BRANCH  27  28
ATOM     28  C   UNL A   1      41.515  26.535  28.255  1.00  0.00     0.031 A 
ATOM     29  C   UNL A   1      40.689  27.570  28.964  1.00  0.00     0.074 A 
ATOM     30  C   UNL A   1      42.826  26.752  28.039  1.00  0.00     0.049 A 
ATOM     31  N   UNL A   1      40.993  28.806  29.265  1.00  0.00    -0.248 NA
ATOM     32  C   UNL A   1      39.337  27.161  29.380  1.00  0.00     0.031 C 
ATOM     33  C   UNL A   1      43.755  25.802  27.426  1.00  0.00     0.029 A 
ATOM     34  N   UNL A   1      43.603  27.848  28.317  1.00  0.00    -0.354 N 
ATOM     35  C   UNL A   1      39.853  29.339  29.853  1.00  0.00     0.074 A 
ATOM     36  C   UNL A   1      38.855  28.291  29.877  1.00  0.00     0.031 C 
ATOM     37  C   UNL A   1      44.981  26.350  27.392  1.00  0.00     0.029 A 
ATOM     38  C   UNL A   1      44.907  27.712  27.908  1.00  0.00     0.049 A 
ATOM     39  H   UNL A   1      43.259  28.655  28.763  1.00  0.00     0.167 HD
ATOM     40  C   UNL A   1      39.655  30.596  30.318  1.00  0.00     0.031 A 
ATOM     41  C   UNL A   1      45.918  28.598  27.909  1.00  0.00     0.031 A 
ATOM     42  C   UNL A   1      40.658  31.626  30.316  1.00  0.00     0.049 A 
ATOM     43  C   UNL A   1      45.667  29.996  28.397  1.00  0.00     0.074 A 
ATOM     44  C   UNL A   1      40.554  32.936  30.750  1.00  0.00     0.029 A 
ATOM     45  N   UNL A   1      41.959  31.452  29.871  1.00  0.00    -0.354 N 
ATOM     46  N   UNL A   1      44.564  30.514  28.879  1.00  0.00    -0.248 NA
ATOM     47  C   UNL A   1      46.795  30.935  28.322  1.00  0.00     0.031 C 
ATOM     48  C   UNL A   1      41.788  33.563  30.541  1.00  0.00     0.029 A 
ATOM     49  C   UNL A   1      42.668  32.632  30.013  1.00  0.00     0.049 A 
ATOM     50  H   UNL A   1      42.325  30.613  29.508  1.00  0.00     0.167 HD
ATOM     51  C   UNL A   1      44.862  31.838  29.166  1.00  0.00     0.074 A 
ATOM     52  C   UNL A   1      46.257  32.037  28.826  1.00  0.00     0.031 C 
ATOM     53  C   UNL A   1      44.053  32.805  29.662  1.00  0.00     0.031 A 
BRANCH  40  54
ATOM     54  C   UNL A   1      38.279  30.934  30.814  1.00  0.00    -0.014 A 
ATOM     55  C   UNL A   1      37.922  30.768  32.161  1.00  0.00     0.009 A 
ATOM     56  C   UNL A   1      37.327  31.438  29.914  1.00  0.00     0.009 A 
ATOM     57  C   UNL A   1      36.627  31.071  32.589  1.00  0.00     0.001 A 
ATOM     58  C   UNL A   1      36.041  31.761  30.349  1.00  0.00     0.001 A 
ATOM     59  C   UNL A   1      35.690  31.569  31.684  1.00  0.00     0.000 A 
ENDBRANCH  40  54
BRANCH  41  60
ATOM     60  C   UNL A   1      47.247  28.200  27.380  1.00  0.00    -0.014 A 
ATOM     61  C   UNL A   1      48.244  27.722  28.242  1.00  0.00     0.009 A 
ATOM     62  C   UNL A   1      47.516  28.276  26.003  1.00  0.00     0.009 A 
ATOM     63  C   UNL A   1      49.487  27.335  27.736  1.00  0.00     0.001 A 
ATOM     64  C   UNL A   1      48.750  27.864  25.499  1.00  0.00     0.001 A 
ATOM     65  C   UNL A   1      49.737  27.398  26.366  1.00  0.00     0.000 A 
ENDBRANCH  41  60
BRANCH  53  66
ATOM     66  C   UNL A   1      44.668  34.156  29.882  1.00  0.00    -0.014 A 
ATOM     67  C   UNL A   1      44.634  35.134  28.878  1.00  0.00     0.009 A 
ATOM     68  C   UNL A   1      45.258  34.459  31.118  1.00  0.00     0.009 A 
ATOM     69  C   UNL A   1      45.208  36.387  29.100  1.00  0.00     0.001 A 
ATOM     70  C   UNL A   1      45.812  35.719  31.343  1.00  0.00     0.001 A 
ATOM     71  C   UNL A   1      45.793  36.680  30.333  1.00  0.00     0.000 A 
ENDBRANCH  53  66
ENDBRANCH  27  28
ENDBRANCH  20  22
ENDBRANCH  19  20
ENDBRANCH  18  19
ENDBRANCH   1  18
TORSDOF 14
ENDMDL
MODEL 3
REMARK VINA RESULT:      -8.0      6.823      9.824
REMARK SMILES CC[C@](C)(Nc1cccc(Br)c1)C(=O)OCCOC(=O)c1ccc(-c2c3nc(c(-c4ccccc4)c4ccc([nH]4)c(-c4ccccc4)c4nc(c(-c5ccccc5)c5ccc2[nH]5)C=C4)C=C3)cc1
REMARK SMILES IDX 16 1 15 2 13 3 14 4 3 5 4 6 2 7 1 8 5 9 6 11 7 12 12 13 8 14
REMARK SMILES IDX 10 15 9 16 11 17 17 18 18 19 19 20 20 21 21 22 22 23 68 24
REMARK SMILES IDX 23 25 67 26 24 27 25 28 26 29 61 30 27 31 66 32 60 33 62 34
REMARK SMILES IDX 28 35 65 36 59 37 58 38 29 40 51 41 36 42 50 43 37 44 40 45
REMARK SMILES IDX 49 46 63 47 38 48 39 49 48 51 64 52 41 53 30 54 31 55 35 56
REMARK SMILES IDX 32 57 34 58 33 59 52 60 53 61 57 62 54 63 56 64 55 65 42 66
REMARK SMILES IDX 43 67 47 68 44 69 46 70 45 71
REMARK H PARENT 5 10 62 39 40 50
REMARK Flexibility Score: inf
ROOT
ATOM      1  C   UNL A   1      36.357  21.038  25.623  1.00  0.00     0.274 C 
ENDROOT
BRANCH   1   2
ATOM      2  O   UNL A   1      35.325  22.043  25.580  1.00  0.00    -0.460 OA
BRANCH   2   3
ATOM      3  C   UNL A   1      34.184  21.784  26.265  1.00  0.00     0.331 C 
ATOM      4  O   UNL A   1      34.176  21.448  27.448  1.00  0.00    -0.249 OA
BRANCH   3   5
ATOM      5  C   UNL A   1      32.885  21.863  25.413  1.00  0.00     0.132 C 
ATOM      6  C   UNL A   1      33.247  22.316  23.986  1.00  0.00     0.047 C 
BRANCH   5   7
ATOM      7  C   UNL A   1      31.943  22.899  26.090  1.00  0.00     0.037 C 
ATOM      8  C   UNL A   1      30.466  22.523  26.177  1.00  0.00     0.007 C 
ENDBRANCH   5   7
BRANCH   5   9
ATOM      9  N   UNL A   1      32.077  20.619  25.289  1.00  0.00    -0.370 N 
ATOM     10  H   UNL A   1      31.202  20.602  25.740  1.00  0.00     0.161 HD
BRANCH   9  11
ATOM     11  C   UNL A   1      32.456  19.486  24.592  1.00  0.00     0.036 A 
ATOM     12  C   UNL A   1      32.150  19.395  23.229  1.00  0.00     0.026 A 
ATOM     13  C   UNL A   1      33.250  18.490  25.163  1.00  0.00     0.041 A 
ATOM     14  C   UNL A   1      32.554  18.299  22.465  1.00  0.00     0.003 A 
ATOM     15  C   UNL A   1      33.673  17.402  24.394  1.00  0.00     0.020 A 
ATOM     16  C   UNL A   1      33.317  17.295  23.051  1.00  0.00     0.016 A 
ATOM     17  Br  UNL A   1      34.765  16.069  25.176  1.00  0.00    -0.051 Br
ENDBRANCH   9  11
ENDBRANCH   5   9
ENDBRANCH   3   5
ENDBRANCH   2   3
ENDBRANCH   1   2
BRANCH   1  18
ATOM     18  C   UNL A   1      37.629  21.526  24.929  1.00  0.00     0.275 C 
BRANCH  18  19
ATOM     19  O   UNL A   1      38.603  21.902  25.919  1.00  0.00    -0.458 OA
BRANCH  19  20
ATOM     20  C   UNL A   1      39.653  21.071  26.072  1.00  0.00     0.338 C 
ATOM     21  O   UNL A   1      39.705  19.875  25.820  1.00  0.00    -0.246 OA
BRANCH  20  22
ATOM     22  C   UNL A   1      40.778  21.811  26.657  1.00  0.00     0.060 A 
ATOM     23  C   UNL A   1      40.618  23.141  27.051  1.00  0.00     0.016 A 
ATOM     24  C   UNL A   1      42.032  21.206  26.726  1.00  0.00     0.016 A 
ATOM     25  C   UNL A   1      41.718  23.889  27.463  1.00  0.00     0.010 A 
ATOM     26  C   UNL A   1      43.123  21.936  27.201  1.00  0.00     0.010 A 
ATOM     27  C   UNL A   1      42.981  23.292  27.546  1.00  0.00    -0.014 A 
BRANCH  27  28
ATOM     28  C   UNL A   1      44.166  24.090  27.938  1.00  0.00     0.031 A 
ATOM     29  C   UNL A   1      44.516  24.232  29.392  1.00  0.00     0.074 A 
ATOM     30  C   UNL A   1      44.929  24.685  27.001  1.00  0.00     0.049 A 
ATOM     31  N   UNL A   1      45.377  25.036  29.961  1.00  0.00    -0.248 NA
ATOM     32  C   UNL A   1      43.792  23.359  30.332  1.00  0.00     0.031 C 
ATOM     33  C   UNL A   1      44.741  24.570  25.555  1.00  0.00     0.029 A 
ATOM     34  N   UNL A   1      46.019  25.507  27.134  1.00  0.00    -0.354 N 
ATOM     35  C   UNL A   1      45.258  24.807  31.326  1.00  0.00     0.074 A 
ATOM     36  C   UNL A   1      44.250  23.783  31.501  1.00  0.00     0.031 C 
ATOM     37  C   UNL A   1      45.697  25.280  24.933  1.00  0.00     0.029 A 
ATOM     38  C   UNL A   1      46.513  25.957  25.934  1.00  0.00     0.049 A 
ATOM     39  H   UNL A   1      46.409  25.752  28.004  1.00  0.00     0.167 HD
ATOM     40  C   UNL A   1      45.921  25.410  32.342  1.00  0.00     0.031 A 
ATOM     41  C   UNL A   1      47.485  26.848  25.670  1.00  0.00     0.031 A 
ATOM     42  C   UNL A   1      46.940  26.408  32.162  1.00  0.00     0.049 A 
ATOM     43  C   UNL A   1      48.183  27.530  26.812  1.00  0.00     0.074 A 
ATOM     44  C   UNL A   1      47.661  27.092  33.125  1.00  0.00     0.029 A 
ATOM     45  N   UNL A   1      47.393  26.852  30.930  1.00  0.00    -0.354 N 
ATOM     46  N   UNL A   1      48.009  27.365  28.100  1.00  0.00    -0.248 NA
ATOM     47  C   UNL A   1      49.197  28.534  26.461  1.00  0.00     0.031 C 
ATOM     48  C   UNL A   1      48.534  27.971  32.473  1.00  0.00     0.029 A 
ATOM     49  C   UNL A   1      48.380  27.806  31.105  1.00  0.00     0.049 A 
ATOM     50  H   UNL A   1      47.062  26.536  30.058  1.00  0.00     0.167 HD
ATOM     51  C   UNL A   1      48.890  28.241  28.716  1.00  0.00     0.074 A 
ATOM     52  C   UNL A   1      49.615  28.920  27.659  1.00  0.00     0.031 C 
ATOM     53  C   UNL A   1      49.080  28.470  30.038  1.00  0.00     0.031 A 
BRANCH  40  54
ATOM     54  C   UNL A   1      45.517  25.039  33.740  1.00  0.00    -0.014 A 
ATOM     55  C   UNL A   1      46.192  24.042  34.460  1.00  0.00     0.009 A 
ATOM     56  C   UNL A   1      44.445  25.711  34.347  1.00  0.00     0.009 A 
ATOM     57  C   UNL A   1      45.780  23.704  35.751  1.00  0.00     0.001 A 
ATOM     58  C   UNL A   1      44.049  25.386  35.646  1.00  0.00     0.001 A 
ATOM     59  C   UNL A   1      44.712  24.377  36.343  1.00  0.00     0.000 A 
ENDBRANCH  40  54
BRANCH  41  60
ATOM     60  C   UNL A   1      47.814  27.184  24.262  1.00  0.00    -0.014 A 
ATOM     61  C   UNL A   1      48.876  26.545  23.606  1.00  0.00     0.009 A 
ATOM     62  C   UNL A   1      47.051  28.132  23.560  1.00  0.00     0.009 A 
ATOM     63  C   UNL A   1      49.170  26.854  22.276  1.00  0.00     0.001 A 
ATOM     64  C   UNL A   1      47.333  28.420  22.224  1.00  0.00     0.001 A 
ATOM     65  C   UNL A   1      48.396  27.784  21.584  1.00  0.00     0.000 A 
ENDBRANCH  41  60
BRANCH  53  66
ATOM     66  C   UNL A   1      50.125  29.480  30.407  1.00  0.00    -0.014 A 
ATOM     67  C   UNL A   1      51.458  29.095  30.615  1.00  0.00     0.009 A 
ATOM     68  C   UNL A   1      49.776  30.834  30.518  1.00  0.00     0.009 A 
ATOM     69  C   UNL A   1      52.419  30.048  30.955  1.00  0.00     0.001 A 
ATOM     70  C   UNL A   1      50.744  31.787  30.839  1.00  0.00     0.001 A 
ATOM     71  C   UNL A   1      52.062  31.393  31.063  1.00  0.00     0.000 A 
ENDBRANCH  53  66
ENDBRANCH  27  28
ENDBRANCH  20  22
ENDBRANCH  19  20
ENDBRANCH  18  19
ENDBRANCH   1  18
TORSDOF 14
ENDMDL
