MODEL 1
REMARK VINA RESULT:     -11.5      0.000      0.000
REMARK SMILES O=C(OCCOC(=O)[C@@H]1CC[C@@H](CNC(=O)c2cc(Cl)ccc2Cl)O1)c1ccc(-c2c3nc(c(-c4ccccc4)c4ccc([nH]4)c(-c4ccccc4)c4nc(c(-c5ccccc5)c5ccc2[nH]5)C=C4)C=C3)cc1
REMARK SMILES IDX 5 1 4 2 3 3 2 4 1 5 26 6 27 7 73 8 28 9 72 10 29 11 30 12
REMARK SMILES IDX 31 13 66 14 32 15 71 16 65 17 67 18 33 19 70 20 64 21 63 22
REMARK SMILES IDX 34 24 56 25 41 26 55 27 42 28 45 29 54 30 68 31 43 32 44 33
REMARK SMILES IDX 53 35 69 36 46 37 35 38 36 39 40 40 37 41 39 42 38 43 57 44
REMARK SMILES IDX 58 45 62 46 59 47 61 48 60 49 47 50 48 51 52 52 49 53 51 54
REMARK SMILES IDX 50 55 6 56 7 57 8 58 9 59 10 60 25 61 11 62 12 63 13 64
REMARK SMILES IDX 14 65 15 66 16 68 17 69 18 70 23 71 19 72 22 73 24 74 20 75
REMARK SMILES IDX 21 76
REMARK H PARENT 67 23 45 34 14 67
REMARK Flexibility Score: inf
ROOT
ATOM      1  C   UNL A   1      31.274  31.417  26.569  1.00  0.00     0.274 C 
ENDROOT
BRANCH   1   2
ATOM      2  C   UNL A   1      32.483  32.308  26.846  1.00  0.00     0.275 C 
BRANCH   2   3
ATOM      3  O   UNL A   1      32.197  33.529  27.541  1.00  0.00    -0.458 OA
BRANCH   3   4
ATOM      4  C   UNL A   1      32.984  34.218  28.399  1.00  0.00     0.338 C 
ATOM      5  O   UNL A   1      32.634  35.342  28.758  1.00  0.00    -0.246 OA
BRANCH   4   6
ATOM      6  C   UNL A   1      34.335  33.744  28.832  1.00  0.00     0.060 A 
ATOM      7  C   UNL A   1      35.567  34.179  28.331  1.00  0.00     0.016 A 
ATOM      8  C   UNL A   1      34.337  32.722  29.792  1.00  0.00     0.016 A 
ATOM      9  C   UNL A   1      36.775  33.669  28.836  1.00  0.00     0.010 A 
ATOM     10  C   UNL A   1      35.536  32.203  30.283  1.00  0.00     0.010 A 
ATOM     11  C   UNL A   1      36.769  32.683  29.824  1.00  0.00    -0.014 A 
BRANCH  11  12
ATOM     12  C   UNL A   1      38.017  32.120  30.407  1.00  0.00     0.031 A 
ATOM     13  C   UNL A   1      38.681  30.948  29.732  1.00  0.00     0.074 A 
ATOM     14  C   UNL A   1      38.389  32.498  31.649  1.00  0.00     0.049 A 
ATOM     15  N   UNL A   1      39.711  30.245  30.127  1.00  0.00    -0.248 NA
ATOM     16  C   UNL A   1      38.088  30.484  28.467  1.00  0.00     0.031 C 
ATOM     17  C   UNL A   1      37.751  33.555  32.438  1.00  0.00     0.029 A 
ATOM     18  N   UNL A   1      39.319  31.961  32.512  1.00  0.00    -0.354 N 
ATOM     19  C   UNL A   1      39.805  29.182  29.237  1.00  0.00     0.074 A 
ATOM     20  C   UNL A   1      38.781  29.379  28.233  1.00  0.00     0.031 C 
ATOM     21  C   UNL A   1      38.217  33.506  33.698  1.00  0.00     0.029 A 
ATOM     22  C   UNL A   1      39.186  32.420  33.804  1.00  0.00     0.049 A 
ATOM     23  H   UNL A   1      40.007  31.314  32.234  1.00  0.00     0.167 HD
ATOM     24  C   UNL A   1      40.634  28.112  29.283  1.00  0.00     0.031 A 
ATOM     25  C   UNL A   1      39.722  31.976  34.958  1.00  0.00     0.031 A 
ATOM     26  C   UNL A   1      41.619  27.903  30.307  1.00  0.00     0.049 A 
ATOM     27  C   UNL A   1      40.684  30.821  34.944  1.00  0.00     0.074 A 
ATOM     28  C   UNL A   1      42.743  27.098  30.294  1.00  0.00     0.029 A 
ATOM     29  N   UNL A   1      41.527  28.445  31.576  1.00  0.00    -0.354 N 
ATOM     30  N   UNL A   1      41.087  30.101  33.929  1.00  0.00    -0.248 NA
ATOM     31  C   UNL A   1      41.256  30.409  36.236  1.00  0.00     0.031 C 
ATOM     32  C   UNL A   1      43.282  27.088  31.592  1.00  0.00     0.029 A 
ATOM     33  C   UNL A   1      42.495  27.893  32.398  1.00  0.00     0.049 A 
ATOM     34  H   UNL A   1      40.870  29.123  31.855  1.00  0.00     0.167 HD
ATOM     35  C   UNL A   1      41.935  29.138  34.455  1.00  0.00     0.074 A 
ATOM     36  C   UNL A   1      42.032  29.395  35.877  1.00  0.00     0.031 C 
ATOM     37  C   UNL A   1      42.556  28.116  33.817  1.00  0.00     0.031 A 
BRANCH  24  38
ATOM     38  C   UNL A   1      40.477  27.072  28.215  1.00  0.00    -0.014 A 
ATOM     39  C   UNL A   1      39.667  25.945  28.418  1.00  0.00     0.009 A 
ATOM     40  C   UNL A   1      41.158  27.212  26.996  1.00  0.00     0.009 A 
ATOM     41  C   UNL A   1      39.571  24.958  27.436  1.00  0.00     0.001 A 
ATOM     42  C   UNL A   1      41.046  26.230  26.008  1.00  0.00     0.001 A 
ATOM     43  C   UNL A   1      40.259  25.101  26.232  1.00  0.00     0.000 A 
ENDBRANCH  24  38
BRANCH  25  44
ATOM     44  C   UNL A   1      39.264  32.526  36.262  1.00  0.00    -0.014 A 
ATOM     45  C   UNL A   1      38.159  31.985  36.934  1.00  0.00     0.009 A 
ATOM     46  C   UNL A   1      39.897  33.663  36.794  1.00  0.00     0.009 A 
ATOM     47  C   UNL A   1      37.672  32.595  38.093  1.00  0.00     0.001 A 
ATOM     48  C   UNL A   1      39.421  34.256  37.966  1.00  0.00     0.001 A 
ATOM     49  C   UNL A   1      38.302  33.729  38.607  1.00  0.00     0.000 A 
ENDBRANCH  25  44
BRANCH  37  50
ATOM     50  C   UNL A   1      43.337  27.162  34.670  1.00  0.00    -0.014 A 
ATOM     51  C   UNL A   1      44.681  27.430  34.983  1.00  0.00     0.009 A 
ATOM     52  C   UNL A   1      42.742  25.996  35.170  1.00  0.00     0.009 A 
ATOM     53  C   UNL A   1      45.420  26.534  35.756  1.00  0.00     0.001 A 
ATOM     54  C   UNL A   1      43.477  25.114  35.965  1.00  0.00     0.001 A 
ATOM     55  C   UNL A   1      44.817  25.380  36.251  1.00  0.00     0.000 A 
ENDBRANCH  37  50
ENDBRANCH  11  12
ENDBRANCH   4   6
ENDBRANCH   3   4
ENDBRANCH   2   3
ENDBRANCH   1   2
BRANCH   1  56
ATOM     56  O   UNL A   1      31.478  30.455  25.522  1.00  0.00    -0.460 OA
BRANCH  56  57
ATOM     57  C   UNL A   1      31.745  29.187  25.952  1.00  0.00     0.335 C 
ATOM     58  O   UNL A   1      32.157  28.907  27.074  1.00  0.00    -0.249 OA
BRANCH  57  59
ATOM     59  C   UNL A   1      31.621  28.150  24.825  1.00  0.00     0.228 C 
ATOM     60  C   UNL A   1      30.785  28.724  23.690  1.00  0.00     0.047 C 
ATOM     61  O   UNL A   1      31.085  26.851  25.105  1.00  0.00    -0.361 OA
ATOM     62  C   UNL A   1      30.422  27.486  22.918  1.00  0.00     0.037 C 
ATOM     63  C   UNL A   1      30.203  26.468  24.024  1.00  0.00     0.138 C 
BRANCH  63  64
ATOM     64  C   UNL A   1      30.465  25.041  23.515  1.00  0.00     0.148 C 
BRANCH  64  65
ATOM     65  N   UNL A   1      31.444  24.984  22.442  1.00  0.00    -0.349 N 
ATOM     66  C   UNL A   1      32.571  24.214  22.310  1.00  0.00     0.252 C 
ATOM     67  H   UNL A   1      31.272  25.598  21.691  1.00  0.00     0.163 HD
ATOM     68  O   UNL A   1      33.273  24.330  21.306  1.00  0.00    -0.269 OA
BRANCH  66  69
ATOM     69  C   UNL A   1      32.931  23.219  23.346  1.00  0.00     0.059 A 
ATOM     70  C   UNL A   1      32.591  21.876  23.153  1.00  0.00     0.036 A 
ATOM     71  C   UNL A   1      33.690  23.579  24.464  1.00  0.00     0.053 A 
ATOM     72  C   UNL A   1      32.969  20.925  24.103  1.00  0.00     0.041 A 
ATOM     73  C   UNL A   1      34.040  22.626  25.425  1.00  0.00     0.023 A 
ATOM     74  Cl  UNL A   1      34.253  25.170  24.706  1.00  0.00    -0.083 Cl
ATOM     75  Cl  UNL A   1      32.568  19.271  23.857  1.00  0.00    -0.084 Cl
ATOM     76  C   UNL A   1      33.676  21.294  25.246  1.00  0.00     0.022 A 
ENDBRANCH  66  69
ENDBRANCH  64  65
ENDBRANCH  63  64
ENDBRANCH  57  59
ENDBRANCH  56  57
ENDBRANCH   1  56
TORSDOF 14
ENDMDL
MODEL 2
REMARK VINA RESULT:     -11.5      5.924     11.032
REMARK SMILES O=C(OCCOC(=O)[C@@H]1CC[C@@H](CNC(=O)c2cc(Cl)ccc2Cl)O1)c1ccc(-c2c3nc(c(-c4ccccc4)c4ccc([nH]4)c(-c4ccccc4)c4nc(c(-c5ccccc5)c5ccc2[nH]5)C=C4)C=C3)cc1
REMARK SMILES IDX 5 1 4 2 3 3 2 4 1 5 26 6 27 7 73 8 28 9 72 10 29 11 30 12
REMARK SMILES IDX 31 13 66 14 32 15 71 16 65 17 67 18 33 19 70 20 64 21 63 22
REMARK SMILES IDX 34 24 56 25 41 26 55 27 42 28 45 29 54 30 68 31 43 32 44 33
REMARK SMILES IDX 53 35 69 36 46 37 35 38 36 39 40 40 37 41 39 42 38 43 57 44
REMARK SMILES IDX 58 45 62 46 59 47 61 48 60 49 47 50 48 51 52 52 49 53 51 54
REMARK SMILES IDX 50 55 6 56 7 57 8 58 9 59 10 60 25 61 11 62 12 63 13 64
REMARK SMILES IDX 14 65 15 66 16 68 17 69 18 70 23 71 19 72 22 73 24 74 20 75
REMARK SMILES IDX 21 76
REMARK H PARENT 67 23 45 34 14 67
REMARK Flexibility Score: inf
ROOT
ATOM      1  C   UNL A   1      40.864  19.975  26.346  1.00  0.00     0.274 C 
ENDROOT
BRANCH   1   2
ATOM      2  C   UNL A   1      40.500  21.437  26.598  1.00  0.00     0.275 C 
BRANCH   2   3
ATOM      3  O   UNL A   1      39.148  21.795  26.285  1.00  0.00    -0.458 OA
BRANCH   3   4
ATOM      4  C   UNL A   1      38.623  23.025  26.083  1.00  0.00     0.338 C 
ATOM      5  O   UNL A   1      37.701  23.155  25.279  1.00  0.00    -0.246 OA
BRANCH   4   6
ATOM      6  C   UNL A   1      39.196  24.268  26.685  1.00  0.00     0.060 A 
ATOM      7  C   UNL A   1      40.031  25.191  26.045  1.00  0.00     0.016 A 
ATOM      8  C   UNL A   1      38.902  24.474  28.041  1.00  0.00     0.016 A 
ATOM      9  C   UNL A   1      40.490  26.338  26.715  1.00  0.00     0.010 A 
ATOM     10  C   UNL A   1      39.371  25.604  28.713  1.00  0.00     0.010 A 
ATOM     11  C   UNL A   1      40.156  26.558  28.053  1.00  0.00    -0.014 A 
BRANCH  11  12
ATOM     12  C   UNL A   1      40.601  27.761  28.806  1.00  0.00     0.031 A 
ATOM     13  C   UNL A   1      39.607  28.854  29.101  1.00  0.00     0.074 A 
ATOM     14  C   UNL A   1      41.923  27.968  28.990  1.00  0.00     0.049 A 
ATOM     15  N   UNL A   1      39.807  30.024  29.650  1.00  0.00    -0.248 NA
ATOM     16  C   UNL A   1      38.213  28.615  28.693  1.00  0.00     0.031 C 
ATOM     17  C   UNL A   1      42.984  27.018  28.647  1.00  0.00     0.029 A 
ATOM     18  N   UNL A   1      42.609  29.089  29.404  1.00  0.00    -0.354 N 
ATOM     19  C   UNL A   1      38.603  30.707  29.531  1.00  0.00     0.074 A 
ATOM     20  C   UNL A   1      37.654  29.792  28.934  1.00  0.00     0.031 C 
ATOM     21  C   UNL A   1      44.175  27.633  28.744  1.00  0.00     0.029 A 
ATOM     22  C   UNL A   1      43.962  29.016  29.158  1.00  0.00     0.049 A 
ATOM     23  H   UNL A   1      42.175  29.863  29.830  1.00  0.00     0.167 HD
ATOM     24  C   UNL A   1      38.328  31.998  29.841  1.00  0.00     0.031 A 
ATOM     25  C   UNL A   1      44.917  29.966  29.188  1.00  0.00     0.031 A 
ATOM     26  C   UNL A   1      39.288  32.911  30.393  1.00  0.00     0.049 A 
ATOM     27  C   UNL A   1      44.568  31.370  29.599  1.00  0.00     0.074 A 
ATOM     28  C   UNL A   1      39.081  34.091  31.083  1.00  0.00     0.029 A 
ATOM     29  N   UNL A   1      40.653  32.780  30.222  1.00  0.00    -0.354 N 
ATOM     30  N   UNL A   1      43.400  31.865  29.917  1.00  0.00    -0.248 NA
ATOM     31  C   UNL A   1      45.666  32.349  29.640  1.00  0.00     0.031 C 
ATOM     32  C   UNL A   1      40.327  34.718  31.251  1.00  0.00     0.029 A 
ATOM     33  C   UNL A   1      41.299  33.918  30.673  1.00  0.00     0.049 A 
ATOM     34  H   UNL A   1      41.102  31.993  29.836  1.00  0.00     0.167 HD
ATOM     35  C   UNL A   1      43.611  33.212  30.172  1.00  0.00     0.074 A 
ATOM     36  C   UNL A   1      45.032  33.450  30.021  1.00  0.00     0.031 C 
ATOM     37  C   UNL A   1      42.702  34.169  30.478  1.00  0.00     0.031 A 
BRANCH  24  38
ATOM     38  C   UNL A   1      36.945  32.496  29.550  1.00  0.00    -0.014 A 
ATOM     39  C   UNL A   1      35.911  32.344  30.485  1.00  0.00     0.009 A 
ATOM     40  C   UNL A   1      36.667  33.113  28.321  1.00  0.00     0.009 A 
ATOM     41  C   UNL A   1      34.616  32.765  30.181  1.00  0.00     0.001 A 
ATOM     42  C   UNL A   1      35.373  33.549  28.025  1.00  0.00     0.001 A 
ATOM     43  C   UNL A   1      34.348  33.367  28.952  1.00  0.00     0.000 A 
ENDBRANCH  24  38
BRANCH  25  44
ATOM     44  C   UNL A   1      46.287  29.674  28.686  1.00  0.00    -0.014 A 
ATOM     45  C   UNL A   1      46.575  29.674  27.314  1.00  0.00     0.009 A 
ATOM     46  C   UNL A   1      47.295  29.310  29.595  1.00  0.00     0.009 A 
ATOM     47  C   UNL A   1      47.836  29.276  26.860  1.00  0.00     0.001 A 
ATOM     48  C   UNL A   1      48.560  28.935  29.139  1.00  0.00     0.001 A 
ATOM     49  C   UNL A   1      48.826  28.907  27.771  1.00  0.00     0.000 A 
ENDBRANCH  25  44
BRANCH  37  50
ATOM     50  C   UNL A   1      43.214  35.573  30.600  1.00  0.00    -0.014 A 
ATOM     51  C   UNL A   1      43.650  36.062  31.843  1.00  0.00     0.009 A 
ATOM     52  C   UNL A   1      43.269  36.414  29.480  1.00  0.00     0.009 A 
ATOM     53  C   UNL A   1      44.104  37.375  31.967  1.00  0.00     0.001 A 
ATOM     54  C   UNL A   1      43.749  37.720  29.603  1.00  0.00     0.001 A 
ATOM     55  C   UNL A   1      44.159  38.202  30.847  1.00  0.00     0.000 A 
ENDBRANCH  37  50
ENDBRANCH  11  12
ENDBRANCH   4   6
ENDBRANCH   3   4
ENDBRANCH   2   3
ENDBRANCH   1   2
BRANCH   1  56
ATOM     56  O   UNL A   1      42.200  19.624  26.737  1.00  0.00    -0.460 OA
BRANCH  56  57
ATOM     57  C   UNL A   1      42.857  18.804  25.864  1.00  0.00     0.335 C 
ATOM     58  O   UNL A   1      42.690  17.589  25.794  1.00  0.00    -0.249 OA
BRANCH  57  59
ATOM     59  C   UNL A   1      43.949  19.543  25.077  1.00  0.00     0.228 C 
ATOM     60  C   UNL A   1      45.282  18.831  25.256  1.00  0.00     0.047 C 
ATOM     61  O   UNL A   1      44.196  20.932  25.329  1.00  0.00    -0.361 OA
ATOM     62  C   UNL A   1      46.258  19.882  24.804  1.00  0.00     0.037 C 
ATOM     63  C   UNL A   1      45.625  21.158  25.334  1.00  0.00     0.138 C 
BRANCH  63  64
ATOM     64  C   UNL A   1      46.042  22.369  24.485  1.00  0.00     0.148 C 
BRANCH  64  65
ATOM     65  N   UNL A   1      44.969  23.330  24.287  1.00  0.00    -0.349 N 
ATOM     66  C   UNL A   1      44.467  24.286  25.132  1.00  0.00     0.252 C 
ATOM     67  H   UNL A   1      44.533  23.287  23.405  1.00  0.00     0.163 HD
ATOM     68  O   UNL A   1      43.538  25.001  24.759  1.00  0.00    -0.269 OA
BRANCH  66  69
ATOM     69  C   UNL A   1      45.054  24.488  26.476  1.00  0.00     0.059 A 
ATOM     70  C   UNL A   1      44.496  23.824  27.574  1.00  0.00     0.036 A 
ATOM     71  C   UNL A   1      46.213  25.251  26.655  1.00  0.00     0.053 A 
ATOM     72  C   UNL A   1      45.072  23.973  28.837  1.00  0.00     0.041 A 
ATOM     73  C   UNL A   1      46.767  25.418  27.928  1.00  0.00     0.023 A 
ATOM     74  Cl  UNL A   1      47.027  25.985  25.349  1.00  0.00    -0.083 Cl
ATOM     75  Cl  UNL A   1      44.397  23.142  30.183  1.00  0.00    -0.084 Cl
ATOM     76  C   UNL A   1      46.194  24.779  29.024  1.00  0.00     0.022 A 
ENDBRANCH  66  69
ENDBRANCH  64  65
ENDBRANCH  63  64
ENDBRANCH  57  59
ENDBRANCH  56  57
ENDBRANCH   1  56
TORSDOF 14
ENDMDL
MODEL 3
REMARK VINA RESULT:     -11.4      4.650      9.919
REMARK SMILES O=C(OCCOC(=O)[C@@H]1CC[C@@H](CNC(=O)c2cc(Cl)ccc2Cl)O1)c1ccc(-c2c3nc(c(-c4ccccc4)c4ccc([nH]4)c(-c4ccccc4)c4nc(c(-c5ccccc5)c5ccc2[nH]5)C=C4)C=C3)cc1
REMARK SMILES IDX 5 1 4 2 3 3 2 4 1 5 26 6 27 7 73 8 28 9 72 10 29 11 30 12
REMARK SMILES IDX 31 13 66 14 32 15 71 16 65 17 67 18 33 19 70 20 64 21 63 22
REMARK SMILES IDX 34 24 56 25 41 26 55 27 42 28 45 29 54 30 68 31 43 32 44 33
REMARK SMILES IDX 53 35 69 36 46 37 35 38 36 39 40 40 37 41 39 42 38 43 57 44
REMARK SMILES IDX 58 45 62 46 59 47 61 48 60 49 47 50 48 51 52 52 49 53 51 54
REMARK SMILES IDX 50 55 6 56 7 57 8 58 9 59 10 60 25 61 11 62 12 63 13 64
REMARK SMILES IDX 14 65 15 66 16 68 17 69 18 70 23 71 19 72 22 73 24 74 20 75
REMARK SMILES IDX 21 76
REMARK H PARENT 67 23 45 34 14 67
REMARK Flexibility Score: inf
ROOT
ATOM      1  C   UNL A   1      37.003  19.846  25.000  1.00  0.00     0.274 C 
ENDROOT
BRANCH   1   2
ATOM      2  C   UNL A   1      38.483  20.176  24.816  1.00  0.00     0.275 C 
BRANCH   2   3
ATOM      3  O   UNL A   1      39.393  19.333  25.535  1.00  0.00    -0.458 OA
BRANCH   3   4
ATOM      4  C   UNL A   1      40.678  19.577  25.881  1.00  0.00     0.338 C 
ATOM      5  O   UNL A   1      41.517  18.692  25.718  1.00  0.00    -0.246 OA
BRANCH   4   6
ATOM      6  C   UNL A   1      41.113  20.823  26.584  1.00  0.00     0.060 A 
ATOM      7  C   UNL A   1      41.153  21.024  27.969  1.00  0.00     0.016 A 
ATOM      8  C   UNL A   1      41.454  21.899  25.752  1.00  0.00     0.016 A 
ATOM      9  C   UNL A   1      41.604  22.239  28.512  1.00  0.00     0.010 A 
ATOM     10  C   UNL A   1      41.887  23.112  26.289  1.00  0.00     0.010 A 
ATOM     11  C   UNL A   1      41.984  23.291  27.675  1.00  0.00    -0.014 A 
BRANCH  11  12
ATOM     12  C   UNL A   1      42.484  24.591  28.195  1.00  0.00     0.031 A 
ATOM     13  C   UNL A   1      41.497  25.675  28.540  1.00  0.00     0.074 A 
ATOM     14  C   UNL A   1      43.805  24.866  28.111  1.00  0.00     0.049 A 
ATOM     15  N   UNL A   1      41.724  26.910  28.909  1.00  0.00    -0.248 NA
ATOM     16  C   UNL A   1      40.069  25.338  28.421  1.00  0.00     0.031 C 
ATOM     17  C   UNL A   1      44.841  23.920  27.691  1.00  0.00     0.029 A 
ATOM     18  N   UNL A   1      44.487  26.053  28.265  1.00  0.00    -0.354 N 
ATOM     19  C   UNL A   1      40.480  27.530  28.934  1.00  0.00     0.074 A 
ATOM     20  C   UNL A   1      39.495  26.515  28.626  1.00  0.00     0.031 C 
ATOM     21  C   UNL A   1      45.993  24.585  27.500  1.00  0.00     0.029 A 
ATOM     22  C   UNL A   1      45.778  26.000  27.788  1.00  0.00     0.049 A 
ATOM     23  H   UNL A   1      44.092  26.857  28.673  1.00  0.00     0.167 HD
ATOM     24  C   UNL A   1      40.191  28.837  29.141  1.00  0.00     0.031 A 
ATOM     25  C   UNL A   1      46.668  26.980  27.537  1.00  0.00     0.031 A 
ATOM     26  C   UNL A   1      41.179  29.844  29.404  1.00  0.00     0.049 A 
ATOM     27  C   UNL A   1      46.316  28.410  27.843  1.00  0.00     0.074 A 
ATOM     28  C   UNL A   1      41.030  31.091  29.983  1.00  0.00     0.029 A 
ATOM     29  N   UNL A   1      42.498  29.743  29.003  1.00  0.00    -0.354 N 
ATOM     30  N   UNL A   1      45.196  28.897  28.311  1.00  0.00    -0.248 NA
ATOM     31  C   UNL A   1      47.346  29.425  27.575  1.00  0.00     0.031 C 
ATOM     32  C   UNL A   1      42.248  31.778  29.850  1.00  0.00     0.029 A 
ATOM     33  C   UNL A   1      43.147  30.950  29.199  1.00  0.00     0.049 A 
ATOM     34  H   UNL A   1      42.916  28.932  28.633  1.00  0.00     0.167 HD
ATOM     35  C   UNL A   1      45.372  30.272  28.370  1.00  0.00     0.074 A 
ATOM     36  C   UNL A   1      46.728  30.541  27.938  1.00  0.00     0.031 C 
ATOM     37  C   UNL A   1      44.477  31.226  28.726  1.00  0.00     0.031 A 
BRANCH  24  38
ATOM     38  C   UNL A   1      38.752  29.247  29.051  1.00  0.00    -0.014 A 
ATOM     39  C   UNL A   1      37.926  29.235  30.185  1.00  0.00     0.009 A 
ATOM     40  C   UNL A   1      38.210  29.635  27.817  1.00  0.00     0.009 A 
ATOM     41  C   UNL A   1      36.575  29.568  30.078  1.00  0.00     0.001 A 
ATOM     42  C   UNL A   1      36.861  29.984  27.715  1.00  0.00     0.001 A 
ATOM     43  C   UNL A   1      36.044  29.942  28.845  1.00  0.00     0.000 A 
ENDBRANCH  24  38
BRANCH  25  44
ATOM     44  C   UNL A   1      47.942  26.679  26.831  1.00  0.00    -0.014 A 
ATOM     45  C   UNL A   1      48.038  26.760  25.435  1.00  0.00     0.009 A 
ATOM     46  C   UNL A   1      49.050  26.224  27.566  1.00  0.00     0.009 A 
ATOM     47  C   UNL A   1      49.207  26.354  24.785  1.00  0.00     0.001 A 
ATOM     48  C   UNL A   1      50.225  25.841  26.915  1.00  0.00     0.001 A 
ATOM     49  C   UNL A   1      50.297  25.894  25.524  1.00  0.00     0.000 A 
ENDBRANCH  25  44
BRANCH  37  50
ATOM     50  C   UNL A   1      44.922  32.652  28.594  1.00  0.00    -0.014 A 
ATOM     51  C   UNL A   1      45.617  33.277  29.644  1.00  0.00     0.009 A 
ATOM     52  C   UNL A   1      44.655  33.379  27.426  1.00  0.00     0.009 A 
ATOM     53  C   UNL A   1      46.012  34.610  29.536  1.00  0.00     0.001 A 
ATOM     54  C   UNL A   1      45.074  34.706  27.311  1.00  0.00     0.001 A 
ATOM     55  C   UNL A   1      45.745  35.323  28.369  1.00  0.00     0.000 A 
ENDBRANCH  37  50
ENDBRANCH  11  12
ENDBRANCH   4   6
ENDBRANCH   3   4
ENDBRANCH   2   3
ENDBRANCH   1   2
BRANCH   1  56
ATOM     56  O   UNL A   1      36.137  20.991  24.985  1.00  0.00    -0.460 OA
BRANCH  56  57
ATOM     57  C   UNL A   1      34.807  20.707  25.118  1.00  0.00     0.335 C 
ATOM     58  O   UNL A   1      34.295  19.630  24.826  1.00  0.00    -0.249 OA
BRANCH  57  59
ATOM     59  C   UNL A   1      33.986  21.937  25.531  1.00  0.00     0.228 C 
ATOM     60  C   UNL A   1      33.763  21.924  27.036  1.00  0.00     0.047 C 
ATOM     61  O   UNL A   1      32.704  22.174  24.935  1.00  0.00    -0.361 OA
ATOM     62  C   UNL A   1      32.634  22.904  27.191  1.00  0.00     0.037 C 
ATOM     63  C   UNL A   1      31.787  22.618  25.962  1.00  0.00     0.138 C 
BRANCH  63  64
ATOM     64  C   UNL A   1      30.983  23.861  25.550  1.00  0.00     0.148 C 
BRANCH  64  65
ATOM     65  N   UNL A   1      31.039  24.934  26.529  1.00  0.00    -0.349 N 
ATOM     66  C   UNL A   1      31.418  26.244  26.388  1.00  0.00     0.252 C 
ATOM     67  H   UNL A   1      30.762  24.678  27.439  1.00  0.00     0.163 HD
ATOM     68  O   UNL A   1      31.395  26.992  27.365  1.00  0.00    -0.269 OA
BRANCH  66  69
ATOM     69  C   UNL A   1      31.822  26.775  25.067  1.00  0.00     0.059 A 
ATOM     70  C   UNL A   1      30.947  27.616  24.371  1.00  0.00     0.036 A 
ATOM     71  C   UNL A   1      33.098  26.534  24.547  1.00  0.00     0.053 A 
ATOM     72  C   UNL A   1      31.340  28.159  23.146  1.00  0.00     0.041 A 
ATOM     73  C   UNL A   1      33.473  27.059  23.307  1.00  0.00     0.023 A 
ATOM     74  Cl  UNL A   1      34.268  25.628  25.394  1.00  0.00    -0.083 Cl
ATOM     75  Cl  UNL A   1      30.272  29.207  22.299  1.00  0.00    -0.084 Cl
ATOM     76  C   UNL A   1      32.590  27.872  22.601  1.00  0.00     0.022 A 
ENDBRANCH  66  69
ENDBRANCH  64  65
ENDBRANCH  63  64
ENDBRANCH  57  59
ENDBRANCH  56  57
ENDBRANCH   1  56
TORSDOF 14
ENDMDL
