MODEL 1
REMARK VINA RESULT:     -11.3      0.000      0.000
REMARK SMILES C[C@H]1[C@@H](C(=O)OCCOC(=O)c2ccc(-c3c4nc(c(-c5ccccc5)c5ccc([nH]5)c(-c5ccccc5)c5nc(c(-c6ccccc6)c6ccc3[nH]6)C=C5)C=C4)cc2)CC[N@@H+]1Cc1ccn(-c2ccccc2)n1
REMARK SMILES IDX 7 1 6 2 4 3 5 4 3 5 1 6 2 7 62 8 60 9 61 10 63 12 64 13
REMARK SMILES IDX 65 14 74 15 66 16 67 17 68 18 69 19 73 20 70 21 72 22 71 23
REMARK SMILES IDX 8 24 9 25 10 26 11 27 12 28 13 29 59 30 14 31 58 32 15 33
REMARK SMILES IDX 16 34 17 35 52 36 18 37 57 38 51 39 53 40 19 41 56 42 50 43
REMARK SMILES IDX 49 44 20 46 42 47 27 48 41 49 28 50 31 51 40 52 54 53 29 54
REMARK SMILES IDX 30 55 39 57 55 58 32 59 21 60 22 61 26 62 23 63 25 64 24 65
REMARK SMILES IDX 43 66 44 67 48 68 45 69 47 70 46 71 33 72 34 73 38 74 35 75
REMARK SMILES IDX 37 76 36 77
REMARK H PARENT 62 11 53 45 31 56
REMARK Flexibility Score: inf
ROOT
ATOM      1  C   UNL A   1      32.009  29.705  26.260  1.00  0.00     0.274 C 
ENDROOT
BRANCH   1   2
ATOM      2  O   UNL A   1      31.539  28.424  25.791  1.00  0.00    -0.462 OA
BRANCH   2   3
ATOM      3  C   UNL A   1      31.325  27.459  26.719  1.00  0.00     0.315 C 
ATOM      4  O   UNL A   1      31.223  27.664  27.923  1.00  0.00    -0.252 OA
BRANCH   3   5
ATOM      5  C   UNL A   1      31.100  26.092  26.103  1.00  0.00     0.162 C 
ATOM      6  C   UNL A   1      33.674  25.821  25.719  1.00  0.00     0.076 C 
ATOM      7  C   UNL A   1      32.301  25.166  25.882  1.00  0.00     0.195 C 
ATOM      8  N   UNL A   1      32.015  24.456  24.623  1.00  0.00    -0.327 N 
ATOM      9  C   UNL A   1      30.386  26.184  24.759  1.00  0.00     0.083 C 
ATOM     10  C   UNL A   1      31.187  25.327  23.800  1.00  0.00     0.263 C 
ATOM     11  H   UNL A   1      32.893  24.282  24.134  1.00  0.00     0.348 HD
BRANCH   8  12
ATOM     12  C   UNL A   1      31.542  23.076  24.766  1.00  0.00     0.321 C 
BRANCH  12  13
ATOM     13  C   UNL A   1      32.569  21.989  24.613  1.00  0.00     0.117 A 
ATOM     14  C   UNL A   1      33.965  22.093  24.809  1.00  0.00     0.052 A 
ATOM     15  N   UNL A   1      32.209  20.724  24.351  1.00  0.00    -0.167 NA
ATOM     16  C   UNL A   1      34.432  20.804  24.733  1.00  0.00     0.115 A 
ATOM     17  N   UNL A   1      33.336  19.990  24.546  1.00  0.00    -0.241 N 
BRANCH  17  18
ATOM     18  C   UNL A   1      33.286  18.570  24.615  1.00  0.00     0.065 A 
ATOM     19  C   UNL A   1      33.986  17.780  23.691  1.00  0.00     0.028 A 
ATOM     20  C   UNL A   1      32.573  17.951  25.652  1.00  0.00     0.028 A 
ATOM     21  C   UNL A   1      33.982  16.388  23.817  1.00  0.00     0.002 A 
ATOM     22  C   UNL A   1      32.558  16.558  25.758  1.00  0.00     0.002 A 
ATOM     23  C   UNL A   1      33.268  15.779  24.847  1.00  0.00     0.000 A 
ENDBRANCH  17  18
ENDBRANCH  12  13
ENDBRANCH   8  12
ENDBRANCH   3   5
ENDBRANCH   2   3
ENDBRANCH   1   2
BRANCH   1  24
ATOM     24  C   UNL A   1      33.532  29.704  26.259  1.00  0.00     0.275 C 
BRANCH  24  25
ATOM     25  O   UNL A   1      33.988  29.534  27.613  1.00  0.00    -0.458 OA
BRANCH  25  26
ATOM     26  C   UNL A   1      34.702  30.562  28.123  1.00  0.00     0.338 C 
ATOM     27  O   UNL A   1      34.310  31.681  28.399  1.00  0.00    -0.246 OA
BRANCH  26  28
ATOM     28  C   UNL A   1      36.100  30.136  28.310  1.00  0.00     0.060 A 
ATOM     29  C   UNL A   1      37.013  30.185  27.252  1.00  0.00     0.016 A 
ATOM     30  C   UNL A   1      36.464  29.581  29.536  1.00  0.00     0.016 A 
ATOM     31  C   UNL A   1      38.277  29.613  27.403  1.00  0.00     0.010 A 
ATOM     32  C   UNL A   1      37.760  29.099  29.711  1.00  0.00     0.010 A 
ATOM     33  C   UNL A   1      38.674  29.088  28.642  1.00  0.00    -0.014 A 
BRANCH  33  34
ATOM     34  C   UNL A   1      40.036  28.538  28.865  1.00  0.00     0.031 A 
ATOM     35  C   UNL A   1      41.162  29.456  29.257  1.00  0.00     0.074 A 
ATOM     36  C   UNL A   1      40.290  27.236  28.633  1.00  0.00     0.049 A 
ATOM     37  N   UNL A   1      42.453  29.260  29.182  1.00  0.00    -0.248 NA
ATOM     38  C   UNL A   1      40.781  30.777  29.785  1.00  0.00     0.031 C 
ATOM     39  C   UNL A   1      39.294  26.217  28.299  1.00  0.00     0.029 A 
ATOM     40  N   UNL A   1      41.482  26.553  28.618  1.00  0.00    -0.354 N 
ATOM     41  C   UNL A   1      43.039  30.452  29.589  1.00  0.00     0.074 A 
ATOM     42  C   UNL A   1      41.963  31.361  29.926  1.00  0.00     0.031 C 
ATOM     43  C   UNL A   1      39.912  25.041  28.116  1.00  0.00     0.029 A 
ATOM     44  C   UNL A   1      41.352  25.243  28.227  1.00  0.00     0.049 A 
ATOM     45  H   UNL A   1      42.343  26.961  28.862  1.00  0.00     0.167 HD
ATOM     46  C   UNL A   1      44.355  30.764  29.658  1.00  0.00     0.031 A 
ATOM     47  C   UNL A   1      42.282  24.320  27.922  1.00  0.00     0.031 A 
ATOM     48  C   UNL A   1      45.420  29.846  29.354  1.00  0.00     0.049 A 
ATOM     49  C   UNL A   1      43.733  24.696  27.961  1.00  0.00     0.074 A 
ATOM     50  C   UNL A   1      46.787  30.061  29.403  1.00  0.00     0.029 A 
ATOM     51  N   UNL A   1      45.236  28.529  28.960  1.00  0.00    -0.354 N 
ATOM     52  N   UNL A   1      44.277  25.845  28.279  1.00  0.00    -0.248 NA
ATOM     53  C   UNL A   1      44.696  23.655  27.579  1.00  0.00     0.031 C 
ATOM     54  C   UNL A   1      47.430  28.881  29.011  1.00  0.00     0.029 A 
ATOM     55  C   UNL A   1      46.462  27.923  28.755  1.00  0.00     0.049 A 
ATOM     56  H   UNL A   1      44.362  28.091  28.844  1.00  0.00     0.167 HD
ATOM     57  C   UNL A   1      45.645  25.664  28.146  1.00  0.00     0.074 A 
ATOM     58  C   UNL A   1      45.851  24.290  27.730  1.00  0.00     0.031 C 
ATOM     59  C   UNL A   1      46.644  26.555  28.348  1.00  0.00     0.031 A 
BRANCH  46  60
ATOM     60  C   UNL A   1      44.720  32.170  30.034  1.00  0.00    -0.014 A 
ATOM     61  C   UNL A   1      44.980  32.531  31.364  1.00  0.00     0.009 A 
ATOM     62  C   UNL A   1      44.851  33.142  29.028  1.00  0.00     0.009 A 
ATOM     63  C   UNL A   1      45.340  33.843  31.681  1.00  0.00     0.001 A 
ATOM     64  C   UNL A   1      45.232  34.445  29.345  1.00  0.00     0.001 A 
ATOM     65  C   UNL A   1      45.469  34.798  30.673  1.00  0.00     0.000 A 
ENDBRANCH  46  60
BRANCH  47  66
ATOM     66  C   UNL A   1      41.854  22.967  27.485  1.00  0.00    -0.014 A 
ATOM     67  C   UNL A   1      41.608  22.703  26.131  1.00  0.00     0.009 A 
ATOM     68  C   UNL A   1      41.727  21.924  28.418  1.00  0.00     0.009 A 
ATOM     69  C   UNL A   1      41.237  21.421  25.719  1.00  0.00     0.001 A 
ATOM     70  C   UNL A   1      41.381  20.640  27.999  1.00  0.00     0.001 A 
ATOM     71  C   UNL A   1      41.131  20.389  26.651  1.00  0.00     0.000 A 
ENDBRANCH  47  66
BRANCH  59  72
ATOM     72  C   UNL A   1      48.048  26.062  28.165  1.00  0.00    -0.014 A 
ATOM     73  C   UNL A   1      48.656  26.065  26.901  1.00  0.00     0.009 A 
ATOM     74  C   UNL A   1      48.782  25.631  29.280  1.00  0.00     0.009 A 
ATOM     75  C   UNL A   1      49.973  25.627  26.756  1.00  0.00     0.001 A 
ATOM     76  C   UNL A   1      50.104  25.210  29.134  1.00  0.00     0.001 A 
ATOM     77  C   UNL A   1      50.696  25.203  27.872  1.00  0.00     0.000 A 
ENDBRANCH  59  72
ENDBRANCH  33  34
ENDBRANCH  26  28
ENDBRANCH  25  26
ENDBRANCH  24  25
ENDBRANCH   1  24
TORSDOF 14
ENDMDL
MODEL 2
REMARK VINA RESULT:     -11.2      1.497      2.429
REMARK SMILES C[C@H]1[C@@H](C(=O)OCCOC(=O)c2ccc(-c3c4nc(c(-c5ccccc5)c5ccc([nH]5)c(-c5ccccc5)c5nc(c(-c6ccccc6)c6ccc3[nH]6)C=C5)C=C4)cc2)CC[N@@H+]1Cc1ccn(-c2ccccc2)n1
REMARK SMILES IDX 7 1 6 2 4 3 5 4 3 5 1 6 2 7 62 8 60 9 61 10 63 12 64 13
REMARK SMILES IDX 65 14 74 15 66 16 67 17 68 18 69 19 73 20 70 21 72 22 71 23
REMARK SMILES IDX 8 24 9 25 10 26 11 27 12 28 13 29 59 30 14 31 58 32 15 33
REMARK SMILES IDX 16 34 17 35 52 36 18 37 57 38 51 39 53 40 19 41 56 42 50 43
REMARK SMILES IDX 49 44 20 46 42 47 27 48 41 49 28 50 31 51 40 52 54 53 29 54
REMARK SMILES IDX 30 55 39 57 55 58 32 59 21 60 22 61 26 62 23 63 25 64 24 65
REMARK SMILES IDX 43 66 44 67 48 68 45 69 47 70 46 71 33 72 34 73 38 74 35 75
REMARK SMILES IDX 37 76 36 77
REMARK H PARENT 62 11 53 45 31 56
REMARK Flexibility Score: inf
ROOT
ATOM      1  C   UNL A   1      32.134  30.119  26.869  1.00  0.00     0.274 C 
ENDROOT
BRANCH   1   2
ATOM      2  O   UNL A   1      32.263  28.808  26.280  1.00  0.00    -0.462 OA
BRANCH   2   3
ATOM      3  C   UNL A   1      31.473  28.521  25.215  1.00  0.00     0.315 C 
ATOM      4  O   UNL A   1      31.169  29.323  24.340  1.00  0.00    -0.252 OA
BRANCH   3   5
ATOM      5  C   UNL A   1      31.092  27.055  25.146  1.00  0.00     0.162 C 
ATOM      6  C   UNL A   1      33.243  26.543  23.746  1.00  0.00     0.076 C 
ATOM      7  C   UNL A   1      32.131  26.036  24.666  1.00  0.00     0.195 C 
ATOM      8  N   UNL A   1      31.366  25.036  23.900  1.00  0.00    -0.327 N 
ATOM      9  C   UNL A   1      29.853  26.830  24.286  1.00  0.00     0.083 C 
ATOM     10  C   UNL A   1      30.203  25.704  23.334  1.00  0.00     0.263 C 
ATOM     11  H   UNL A   1      31.947  24.688  23.137  1.00  0.00     0.348 HD
BRANCH   8  12
ATOM     12  C   UNL A   1      31.099  23.772  24.595  1.00  0.00     0.321 C 
BRANCH  12  13
ATOM     13  C   UNL A   1      32.255  22.823  24.738  1.00  0.00     0.117 A 
ATOM     14  C   UNL A   1      32.362  21.514  24.214  1.00  0.00     0.052 A 
ATOM     15  N   UNL A   1      33.395  23.200  25.337  1.00  0.00    -0.167 NA
ATOM     16  C   UNL A   1      33.661  21.140  24.454  1.00  0.00     0.115 A 
ATOM     17  N   UNL A   1      34.285  22.213  25.052  1.00  0.00    -0.241 N 
BRANCH  17  18
ATOM     18  C   UNL A   1      35.676  22.384  25.299  1.00  0.00     0.065 A 
ATOM     19  C   UNL A   1      36.173  23.597  25.799  1.00  0.00     0.028 A 
ATOM     20  C   UNL A   1      36.553  21.310  25.095  1.00  0.00     0.028 A 
ATOM     21  C   UNL A   1      37.531  23.723  26.103  1.00  0.00     0.002 A 
ATOM     22  C   UNL A   1      37.913  21.451  25.383  1.00  0.00     0.002 A 
ATOM     23  C   UNL A   1      38.400  22.653  25.893  1.00  0.00     0.000 A 
ENDBRANCH  17  18
ENDBRANCH  12  13
ENDBRANCH   8  12
ENDBRANCH   3   5
ENDBRANCH   2   3
ENDBRANCH   1   2
BRANCH   1  24
ATOM     24  C   UNL A   1      33.499  30.794  26.878  1.00  0.00     0.275 C 
BRANCH  24  25
ATOM     25  O   UNL A   1      34.409  29.971  27.629  1.00  0.00    -0.458 OA
BRANCH  25  26
ATOM     26  C   UNL A   1      35.144  30.614  28.563  1.00  0.00     0.338 C 
ATOM     27  O   UNL A   1      34.820  31.571  29.242  1.00  0.00    -0.246 OA
BRANCH  26  28
ATOM     28  C   UNL A   1      36.469  29.979  28.659  1.00  0.00     0.060 A 
ATOM     29  C   UNL A   1      36.900  29.390  29.853  1.00  0.00     0.016 A 
ATOM     30  C   UNL A   1      37.329  30.072  27.566  1.00  0.00     0.016 A 
ATOM     31  C   UNL A   1      38.220  28.955  29.973  1.00  0.00     0.010 A 
ATOM     32  C   UNL A   1      38.617  29.548  27.660  1.00  0.00     0.010 A 
ATOM     33  C   UNL A   1      39.085  29.005  28.870  1.00  0.00    -0.014 A 
BRANCH  33  34
ATOM     34  C   UNL A   1      40.475  28.483  28.934  1.00  0.00     0.031 A 
ATOM     35  C   UNL A   1      41.620  29.426  29.187  1.00  0.00     0.074 A 
ATOM     36  C   UNL A   1      40.727  27.185  28.679  1.00  0.00     0.049 A 
ATOM     37  N   UNL A   1      42.898  29.255  28.961  1.00  0.00    -0.248 NA
ATOM     38  C   UNL A   1      41.277  30.743  29.750  1.00  0.00     0.031 C 
ATOM     39  C   UNL A   1      39.719  26.144  28.469  1.00  0.00     0.029 A 
ATOM     40  N   UNL A   1      41.923  26.525  28.526  1.00  0.00    -0.354 N 
ATOM     41  C   UNL A   1      43.502  30.462  29.291  1.00  0.00     0.074 A 
ATOM     42  C   UNL A   1      42.455  31.351  29.748  1.00  0.00     0.031 C 
ATOM     43  C   UNL A   1      40.335  24.979  28.219  1.00  0.00     0.029 A 
ATOM     44  C   UNL A   1      41.774  25.211  28.159  1.00  0.00     0.049 A 
ATOM     45  H   UNL A   1      42.798  26.953  28.665  1.00  0.00     0.167 HD
ATOM     46  C   UNL A   1      44.811  30.799  29.203  1.00  0.00     0.031 A 
ATOM     47  C   UNL A   1      42.680  24.304  27.751  1.00  0.00     0.031 A 
ATOM     48  C   UNL A   1      45.851  29.901  28.780  1.00  0.00     0.049 A 
ATOM     49  C   UNL A   1      44.118  24.709  27.617  1.00  0.00     0.074 A 
ATOM     50  C   UNL A   1      47.210  30.144  28.666  1.00  0.00     0.029 A 
ATOM     51  N   UNL A   1      45.649  28.578  28.416  1.00  0.00    -0.354 N 
ATOM     52  N   UNL A   1      44.672  25.871  27.864  1.00  0.00    -0.248 NA
ATOM     53  C   UNL A   1      45.051  23.685  27.128  1.00  0.00     0.031 C 
ATOM     54  C   UNL A   1      47.826  28.974  28.206  1.00  0.00     0.029 A 
ATOM     55  C   UNL A   1      46.855  27.995  28.070  1.00  0.00     0.049 A 
ATOM     56  H   UNL A   1      44.777  28.122  28.405  1.00  0.00     0.167 HD
ATOM     57  C   UNL A   1      46.018  25.716  27.571  1.00  0.00     0.074 A 
ATOM     58  C   UNL A   1      46.202  24.344  27.140  1.00  0.00     0.031 C 
ATOM     59  C   UNL A   1      47.015  26.628  27.651  1.00  0.00     0.031 A 
BRANCH  46  60
ATOM     60  C   UNL A   1      45.189  32.215  29.527  1.00  0.00    -0.014 A 
ATOM     61  C   UNL A   1      45.164  33.223  28.551  1.00  0.00     0.009 A 
ATOM     62  C   UNL A   1      45.530  32.555  30.846  1.00  0.00     0.009 A 
ATOM     63  C   UNL A   1      45.500  34.537  28.886  1.00  0.00     0.001 A 
ATOM     64  C   UNL A   1      45.843  33.871  31.183  1.00  0.00     0.001 A 
ATOM     65  C   UNL A   1      45.835  34.862  30.201  1.00  0.00     0.000 A 
ENDBRANCH  46  60
BRANCH  47  66
ATOM     66  C   UNL A   1      42.232  22.941  27.373  1.00  0.00    -0.014 A 
ATOM     67  C   UNL A   1      41.861  22.016  28.359  1.00  0.00     0.009 A 
ATOM     68  C   UNL A   1      42.135  22.572  26.021  1.00  0.00     0.009 A 
ATOM     69  C   UNL A   1      41.409  20.745  27.999  1.00  0.00     0.001 A 
ATOM     70  C   UNL A   1      41.658  21.310  25.664  1.00  0.00     0.001 A 
ATOM     71  C   UNL A   1      41.300  20.395  26.653  1.00  0.00     0.000 A 
ENDBRANCH  47  66
BRANCH  59  72
ATOM     72  C   UNL A   1      48.398  26.162  27.305  1.00  0.00    -0.014 A 
ATOM     73  C   UNL A   1      48.910  26.316  26.009  1.00  0.00     0.009 A 
ATOM     74  C   UNL A   1      49.210  25.602  28.304  1.00  0.00     0.009 A 
ATOM     75  C   UNL A   1      50.209  25.899  25.715  1.00  0.00     0.001 A 
ATOM     76  C   UNL A   1      50.514  25.203  28.009  1.00  0.00     0.001 A 
ATOM     77  C   UNL A   1      51.010  25.346  26.715  1.00  0.00     0.000 A 
ENDBRANCH  59  72
ENDBRANCH  33  34
ENDBRANCH  26  28
ENDBRANCH  25  26
ENDBRANCH  24  25
ENDBRANCH   1  24
TORSDOF 14
ENDMDL
MODEL 3
REMARK VINA RESULT:     -11.0      4.143      9.214
REMARK SMILES C[C@H]1[C@@H](C(=O)OCCOC(=O)c2ccc(-c3c4nc(c(-c5ccccc5)c5ccc([nH]5)c(-c5ccccc5)c5nc(c(-c6ccccc6)c6ccc3[nH]6)C=C5)C=C4)cc2)CC[N@@H+]1Cc1ccn(-c2ccccc2)n1
REMARK SMILES IDX 7 1 6 2 4 3 5 4 3 5 1 6 2 7 62 8 60 9 61 10 63 12 64 13
REMARK SMILES IDX 65 14 74 15 66 16 67 17 68 18 69 19 73 20 70 21 72 22 71 23
REMARK SMILES IDX 8 24 9 25 10 26 11 27 12 28 13 29 59 30 14 31 58 32 15 33
REMARK SMILES IDX 16 34 17 35 52 36 18 37 57 38 51 39 53 40 19 41 56 42 50 43
REMARK SMILES IDX 49 44 20 46 42 47 27 48 41 49 28 50 31 51 40 52 54 53 29 54
REMARK SMILES IDX 30 55 39 57 55 58 32 59 21 60 22 61 26 62 23 63 25 64 24 65
REMARK SMILES IDX 43 66 44 67 48 68 45 69 47 70 46 71 33 72 34 73 38 74 35 75
REMARK SMILES IDX 37 76 36 77
REMARK H PARENT 62 11 53 45 31 56
REMARK Flexibility Score: inf
ROOT
ATOM      1  C   UNL A   1      36.429  21.622  25.819  1.00  0.00     0.274 C 
ENDROOT
BRANCH   1   2
ATOM      2  O   UNL A   1      35.773  21.114  24.638  1.00  0.00    -0.462 OA
BRANCH   2   3
ATOM      3  C   UNL A   1      34.418  21.060  24.650  1.00  0.00     0.315 C 
ATOM      4  O   UNL A   1      33.760  20.287  25.336  1.00  0.00    -0.252 OA
BRANCH   3   5
ATOM      5  C   UNL A   1      33.780  22.150  23.810  1.00  0.00     0.162 C 
ATOM      6  C   UNL A   1      33.183  23.495  25.973  1.00  0.00     0.076 C 
ATOM      7  C   UNL A   1      33.435  23.492  24.465  1.00  0.00     0.195 C 
ATOM      8  N   UNL A   1      32.181  23.924  23.823  1.00  0.00    -0.327 N 
ATOM      9  C   UNL A   1      32.501  21.670  23.133  1.00  0.00     0.083 C 
ATOM     10  C   UNL A   1      31.455  22.729  23.417  1.00  0.00     0.263 C 
ATOM     11  H   UNL A   1      31.618  24.434  24.504  1.00  0.00     0.348 HD
BRANCH   8  12
ATOM     12  C   UNL A   1      32.319  24.964  22.798  1.00  0.00     0.321 C 
BRANCH  12  13
ATOM     13  C   UNL A   1      32.112  26.384  23.244  1.00  0.00     0.117 A 
ATOM     14  C   UNL A   1      31.002  27.216  22.976  1.00  0.00     0.052 A 
ATOM     15  N   UNL A   1      32.982  26.986  24.069  1.00  0.00    -0.167 NA
ATOM     16  C   UNL A   1      31.200  28.334  23.748  1.00  0.00     0.115 A 
ATOM     17  N   UNL A   1      32.357  28.127  24.465  1.00  0.00    -0.241 N 
BRANCH  17  18
ATOM     18  C   UNL A   1      32.862  28.903  25.546  1.00  0.00     0.065 A 
ATOM     19  C   UNL A   1      34.019  28.511  26.234  1.00  0.00     0.028 A 
ATOM     20  C   UNL A   1      32.228  30.105  25.892  1.00  0.00     0.028 A 
ATOM     21  C   UNL A   1      34.540  29.322  27.246  1.00  0.00     0.002 A 
ATOM     22  C   UNL A   1      32.743  30.900  26.918  1.00  0.00     0.002 A 
ATOM     23  C   UNL A   1      33.902  30.513  27.588  1.00  0.00     0.000 A 
ENDBRANCH  17  18
ENDBRANCH  12  13
ENDBRANCH   8  12
ENDBRANCH   3   5
ENDBRANCH   2   3
ENDBRANCH   1   2
BRANCH   1  24
ATOM     24  C   UNL A   1      37.864  21.991  25.467  1.00  0.00     0.275 C 
BRANCH  24  25
ATOM     25  O   UNL A   1      38.175  23.251  26.088  1.00  0.00    -0.458 OA
BRANCH  25  26
ATOM     26  C   UNL A   1      39.472  23.436  26.418  1.00  0.00     0.338 C 
ATOM     27  O   UNL A   1      40.410  22.685  26.218  1.00  0.00    -0.246 OA
BRANCH  26  28
ATOM     28  C   UNL A   1      39.620  24.735  27.097  1.00  0.00     0.060 A 
ATOM     29  C   UNL A   1      40.361  25.770  26.517  1.00  0.00     0.016 A 
ATOM     30  C   UNL A   1      39.095  24.873  28.382  1.00  0.00     0.016 A 
ATOM     31  C   UNL A   1      40.635  26.922  27.255  1.00  0.00     0.010 A 
ATOM     32  C   UNL A   1      39.290  26.065  29.077  1.00  0.00     0.010 A 
ATOM     33  C   UNL A   1      40.080  27.094  28.532  1.00  0.00    -0.014 A 
BRANCH  33  34
ATOM     34  C   UNL A   1      40.285  28.337  29.320  1.00  0.00     0.031 A 
ATOM     35  C   UNL A   1      41.414  28.421  30.310  1.00  0.00     0.074 A 
ATOM     36  C   UNL A   1      39.414  29.358  29.217  1.00  0.00     0.049 A 
ATOM     37  N   UNL A   1      41.577  29.248  31.311  1.00  0.00    -0.248 NA
ATOM     38  C   UNL A   1      42.491  27.427  30.167  1.00  0.00     0.031 C 
ATOM     39  C   UNL A   1      38.303  29.443  28.267  1.00  0.00     0.029 A 
ATOM     40  N   UNL A   1      39.313  30.517  29.950  1.00  0.00    -0.354 N 
ATOM     41  C   UNL A   1      42.738  28.836  31.954  1.00  0.00     0.074 A 
ATOM     42  C   UNL A   1      43.247  27.695  31.223  1.00  0.00     0.031 C 
ATOM     43  C   UNL A   1      37.637  30.590  28.469  1.00  0.00     0.029 A 
ATOM     44  C   UNL A   1      38.214  31.272  29.622  1.00  0.00     0.049 A 
ATOM     45  H   UNL A   1      39.962  30.778  30.641  1.00  0.00     0.167 HD
ATOM     46  C   UNL A   1      43.314  29.354  33.065  1.00  0.00     0.031 A 
ATOM     47  C   UNL A   1      37.683  32.356  30.216  1.00  0.00     0.031 A 
ATOM     48  C   UNL A   1      42.821  30.508  33.768  1.00  0.00     0.049 A 
ATOM     49  C   UNL A   1      38.309  32.889  31.471  1.00  0.00     0.074 A 
ATOM     50  C   UNL A   1      43.339  31.117  34.899  1.00  0.00     0.029 A 
ATOM     51  N   UNL A   1      41.703  31.238  33.396  1.00  0.00    -0.354 N 
ATOM     52  N   UNL A   1      39.364  32.452  32.113  1.00  0.00    -0.248 NA
ATOM     53  C   UNL A   1      37.658  34.048  32.094  1.00  0.00     0.031 C 
ATOM     54  C   UNL A   1      42.516  32.201  35.227  1.00  0.00     0.029 A 
ATOM     55  C   UNL A   1      41.509  32.286  34.278  1.00  0.00     0.049 A 
ATOM     56  H   UNL A   1      41.131  31.039  32.620  1.00  0.00     0.167 HD
ATOM     57  C   UNL A   1      39.512  33.289  33.209  1.00  0.00     0.074 A 
ATOM     58  C   UNL A   1      38.445  34.267  33.139  1.00  0.00     0.031 C 
ATOM     59  C   UNL A   1      40.446  33.251  34.187  1.00  0.00     0.031 A 
BRANCH  46  60
ATOM     60  C   UNL A   1      44.518  28.649  33.619  1.00  0.00    -0.014 A 
ATOM     61  C   UNL A   1      45.819  29.025  33.257  1.00  0.00     0.009 A 
ATOM     62  C   UNL A   1      44.343  27.619  34.558  1.00  0.00     0.009 A 
ATOM     63  C   UNL A   1      46.922  28.365  33.807  1.00  0.00     0.001 A 
ATOM     64  C   UNL A   1      45.446  26.977  35.121  1.00  0.00     0.001 A 
ATOM     65  C   UNL A   1      46.736  27.346  34.740  1.00  0.00     0.000 A 
ENDBRANCH  46  60
BRANCH  47  66
ATOM     66  C   UNL A   1      36.447  32.962  29.661  1.00  0.00    -0.014 A 
ATOM     67  C   UNL A   1      36.468  33.603  28.415  1.00  0.00     0.009 A 
ATOM     68  C   UNL A   1      35.231  32.868  30.360  1.00  0.00     0.009 A 
ATOM     69  C   UNL A   1      35.296  34.144  27.881  1.00  0.00     0.001 A 
ATOM     70  C   UNL A   1      34.059  33.388  29.812  1.00  0.00     0.001 A 
ATOM     71  C   UNL A   1      34.092  34.030  28.575  1.00  0.00     0.000 A 
ENDBRANCH  47  66
BRANCH  59  72
ATOM     72  C   UNL A   1      40.382  34.320  35.236  1.00  0.00    -0.014 A 
ATOM     73  C   UNL A   1      40.996  35.565  35.038  1.00  0.00     0.009 A 
ATOM     74  C   UNL A   1      39.658  34.090  36.416  1.00  0.00     0.009 A 
ATOM     75  C   UNL A   1      40.902  36.557  36.015  1.00  0.00     0.001 A 
ATOM     76  C   UNL A   1      39.552  35.090  37.383  1.00  0.00     0.001 A 
ATOM     77  C   UNL A   1      40.178  36.319  37.185  1.00  0.00     0.000 A 
ENDBRANCH  59  72
ENDBRANCH  33  34
ENDBRANCH  26  28
ENDBRANCH  25  26
ENDBRANCH  24  25
ENDBRANCH   1  24
TORSDOF 14
ENDMDL
