MODEL 1
REMARK VINA RESULT:      -8.5      0.000      0.000
REMARK SMILES O=C(C[N@@H+](Cc1c(F)cccc1Cl)C1CC1)OCCOC(=O)c1ccc(-c2c3nc(c(-c4ccccc4)c4ccc([nH]4)c(-c4ccccc4)c4nc(c(-c5ccccc5)c5ccc2[nH]5)C=C4)C=C3)cc1
REMARK SMILES IDX 18 1 17 2 2 3 1 4 3 5 4 6 5 8 6 9 7 10 12 11 8 12 9 13 11 14
REMARK SMILES IDX 13 15 10 16 14 17 15 18 16 19 19 20 20 21 21 22 22 23 23 24
REMARK SMILES IDX 24 25 70 26 25 27 69 28 26 29 27 30 28 31 63 32 29 33 68 34
REMARK SMILES IDX 62 35 64 36 30 37 67 38 61 39 60 40 31 42 53 43 38 44 52 45
REMARK SMILES IDX 39 46 42 47 51 48 65 49 40 50 41 51 50 53 66 54 43 55 32 56
REMARK SMILES IDX 33 57 37 58 34 59 36 60 35 61 54 62 55 63 59 64 56 65 58 66
REMARK SMILES IDX 57 67 44 68 45 69 49 70 46 71 48 72 47 73
REMARK H PARENT 4 7 64 41 42 52
REMARK Flexibility Score: inf
ROOT
ATOM      1  C   UNL A   1      33.596  35.183  28.396  1.00  0.00     0.274 C 
ENDROOT
BRANCH   1   2
ATOM      2  O   UNL A   1      34.167  35.300  29.716  1.00  0.00    -0.458 OA
BRANCH   2   3
ATOM      3  C   UNL A   1      33.438  35.352  30.860  1.00  0.00     0.361 C 
ATOM      4  O   UNL A   1      32.271  35.744  30.833  1.00  0.00    -0.245 OA
BRANCH   3   5
ATOM      5  C   UNL A   1      34.138  35.017  32.166  1.00  0.00     0.387 C 
BRANCH   5   6
ATOM      6  N   UNL A   1      35.296  34.123  32.011  1.00  0.00    -0.319 N 
ATOM      7  H   UNL A   1      35.462  33.998  31.013  1.00  0.00     0.349 HD
BRANCH   6   8
ATOM      8  C   UNL A   1      36.524  34.757  32.536  1.00  0.00     0.304 C 
BRANCH   8   9
ATOM      9  C   UNL A   1      37.871  34.504  31.886  1.00  0.00     0.061 A 
ATOM     10  C   UNL A   1      38.069  34.334  30.508  1.00  0.00     0.133 A 
ATOM     11  C   UNL A   1      39.024  34.453  32.694  1.00  0.00     0.052 A 
ATOM     12  F   UNL A   1      37.043  34.219  29.659  1.00  0.00    -0.206 F 
ATOM     13  C   UNL A   1      39.339  34.281  29.941  1.00  0.00     0.040 A 
ATOM     14  C   UNL A   1      40.304  34.403  32.131  1.00  0.00     0.021 A 
ATOM     15  Cl  UNL A   1      38.933  34.409  34.423  1.00  0.00    -0.084 Cl
ATOM     16  C   UNL A   1      40.463  34.363  30.749  1.00  0.00     0.005 A 
ENDBRANCH   8   9
ENDBRANCH   6   8
BRANCH   6  17
ATOM     17  C   UNL A   1      35.049  32.731  32.441  1.00  0.00     0.185 C 
ATOM     18  C   UNL A   1      35.735  31.614  31.703  1.00  0.00     0.071 C 
ATOM     19  C   UNL A   1      36.106  31.900  33.124  1.00  0.00     0.071 C 
ENDBRANCH   6  17
ENDBRANCH   5   6
ENDBRANCH   3   5
ENDBRANCH   2   3
ENDBRANCH   1   2
BRANCH   1  20
ATOM     20  C   UNL A   1      33.336  33.720  28.011  1.00  0.00     0.275 C 
BRANCH  20  21
ATOM     21  O   UNL A   1      34.342  32.829  28.545  1.00  0.00    -0.458 OA
BRANCH  21  22
ATOM     22  C   UNL A   1      34.454  31.619  27.941  1.00  0.00     0.338 C 
ATOM     23  O   UNL A   1      33.676  31.147  27.128  1.00  0.00    -0.246 OA
BRANCH  22  24
ATOM     24  C   UNL A   1      35.766  30.996  28.262  1.00  0.00     0.060 A 
ATOM     25  C   UNL A   1      35.770  29.673  28.727  1.00  0.00     0.016 A 
ATOM     26  C   UNL A   1      36.980  31.678  28.121  1.00  0.00     0.016 A 
ATOM     27  C   UNL A   1      36.971  29.047  29.082  1.00  0.00     0.010 A 
ATOM     28  C   UNL A   1      38.182  31.054  28.488  1.00  0.00     0.010 A 
ATOM     29  C   UNL A   1      38.184  29.744  28.996  1.00  0.00    -0.014 A 
BRANCH  29  30
ATOM     30  C   UNL A   1      39.426  29.148  29.554  1.00  0.00     0.031 A 
ATOM     31  C   UNL A   1      39.963  29.647  30.861  1.00  0.00     0.074 A 
ATOM     32  C   UNL A   1      40.098  28.178  28.911  1.00  0.00     0.049 A 
ATOM     33  N   UNL A   1      41.030  29.261  31.514  1.00  0.00    -0.248 NA
ATOM     34  C   UNL A   1      39.222  30.745  31.495  1.00  0.00     0.031 C 
ATOM     35  C   UNL A   1      39.726  27.636  27.614  1.00  0.00     0.029 A 
ATOM     36  N   UNL A   1      41.229  27.475  29.259  1.00  0.00    -0.354 N 
ATOM     37  C   UNL A   1      41.112  30.094  32.618  1.00  0.00     0.074 A 
ATOM     38  C   UNL A   1      39.985  31.003  32.546  1.00  0.00     0.031 C 
ATOM     39  C   UNL A   1      40.587  26.658  27.295  1.00  0.00     0.029 A 
ATOM     40  C   UNL A   1      41.575  26.505  28.351  1.00  0.00     0.049 A 
ATOM     41  H   UNL A   1      41.741  27.651  30.082  1.00  0.00     0.167 HD
ATOM     42  C   UNL A   1      42.054  30.121  33.591  1.00  0.00     0.031 A 
ATOM     43  C   UNL A   1      42.562  25.588  28.352  1.00  0.00     0.031 A 
ATOM     44  C   UNL A   1      43.196  29.248  33.656  1.00  0.00     0.049 A 
ATOM     45  C   UNL A   1      43.560  25.591  29.472  1.00  0.00     0.074 A 
ATOM     46  C   UNL A   1      44.203  29.215  34.607  1.00  0.00     0.029 A 
ATOM     47  N   UNL A   1      43.493  28.261  32.729  1.00  0.00    -0.354 N 
ATOM     48  N   UNL A   1      43.609  26.371  30.523  1.00  0.00    -0.248 NA
ATOM     49  C   UNL A   1      44.652  24.609  29.394  1.00  0.00     0.031 C 
ATOM     50  C   UNL A   1      45.131  28.235  34.233  1.00  0.00     0.029 A 
ATOM     51  C   UNL A   1      44.675  27.623  33.078  1.00  0.00     0.049 A 
ATOM     52  H   UNL A   1      42.947  28.044  31.940  1.00  0.00     0.167 HD
ATOM     53  C   UNL A   1      44.745  25.988  31.222  1.00  0.00     0.074 A 
ATOM     54  C   UNL A   1      45.328  24.875  30.503  1.00  0.00     0.031 C 
ATOM     55  C   UNL A   1      45.265  26.532  32.347  1.00  0.00     0.031 A 
BRANCH  42  56
ATOM     56  C   UNL A   1      41.907  31.194  34.631  1.00  0.00    -0.014 A 
ATOM     57  C   UNL A   1      42.541  32.438  34.492  1.00  0.00     0.009 A 
ATOM     58  C   UNL A   1      41.145  30.939  35.780  1.00  0.00     0.009 A 
ATOM     59  C   UNL A   1      42.453  33.389  35.509  1.00  0.00     0.001 A 
ATOM     60  C   UNL A   1      41.035  31.902  36.783  1.00  0.00     0.001 A 
ATOM     61  C   UNL A   1      41.699  33.121  36.652  1.00  0.00     0.000 A 
ENDBRANCH  42  56
BRANCH  43  62
ATOM     62  C   UNL A   1      42.655  24.572  27.265  1.00  0.00    -0.014 A 
ATOM     63  C   UNL A   1      43.467  24.812  26.144  1.00  0.00     0.009 A 
ATOM     64  C   UNL A   1      41.937  23.369  27.332  1.00  0.00     0.009 A 
ATOM     65  C   UNL A   1      43.544  23.878  25.108  1.00  0.00     0.001 A 
ATOM     66  C   UNL A   1      42.042  22.421  26.310  1.00  0.00     0.001 A 
ATOM     67  C   UNL A   1      42.838  22.679  25.195  1.00  0.00     0.000 A 
ENDBRANCH  43  62
BRANCH  55  68
ATOM     68  C   UNL A   1      46.540  25.930  32.865  1.00  0.00    -0.014 A 
ATOM     69  C   UNL A   1      47.790  26.395  32.427  1.00  0.00     0.009 A 
ATOM     70  C   UNL A   1      46.491  24.897  33.813  1.00  0.00     0.009 A 
ATOM     71  C   UNL A   1      48.967  25.815  32.907  1.00  0.00     0.001 A 
ATOM     72  C   UNL A   1      47.668  24.337  34.309  1.00  0.00     0.001 A 
ATOM     73  C   UNL A   1      48.904  24.790  33.850  1.00  0.00     0.000 A 
ENDBRANCH  55  68
ENDBRANCH  29  30
ENDBRANCH  22  24
ENDBRANCH  21  22
ENDBRANCH  20  21
ENDBRANCH   1  20
TORSDOF 15
ENDMDL
MODEL 2
REMARK VINA RESULT:      -8.2      5.579     10.464
REMARK SMILES O=C(C[N@@H+](Cc1c(F)cccc1Cl)C1CC1)OCCOC(=O)c1ccc(-c2c3nc(c(-c4ccccc4)c4ccc([nH]4)c(-c4ccccc4)c4nc(c(-c5ccccc5)c5ccc2[nH]5)C=C4)C=C3)cc1
REMARK SMILES IDX 18 1 17 2 2 3 1 4 3 5 4 6 5 8 6 9 7 10 12 11 8 12 9 13 11 14
REMARK SMILES IDX 13 15 10 16 14 17 15 18 16 19 19 20 20 21 21 22 22 23 23 24
REMARK SMILES IDX 24 25 70 26 25 27 69 28 26 29 27 30 28 31 63 32 29 33 68 34
REMARK SMILES IDX 62 35 64 36 30 37 67 38 61 39 60 40 31 42 53 43 38 44 52 45
REMARK SMILES IDX 39 46 42 47 51 48 65 49 40 50 41 51 50 53 66 54 43 55 32 56
REMARK SMILES IDX 33 57 37 58 34 59 36 60 35 61 54 62 55 63 59 64 56 65 58 66
REMARK SMILES IDX 57 67 44 68 45 69 49 70 46 71 48 72 47 73
REMARK H PARENT 4 7 64 41 42 52
REMARK Flexibility Score: inf
ROOT
ATOM      1  C   UNL A   1      37.800  20.897  24.683  1.00  0.00     0.274 C 
ENDROOT
BRANCH   1   2
ATOM      2  O   UNL A   1      37.033  21.348  25.820  1.00  0.00    -0.458 OA
BRANCH   2   3
ATOM      3  C   UNL A   1      35.678  21.436  25.839  1.00  0.00     0.361 C 
ATOM      4  O   UNL A   1      35.086  21.623  26.901  1.00  0.00    -0.245 OA
BRANCH   3   5
ATOM      5  C   UNL A   1      34.932  21.190  24.540  1.00  0.00     0.387 C 
BRANCH   5   6
ATOM      6  N   UNL A   1      33.470  21.121  24.693  1.00  0.00    -0.319 N 
ATOM      7  H   UNL A   1      33.261  21.143  25.691  1.00  0.00     0.349 HD
BRANCH   6   8
ATOM      8  C   UNL A   1      32.825  22.327  24.130  1.00  0.00     0.304 C 
BRANCH   8   9
ATOM      9  C   UNL A   1      32.816  23.635  24.896  1.00  0.00     0.061 A 
ATOM     10  C   UNL A   1      33.785  24.640  24.765  1.00  0.00     0.133 A 
ATOM     11  C   UNL A   1      31.762  23.897  25.794  1.00  0.00     0.052 A 
ATOM     12  F   UNL A   1      34.903  24.451  24.057  1.00  0.00    -0.206 F 
ATOM     13  C   UNL A   1      33.641  25.893  25.354  1.00  0.00     0.040 A 
ATOM     14  C   UNL A   1      31.609  25.154  26.389  1.00  0.00     0.021 A 
ATOM     15  Cl  UNL A   1      30.619  22.678  26.249  1.00  0.00    -0.084 Cl
ATOM     16  C   UNL A   1      32.526  26.169  26.132  1.00  0.00     0.005 A 
ENDBRANCH   8   9
ENDBRANCH   6   8
BRANCH   6  17
ATOM     17  C   UNL A   1      32.880  19.825  24.300  1.00  0.00     0.185 C 
ATOM     18  C   UNL A   1      33.751  18.598  24.324  1.00  0.00     0.071 C 
ATOM     19  C   UNL A   1      32.622  18.724  25.298  1.00  0.00     0.071 C 
ENDBRANCH   6  17
ENDBRANCH   5   6
ENDBRANCH   3   5
ENDBRANCH   2   3
ENDBRANCH   1   2
BRANCH   1  20
ATOM     20  C   UNL A   1      38.592  19.620  24.995  1.00  0.00     0.275 C 
BRANCH  20  21
ATOM     21  O   UNL A   1      39.334  19.727  26.232  1.00  0.00    -0.458 OA
BRANCH  21  22
ATOM     22  C   UNL A   1      40.686  19.739  26.120  1.00  0.00     0.338 C 
ATOM     23  O   UNL A   1      41.370  18.894  25.566  1.00  0.00    -0.246 OA
BRANCH  22  24
ATOM     24  C   UNL A   1      41.237  21.032  26.611  1.00  0.00     0.060 A 
ATOM     25  C   UNL A   1      41.231  21.266  27.994  1.00  0.00     0.016 A 
ATOM     26  C   UNL A   1      41.749  22.009  25.751  1.00  0.00     0.016 A 
ATOM     27  C   UNL A   1      41.701  22.478  28.512  1.00  0.00     0.010 A 
ATOM     28  C   UNL A   1      42.208  23.229  26.270  1.00  0.00     0.010 A 
ATOM     29  C   UNL A   1      42.163  23.483  27.651  1.00  0.00    -0.014 A 
BRANCH  29  30
ATOM     30  C   UNL A   1      42.476  24.835  28.186  1.00  0.00     0.031 A 
ATOM     31  C   UNL A   1      43.898  25.199  28.487  1.00  0.00     0.074 A 
ATOM     32  C   UNL A   1      41.514  25.743  28.424  1.00  0.00     0.049 A 
ATOM     33  N   UNL A   1      44.377  26.323  28.958  1.00  0.00    -0.248 NA
ATOM     34  C   UNL A   1      44.903  24.153  28.260  1.00  0.00     0.031 C 
ATOM     35  C   UNL A   1      40.092  25.510  28.232  1.00  0.00     0.029 A 
ATOM     36  N   UNL A   1      41.586  27.040  28.877  1.00  0.00    -0.354 N 
ATOM     37  C   UNL A   1      45.736  26.107  29.122  1.00  0.00     0.074 A 
ATOM     38  C   UNL A   1      46.002  24.748  28.696  1.00  0.00     0.031 C 
ATOM     39  C   UNL A   1      39.429  26.639  28.524  1.00  0.00     0.029 A 
ATOM     40  C   UNL A   1      40.368  27.672  28.932  1.00  0.00     0.049 A 
ATOM     41  H   UNL A   1      42.431  27.475  29.137  1.00  0.00     0.167 HD
ATOM     42  C   UNL A   1      46.676  26.953  29.609  1.00  0.00     0.031 A 
ATOM     43  C   UNL A   1      40.026  28.933  29.261  1.00  0.00     0.031 A 
ATOM     44  C   UNL A   1      46.419  28.293  30.067  1.00  0.00     0.049 A 
ATOM     45  C   UNL A   1      41.091  29.877  29.737  1.00  0.00     0.074 A 
ATOM     46  C   UNL A   1      47.316  29.214  30.582  1.00  0.00     0.029 A 
ATOM     47  N   UNL A   1      45.174  28.902  30.079  1.00  0.00    -0.354 N 
ATOM     48  N   UNL A   1      42.377  29.664  29.862  1.00  0.00    -0.248 NA
ATOM     49  C   UNL A   1      40.656  31.222  30.141  1.00  0.00     0.031 C 
ATOM     50  C   UNL A   1      46.607  30.366  30.943  1.00  0.00     0.029 A 
ATOM     51  C   UNL A   1      45.277  30.182  30.604  1.00  0.00     0.049 A 
ATOM     52  H   UNL A   1      44.340  28.489  29.760  1.00  0.00     0.167 HD
ATOM     53  C   UNL A   1      42.903  30.840  30.378  1.00  0.00     0.074 A 
ATOM     54  C   UNL A   1      41.806  31.778  30.495  1.00  0.00     0.031 C 
ATOM     55  C   UNL A   1      44.180  31.104  30.742  1.00  0.00     0.031 A 
BRANCH  42  56
ATOM     56  C   UNL A   1      48.068  26.404  29.728  1.00  0.00    -0.014 A 
ATOM     57  C   UNL A   1      48.499  25.753  30.894  1.00  0.00     0.009 A 
ATOM     58  C   UNL A   1      48.967  26.570  28.665  1.00  0.00     0.009 A 
ATOM     59  C   UNL A   1      49.821  25.322  31.011  1.00  0.00     0.001 A 
ATOM     60  C   UNL A   1      50.281  26.113  28.773  1.00  0.00     0.001 A 
ATOM     61  C   UNL A   1      50.710  25.500  29.951  1.00  0.00     0.000 A 
ENDBRANCH  42  56
BRANCH  43  62
ATOM     62  C   UNL A   1      38.613  29.393  29.140  1.00  0.00    -0.014 A 
ATOM     63  C   UNL A   1      37.751  29.319  30.247  1.00  0.00     0.009 A 
ATOM     64  C   UNL A   1      38.115  29.899  27.931  1.00  0.00     0.009 A 
ATOM     65  C   UNL A   1      36.419  29.725  30.140  1.00  0.00     0.001 A 
ATOM     66  C   UNL A   1      36.791  30.336  27.835  1.00  0.00     0.001 A 
ATOM     67  C   UNL A   1      35.941  30.240  28.936  1.00  0.00     0.000 A 
ENDBRANCH  43  62
BRANCH  55  68
ATOM     68  C   UNL A   1      44.456  32.466  31.311  1.00  0.00    -0.014 A 
ATOM     69  C   UNL A   1      44.712  33.562  30.473  1.00  0.00     0.009 A 
ATOM     70  C   UNL A   1      44.443  32.659  32.701  1.00  0.00     0.009 A 
ATOM     71  C   UNL A   1      44.980  34.820  31.018  1.00  0.00     0.001 A 
ATOM     72  C   UNL A   1      44.687  33.921  33.241  1.00  0.00     0.001 A 
ATOM     73  C   UNL A   1      44.964  34.998  32.401  1.00  0.00     0.000 A 
ENDBRANCH  55  68
ENDBRANCH  29  30
ENDBRANCH  22  24
ENDBRANCH  21  22
ENDBRANCH  20  21
ENDBRANCH   1  20
TORSDOF 15
ENDMDL
MODEL 3
REMARK VINA RESULT:      -8.2      1.662      6.375
REMARK SMILES O=C(C[N@@H+](Cc1c(F)cccc1Cl)C1CC1)OCCOC(=O)c1ccc(-c2c3nc(c(-c4ccccc4)c4ccc([nH]4)c(-c4ccccc4)c4nc(c(-c5ccccc5)c5ccc2[nH]5)C=C4)C=C3)cc1
REMARK SMILES IDX 18 1 17 2 2 3 1 4 3 5 4 6 5 8 6 9 7 10 12 11 8 12 9 13 11 14
REMARK SMILES IDX 13 15 10 16 14 17 15 18 16 19 19 20 20 21 21 22 22 23 23 24
REMARK SMILES IDX 24 25 70 26 25 27 69 28 26 29 27 30 28 31 63 32 29 33 68 34
REMARK SMILES IDX 62 35 64 36 30 37 67 38 61 39 60 40 31 42 53 43 38 44 52 45
REMARK SMILES IDX 39 46 42 47 51 48 65 49 40 50 41 51 50 53 66 54 43 55 32 56
REMARK SMILES IDX 33 57 37 58 34 59 36 60 35 61 54 62 55 63 59 64 56 65 58 66
REMARK SMILES IDX 57 67 44 68 45 69 49 70 46 71 48 72 47 73
REMARK H PARENT 4 7 64 41 42 52
REMARK Flexibility Score: inf
ROOT
ATOM      1  C   UNL A   1      33.945  34.047  29.328  1.00  0.00     0.274 C 
ENDROOT
BRANCH   1   2
ATOM      2  O   UNL A   1      34.053  33.212  30.501  1.00  0.00    -0.458 OA
BRANCH   2   3
ATOM      3  C   UNL A   1      34.488  33.650  31.710  1.00  0.00     0.361 C 
ATOM      4  O   UNL A   1      33.756  33.570  32.697  1.00  0.00    -0.245 OA
BRANCH   3   5
ATOM      5  C   UNL A   1      35.844  34.332  31.774  1.00  0.00     0.387 C 
BRANCH   5   6
ATOM      6  N   UNL A   1      36.983  33.400  31.761  1.00  0.00    -0.319 N 
ATOM      7  H   UNL A   1      37.794  33.896  32.130  1.00  0.00     0.349 HD
BRANCH   6   8
ATOM      8  C   UNL A   1      36.753  32.275  32.692  1.00  0.00     0.304 C 
BRANCH   8   9
ATOM      9  C   UNL A   1      37.847  31.809  33.634  1.00  0.00     0.061 A 
ATOM     10  C   UNL A   1      38.243  30.473  33.794  1.00  0.00     0.133 A 
ATOM     11  C   UNL A   1      38.547  32.764  34.398  1.00  0.00     0.052 A 
ATOM     12  F   UNL A   1      37.563  29.467  33.236  1.00  0.00    -0.206 F 
ATOM     13  C   UNL A   1      39.366  30.114  34.535  1.00  0.00     0.040 A 
ATOM     14  C   UNL A   1      39.677  32.411  35.143  1.00  0.00     0.021 A 
ATOM     15  Cl  UNL A   1      38.035  34.415  34.498  1.00  0.00    -0.084 Cl
ATOM     16  C   UNL A   1      40.114  31.090  35.174  1.00  0.00     0.005 A 
ENDBRANCH   8   9
ENDBRANCH   6   8
BRANCH   6  17
ATOM     17  C   UNL A   1      37.453  33.038  30.408  1.00  0.00     0.185 C 
ATOM     18  C   UNL A   1      37.477  34.101  29.343  1.00  0.00     0.071 C 
ATOM     19  C   UNL A   1      38.764  33.536  29.853  1.00  0.00     0.071 C 
ENDBRANCH   6  17
ENDBRANCH   5   6
ENDBRANCH   3   5
ENDBRANCH   2   3
ENDBRANCH   1   2
BRANCH   1  20
ATOM     20  C   UNL A   1      33.728  33.221  28.053  1.00  0.00     0.275 C 
BRANCH  20  21
ATOM     21  O   UNL A   1      34.861  32.375  27.752  1.00  0.00    -0.458 OA
BRANCH  21  22
ATOM     22  C   UNL A   1      34.687  31.044  27.956  1.00  0.00     0.338 C 
ATOM     23  O   UNL A   1      33.651  30.422  27.792  1.00  0.00    -0.246 OA
BRANCH  22  24
ATOM     24  C   UNL A   1      35.991  30.386  28.241  1.00  0.00     0.060 A 
ATOM     25  C   UNL A   1      36.170  29.798  29.501  1.00  0.00     0.016 A 
ATOM     26  C   UNL A   1      37.031  30.338  27.307  1.00  0.00     0.016 A 
ATOM     27  C   UNL A   1      37.388  29.198  29.839  1.00  0.00     0.010 A 
ATOM     28  C   UNL A   1      38.257  29.748  27.651  1.00  0.00     0.010 A 
ATOM     29  C   UNL A   1      38.453  29.197  28.929  1.00  0.00    -0.014 A 
BRANCH  29  30
ATOM     30  C   UNL A   1      39.800  28.736  29.358  1.00  0.00     0.031 A 
ATOM     31  C   UNL A   1      40.325  27.424  28.861  1.00  0.00     0.074 A 
ATOM     32  C   UNL A   1      40.561  29.457  30.199  1.00  0.00     0.049 A 
ATOM     33  N   UNL A   1      41.471  26.845  29.118  1.00  0.00    -0.248 NA
ATOM     34  C   UNL A   1      39.431  26.650  27.989  1.00  0.00     0.031 C 
ATOM     35  C   UNL A   1      40.159  30.717  30.802  1.00  0.00     0.029 A 
ATOM     36  N   UNL A   1      41.828  29.236  30.689  1.00  0.00    -0.354 N 
ATOM     37  C   UNL A   1      41.422  25.620  28.473  1.00  0.00     0.074 A 
ATOM     38  C   UNL A   1      40.136  25.543  27.810  1.00  0.00     0.031 C 
ATOM     39  C   UNL A   1      41.175  31.179  31.548  1.00  0.00     0.029 A 
ATOM     40  C   UNL A   1      42.294  30.252  31.487  1.00  0.00     0.049 A 
ATOM     41  H   UNL A   1      42.352  28.427  30.486  1.00  0.00     0.167 HD
ATOM     42  C   UNL A   1      42.351  24.634  28.454  1.00  0.00     0.031 A 
ATOM     43  C   UNL A   1      43.479  30.438  32.100  1.00  0.00     0.031 A 
ATOM     44  C   UNL A   1      43.617  24.683  29.136  1.00  0.00     0.049 A 
ATOM     45  C   UNL A   1      44.521  29.363  32.015  1.00  0.00     0.074 A 
ATOM     46  C   UNL A   1      44.614  23.722  29.173  1.00  0.00     0.029 A 
ATOM     47  N   UNL A   1      44.060  25.744  29.911  1.00  0.00    -0.354 N 
ATOM     48  N   UNL A   1      44.468  28.221  31.378  1.00  0.00    -0.248 NA
ATOM     49  C   UNL A   1      45.773  29.590  32.752  1.00  0.00     0.031 C 
ATOM     50  C   UNL A   1      45.642  24.184  30.003  1.00  0.00     0.029 A 
ATOM     51  C   UNL A   1      45.309  25.455  30.441  1.00  0.00     0.049 A 
ATOM     52  H   UNL A   1      43.563  26.580  30.062  1.00  0.00     0.167 HD
ATOM     53  C   UNL A   1      45.670  27.582  31.653  1.00  0.00     0.074 A 
ATOM     54  C   UNL A   1      46.450  28.485  32.472  1.00  0.00     0.031 C 
ATOM     55  C   UNL A   1      46.073  26.346  31.275  1.00  0.00     0.031 A 
BRANCH  42  56
ATOM     56  C   UNL A   1      41.979  23.383  27.713  1.00  0.00    -0.014 A 
ATOM     57  C   UNL A   1      41.304  22.330  28.349  1.00  0.00     0.009 A 
ATOM     58  C   UNL A   1      42.340  23.248  26.364  1.00  0.00     0.009 A 
ATOM     59  C   UNL A   1      41.039  21.146  27.659  1.00  0.00     0.001 A 
ATOM     60  C   UNL A   1      42.049  22.074  25.668  1.00  0.00     0.001 A 
ATOM     61  C   UNL A   1      41.410  21.020  26.321  1.00  0.00     0.000 A 
ENDBRANCH  42  56
BRANCH  43  62
ATOM     62  C   UNL A   1      43.759  31.701  32.841  1.00  0.00    -0.014 A 
ATOM     63  C   UNL A   1      43.509  31.779  34.221  1.00  0.00     0.009 A 
ATOM     64  C   UNL A   1      44.269  32.831  32.185  1.00  0.00     0.009 A 
ATOM     65  C   UNL A   1      43.747  32.963  34.923  1.00  0.00     0.001 A 
ATOM     66  C   UNL A   1      44.537  34.005  32.894  1.00  0.00     0.001 A 
ATOM     67  C   UNL A   1      44.268  34.073  34.260  1.00  0.00     0.000 A 
ENDBRANCH  43  62
BRANCH  55  68
ATOM     68  C   UNL A   1      47.423  25.896  31.756  1.00  0.00    -0.014 A 
ATOM     69  C   UNL A   1      47.582  25.312  33.022  1.00  0.00     0.009 A 
ATOM     70  C   UNL A   1      48.545  26.043  30.927  1.00  0.00     0.009 A 
ATOM     71  C   UNL A   1      48.846  24.911  33.461  1.00  0.00     0.001 A 
ATOM     72  C   UNL A   1      49.802  25.619  31.358  1.00  0.00     0.001 A 
ATOM     73  C   UNL A   1      49.954  25.063  32.627  1.00  0.00     0.000 A 
ENDBRANCH  55  68
ENDBRANCH  29  30
ENDBRANCH  22  24
ENDBRANCH  21  22
ENDBRANCH  20  21
ENDBRANCH   1  20
TORSDOF 15
ENDMDL
