MODEL 1
REMARK VINA RESULT:     -11.2      0.000      0.000
REMARK SMILES Cc1cc(N(C)[C@H]2CC[C@@H](C)CC2)cc(C(=O)OCCOC(=O)c2ccc(-c3c4nc(c(-c5ccccc5)c5ccc([nH]5)c(-c5ccccc5)c5nc(c(-c6ccccc6)c6ccc3[nH]6)C=C5)C=C4)cc2)c1N
REMARK SMILES IDX 19 1 18 2 16 3 17 4 15 5 1 6 2 7 3 8 72 9 4 10 14 11 73 12
REMARK SMILES IDX 5 15 6 16 7 17 8 18 13 19 9 20 12 21 10 22 11 23 20 24 21 25
REMARK SMILES IDX 22 26 23 27 24 28 25 29 71 30 26 31 70 32 27 33 28 34 29 35
REMARK SMILES IDX 64 36 30 37 69 38 63 39 65 40 31 41 68 42 62 43 61 44 32 46
REMARK SMILES IDX 54 47 39 48 53 49 40 50 43 51 52 52 66 53 41 54 42 55 51 57
REMARK SMILES IDX 67 58 44 59 33 60 34 61 38 62 35 63 37 64 36 65 55 66 56 67
REMARK SMILES IDX 60 68 57 69 59 70 58 71 45 72 46 73 50 74 47 75 49 76 48 77
REMARK H PARENT 73 13 73 14 65 45 43 56
REMARK Flexibility Score: inf
ROOT
ATOM      1  C   UNL A   1      32.183  29.217  25.246  1.00  0.00     0.275 C 
ENDROOT
BRANCH   1   2
ATOM      2  O   UNL A   1      31.171  28.203  25.432  1.00  0.00    -0.458 OA
BRANCH   2   3
ATOM      3  C   UNL A   1      31.389  27.399  26.502  1.00  0.00     0.340 C 
ATOM      4  O   UNL A   1      31.189  27.705  27.664  1.00  0.00    -0.246 OA
BRANCH   3   5
ATOM      5  C   UNL A   1      31.942  26.077  26.133  1.00  0.00     0.085 A 
ATOM      6  C   UNL A   1      30.407  22.650  26.439  1.00  0.00     0.047 C 
ATOM      7  C   UNL A   1      31.386  23.788  26.387  1.00  0.00    -0.025 A 
ATOM      8  C   UNL A   1      32.733  23.573  26.675  1.00  0.00     0.031 A 
ATOM      9  C   UNL A   1      31.055  25.033  25.879  1.00  0.00     0.049 A 
ATOM     10  C   UNL A   1      33.680  24.433  26.127  1.00  0.00     0.038 A 
ATOM     11  C   UNL A   1      33.300  25.778  26.153  1.00  0.00     0.043 A 
BRANCH   9  12
ATOM     12  N   UNL A   1      29.947  25.212  25.073  1.00  0.00    -0.398 N 
ATOM     13  H   UNL A   1      29.959  25.894  24.364  1.00  0.00     0.156 HD
ATOM     14  H   UNL A   1      29.145  24.657  25.208  1.00  0.00     0.156 HD
ENDBRANCH   9  12
BRANCH  10  15
ATOM     15  N   UNL A   1      34.806  23.963  25.446  1.00  0.00    -0.372 N 
ATOM     16  C   UNL A   1      36.042  23.865  26.225  1.00  0.00     0.144 C 
BRANCH  15  17
ATOM     17  C   UNL A   1      34.793  23.349  24.059  1.00  0.00     0.082 C 
ATOM     18  C   UNL A   1      33.375  23.203  23.431  1.00  0.00     0.025 C 
ATOM     19  C   UNL A   1      35.415  21.954  23.861  1.00  0.00     0.025 C 
ATOM     20  C   UNL A   1      32.550  21.941  23.787  1.00  0.00     0.005 C 
ATOM     21  C   UNL A   1      34.670  20.897  24.665  1.00  0.00     0.005 C 
ATOM     22  C   UNL A   1      33.319  20.630  24.035  1.00  0.00    -0.014 C 
ATOM     23  C   UNL A   1      32.526  19.663  24.922  1.00  0.00     0.007 C 
ENDBRANCH  15  17
ENDBRANCH  10  15
ENDBRANCH   3   5
ENDBRANCH   2   3
ENDBRANCH   1   2
BRANCH   1  24
ATOM     24  C   UNL A   1      31.813  30.533  25.935  1.00  0.00     0.275 C 
BRANCH  24  25
ATOM     25  O   UNL A   1      32.410  30.660  27.243  1.00  0.00    -0.458 OA
BRANCH  25  26
ATOM     26  C   UNL A   1      33.190  31.747  27.406  1.00  0.00     0.338 C 
ATOM     27  O   UNL A   1      32.830  32.916  27.478  1.00  0.00    -0.246 OA
BRANCH  26  28
ATOM     28  C   UNL A   1      34.607  31.397  27.591  1.00  0.00     0.060 A 
ATOM     29  C   UNL A   1      34.900  30.061  27.813  1.00  0.00     0.016 A 
ATOM     30  C   UNL A   1      35.544  32.373  27.927  1.00  0.00     0.016 A 
ATOM     31  C   UNL A   1      36.009  29.725  28.585  1.00  0.00     0.010 A 
ATOM     32  C   UNL A   1      36.763  31.997  28.520  1.00  0.00     0.010 A 
ATOM     33  C   UNL A   1      36.990  30.668  28.918  1.00  0.00    -0.014 A 
BRANCH  33  34
ATOM     34  C   UNL A   1      38.216  30.246  29.673  1.00  0.00     0.031 A 
ATOM     35  C   UNL A   1      39.308  29.428  29.017  1.00  0.00     0.074 A 
ATOM     36  C   UNL A   1      38.379  30.617  30.964  1.00  0.00     0.049 A 
ATOM     37  N   UNL A   1      40.309  28.788  29.574  1.00  0.00    -0.248 NA
ATOM     38  C   UNL A   1      39.269  29.299  27.550  1.00  0.00     0.031 C 
ATOM     39  C   UNL A   1      37.456  31.458  31.735  1.00  0.00     0.029 A 
ATOM     40  N   UNL A   1      39.388  30.349  31.859  1.00  0.00    -0.354 N 
ATOM     41  C   UNL A   1      40.968  28.125  28.541  1.00  0.00     0.074 A 
ATOM     42  C   UNL A   1      40.259  28.446  27.321  1.00  0.00     0.031 C 
ATOM     43  C   UNL A   1      37.975  31.703  32.943  1.00  0.00     0.029 A 
ATOM     44  C   UNL A   1      39.177  30.903  33.101  1.00  0.00     0.049 A 
ATOM     45  H   UNL A   1      40.182  29.813  31.634  1.00  0.00     0.167 HD
ATOM     46  C   UNL A   1      42.055  27.316  28.609  1.00  0.00     0.031 A 
ATOM     47  C   UNL A   1      39.815  30.732  34.274  1.00  0.00     0.031 A 
ATOM     48  C   UNL A   1      42.786  27.038  29.822  1.00  0.00     0.049 A 
ATOM     49  C   UNL A   1      40.963  29.773  34.339  1.00  0.00     0.074 A 
ATOM     50  C   UNL A   1      43.897  26.228  29.993  1.00  0.00     0.029 A 
ATOM     51  N   UNL A   1      42.491  27.576  31.065  1.00  0.00    -0.354 N 
ATOM     52  N   UNL A   1      41.516  29.082  33.373  1.00  0.00    -0.248 NA
ATOM     53  C   UNL A   1      41.560  29.552  35.662  1.00  0.00     0.031 C 
ATOM     54  C   UNL A   1      44.240  26.233  31.350  1.00  0.00     0.029 A 
ATOM     55  C   UNL A   1      43.386  27.100  32.010  1.00  0.00     0.049 A 
ATOM     56  H   UNL A   1      41.755  28.202  31.249  1.00  0.00     0.167 HD
ATOM     57  C   UNL A   1      42.535  28.354  33.969  1.00  0.00     0.074 A 
ATOM     58  C   UNL A   1      42.541  28.711  35.373  1.00  0.00     0.031 C 
ATOM     59  C   UNL A   1      43.384  27.463  33.403  1.00  0.00     0.031 A 
BRANCH  46  60
ATOM     60  C   UNL A   1      42.503  26.620  27.348  1.00  0.00    -0.014 A 
ATOM     61  C   UNL A   1      43.506  27.150  26.522  1.00  0.00     0.009 A 
ATOM     62  C   UNL A   1      41.950  25.369  27.020  1.00  0.00     0.009 A 
ATOM     63  C   UNL A   1      43.921  26.456  25.379  1.00  0.00     0.001 A 
ATOM     64  C   UNL A   1      42.389  24.665  25.897  1.00  0.00     0.001 A 
ATOM     65  C   UNL A   1      43.367  25.214  25.071  1.00  0.00     0.000 A 
ENDBRANCH  46  60
BRANCH  47  66
ATOM     66  C   UNL A   1      39.307  31.405  35.502  1.00  0.00    -0.014 A 
ATOM     67  C   UNL A   1      38.249  30.856  36.239  1.00  0.00     0.009 A 
ATOM     68  C   UNL A   1      39.887  32.607  35.945  1.00  0.00     0.009 A 
ATOM     69  C   UNL A   1      37.772  31.505  37.381  1.00  0.00     0.001 A 
ATOM     70  C   UNL A   1      39.440  33.228  37.110  1.00  0.00     0.001 A 
ATOM     71  C   UNL A   1      38.373  32.683  37.821  1.00  0.00     0.000 A 
ENDBRANCH  47  66
BRANCH  59  72
ATOM     72  C   UNL A   1      44.425  26.857  34.300  1.00  0.00    -0.014 A 
ATOM     73  C   UNL A   1      45.694  27.440  34.447  1.00  0.00     0.009 A 
ATOM     74  C   UNL A   1      44.125  25.688  35.016  1.00  0.00     0.009 A 
ATOM     75  C   UNL A   1      46.654  26.839  35.263  1.00  0.00     0.001 A 
ATOM     76  C   UNL A   1      45.076  25.109  35.856  1.00  0.00     0.001 A 
ATOM     77  C   UNL A   1      46.343  25.677  35.970  1.00  0.00     0.000 A 
ENDBRANCH  59  72
ENDBRANCH  33  34
ENDBRANCH  26  28
ENDBRANCH  25  26
ENDBRANCH  24  25
ENDBRANCH   1  24
TORSDOF 14
ENDMDL
MODEL 2
REMARK VINA RESULT:     -11.2      4.116      8.774
REMARK SMILES Cc1cc(N(C)[C@H]2CC[C@@H](C)CC2)cc(C(=O)OCCOC(=O)c2ccc(-c3c4nc(c(-c5ccccc5)c5ccc([nH]5)c(-c5ccccc5)c5nc(c(-c6ccccc6)c6ccc3[nH]6)C=C5)C=C4)cc2)c1N
REMARK SMILES IDX 19 1 18 2 16 3 17 4 15 5 1 6 2 7 3 8 72 9 4 10 14 11 73 12
REMARK SMILES IDX 5 15 6 16 7 17 8 18 13 19 9 20 12 21 10 22 11 23 20 24 21 25
REMARK SMILES IDX 22 26 23 27 24 28 25 29 71 30 26 31 70 32 27 33 28 34 29 35
REMARK SMILES IDX 64 36 30 37 69 38 63 39 65 40 31 41 68 42 62 43 61 44 32 46
REMARK SMILES IDX 54 47 39 48 53 49 40 50 43 51 52 52 66 53 41 54 42 55 51 57
REMARK SMILES IDX 67 58 44 59 33 60 34 61 38 62 35 63 37 64 36 65 55 66 56 67
REMARK SMILES IDX 60 68 57 69 59 70 58 71 45 72 46 73 50 74 47 75 49 76 48 77
REMARK H PARENT 73 13 73 14 65 45 43 56
REMARK Flexibility Score: inf
ROOT
ATOM      1  C   UNL A   1      35.589  21.563  25.574  1.00  0.00     0.275 C 
ENDROOT
BRANCH   1   2
ATOM      2  O   UNL A   1      34.416  20.761  25.834  1.00  0.00    -0.458 OA
BRANCH   2   3
ATOM      3  C   UNL A   1      33.446  20.886  24.895  1.00  0.00     0.340 C 
ATOM      4  O   UNL A   1      33.035  19.986  24.183  1.00  0.00    -0.246 OA
BRANCH   3   5
ATOM      5  C   UNL A   1      32.926  22.266  24.775  1.00  0.00     0.085 A 
ATOM      6  C   UNL A   1      30.030  23.914  26.532  1.00  0.00     0.047 C 
ATOM      7  C   UNL A   1      31.063  23.530  25.512  1.00  0.00    -0.025 A 
ATOM      8  C   UNL A   1      31.021  24.072  24.228  1.00  0.00     0.031 A 
ATOM      9  C   UNL A   1      32.191  22.794  25.834  1.00  0.00     0.049 A 
ATOM     10  C   UNL A   1      32.203  24.156  23.498  1.00  0.00     0.038 A 
ATOM     11  C   UNL A   1      33.016  23.024  23.612  1.00  0.00     0.043 A 
BRANCH   9  12
ATOM     12  N   UNL A   1      32.622  22.670  27.141  1.00  0.00    -0.398 N 
ATOM     13  H   UNL A   1      33.385  23.204  27.459  1.00  0.00     0.156 HD
ATOM     14  H   UNL A   1      32.167  22.047  27.753  1.00  0.00     0.156 HD
ENDBRANCH   9  12
BRANCH  10  15
ATOM     15  N   UNL A   1      32.611  25.339  22.876  1.00  0.00    -0.372 N 
ATOM     16  C   UNL A   1      31.841  25.755  21.703  1.00  0.00     0.144 C 
BRANCH  15  17
ATOM     17  C   UNL A   1      33.623  26.317  23.443  1.00  0.00     0.082 C 
ATOM     18  C   UNL A   1      34.199  25.917  24.834  1.00  0.00     0.025 C 
ATOM     19  C   UNL A   1      33.201  27.785  23.641  1.00  0.00     0.025 C 
ATOM     20  C   UNL A   1      33.394  26.317  26.095  1.00  0.00     0.005 C 
ATOM     21  C   UNL A   1      32.068  27.904  24.652  1.00  0.00     0.005 C 
ATOM     22  C   UNL A   1      32.594  27.632  26.046  1.00  0.00    -0.014 C 
ATOM     23  C   UNL A   1      31.425  27.626  27.038  1.00  0.00     0.007 C 
ENDBRANCH  15  17
ENDBRANCH  10  15
ENDBRANCH   3   5
ENDBRANCH   2   3
ENDBRANCH   1   2
BRANCH   1  24
ATOM     24  C   UNL A   1      36.739  20.731  24.999  1.00  0.00     0.275 C 
BRANCH  24  25
ATOM     25  O   UNL A   1      37.956  21.494  24.856  1.00  0.00    -0.458 OA
BRANCH  25  26
ATOM     26  C   UNL A   1      38.931  21.174  25.730  1.00  0.00     0.338 C 
ATOM     27  O   UNL A   1      39.530  20.109  25.819  1.00  0.00    -0.246 OA
BRANCH  26  28
ATOM     28  C   UNL A   1      39.312  22.311  26.583  1.00  0.00     0.060 A 
ATOM     29  C   UNL A   1      38.799  23.552  26.241  1.00  0.00     0.016 A 
ATOM     30  C   UNL A   1      40.424  22.232  27.420  1.00  0.00     0.016 A 
ATOM     31  C   UNL A   1      39.534  24.698  26.534  1.00  0.00     0.010 A 
ATOM     32  C   UNL A   1      41.036  23.410  27.883  1.00  0.00     0.010 A 
ATOM     33  C   UNL A   1      40.638  24.667  27.395  1.00  0.00    -0.014 A 
BRANCH  33  34
ATOM     34  C   UNL A   1      41.347  25.939  27.757  1.00  0.00     0.031 A 
ATOM     35  C   UNL A   1      40.726  26.955  28.693  1.00  0.00     0.074 A 
ATOM     36  C   UNL A   1      42.583  26.190  27.265  1.00  0.00     0.049 A 
ATOM     37  N   UNL A   1      41.089  28.193  28.926  1.00  0.00    -0.248 NA
ATOM     38  C   UNL A   1      39.539  26.534  29.456  1.00  0.00     0.031 C 
ATOM     39  C   UNL A   1      43.357  25.294  26.400  1.00  0.00     0.029 A 
ATOM     40  N   UNL A   1      43.419  27.269  27.433  1.00  0.00    -0.354 N 
ATOM     41  C   UNL A   1      40.139  28.719  29.798  1.00  0.00     0.074 A 
ATOM     42  C   UNL A   1      39.185  27.662  30.060  1.00  0.00     0.031 C 
ATOM     43  C   UNL A   1      44.570  25.814  26.184  1.00  0.00     0.029 A 
ATOM     44  C   UNL A   1      44.605  27.154  26.746  1.00  0.00     0.049 A 
ATOM     45  H   UNL A   1      43.190  28.049  27.989  1.00  0.00     0.167 HD
ATOM     46  C   UNL A   1      40.064  29.968  30.321  1.00  0.00     0.031 A 
ATOM     47  C   UNL A   1      45.587  28.041  26.505  1.00  0.00     0.031 A 
ATOM     48  C   UNL A   1      41.043  31.004  30.094  1.00  0.00     0.049 A 
ATOM     49  C   UNL A   1      45.443  29.438  27.027  1.00  0.00     0.074 A 
ATOM     50  C   UNL A   1      41.054  32.303  30.576  1.00  0.00     0.029 A 
ATOM     51  N   UNL A   1      42.195  30.851  29.338  1.00  0.00    -0.354 N 
ATOM     52  N   UNL A   1      44.492  29.946  27.772  1.00  0.00    -0.248 NA
ATOM     53  C   UNL A   1      46.496  30.390  26.654  1.00  0.00     0.031 C 
ATOM     54  C   UNL A   1      42.182  32.952  30.065  1.00  0.00     0.029 A 
ATOM     55  C   UNL A   1      42.911  32.038  29.323  1.00  0.00     0.049 A 
ATOM     56  H   UNL A   1      42.463  30.024  28.878  1.00  0.00     0.167 HD
ATOM     57  C   UNL A   1      44.839  31.274  27.969  1.00  0.00     0.074 A 
ATOM     58  C   UNL A   1      46.102  31.484  27.290  1.00  0.00     0.031 C 
ATOM     59  C   UNL A   1      44.166  32.234  28.646  1.00  0.00     0.031 A 
BRANCH  46  60
ATOM     60  C   UNL A   1      38.855  30.320  31.152  1.00  0.00    -0.014 A 
ATOM     61  C   UNL A   1      38.848  30.182  32.549  1.00  0.00     0.009 A 
ATOM     62  C   UNL A   1      37.723  30.866  30.523  1.00  0.00     0.009 A 
ATOM     63  C   UNL A   1      37.721  30.554  33.291  1.00  0.00     0.001 A 
ATOM     64  C   UNL A   1      36.612  31.265  31.269  1.00  0.00     0.001 A 
ATOM     65  C   UNL A   1      36.608  31.099  32.652  1.00  0.00     0.000 A 
ENDBRANCH  46  60
BRANCH  47  66
ATOM     66  C   UNL A   1      46.738  27.662  25.639  1.00  0.00    -0.014 A 
ATOM     67  C   UNL A   1      46.714  27.907  24.260  1.00  0.00     0.009 A 
ATOM     68  C   UNL A   1      47.875  27.051  26.197  1.00  0.00     0.009 A 
ATOM     69  C   UNL A   1      47.794  27.533  23.456  1.00  0.00     0.001 A 
ATOM     70  C   UNL A   1      48.971  26.720  25.400  1.00  0.00     0.001 A 
ATOM     71  C   UNL A   1      48.924  26.949  24.027  1.00  0.00     0.000 A 
ENDBRANCH  47  66
BRANCH  59  72
ATOM     72  C   UNL A   1      44.816  33.586  28.728  1.00  0.00    -0.014 A 
ATOM     73  C   UNL A   1      45.721  33.903  29.753  1.00  0.00     0.009 A 
ATOM     74  C   UNL A   1      44.525  34.554  27.754  1.00  0.00     0.009 A 
ATOM     75  C   UNL A   1      46.288  35.176  29.824  1.00  0.00     0.001 A 
ATOM     76  C   UNL A   1      45.118  35.815  27.809  1.00  0.00     0.001 A 
ATOM     77  C   UNL A   1      45.990  36.129  28.850  1.00  0.00     0.000 A 
ENDBRANCH  59  72
ENDBRANCH  33  34
ENDBRANCH  26  28
ENDBRANCH  25  26
ENDBRANCH  24  25
ENDBRANCH   1  24
TORSDOF 14
ENDMDL
MODEL 3
REMARK VINA RESULT:     -10.9      4.178      8.835
REMARK SMILES Cc1cc(N(C)[C@H]2CC[C@@H](C)CC2)cc(C(=O)OCCOC(=O)c2ccc(-c3c4nc(c(-c5ccccc5)c5ccc([nH]5)c(-c5ccccc5)c5nc(c(-c6ccccc6)c6ccc3[nH]6)C=C5)C=C4)cc2)c1N
REMARK SMILES IDX 19 1 18 2 16 3 17 4 15 5 1 6 2 7 3 8 72 9 4 10 14 11 73 12
REMARK SMILES IDX 5 15 6 16 7 17 8 18 13 19 9 20 12 21 10 22 11 23 20 24 21 25
REMARK SMILES IDX 22 26 23 27 24 28 25 29 71 30 26 31 70 32 27 33 28 34 29 35
REMARK SMILES IDX 64 36 30 37 69 38 63 39 65 40 31 41 68 42 62 43 61 44 32 46
REMARK SMILES IDX 54 47 39 48 53 49 40 50 43 51 52 52 66 53 41 54 42 55 51 57
REMARK SMILES IDX 67 58 44 59 33 60 34 61 38 62 35 63 37 64 36 65 55 66 56 67
REMARK SMILES IDX 60 68 57 69 59 70 58 71 45 72 46 73 50 74 47 75 49 76 48 77
REMARK H PARENT 73 13 73 14 65 45 43 56
REMARK Flexibility Score: inf
ROOT
ATOM      1  C   UNL A   1      35.540  20.597  25.055  1.00  0.00     0.275 C 
ENDROOT
BRANCH   1   2
ATOM      2  O   UNL A   1      34.662  21.663  24.632  1.00  0.00    -0.458 OA
BRANCH   2   3
ATOM      3  C   UNL A   1      34.025  22.288  25.653  1.00  0.00     0.340 C 
ATOM      4  O   UNL A   1      33.774  21.789  26.736  1.00  0.00    -0.246 OA
BRANCH   3   5
ATOM      5  C   UNL A   1      33.615  23.671  25.324  1.00  0.00     0.085 A 
ATOM      6  C   UNL A   1      33.018  25.276  21.969  1.00  0.00     0.047 C 
ATOM      7  C   UNL A   1      33.381  25.044  23.408  1.00  0.00    -0.025 A 
ATOM      8  C   UNL A   1      33.961  26.063  24.162  1.00  0.00     0.031 A 
ATOM      9  C   UNL A   1      32.996  23.907  24.099  1.00  0.00     0.049 A 
ATOM     10  C   UNL A   1      33.800  26.047  25.544  1.00  0.00     0.038 A 
ATOM     11  C   UNL A   1      33.928  24.774  26.111  1.00  0.00     0.043 A 
BRANCH   9  12
ATOM     12  N   UNL A   1      31.975  23.096  23.641  1.00  0.00    -0.398 N 
ATOM     13  H   UNL A   1      31.073  23.176  24.028  1.00  0.00     0.156 HD
ATOM     14  H   UNL A   1      32.149  22.438  22.930  1.00  0.00     0.156 HD
ENDBRANCH   9  12
BRANCH  10  15
ATOM     15  N   UNL A   1      33.360  27.166  26.256  1.00  0.00    -0.372 N 
ATOM     16  C   UNL A   1      34.366  28.189  26.544  1.00  0.00     0.144 C 
BRANCH  15  17
ATOM     17  C   UNL A   1      31.908  27.497  26.547  1.00  0.00     0.082 C 
ATOM     18  C   UNL A   1      30.887  26.440  26.030  1.00  0.00     0.025 C 
ATOM     19  C   UNL A   1      31.335  28.829  26.028  1.00  0.00     0.025 C 
ATOM     20  C   UNL A   1      30.415  26.547  24.559  1.00  0.00     0.005 C 
ATOM     21  C   UNL A   1      31.357  28.885  24.506  1.00  0.00     0.005 C 
ATOM     22  C   UNL A   1      30.303  27.954  23.943  1.00  0.00    -0.014 C 
ATOM     23  C   UNL A   1      30.420  27.918  22.415  1.00  0.00     0.007 C 
ENDBRANCH  15  17
ENDBRANCH  10  15
ENDBRANCH   3   5
ENDBRANCH   2   3
ENDBRANCH   1   2
BRANCH   1  24
ATOM     24  C   UNL A   1      36.992  20.847  24.634  1.00  0.00     0.275 C 
BRANCH  24  25
ATOM     25  O   UNL A   1      37.592  21.951  25.345  1.00  0.00    -0.458 OA
BRANCH  25  26
ATOM     26  C   UNL A   1      38.775  21.673  25.928  1.00  0.00     0.338 C 
ATOM     27  O   UNL A   1      39.462  20.670  25.774  1.00  0.00    -0.246 OA
BRANCH  26  28
ATOM     28  C   UNL A   1      39.260  22.781  26.765  1.00  0.00     0.060 A 
ATOM     29  C   UNL A   1      38.768  24.045  26.481  1.00  0.00     0.016 A 
ATOM     30  C   UNL A   1      40.428  22.649  27.515  1.00  0.00     0.016 A 
ATOM     31  C   UNL A   1      39.564  25.159  26.732  1.00  0.00     0.010 A 
ATOM     32  C   UNL A   1      41.115  23.798  27.946  1.00  0.00     0.010 A 
ATOM     33  C   UNL A   1      40.728  25.076  27.507  1.00  0.00    -0.014 A 
BRANCH  33  34
ATOM     34  C   UNL A   1      41.508  26.316  27.831  1.00  0.00     0.031 A 
ATOM     35  C   UNL A   1      40.950  27.387  28.745  1.00  0.00     0.074 A 
ATOM     36  C   UNL A   1      42.752  26.486  27.325  1.00  0.00     0.049 A 
ATOM     37  N   UNL A   1      41.382  28.610  28.944  1.00  0.00    -0.248 NA
ATOM     38  C   UNL A   1      39.748  27.051  29.526  1.00  0.00     0.031 C 
ATOM     39  C   UNL A   1      43.469  25.528  26.478  1.00  0.00     0.029 A 
ATOM     40  N   UNL A   1      43.646  27.523  27.460  1.00  0.00    -0.354 N 
ATOM     41  C   UNL A   1      40.468  29.208  29.809  1.00  0.00     0.074 A 
ATOM     42  C   UNL A   1      39.461  28.211  30.104  1.00  0.00     0.031 C 
ATOM     43  C   UNL A   1      44.707  25.976  26.242  1.00  0.00     0.029 A 
ATOM     44  C   UNL A   1      44.819  27.325  26.768  1.00  0.00     0.049 A 
ATOM     45  H   UNL A   1      43.464  28.327  27.998  1.00  0.00     0.167 HD
ATOM     46  C   UNL A   1      40.466  30.472  30.300  1.00  0.00     0.031 A 
ATOM     47  C   UNL A   1      45.846  28.152  26.499  1.00  0.00     0.031 A 
ATOM     48  C   UNL A   1      41.498  31.447  30.040  1.00  0.00     0.049 A 
ATOM     49  C   UNL A   1      45.782  29.567  26.986  1.00  0.00     0.074 A 
ATOM     50  C   UNL A   1      41.583  32.755  30.488  1.00  0.00     0.029 A 
ATOM     51  N   UNL A   1      42.634  31.213  29.280  1.00  0.00    -0.354 N 
ATOM     52  N   UNL A   1      44.866  30.144  27.723  1.00  0.00    -0.248 NA
ATOM     53  C   UNL A   1      46.882  30.450  26.581  1.00  0.00     0.031 C 
ATOM     54  C   UNL A   1      42.741  33.329  29.953  1.00  0.00     0.029 A 
ATOM     55  C   UNL A   1      43.413  32.358  29.230  1.00  0.00     0.049 A 
ATOM     56  H   UNL A   1      42.853  30.361  28.840  1.00  0.00     0.167 HD
ATOM     57  C   UNL A   1      45.286  31.456  27.884  1.00  0.00     0.074 A 
ATOM     58  C   UNL A   1      46.553  31.579  27.192  1.00  0.00     0.031 C 
ATOM     59  C   UNL A   1      44.672  32.468  28.541  1.00  0.00     0.031 A 
BRANCH  46  60
ATOM     60  C   UNL A   1      39.285  30.910  31.130  1.00  0.00    -0.014 A 
ATOM     61  C   UNL A   1      39.277  30.800  32.529  1.00  0.00     0.009 A 
ATOM     62  C   UNL A   1      38.182  31.510  30.496  1.00  0.00     0.009 A 
ATOM     63  C   UNL A   1      38.178  31.251  33.268  1.00  0.00     0.001 A 
ATOM     64  C   UNL A   1      37.102  31.987  31.238  1.00  0.00     0.001 A 
ATOM     65  C   UNL A   1      37.095  31.849  32.625  1.00  0.00     0.000 A 
ENDBRANCH  46  60
BRANCH  47  66
ATOM     66  C   UNL A   1      46.968  27.688  25.635  1.00  0.00    -0.014 A 
ATOM     67  C   UNL A   1      48.069  27.016  26.184  1.00  0.00     0.009 A 
ATOM     68  C   UNL A   1      46.937  27.915  24.248  1.00  0.00     0.009 A 
ATOM     69  C   UNL A   1      49.122  26.599  25.365  1.00  0.00     0.001 A 
ATOM     70  C   UNL A   1      47.967  27.458  23.427  1.00  0.00     0.001 A 
ATOM     71  C   UNL A   1      49.066  26.811  23.988  1.00  0.00     0.000 A 
ENDBRANCH  47  66
BRANCH  59  72
ATOM     72  C   UNL A   1      45.395  33.784  28.584  1.00  0.00    -0.014 A 
ATOM     73  C   UNL A   1      45.174  34.774  27.612  1.00  0.00     0.009 A 
ATOM     74  C   UNL A   1      46.305  34.039  29.621  1.00  0.00     0.009 A 
ATOM     75  C   UNL A   1      45.883  35.975  27.658  1.00  0.00     0.001 A 
ATOM     76  C   UNL A   1      46.987  35.254  29.682  1.00  0.00     0.001 A 
ATOM     77  C   UNL A   1      46.785  36.217  28.695  1.00  0.00     0.000 A 
ENDBRANCH  59  72
ENDBRANCH  33  34
ENDBRANCH  26  28
ENDBRANCH  25  26
ENDBRANCH  24  25
ENDBRANCH   1  24
TORSDOF 14
ENDMDL
