MODEL 1
REMARK VINA RESULT:     -13.2      0.000      0.000
REMARK SMILES O=C(OCCOC(=O)c1ccc(-c2c3nc(c(-c4ccccc4)c4ccc([nH]4)c(-c4ccccc4)c4nc(c(-c5ccccc5)c5ccc2[nH]5)C=C4)C=C3)cc1)C1=Cc2cc(Cl)cc(Cl)c2O[C@@H]1C(F)(F)F
REMARK SMILES IDX 5 1 4 2 3 3 2 4 1 5 57 6 58 7 68 8 59 9 67 10 60 11 66 12
REMARK SMILES IDX 61 13 64 14 62 15 63 16 65 17 69 18 70 19 71 20 72 21 6 22
REMARK SMILES IDX 7 23 8 24 9 25 10 26 56 27 11 28 55 29 12 30 13 31 14 32
REMARK SMILES IDX 49 33 15 34 54 35 48 36 50 37 16 38 53 39 47 40 46 41 17 43
REMARK SMILES IDX 39 44 24 45 38 46 25 47 28 48 37 49 51 50 26 51 27 52 36 54
REMARK SMILES IDX 52 55 29 56 18 57 19 58 23 59 20 60 22 61 21 62 40 63 41 64
REMARK SMILES IDX 45 65 42 66 44 67 43 68 30 69 31 70 35 71 32 72 34 73 33 74
REMARK H PARENT 50 42 28 53
REMARK Flexibility Score: inf
ROOT
ATOM      1  C   UNL A   1      31.376  32.032  26.877  1.00  0.00     0.275 C 
ENDROOT
BRANCH   1   2
ATOM      2  C   UNL A   1      32.458  30.357  26.030  1.00  0.00     0.275 C 
BRANCH   2   3
ATOM      3  O   UNL A   1      32.845  29.042  26.755  1.00  0.00    -0.459 OA
BRANCH   3   4
ATOM      4  C   UNL A   1      31.896  28.101  26.671  1.00  0.00     0.338 C 
ATOM      5  O   UNL A   1      31.205  27.628  27.537  1.00  0.00    -0.246 OA
BRANCH   4   6
ATOM      6  C   UNL A   1      32.329  27.592  25.388  1.00  0.00     0.087 C 
ATOM      7  C   UNL A   1      33.646  26.995  25.412  1.00  0.00     0.027 C 
ATOM      8  C   UNL A   1      30.682  26.687  25.000  1.00  0.00     0.316 C 
ATOM      9  C   UNL A   1      33.920  25.239  25.291  1.00  0.00     0.020 A 
ATOM     10  O   UNL A   1      30.938  24.760  24.969  1.00  0.00    -0.474 OA
ATOM     11  C   UNL A   1      35.203  24.802  25.454  1.00  0.00     0.032 A 
ATOM     12  C   UNL A   1      32.629  24.084  25.203  1.00  0.00     0.146 A 
ATOM     13  C   UNL A   1      35.340  23.413  25.549  1.00  0.00     0.043 A 
ATOM     14  C   UNL A   1      32.868  22.742  25.316  1.00  0.00     0.085 A 
ATOM     15  Cl  UNL A   1      36.957  22.823  25.774  1.00  0.00    -0.084 Cl
ATOM     16  C   UNL A   1      34.249  22.445  25.497  1.00  0.00     0.045 A 
ATOM     17  Cl  UNL A   1      31.690  21.523  25.314  1.00  0.00    -0.080 Cl
BRANCH   8  18
ATOM     18  C   UNL A   1      30.336  27.820  23.908  1.00  0.00     0.430 C 
ATOM     19  F   UNL A   1      31.183  27.821  22.889  1.00  0.00    -0.167 F 
ATOM     20  F   UNL A   1      29.152  27.501  23.293  1.00  0.00    -0.167 F 
ATOM     21  F   UNL A   1      30.111  29.078  24.345  1.00  0.00    -0.167 F 
ENDBRANCH   8  18
ENDBRANCH   4   6
ENDBRANCH   3   4
ENDBRANCH   2   3
ENDBRANCH   1   2
BRANCH   1  22
ATOM     22  O   UNL A   1      32.128  33.587  27.251  1.00  0.00    -0.458 OA
BRANCH  22  23
ATOM     23  C   UNL A   1      32.880  34.236  28.217  1.00  0.00     0.338 C 
ATOM     24  O   UNL A   1      32.529  35.040  29.059  1.00  0.00    -0.246 OA
BRANCH  23  25
ATOM     25  C   UNL A   1      34.184  33.495  28.332  1.00  0.00     0.060 A 
ATOM     26  C   UNL A   1      35.393  34.164  28.047  1.00  0.00     0.016 A 
ATOM     27  C   UNL A   1      34.215  32.317  29.068  1.00  0.00     0.016 A 
ATOM     28  C   UNL A   1      36.563  33.824  28.769  1.00  0.00     0.010 A 
ATOM     29  C   UNL A   1      35.380  31.971  29.759  1.00  0.00     0.010 A 
ATOM     30  C   UNL A   1      36.525  32.787  29.717  1.00  0.00    -0.014 A 
BRANCH  30  31
ATOM     31  C   UNL A   1      37.700  32.396  30.554  1.00  0.00     0.031 A 
ATOM     32  C   UNL A   1      38.483  31.219  30.063  1.00  0.00     0.074 A 
ATOM     33  C   UNL A   1      37.997  32.934  31.762  1.00  0.00     0.049 A 
ATOM     34  N   UNL A   1      39.416  30.530  30.661  1.00  0.00    -0.248 NA
ATOM     35  C   UNL A   1      38.124  30.731  28.721  1.00  0.00     0.031 C 
ATOM     36  C   UNL A   1      37.341  34.085  32.383  1.00  0.00     0.029 A 
ATOM     37  N   UNL A   1      38.930  32.554  32.709  1.00  0.00    -0.354 N 
ATOM     38  C   UNL A   1      39.738  29.514  29.776  1.00  0.00     0.074 A 
ATOM     39  C   UNL A   1      38.876  29.651  28.623  1.00  0.00     0.031 C 
ATOM     40  C   UNL A   1      37.877  34.306  33.601  1.00  0.00     0.029 A 
ATOM     41  C   UNL A   1      38.896  33.296  33.875  1.00  0.00     0.049 A 
ATOM     42  H   UNL A   1      39.566  31.816  32.565  1.00  0.00     0.167 HD
ATOM     43  C   UNL A   1      40.671  28.547  29.899  1.00  0.00     0.031 A 
ATOM     44  C   UNL A   1      39.592  33.160  35.030  1.00  0.00     0.031 A 
ATOM     45  C   UNL A   1      41.520  28.382  31.040  1.00  0.00     0.049 A 
ATOM     46  C   UNL A   1      40.589  32.026  35.163  1.00  0.00     0.074 A 
ATOM     47  C   UNL A   1      42.518  27.447  31.234  1.00  0.00     0.029 A 
ATOM     48  N   UNL A   1      41.460  29.161  32.183  1.00  0.00    -0.354 N 
ATOM     49  N   UNL A   1      40.947  31.126  34.278  1.00  0.00    -0.248 NA
ATOM     50  C   UNL A   1      41.280  31.885  36.459  1.00  0.00     0.031 C 
ATOM     51  C   UNL A   1      43.025  27.621  32.524  1.00  0.00     0.029 A 
ATOM     52  C   UNL A   1      42.384  28.704  33.104  1.00  0.00     0.049 A 
ATOM     53  H   UNL A   1      40.852  29.923  32.319  1.00  0.00     0.167 HD
ATOM     54  C   UNL A   1      41.920  30.346  34.896  1.00  0.00     0.074 A 
ATOM     55  C   UNL A   1      42.117  30.885  36.222  1.00  0.00     0.031 C 
ATOM     56  C   UNL A   1      42.585  29.270  34.411  1.00  0.00     0.031 A 
BRANCH  43  57
ATOM     57  C   UNL A   1      40.783  27.579  28.763  1.00  0.00    -0.014 A 
ATOM     58  C   UNL A   1      41.657  27.822  27.692  1.00  0.00     0.009 A 
ATOM     59  C   UNL A   1      39.987  26.426  28.754  1.00  0.00     0.009 A 
ATOM     60  C   UNL A   1      41.701  26.945  26.610  1.00  0.00     0.001 A 
ATOM     61  C   UNL A   1      40.059  25.533  27.686  1.00  0.00     0.001 A 
ATOM     62  C   UNL A   1      40.908  25.799  26.611  1.00  0.00     0.000 A 
ENDBRANCH  43  57
BRANCH  44  63
ATOM     63  C   UNL A   1      39.385  34.072  36.203  1.00  0.00    -0.014 A 
ATOM     64  C   UNL A   1      40.099  35.281  36.307  1.00  0.00     0.009 A 
ATOM     65  C   UNL A   1      38.588  33.680  37.291  1.00  0.00     0.009 A 
ATOM     66  C   UNL A   1      40.065  36.039  37.484  1.00  0.00     0.001 A 
ATOM     67  C   UNL A   1      38.529  34.458  38.453  1.00  0.00     0.001 A 
ATOM     68  C   UNL A   1      39.281  35.627  38.558  1.00  0.00     0.000 A 
ENDBRANCH  44  63
BRANCH  56  69
ATOM     69  C   UNL A   1      43.618  28.619  35.290  1.00  0.00    -0.014 A 
ATOM     70  C   UNL A   1      44.947  29.067  35.307  1.00  0.00     0.009 A 
ATOM     71  C   UNL A   1      43.227  27.615  36.190  1.00  0.00     0.009 A 
ATOM     72  C   UNL A   1      45.867  28.512  36.197  1.00  0.00     0.001 A 
ATOM     73  C   UNL A   1      44.140  27.084  37.101  1.00  0.00     0.001 A 
ATOM     74  C   UNL A   1      45.461  27.529  37.099  1.00  0.00     0.000 A 
ENDBRANCH  56  69
ENDBRANCH  30  31
ENDBRANCH  23  25
ENDBRANCH  22  23
ENDBRANCH   1  22
TORSDOF 12
ENDMDL
MODEL 2
REMARK VINA RESULT:     -13.1      5.299      9.724
REMARK SMILES O=C(OCCOC(=O)c1ccc(-c2c3nc(c(-c4ccccc4)c4ccc([nH]4)c(-c4ccccc4)c4nc(c(-c5ccccc5)c5ccc2[nH]5)C=C4)C=C3)cc1)C1=Cc2cc(Cl)cc(Cl)c2O[C@@H]1C(F)(F)F
REMARK SMILES IDX 5 1 4 2 3 3 2 4 1 5 57 6 58 7 68 8 59 9 67 10 60 11 66 12
REMARK SMILES IDX 61 13 64 14 62 15 63 16 65 17 69 18 70 19 71 20 72 21 6 22
REMARK SMILES IDX 7 23 8 24 9 25 10 26 56 27 11 28 55 29 12 30 13 31 14 32
REMARK SMILES IDX 49 33 15 34 54 35 48 36 50 37 16 38 53 39 47 40 46 41 17 43
REMARK SMILES IDX 39 44 24 45 38 46 25 47 28 48 37 49 51 50 26 51 27 52 36 54
REMARK SMILES IDX 52 55 29 56 18 57 19 58 23 59 20 60 22 61 21 62 40 63 41 64
REMARK SMILES IDX 45 65 42 66 44 67 43 68 30 69 31 70 35 71 32 72 34 73 33 74
REMARK H PARENT 50 42 28 53
REMARK Flexibility Score: inf
ROOT
ATOM      1  C   UNL A   1      38.169  19.455  24.884  1.00  0.00     0.275 C 
ENDROOT
BRANCH   1   2
ATOM      2  C   UNL A   1      37.496  21.497  24.624  1.00  0.00     0.275 C 
BRANCH   2   3
ATOM      3  O   UNL A   1      36.130  22.085  25.062  1.00  0.00    -0.459 OA
BRANCH   3   4
ATOM      4  C   UNL A   1      35.470  22.676  24.058  1.00  0.00     0.338 C 
ATOM      5  O   UNL A   1      35.896  23.190  23.056  1.00  0.00    -0.246 OA
BRANCH   4   6
ATOM      6  C   UNL A   1      34.244  22.870  24.803  1.00  0.00     0.087 C 
ATOM      7  C   UNL A   1      34.253  24.047  25.643  1.00  0.00     0.027 C 
ATOM      8  C   UNL A   1      33.084  22.556  23.306  1.00  0.00     0.316 C 
ATOM      9  C   UNL A   1      33.308  25.512  25.275  1.00  0.00     0.020 A 
ATOM     10  O   UNL A   1      32.123  24.174  22.821  1.00  0.00    -0.474 OA
ATOM     11  C   UNL A   1      33.508  26.594  26.085  1.00  0.00     0.032 A 
ATOM     12  C   UNL A   1      32.349  25.683  23.842  1.00  0.00     0.146 A 
ATOM     13  C   UNL A   1      32.900  27.774  25.643  1.00  0.00     0.043 A 
ATOM     14  C   UNL A   1      31.803  26.888  23.492  1.00  0.00     0.085 A 
ATOM     15  Cl  UNL A   1      33.146  29.174  26.638  1.00  0.00    -0.084 Cl
ATOM     16  C   UNL A   1      32.111  27.920  24.424  1.00  0.00     0.045 A 
ATOM     17  Cl  UNL A   1      30.907  27.198  22.087  1.00  0.00    -0.080 Cl
BRANCH   8  18
ATOM     18  C   UNL A   1      32.689  21.126  23.935  1.00  0.00     0.430 C 
ATOM     19  F   UNL A   1      31.859  21.233  24.962  1.00  0.00    -0.167 F 
ATOM     20  F   UNL A   1      31.930  20.433  23.026  1.00  0.00    -0.167 F 
ATOM     21  F   UNL A   1      33.683  20.255  24.212  1.00  0.00    -0.167 F 
ENDBRANCH   8  18
ENDBRANCH   4   6
ENDBRANCH   3   4
ENDBRANCH   2   3
ENDBRANCH   1   2
BRANCH   1  22
ATOM     22  O   UNL A   1      39.706  19.026  25.642  1.00  0.00    -0.458 OA
BRANCH  22  23
ATOM     23  C   UNL A   1      40.992  19.498  25.857  1.00  0.00     0.338 C 
ATOM     24  O   UNL A   1      42.042  19.135  25.362  1.00  0.00    -0.246 OA
BRANCH  23  25
ATOM     25  C   UNL A   1      40.863  20.834  26.535  1.00  0.00     0.060 A 
ATOM     26  C   UNL A   1      41.034  20.926  27.933  1.00  0.00     0.016 A 
ATOM     27  C   UNL A   1      40.959  21.984  25.761  1.00  0.00     0.016 A 
ATOM     28  C   UNL A   1      41.615  22.093  28.487  1.00  0.00     0.010 A 
ATOM     29  C   UNL A   1      41.509  23.142  26.319  1.00  0.00     0.010 A 
ATOM     30  C   UNL A   1      41.958  23.170  27.652  1.00  0.00    -0.014 A 
BRANCH  30  31
ATOM     31  C   UNL A   1      42.615  24.417  28.148  1.00  0.00     0.031 A 
ATOM     32  C   UNL A   1      41.694  25.553  28.466  1.00  0.00     0.074 A 
ATOM     33  C   UNL A   1      43.955  24.618  28.184  1.00  0.00     0.049 A 
ATOM     34  N   UNL A   1      41.970  26.803  28.722  1.00  0.00    -0.248 NA
ATOM     35  C   UNL A   1      40.258  25.231  28.449  1.00  0.00     0.031 C 
ATOM     36  C   UNL A   1      44.989  23.620  27.911  1.00  0.00     0.029 A 
ATOM     37  N   UNL A   1      44.684  25.764  28.444  1.00  0.00    -0.354 N 
ATOM     38  C   UNL A   1      40.738  27.420  28.872  1.00  0.00     0.074 A 
ATOM     39  C   UNL A   1      39.720  26.421  28.641  1.00  0.00     0.031 C 
ATOM     40  C   UNL A   1      46.206  24.193  28.005  1.00  0.00     0.029 A 
ATOM     41  C   UNL A   1      46.052  25.614  28.311  1.00  0.00     0.049 A 
ATOM     42  H   UNL A   1      44.264  26.616  28.705  1.00  0.00     0.167 HD
ATOM     43  C   UNL A   1      40.467  28.705  29.181  1.00  0.00     0.031 A 
ATOM     44  C   UNL A   1      47.054  26.521  28.406  1.00  0.00     0.031 A 
ATOM     45  C   UNL A   1      41.460  29.713  29.395  1.00  0.00     0.049 A 
ATOM     46  C   UNL A   1      46.715  27.970  28.691  1.00  0.00     0.074 A 
ATOM     47  C   UNL A   1      41.273  31.037  29.745  1.00  0.00     0.029 A 
ATOM     48  N   UNL A   1      42.824  29.513  29.264  1.00  0.00    -0.354 N 
ATOM     49  N   UNL A   1      45.546  28.520  28.922  1.00  0.00    -0.248 NA
ATOM     50  C   UNL A   1      47.835  28.930  28.729  1.00  0.00     0.031 C 
ATOM     51  C   UNL A   1      42.524  31.656  29.768  1.00  0.00     0.029 A 
ATOM     52  C   UNL A   1      43.491  30.702  29.494  1.00  0.00     0.049 A 
ATOM     53  H   UNL A   1      43.253  28.655  29.041  1.00  0.00     0.167 HD
ATOM     54  C   UNL A   1      45.797  29.867  29.165  1.00  0.00     0.074 A 
ATOM     55  C   UNL A   1      47.227  30.055  29.075  1.00  0.00     0.031 C 
ATOM     56  C   UNL A   1      44.919  30.865  29.426  1.00  0.00     0.031 A 
BRANCH  43  57
ATOM     57  C   UNL A   1      39.020  29.079  29.271  1.00  0.00    -0.014 A 
ATOM     58  C   UNL A   1      38.313  28.939  30.476  1.00  0.00     0.009 A 
ATOM     59  C   UNL A   1      38.354  29.551  28.133  1.00  0.00     0.009 A 
ATOM     60  C   UNL A   1      36.950  29.228  30.527  1.00  0.00     0.001 A 
ATOM     61  C   UNL A   1      36.999  29.871  28.196  1.00  0.00     0.001 A 
ATOM     62  C   UNL A   1      36.297  29.700  29.389  1.00  0.00     0.000 A 
ENDBRANCH  43  57
BRANCH  44  63
ATOM     63  C   UNL A   1      48.493  26.150  28.199  1.00  0.00    -0.014 A 
ATOM     64  C   UNL A   1      49.306  25.793  29.292  1.00  0.00     0.009 A 
ATOM     65  C   UNL A   1      49.102  26.289  26.942  1.00  0.00     0.009 A 
ATOM     66  C   UNL A   1      50.690  25.640  29.142  1.00  0.00     0.001 A 
ATOM     67  C   UNL A   1      50.481  26.101  26.787  1.00  0.00     0.001 A 
ATOM     68  C   UNL A   1      51.278  25.796  27.890  1.00  0.00     0.000 A 
ENDBRANCH  44  63
BRANCH  56  69
ATOM     69  C   UNL A   1      45.465  32.243  29.679  1.00  0.00    -0.014 A 
ATOM     70  C   UNL A   1      45.587  33.181  28.643  1.00  0.00     0.009 A 
ATOM     71  C   UNL A   1      45.760  32.640  30.994  1.00  0.00     0.009 A 
ATOM     72  C   UNL A   1      46.009  34.483  28.915  1.00  0.00     0.001 A 
ATOM     73  C   UNL A   1      46.150  33.952  31.268  1.00  0.00     0.001 A 
ATOM     74  C   UNL A   1      46.279  34.870  30.228  1.00  0.00     0.000 A 
ENDBRANCH  56  69
ENDBRANCH  30  31
ENDBRANCH  23  25
ENDBRANCH  22  23
ENDBRANCH   1  22
TORSDOF 12
ENDMDL
MODEL 3
REMARK VINA RESULT:     -13.1      4.248      7.966
REMARK SMILES O=C(OCCOC(=O)c1ccc(-c2c3nc(c(-c4ccccc4)c4ccc([nH]4)c(-c4ccccc4)c4nc(c(-c5ccccc5)c5ccc2[nH]5)C=C4)C=C3)cc1)C1=Cc2cc(Cl)cc(Cl)c2O[C@@H]1C(F)(F)F
REMARK SMILES IDX 5 1 4 2 3 3 2 4 1 5 57 6 58 7 68 8 59 9 67 10 60 11 66 12
REMARK SMILES IDX 61 13 64 14 62 15 63 16 65 17 69 18 70 19 71 20 72 21 6 22
REMARK SMILES IDX 7 23 8 24 9 25 10 26 56 27 11 28 55 29 12 30 13 31 14 32
REMARK SMILES IDX 49 33 15 34 54 35 48 36 50 37 16 38 53 39 47 40 46 41 17 43
REMARK SMILES IDX 39 44 24 45 38 46 25 47 28 48 37 49 51 50 26 51 27 52 36 54
REMARK SMILES IDX 52 55 29 56 18 57 19 58 23 59 20 60 22 61 21 62 40 63 41 64
REMARK SMILES IDX 45 65 42 66 44 67 43 68 30 69 31 70 35 71 32 72 34 73 33 74
REMARK H PARENT 50 42 28 53
REMARK Flexibility Score: inf
ROOT
ATOM      1  C   UNL A   1      33.431  31.317  27.457  1.00  0.00     0.275 C 
ENDROOT
BRANCH   1   2
ATOM      2  C   UNL A   1      32.694  29.286  27.296  1.00  0.00     0.275 C 
BRANCH   2   3
ATOM      3  O   UNL A   1      31.788  28.715  26.174  1.00  0.00    -0.459 OA
BRANCH   3   4
ATOM      4  C   UNL A   1      31.702  27.379  26.202  1.00  0.00     0.338 C 
ATOM      5  O   UNL A   1      31.389  26.648  27.107  1.00  0.00    -0.246 OA
BRANCH   4   6
ATOM      6  C   UNL A   1      32.513  27.171  25.022  1.00  0.00     0.087 C 
ATOM      7  C   UNL A   1      33.817  26.612  25.302  1.00  0.00     0.027 C 
ATOM      8  C   UNL A   1      31.118  26.336  24.002  1.00  0.00     0.316 C 
ATOM      9  C   UNL A   1      34.258  24.930  24.912  1.00  0.00     0.020 A 
ATOM     10  O   UNL A   1      31.531  24.469  23.657  1.00  0.00    -0.474 OA
ATOM     11  C   UNL A   1      35.478  24.497  25.345  1.00  0.00     0.032 A 
ATOM     12  C   UNL A   1      33.142  23.795  24.225  1.00  0.00     0.146 A 
ATOM     13  C   UNL A   1      35.698  23.123  25.193  1.00  0.00     0.043 A 
ATOM     14  C   UNL A   1      33.451  22.466  24.128  1.00  0.00     0.085 A 
ATOM     15  Cl  UNL A   1      37.233  22.533  25.748  1.00  0.00    -0.084 Cl
ATOM     16  C   UNL A   1      34.748  22.166  24.634  1.00  0.00     0.045 A 
ATOM     17  Cl  UNL A   1      32.424  21.251  23.541  1.00  0.00    -0.080 Cl
BRANCH   8  18
ATOM     18  C   UNL A   1      30.994  27.672  23.109  1.00  0.00     0.430 C 
ATOM     19  F   UNL A   1      30.545  27.429  21.887  1.00  0.00    -0.167 F 
ATOM     20  F   UNL A   1      30.000  28.464  23.626  1.00  0.00    -0.167 F 
ATOM     21  F   UNL A   1      32.050  28.513  23.073  1.00  0.00    -0.167 F 
ENDBRANCH   8  18
ENDBRANCH   4   6
ENDBRANCH   3   4
ENDBRANCH   2   3
ENDBRANCH   1   2
BRANCH   1  22
ATOM     22  O   UNL A   1      34.794  31.779  28.481  1.00  0.00    -0.458 OA
BRANCH  22  23
ATOM     23  C   UNL A   1      35.437  31.449  29.664  1.00  0.00     0.338 C 
ATOM     24  O   UNL A   1      35.197  31.809  30.801  1.00  0.00    -0.246 OA
BRANCH  23  25
ATOM     25  C   UNL A   1      36.278  30.234  29.385  1.00  0.00     0.060 A 
ATOM     26  C   UNL A   1      36.839  30.055  28.102  1.00  0.00     0.016 A 
ATOM     27  C   UNL A   1      36.798  29.524  30.460  1.00  0.00     0.016 A 
ATOM     28  C   UNL A   1      38.103  29.427  27.978  1.00  0.00     0.010 A 
ATOM     29  C   UNL A   1      38.033  28.884  30.326  1.00  0.00     0.010 A 
ATOM     30  C   UNL A   1      38.757  28.935  29.120  1.00  0.00    -0.014 A 
BRANCH  30  31
ATOM     31  C   UNL A   1      40.109  28.301  29.084  1.00  0.00     0.031 A 
ATOM     32  C   UNL A   1      41.267  29.230  29.266  1.00  0.00     0.074 A 
ATOM     33  C   UNL A   1      40.342  27.005  28.760  1.00  0.00     0.049 A 
ATOM     34  N   UNL A   1      42.543  29.018  29.090  1.00  0.00    -0.248 NA
ATOM     35  C   UNL A   1      40.922  30.605  29.664  1.00  0.00     0.031 C 
ATOM     36  C   UNL A   1      39.332  25.967  28.556  1.00  0.00     0.029 A 
ATOM     37  N   UNL A   1      41.530  26.341  28.516  1.00  0.00    -0.354 N 
ATOM     38  C   UNL A   1      43.149  30.241  29.332  1.00  0.00     0.074 A 
ATOM     39  C   UNL A   1      42.103  31.194  29.627  1.00  0.00     0.031 C 
ATOM     40  C   UNL A   1      39.935  24.812  28.208  1.00  0.00     0.029 A 
ATOM     41  C   UNL A   1      41.379  25.023  28.127  1.00  0.00     0.049 A 
ATOM     42  H   UNL A   1      42.411  26.770  28.612  1.00  0.00     0.167 HD
ATOM     43  C   UNL A   1      44.462  30.553  29.319  1.00  0.00     0.031 A 
ATOM     44  C   UNL A   1      42.296  24.106  27.734  1.00  0.00     0.031 A 
ATOM     45  C   UNL A   1      45.510  29.629  29.010  1.00  0.00     0.049 A 
ATOM     46  C   UNL A   1      43.757  24.504  27.667  1.00  0.00     0.074 A 
ATOM     47  C   UNL A   1      46.874  29.854  29.005  1.00  0.00     0.029 A 
ATOM     48  N   UNL A   1      45.311  28.310  28.639  1.00  0.00    -0.354 N 
ATOM     49  N   UNL A   1      44.323  25.642  27.990  1.00  0.00    -0.248 NA
ATOM     50  C   UNL A   1      44.710  23.488  27.180  1.00  0.00     0.031 C 
ATOM     51  C   UNL A   1      47.500  28.684  28.571  1.00  0.00     0.029 A 
ATOM     52  C   UNL A   1      46.529  27.716  28.367  1.00  0.00     0.049 A 
ATOM     53  H   UNL A   1      44.436  27.864  28.577  1.00  0.00     0.167 HD
ATOM     54  C   UNL A   1      45.688  25.465  27.779  1.00  0.00     0.074 A 
ATOM     55  C   UNL A   1      45.874  24.107  27.321  1.00  0.00     0.031 C 
ATOM     56  C   UNL A   1      46.698  26.354  27.938  1.00  0.00     0.031 A 
BRANCH  43  57
ATOM     57  C   UNL A   1      44.812  31.977  29.622  1.00  0.00    -0.014 A 
ATOM     58  C   UNL A   1      45.064  32.392  30.938  1.00  0.00     0.009 A 
ATOM     59  C   UNL A   1      44.866  32.914  28.582  1.00  0.00     0.009 A 
ATOM     60  C   UNL A   1      45.324  33.734  31.213  1.00  0.00     0.001 A 
ATOM     61  C   UNL A   1      45.159  34.249  28.855  1.00  0.00     0.001 A 
ATOM     62  C   UNL A   1      45.378  34.658  30.171  1.00  0.00     0.000 A 
ENDBRANCH  43  57
BRANCH  44  63
ATOM     63  C   UNL A   1      41.914  22.714  27.323  1.00  0.00    -0.014 A 
ATOM     64  C   UNL A   1      41.361  22.467  26.052  1.00  0.00     0.009 A 
ATOM     65  C   UNL A   1      41.962  21.652  28.240  1.00  0.00     0.009 A 
ATOM     66  C   UNL A   1      40.819  21.216  25.732  1.00  0.00     0.001 A 
ATOM     67  C   UNL A   1      41.451  20.392  27.905  1.00  0.00     0.001 A 
ATOM     68  C   UNL A   1      40.863  20.179  26.659  1.00  0.00     0.000 A 
ENDBRANCH  44  63
BRANCH  56  69
ATOM     69  C   UNL A   1      48.102  25.889  27.662  1.00  0.00    -0.014 A 
ATOM     70  C   UNL A   1      48.691  26.059  26.401  1.00  0.00     0.009 A 
ATOM     71  C   UNL A   1      48.878  25.372  28.712  1.00  0.00     0.009 A 
ATOM     72  C   UNL A   1      50.025  25.705  26.192  1.00  0.00     0.001 A 
ATOM     73  C   UNL A   1      50.221  25.050  28.510  1.00  0.00     0.001 A 
ATOM     74  C   UNL A   1      50.791  25.212  27.248  1.00  0.00     0.000 A 
ENDBRANCH  56  69
ENDBRANCH  30  31
ENDBRANCH  23  25
ENDBRANCH  22  23
ENDBRANCH   1  22
TORSDOF 12
ENDMDL
