MODEL 1
REMARK VINA RESULT:     -13.6      0.000      0.000
REMARK SMILES O=C(OCCOC(=O)[C@@H](Cc1c[nH]c2ccccc12)NC(=O)c1ccc(F)cc1F)c1ccc(-c2c3nc(c(-c4ccccc4)c4ccc([nH]4)c(-c4ccccc4)c4nc(c(-c5ccccc5)c5ccc2[nH]5)C=C4)C=C3)cc1
REMARK SMILES IDX 4 1 3 2 2 3 1 4 31 5 32 6 78 7 33 8 77 9 34 10 35 11 36 12
REMARK SMILES IDX 71 13 37 14 76 15 70 16 72 17 38 18 75 19 69 20 68 21 39 23
REMARK SMILES IDX 61 24 46 25 60 26 47 27 50 28 59 29 73 30 48 31 49 32 58 34
REMARK SMILES IDX 74 35 51 36 40 37 41 38 45 39 42 40 44 41 43 42 62 43 63 44
REMARK SMILES IDX 67 45 64 46 66 47 65 48 52 49 53 50 57 51 54 52 56 53 55 54
REMARK SMILES IDX 5 55 6 56 7 57 8 58 9 59 10 60 11 61 12 62 19 63 13 64 14 65
REMARK SMILES IDX 18 66 15 68 17 69 16 70 20 71 21 72 22 74 23 75 24 76 29 77
REMARK SMILES IDX 25 78 28 79 30 80 26 81 27 82
REMARK H PARENT 72 22 50 33 13 67 20 73
REMARK Flexibility Score: inf
ROOT
ATOM      1  C   UNL A   1      33.742  30.035  27.429  1.00  0.00     0.275 C 
ENDROOT
BRANCH   1   2
ATOM      2  O   UNL A   1      34.206  31.323  27.809  1.00  0.00    -0.458 OA
BRANCH   2   3
ATOM      3  C   UNL A   1      34.903  31.569  28.924  1.00  0.00     0.338 C 
ATOM      4  O   UNL A   1      34.522  32.449  29.696  1.00  0.00    -0.246 OA
BRANCH   3   5
ATOM      5  C   UNL A   1      36.206  30.921  29.258  1.00  0.00     0.060 A 
ATOM      6  C   UNL A   1      36.668  29.970  30.753  1.00  0.00     0.016 A 
ATOM      7  C   UNL A   1      37.113  30.633  27.712  1.00  0.00     0.016 A 
ATOM      8  C   UNL A   1      37.915  28.618  30.601  1.00  0.00     0.010 A 
ATOM      9  C   UNL A   1      38.393  29.414  27.622  1.00  0.00     0.010 A 
ATOM     10  C   UNL A   1      38.877  28.442  29.036  1.00  0.00    -0.014 A 
BRANCH  10  11
ATOM     11  C   UNL A   1      40.280  27.895  29.001  1.00  0.00     0.031 A 
ATOM     12  C   UNL A   1      40.566  26.491  28.443  1.00  0.00     0.074 A 
ATOM     13  C   UNL A   1      41.266  28.795  29.134  1.00  0.00     0.049 A 
ATOM     14  N   UNL A   1      41.710  25.983  28.036  1.00  0.00    -0.248 NA
ATOM     15  C   UNL A   1      39.457  25.531  28.295  1.00  0.00     0.031 C 
ATOM     16  C   UNL A   1      41.055  30.175  29.548  1.00  0.00     0.029 A 
ATOM     17  N   UNL A   1      42.581  28.751  28.754  1.00  0.00    -0.354 N 
ATOM     18  C   UNL A   1      41.434  24.676  27.620  1.00  0.00     0.074 A 
ATOM     19  C   UNL A   1      40.031  24.452  27.795  1.00  0.00     0.031 C 
ATOM     20  C   UNL A   1      42.124  30.900  29.200  1.00  0.00     0.029 A 
ATOM     21  C   UNL A   1      43.160  30.000  28.706  1.00  0.00     0.049 A 
ATOM     22  H   UNL A   1      43.060  27.918  28.539  1.00  0.00     0.167 HD
ATOM     23  C   UNL A   1      42.274  23.723  27.158  1.00  0.00     0.031 A 
ATOM     24  C   UNL A   1      44.395  30.374  28.326  1.00  0.00     0.031 A 
ATOM     25  C   UNL A   1      43.676  23.950  26.986  1.00  0.00     0.049 A 
ATOM     26  C   UNL A   1      45.335  29.284  27.898  1.00  0.00     0.074 A 
ATOM     27  C   UNL A   1      44.666  23.045  26.656  1.00  0.00     0.029 A 
ATOM     28  N   UNL A   1      44.278  25.186  27.143  1.00  0.00    -0.354 N 
ATOM     29  N   UNL A   1      45.068  28.034  27.594  1.00  0.00    -0.248 NA
ATOM     30  C   UNL A   1      46.757  29.633  27.834  1.00  0.00     0.031 C 
ATOM     31  C   UNL A   1      45.888  23.720  26.713  1.00  0.00     0.029 A 
ATOM     32  C   UNL A   1      45.642  25.057  26.996  1.00  0.00     0.049 A 
ATOM     33  H   UNL A   1      43.804  26.029  27.331  1.00  0.00     0.167 HD
ATOM     34  C   UNL A   1      46.296  27.432  27.364  1.00  0.00     0.074 A 
ATOM     35  C   UNL A   1      47.296  28.476  27.474  1.00  0.00     0.031 C 
ATOM     36  C   UNL A   1      46.588  26.129  27.137  1.00  0.00     0.031 A 
BRANCH  23  37
ATOM     37  C   UNL A   1      41.744  22.324  26.967  1.00  0.00    -0.014 A 
ATOM     38  C   UNL A   1      42.209  21.222  27.700  1.00  0.00     0.009 A 
ATOM     39  C   UNL A   1      40.705  22.127  26.041  1.00  0.00     0.009 A 
ATOM     40  C   UNL A   1      41.644  19.954  27.503  1.00  0.00     0.001 A 
ATOM     41  C   UNL A   1      40.129  20.869  25.862  1.00  0.00     0.001 A 
ATOM     42  C   UNL A   1      40.601  19.781  26.593  1.00  0.00     0.000 A 
ENDBRANCH  23  37
BRANCH  24  43
ATOM     43  C   UNL A   1      44.839  31.791  28.483  1.00  0.00    -0.014 A 
ATOM     44  C   UNL A   1      45.305  32.298  29.705  1.00  0.00     0.009 A 
ATOM     45  C   UNL A   1      44.783  32.667  27.381  1.00  0.00     0.009 A 
ATOM     46  C   UNL A   1      45.702  33.637  29.813  1.00  0.00     0.001 A 
ATOM     47  C   UNL A   1      45.237  33.981  27.474  1.00  0.00     0.001 A 
ATOM     48  C   UNL A   1      45.686  34.470  28.695  1.00  0.00     0.000 A 
ENDBRANCH  24  43
BRANCH  36  49
ATOM     49  C   UNL A   1      48.038  25.770  27.052  1.00  0.00    -0.014 A 
ATOM     50  C   UNL A   1      48.735  25.930  25.844  1.00  0.00     0.009 A 
ATOM     51  C   UNL A   1      48.724  25.338  28.194  1.00  0.00     0.009 A 
ATOM     52  C   UNL A   1      50.093  25.627  25.776  1.00  0.00     0.001 A 
ATOM     53  C   UNL A   1      50.089  25.068  28.130  1.00  0.00     0.001 A 
ATOM     54  C   UNL A   1      50.769  25.202  26.919  1.00  0.00     0.000 A 
ENDBRANCH  36  49
ENDBRANCH  10  11
ENDBRANCH   3   5
ENDBRANCH   2   3
ENDBRANCH   1   2
BRANCH   1  55
ATOM     55  C   UNL A   1      32.299  30.097  26.890  1.00  0.00     0.274 C 
BRANCH  55  56
ATOM     56  O   UNL A   1      31.837  28.883  26.234  1.00  0.00    -0.461 OA
BRANCH  56  57
ATOM     57  C   UNL A   1      31.596  27.764  26.985  1.00  0.00     0.329 C 
ATOM     58  O   UNL A   1      31.420  27.791  28.194  1.00  0.00    -0.250 OA
BRANCH  57  59
ATOM     59  C   UNL A   1      31.410  26.466  26.093  1.00  0.00     0.197 C 
BRANCH  59  60
ATOM     60  C   UNL A   1      31.616  24.764  26.796  1.00  0.00     0.074 C 
BRANCH  60  61
ATOM     61  C   UNL A   1      33.310  23.402  26.863  1.00  0.00    -0.020 A 
ATOM     62  C   UNL A   1      33.689  22.250  27.685  1.00  0.00     0.087 A 
ATOM     63  C   UNL A   1      34.663  23.141  25.766  1.00  0.00     0.003 A 
ATOM     64  N   UNL A   1      34.772  21.517  27.249  1.00  0.00    -0.361 N 
ATOM     65  C   UNL A   1      35.351  21.989  26.117  1.00  0.00     0.046 A 
ATOM     66  C   UNL A   1      35.254  23.787  24.593  1.00  0.00     0.010 A 
ATOM     67  H   UNL A   1      35.097  20.715  27.719  1.00  0.00     0.166 HD
ATOM     68  C   UNL A   1      36.455  21.471  25.395  1.00  0.00     0.026 A 
ATOM     69  C   UNL A   1      36.340  23.303  23.864  1.00  0.00     0.001 A 
ATOM     70  C   UNL A   1      36.933  22.135  24.262  1.00  0.00     0.002 A 
ENDBRANCH  60  61
ENDBRANCH  59  60
BRANCH  59  71
ATOM     71  N   UNL A   1      30.269  26.621  25.161  1.00  0.00    -0.338 N 
ATOM     72  C   UNL A   1      29.947  25.974  23.999  1.00  0.00     0.254 C 
ATOM     73  H   UNL A   1      29.625  27.316  25.427  1.00  0.00     0.164 HD
ATOM     74  O   UNL A   1      28.836  26.141  23.503  1.00  0.00    -0.269 OA
BRANCH  72  75
ATOM     75  C   UNL A   1      30.925  25.117  23.314  1.00  0.00     0.075 A 
ATOM     76  C   UNL A   1      30.955  23.725  23.457  1.00  0.00     0.020 A 
ATOM     77  C   UNL A   1      31.853  25.751  22.485  1.00  0.00     0.138 A 
ATOM     78  C   UNL A   1      31.971  22.994  22.837  1.00  0.00     0.040 A 
ATOM     79  C   UNL A   1      32.853  25.024  21.852  1.00  0.00     0.079 A 
ATOM     80  F   UNL A   1      31.820  27.079  22.307  1.00  0.00    -0.206 F 
ATOM     81  C   UNL A   1      32.914  23.652  22.052  1.00  0.00     0.126 A 
ATOM     82  F   UNL A   1      33.899  22.948  21.480  1.00  0.00    -0.207 F 
ENDBRANCH  72  75
ENDBRANCH  59  71
ENDBRANCH  57  59
ENDBRANCH  56  57
ENDBRANCH  55  56
ENDBRANCH   1  55
TORSDOF 15
ENDMDL
MODEL 2
REMARK VINA RESULT:     -13.3      0.928      1.509
REMARK SMILES O=C(OCCOC(=O)[C@@H](Cc1c[nH]c2ccccc12)NC(=O)c1ccc(F)cc1F)c1ccc(-c2c3nc(c(-c4ccccc4)c4ccc([nH]4)c(-c4ccccc4)c4nc(c(-c5ccccc5)c5ccc2[nH]5)C=C4)C=C3)cc1
REMARK SMILES IDX 4 1 3 2 2 3 1 4 31 5 32 6 78 7 33 8 77 9 34 10 35 11 36 12
REMARK SMILES IDX 71 13 37 14 76 15 70 16 72 17 38 18 75 19 69 20 68 21 39 23
REMARK SMILES IDX 61 24 46 25 60 26 47 27 50 28 59 29 73 30 48 31 49 32 58 34
REMARK SMILES IDX 74 35 51 36 40 37 41 38 45 39 42 40 44 41 43 42 62 43 63 44
REMARK SMILES IDX 67 45 64 46 66 47 65 48 52 49 53 50 57 51 54 52 56 53 55 54
REMARK SMILES IDX 5 55 6 56 7 57 8 58 9 59 10 60 11 61 12 62 19 63 13 64 14 65
REMARK SMILES IDX 18 66 15 68 17 69 16 70 20 71 21 72 22 74 23 75 24 76 29 77
REMARK SMILES IDX 25 78 28 79 30 80 26 81 27 82
REMARK H PARENT 72 22 50 33 13 67 20 73
REMARK Flexibility Score: inf
ROOT
ATOM      1  C   UNL A   1      33.564  30.188  27.666  1.00  0.00     0.275 C 
ENDROOT
BRANCH   1   2
ATOM      2  O   UNL A   1      34.042  31.485  27.997  1.00  0.00    -0.458 OA
BRANCH   2   3
ATOM      3  C   UNL A   1      34.754  31.764  29.094  1.00  0.00     0.338 C 
ATOM      4  O   UNL A   1      34.377  32.658  29.852  1.00  0.00    -0.246 OA
BRANCH   3   5
ATOM      5  C   UNL A   1      36.069  31.137  29.421  1.00  0.00     0.060 A 
ATOM      6  C   UNL A   1      36.588  30.287  30.958  1.00  0.00     0.016 A 
ATOM      7  C   UNL A   1      36.918  30.745  27.865  1.00  0.00     0.016 A 
ATOM      8  C   UNL A   1      37.829  28.925  30.849  1.00  0.00     0.010 A 
ATOM      9  C   UNL A   1      38.194  29.521  27.808  1.00  0.00     0.010 A 
ATOM     10  C   UNL A   1      38.732  28.644  29.264  1.00  0.00    -0.014 A 
BRANCH  10  11
ATOM     11  C   UNL A   1      40.133  28.093  29.213  1.00  0.00     0.031 A 
ATOM     12  C   UNL A   1      40.412  26.700  28.625  1.00  0.00     0.074 A 
ATOM     13  C   UNL A   1      41.122  28.986  29.361  1.00  0.00     0.049 A 
ATOM     14  N   UNL A   1      41.553  26.197  28.204  1.00  0.00    -0.248 NA
ATOM     15  C   UNL A   1      39.299  25.747  28.461  1.00  0.00     0.031 C 
ATOM     16  C   UNL A   1      40.917  30.359  29.805  1.00  0.00     0.029 A 
ATOM     17  N   UNL A   1      42.435  28.946  28.976  1.00  0.00    -0.354 N 
ATOM     18  C   UNL A   1      41.270  24.900  27.761  1.00  0.00     0.074 A 
ATOM     19  C   UNL A   1      39.867  24.677  27.936  1.00  0.00     0.031 C 
ATOM     20  C   UNL A   1      41.987  31.087  29.468  1.00  0.00     0.029 A 
ATOM     21  C   UNL A   1      43.019  30.194  28.952  1.00  0.00     0.049 A 
ATOM     22  H   UNL A   1      42.911  28.116  28.742  1.00  0.00     0.167 HD
ATOM     23  C   UNL A   1      42.106  23.953  27.276  1.00  0.00     0.031 A 
ATOM     24  C   UNL A   1      44.254  30.572  28.575  1.00  0.00     0.031 A 
ATOM     25  C   UNL A   1      43.508  24.180  27.104  1.00  0.00     0.049 A 
ATOM     26  C   UNL A   1      45.188  29.488  28.121  1.00  0.00     0.074 A 
ATOM     27  C   UNL A   1      44.493  23.279  26.752  1.00  0.00     0.029 A 
ATOM     28  N   UNL A   1      44.114  25.410  27.285  1.00  0.00    -0.354 N 
ATOM     29  N   UNL A   1      44.916  28.246  27.792  1.00  0.00    -0.248 NA
ATOM     30  C   UNL A   1      46.611  29.833  28.059  1.00  0.00     0.031 C 
ATOM     31  C   UNL A   1      45.718  23.948  26.819  1.00  0.00     0.029 A 
ATOM     32  C   UNL A   1      45.478  25.280  27.130  1.00  0.00     0.049 A 
ATOM     33  H   UNL A   1      43.644  26.250  27.492  1.00  0.00     0.167 HD
ATOM     34  C   UNL A   1      46.141  27.644  27.545  1.00  0.00     0.074 A 
ATOM     35  C   UNL A   1      47.145  28.682  27.673  1.00  0.00     0.031 C 
ATOM     36  C   UNL A   1      46.428  26.345  27.290  1.00  0.00     0.031 A 
BRANCH  23  37
ATOM     37  C   UNL A   1      41.571  22.561  27.058  1.00  0.00    -0.014 A 
ATOM     38  C   UNL A   1      40.605  22.254  26.087  1.00  0.00     0.009 A 
ATOM     39  C   UNL A   1      42.099  21.516  27.836  1.00  0.00     0.009 A 
ATOM     40  C   UNL A   1      40.181  20.930  25.907  1.00  0.00     0.001 A 
ATOM     41  C   UNL A   1      41.691  20.196  27.641  1.00  0.00     0.001 A 
ATOM     42  C   UNL A   1      40.729  19.904  26.677  1.00  0.00     0.000 A 
ENDBRANCH  23  37
BRANCH  24  43
ATOM     43  C   UNL A   1      44.703  31.984  28.760  1.00  0.00    -0.014 A 
ATOM     44  C   UNL A   1      44.627  32.933  27.731  1.00  0.00     0.009 A 
ATOM     45  C   UNL A   1      45.234  32.392  30.000  1.00  0.00     0.009 A 
ATOM     46  C   UNL A   1      45.068  34.246  27.942  1.00  0.00     0.001 A 
ATOM     47  C   UNL A   1      45.614  33.713  30.228  1.00  0.00     0.001 A 
ATOM     48  C   UNL A   1      45.543  34.638  29.194  1.00  0.00     0.000 A 
ENDBRANCH  24  43
BRANCH  36  49
ATOM     49  C   UNL A   1      47.877  25.983  27.192  1.00  0.00    -0.014 A 
ATOM     50  C   UNL A   1      48.548  25.450  28.302  1.00  0.00     0.009 A 
ATOM     51  C   UNL A   1      48.551  26.111  25.971  1.00  0.00     0.009 A 
ATOM     52  C   UNL A   1      49.888  25.082  28.198  1.00  0.00     0.001 A 
ATOM     53  C   UNL A   1      49.881  25.711  25.862  1.00  0.00     0.001 A 
ATOM     54  C   UNL A   1      50.551  25.208  26.978  1.00  0.00     0.000 A 
ENDBRANCH  36  49
ENDBRANCH  10  11
ENDBRANCH   3   5
ENDBRANCH   2   3
ENDBRANCH   1   2
BRANCH   1  55
ATOM     55  C   UNL A   1      32.459  30.257  26.595  1.00  0.00     0.274 C 
BRANCH  55  56
ATOM     56  O   UNL A   1      31.409  29.258  26.731  1.00  0.00    -0.461 OA
BRANCH  56  57
ATOM     57  C   UNL A   1      31.631  27.985  26.283  1.00  0.00     0.329 C 
ATOM     58  O   UNL A   1      31.038  27.007  26.714  1.00  0.00    -0.250 OA
BRANCH  57  59
ATOM     59  C   UNL A   1      32.616  27.944  25.039  1.00  0.00     0.197 C 
BRANCH  59  60
ATOM     60  C   UNL A   1      34.015  26.734  24.945  1.00  0.00     0.074 C 
BRANCH  60  61
ATOM     61  C   UNL A   1      34.229  24.683  25.637  1.00  0.00    -0.020 A 
ATOM     62  C   UNL A   1      33.448  23.784  26.491  1.00  0.00     0.087 A 
ATOM     63  C   UNL A   1      35.328  23.387  25.175  1.00  0.00     0.003 A 
ATOM     64  N   UNL A   1      33.834  22.461  26.502  1.00  0.00    -0.361 N 
ATOM     65  C   UNL A   1      34.911  22.184  25.726  1.00  0.00     0.046 A 
ATOM     66  C   UNL A   1      36.543  23.222  24.375  1.00  0.00     0.010 A 
ATOM     67  H   UNL A   1      33.366  21.774  27.029  1.00  0.00     0.166 HD
ATOM     68  C   UNL A   1      35.549  20.940  25.495  1.00  0.00     0.026 A 
ATOM     69  C   UNL A   1      37.193  22.013  24.130  1.00  0.00     0.001 A 
ATOM     70  C   UNL A   1      36.685  20.868  24.684  1.00  0.00     0.002 A 
ENDBRANCH  60  61
ENDBRANCH  59  60
BRANCH  59  71
ATOM     71  N   UNL A   1      31.877  28.142  23.771  1.00  0.00    -0.338 N 
ATOM     72  C   UNL A   1      31.330  27.253  22.886  1.00  0.00     0.254 C 
ATOM     73  H   UNL A   1      31.756  29.086  23.519  1.00  0.00     0.164 HD
ATOM     74  O   UNL A   1      30.587  27.663  21.999  1.00  0.00    -0.269 OA
BRANCH  72  75
ATOM     75  C   UNL A   1      31.656  25.821  22.954  1.00  0.00     0.075 A 
ATOM     76  C   UNL A   1      32.745  25.252  22.284  1.00  0.00     0.020 A 
ATOM     77  C   UNL A   1      30.824  25.018  23.738  1.00  0.00     0.138 A 
ATOM     78  C   UNL A   1      32.933  23.869  22.333  1.00  0.00     0.040 A 
ATOM     79  C   UNL A   1      31.021  23.645  23.804  1.00  0.00     0.079 A 
ATOM     80  F   UNL A   1      29.797  25.549  24.416  1.00  0.00    -0.206 F 
ATOM     81  C   UNL A   1      32.063  23.080  23.083  1.00  0.00     0.126 A 
ATOM     82  F   UNL A   1      32.236  21.752  23.106  1.00  0.00    -0.207 F 
ENDBRANCH  72  75
ENDBRANCH  59  71
ENDBRANCH  57  59
ENDBRANCH  56  57
ENDBRANCH  55  56
ENDBRANCH   1  55
TORSDOF 15
ENDMDL
MODEL 3
REMARK VINA RESULT:     -13.2      1.526      2.399
REMARK SMILES O=C(OCCOC(=O)[C@@H](Cc1c[nH]c2ccccc12)NC(=O)c1ccc(F)cc1F)c1ccc(-c2c3nc(c(-c4ccccc4)c4ccc([nH]4)c(-c4ccccc4)c4nc(c(-c5ccccc5)c5ccc2[nH]5)C=C4)C=C3)cc1
REMARK SMILES IDX 4 1 3 2 2 3 1 4 31 5 32 6 78 7 33 8 77 9 34 10 35 11 36 12
REMARK SMILES IDX 71 13 37 14 76 15 70 16 72 17 38 18 75 19 69 20 68 21 39 23
REMARK SMILES IDX 61 24 46 25 60 26 47 27 50 28 59 29 73 30 48 31 49 32 58 34
REMARK SMILES IDX 74 35 51 36 40 37 41 38 45 39 42 40 44 41 43 42 62 43 63 44
REMARK SMILES IDX 67 45 64 46 66 47 65 48 52 49 53 50 57 51 54 52 56 53 55 54
REMARK SMILES IDX 5 55 6 56 7 57 8 58 9 59 10 60 11 61 12 62 19 63 13 64 14 65
REMARK SMILES IDX 18 66 15 68 17 69 16 70 20 71 21 72 22 74 23 75 24 76 29 77
REMARK SMILES IDX 25 78 28 79 30 80 26 81 27 82
REMARK H PARENT 72 22 50 33 13 67 20 73
REMARK Flexibility Score: inf
ROOT
ATOM      1  C   UNL A   1      34.106  29.785  27.384  1.00  0.00     0.275 C 
ENDROOT
BRANCH   1   2
ATOM      2  O   UNL A   1      34.111  31.100  27.924  1.00  0.00    -0.458 OA
BRANCH   2   3
ATOM      3  C   UNL A   1      34.901  31.495  28.927  1.00  0.00     0.338 C 
ATOM      4  O   UNL A   1      34.616  32.511  29.561  1.00  0.00    -0.246 OA
BRANCH   3   5
ATOM      5  C   UNL A   1      36.201  30.847  29.275  1.00  0.00     0.060 A 
ATOM      6  C   UNL A   1      36.638  29.869  30.760  1.00  0.00     0.016 A 
ATOM      7  C   UNL A   1      37.142  30.596  27.743  1.00  0.00     0.016 A 
ATOM      8  C   UNL A   1      37.895  28.527  30.606  1.00  0.00     0.010 A 
ATOM      9  C   UNL A   1      38.430  29.386  27.655  1.00  0.00     0.010 A 
ATOM     10  C   UNL A   1      38.891  28.388  29.059  1.00  0.00    -0.014 A 
BRANCH  10  11
ATOM     11  C   UNL A   1      40.298  27.849  29.042  1.00  0.00     0.031 A 
ATOM     12  C   UNL A   1      40.600  26.449  28.484  1.00  0.00     0.074 A 
ATOM     13  C   UNL A   1      41.276  28.755  29.192  1.00  0.00     0.049 A 
ATOM     14  N   UNL A   1      41.752  25.949  28.091  1.00  0.00    -0.248 NA
ATOM     15  C   UNL A   1      39.498  25.483  28.316  1.00  0.00     0.031 C 
ATOM     16  C   UNL A   1      41.050  30.132  29.608  1.00  0.00     0.029 A 
ATOM     17  N   UNL A   1      42.596  28.720  28.831  1.00  0.00    -0.354 N 
ATOM     18  C   UNL A   1      41.490  24.642  27.667  1.00  0.00     0.074 A 
ATOM     19  C   UNL A   1      40.086  24.410  27.821  1.00  0.00     0.031 C 
ATOM     20  C   UNL A   1      42.120  30.864  29.278  1.00  0.00     0.029 A 
ATOM     21  C   UNL A   1      43.169  29.973  28.796  1.00  0.00     0.049 A 
ATOM     22  H   UNL A   1      43.083  27.890  28.620  1.00  0.00     0.167 HD
ATOM     23  C   UNL A   1      42.342  23.696  27.213  1.00  0.00     0.031 A 
ATOM     24  C   UNL A   1      44.407  30.355  28.434  1.00  0.00     0.031 A 
ATOM     25  C   UNL A   1      43.745  23.932  27.062  1.00  0.00     0.049 A 
ATOM     26  C   UNL A   1      45.359  29.272  28.016  1.00  0.00     0.074 A 
ATOM     27  C   UNL A   1      44.745  23.034  26.743  1.00  0.00     0.029 A 
ATOM     28  N   UNL A   1      44.337  25.171  27.232  1.00  0.00    -0.354 N 
ATOM     29  N   UNL A   1      45.104  28.022  27.704  1.00  0.00    -0.248 NA
ATOM     30  C   UNL A   1      46.780  29.630  27.973  1.00  0.00     0.031 C 
ATOM     31  C   UNL A   1      45.962  23.716  26.820  1.00  0.00     0.029 A 
ATOM     32  C   UNL A   1      45.704  25.051  27.104  1.00  0.00     0.049 A 
ATOM     33  H   UNL A   1      43.855  26.010  27.416  1.00  0.00     0.167 HD
ATOM     34  C   UNL A   1      46.338  27.428  27.489  1.00  0.00     0.074 A 
ATOM     35  C   UNL A   1      47.331  28.478  27.617  1.00  0.00     0.031 C 
ATOM     36  C   UNL A   1      46.642  26.127  27.262  1.00  0.00     0.031 A 
BRANCH  23  37
ATOM     37  C   UNL A   1      41.824  22.295  27.010  1.00  0.00    -0.014 A 
ATOM     38  C   UNL A   1      40.968  21.939  25.956  1.00  0.00     0.009 A 
ATOM     39  C   UNL A   1      42.255  21.291  27.895  1.00  0.00     0.009 A 
ATOM     40  C   UNL A   1      40.556  20.609  25.800  1.00  0.00     0.001 A 
ATOM     41  C   UNL A   1      41.861  19.963  27.724  1.00  0.00     0.001 A 
ATOM     42  C   UNL A   1      41.009  19.623  26.677  1.00  0.00     0.000 A 
ENDBRANCH  23  37
BRANCH  24  43
ATOM     43  C   UNL A   1      44.840  31.774  28.602  1.00  0.00    -0.014 A 
ATOM     44  C   UNL A   1      44.658  32.735  27.597  1.00  0.00     0.009 A 
ATOM     45  C   UNL A   1      45.464  32.178  29.799  1.00  0.00     0.009 A 
ATOM     46  C   UNL A   1      45.088  34.055  27.791  1.00  0.00     0.001 A 
ATOM     47  C   UNL A   1      45.833  33.504  30.015  1.00  0.00     0.001 A 
ATOM     48  C   UNL A   1      45.657  34.441  29.005  1.00  0.00     0.000 A 
ENDBRANCH  24  43
BRANCH  36  49
ATOM     49  C   UNL A   1      48.095  25.777  27.196  1.00  0.00    -0.014 A 
ATOM     50  C   UNL A   1      48.817  25.982  26.011  1.00  0.00     0.009 A 
ATOM     51  C   UNL A   1      48.758  25.308  28.338  1.00  0.00     0.009 A 
ATOM     52  C   UNL A   1      50.178  25.688  25.962  1.00  0.00     0.001 A 
ATOM     53  C   UNL A   1      50.125  25.046  28.294  1.00  0.00     0.001 A 
ATOM     54  C   UNL A   1      50.831  25.225  27.104  1.00  0.00     0.000 A 
ENDBRANCH  36  49
ENDBRANCH  10  11
ENDBRANCH   3   5
ENDBRANCH   2   3
ENDBRANCH   1   2
BRANCH   1  55
ATOM     55  C   UNL A   1      32.684  29.354  26.974  1.00  0.00     0.274 C 
BRANCH  55  56
ATOM     56  O   UNL A   1      32.625  28.210  26.077  1.00  0.00    -0.461 OA
BRANCH  56  57
ATOM     57  C   UNL A   1      31.938  27.091  26.462  1.00  0.00     0.329 C 
ATOM     58  O   UNL A   1      30.879  27.128  27.071  1.00  0.00    -0.250 OA
BRANCH  57  59
ATOM     59  C   UNL A   1      32.581  25.759  25.889  1.00  0.00     0.197 C 
BRANCH  59  60
ATOM     60  C   UNL A   1      31.860  24.093  26.258  1.00  0.00     0.074 C 
BRANCH  60  61
ATOM     61  C   UNL A   1      32.653  22.077  26.061  1.00  0.00    -0.020 A 
ATOM     62  C   UNL A   1      33.278  21.109  26.966  1.00  0.00     0.087 A 
ATOM     63  C   UNL A   1      32.569  20.895  24.758  1.00  0.00     0.003 A 
ATOM     64  N   UNL A   1      33.443  19.832  26.476  1.00  0.00    -0.361 N 
ATOM     65  C   UNL A   1      33.018  19.659  25.200  1.00  0.00     0.046 A 
ATOM     66  C   UNL A   1      32.156  20.849  23.354  1.00  0.00     0.010 A 
ATOM     67  H   UNL A   1      33.837  19.103  27.010  1.00  0.00     0.166 HD
ATOM     68  C   UNL A   1      33.021  18.484  24.409  1.00  0.00     0.026 A 
ATOM     69  C   UNL A   1      32.148  19.709  22.550  1.00  0.00     0.001 A 
ATOM     70  C   UNL A   1      32.572  18.522  23.085  1.00  0.00     0.002 A 
ENDBRANCH  60  61
ENDBRANCH  59  60
BRANCH  59  71
ATOM     71  N   UNL A   1      33.033  25.946  24.491  1.00  0.00    -0.338 N 
ATOM     72  C   UNL A   1      33.943  25.267  23.728  1.00  0.00     0.254 C 
ATOM     73  H   UNL A   1      32.597  26.696  24.025  1.00  0.00     0.164 HD
ATOM     74  O   UNL A   1      34.004  25.486  22.522  1.00  0.00    -0.269 OA
BRANCH  72  75
ATOM     75  C   UNL A   1      34.880  24.313  24.339  1.00  0.00     0.075 A 
ATOM     76  C   UNL A   1      35.493  24.531  25.579  1.00  0.00     0.020 A 
ATOM     77  C   UNL A   1      35.145  23.140  23.629  1.00  0.00     0.138 A 
ATOM     78  C   UNL A   1      36.435  23.613  26.048  1.00  0.00     0.040 A 
ATOM     79  C   UNL A   1      36.067  22.217  24.102  1.00  0.00     0.079 A 
ATOM     80  F   UNL A   1      34.542  22.896  22.457  1.00  0.00    -0.206 F 
ATOM     81  C   UNL A   1      36.720  22.473  25.300  1.00  0.00     0.126 A 
ATOM     82  F   UNL A   1      37.642  21.609  25.745  1.00  0.00    -0.207 F 
ENDBRANCH  72  75
ENDBRANCH  59  71
ENDBRANCH  57  59
ENDBRANCH  56  57
ENDBRANCH  55  56
ENDBRANCH   1  55
TORSDOF 15
ENDMDL
