MODEL 1
REMARK VINA RESULT:     -11.7      0.000      0.000
REMARK SMILES CS(=O)(=O)N(Cc1ccc(Cl)cc1)c1ccc(C(=O)Nc2ccccc2C(=O)OCCOC(=O)c2ccc(-c3c4nc(c(-c5ccccc5)c5ccc([nH]5)c(-c5ccccc5)c5nc(c(-c6ccccc6)c6ccc3[nH]6)C=C5)C=C4)cc2)cc1
REMARK SMILES IDX 29 1 27 2 28 3 26 4 21 5 22 6 23 7 25 8 24 9 20 10 18 11
REMARK SMILES IDX 19 12 17 14 14 15 15 16 84 17 16 18 83 19 5 20 2 21 1 22
REMARK SMILES IDX 3 23 4 24 6 25 7 26 8 27 13 28 9 29 12 30 10 31 11 32 30 33
REMARK SMILES IDX 31 34 32 35 33 36 34 37 35 38 36 39 82 40 37 41 81 42 38 43
REMARK SMILES IDX 39 44 40 45 75 46 41 47 80 48 74 49 76 50 42 51 79 52 73 53
REMARK SMILES IDX 72 54 43 56 65 57 50 58 64 59 51 60 54 61 63 62 77 63 52 64
REMARK SMILES IDX 53 65 62 67 78 68 55 69 44 70 45 71 49 72 46 73 48 74 47 75
REMARK SMILES IDX 66 76 67 77 71 78 68 79 70 80 69 81 56 82 57 83 61 84 58 85
REMARK SMILES IDX 60 86 59 87
REMARK H PARENT 20 13 76 55 54 66
REMARK Flexibility Score: inf
ROOT
ATOM      1  O   UNL A   1      41.408  20.556  26.601  1.00  0.00    -0.458 OA
ENDROOT
BRANCH   1   2
ATOM      2  C   UNL A   1      41.598  21.650  27.378  1.00  0.00     0.340 C 
ATOM      3  O   UNL A   1      42.571  21.871  28.079  1.00  0.00    -0.246 OA
BRANCH   2   4
ATOM      4  C   UNL A   1      40.484  22.613  27.253  1.00  0.00     0.083 A 
ATOM      5  C   UNL A   1      39.397  22.470  26.376  1.00  0.00     0.056 A 
ATOM      6  C   UNL A   1      38.472  23.525  26.280  1.00  0.00     0.027 A 
ATOM      7  C   UNL A   1      38.556  24.644  27.113  1.00  0.00     0.002 A 
ATOM      8  C   UNL A   1      40.559  23.746  28.084  1.00  0.00     0.018 A 
ATOM      9  C   UNL A   1      39.592  24.747  28.029  1.00  0.00     0.001 A 
BRANCH   5  10
ATOM     10  N   UNL A   1      39.097  21.356  25.568  1.00  0.00    -0.321 N 
ATOM     11  C   UNL A   1      37.915  20.881  25.052  1.00  0.00     0.255 C 
ATOM     12  O   UNL A   1      37.871  19.742  24.588  1.00  0.00    -0.269 OA
ATOM     13  H   UNL A   1      39.884  20.816  25.326  1.00  0.00     0.170 HD
BRANCH  11  14
ATOM     14  C   UNL A   1      36.708  21.731  24.955  1.00  0.00     0.040 A 
ATOM     15  C   UNL A   1      34.329  23.250  24.555  1.00  0.00     0.052 A 
ATOM     16  C   UNL A   1      35.390  23.256  23.628  1.00  0.00     0.028 A 
ATOM     17  C   UNL A   1      34.558  22.541  25.743  1.00  0.00     0.028 A 
ATOM     18  C   UNL A   1      36.564  22.520  23.821  1.00  0.00     0.016 A 
ATOM     19  C   UNL A   1      35.727  21.784  25.945  1.00  0.00     0.016 A 
BRANCH  15  20
ATOM     20  N   UNL A   1      33.138  24.110  24.336  1.00  0.00    -0.266 N 
BRANCH  20  21
ATOM     21  S   UNL A   1      31.633  23.324  24.115  1.00  0.00     0.232 S 
ATOM     22  C   UNL A   1      30.604  24.527  23.286  1.00  0.00     0.183 C 
ATOM     23  O   UNL A   1      31.023  23.121  25.415  1.00  0.00    -0.207 OA
ATOM     24  O   UNL A   1      31.826  22.217  23.203  1.00  0.00    -0.207 OA
ENDBRANCH  20  21
BRANCH  20  25
ATOM     25  C   UNL A   1      33.355  25.320  23.477  1.00  0.00     0.170 C 
BRANCH  25  26
ATOM     26  C   UNL A   1      33.479  26.614  24.275  1.00  0.00    -0.027 A 
ATOM     27  C   UNL A   1      33.580  26.557  25.674  1.00  0.00     0.007 A 
ATOM     28  C   UNL A   1      33.419  27.874  23.654  1.00  0.00     0.007 A 
ATOM     29  C   UNL A   1      33.548  27.731  26.434  1.00  0.00     0.021 A 
ATOM     30  C   UNL A   1      33.370  29.044  24.414  1.00  0.00     0.021 A 
ATOM     31  C   UNL A   1      33.422  28.966  25.802  1.00  0.00     0.041 A 
ATOM     32  Cl  UNL A   1      33.310  30.403  26.741  1.00  0.00    -0.084 Cl
ENDBRANCH  25  26
ENDBRANCH  20  25
ENDBRANCH  15  20
ENDBRANCH  11  14
ENDBRANCH   5  10
ENDBRANCH   2   4
ENDBRANCH   1   2
BRANCH   1  33
ATOM     33  C   UNL A   1      42.044  19.351  27.079  1.00  0.00     0.275 C 
BRANCH  33  34
ATOM     34  C   UNL A   1      42.971  18.709  26.049  1.00  0.00     0.275 C 
BRANCH  34  35
ATOM     35  O   UNL A   1      43.194  19.596  24.939  1.00  0.00    -0.458 OA
BRANCH  35  36
ATOM     36  C   UNL A   1      44.473  19.673  24.514  1.00  0.00     0.338 C 
ATOM     37  O   UNL A   1      45.150  18.786  24.022  1.00  0.00    -0.246 OA
BRANCH  36  38
ATOM     38  C   UNL A   1      44.999  21.032  24.708  1.00  0.00     0.060 A 
ATOM     39  C   UNL A   1      45.531  21.389  25.943  1.00  0.00     0.016 A 
ATOM     40  C   UNL A   1      44.766  22.006  23.738  1.00  0.00     0.016 A 
ATOM     41  C   UNL A   1      45.713  22.726  26.270  1.00  0.00     0.010 A 
ATOM     42  C   UNL A   1      45.045  23.343  24.031  1.00  0.00     0.010 A 
ATOM     43  C   UNL A   1      45.468  23.721  25.319  1.00  0.00    -0.014 A 
BRANCH  43  44
ATOM     44  C   UNL A   1      45.566  25.156  25.689  1.00  0.00     0.031 A 
ATOM     45  C   UNL A   1      46.889  25.862  25.561  1.00  0.00     0.074 A 
ATOM     46  C   UNL A   1      44.485  25.837  26.111  1.00  0.00     0.049 A 
ATOM     47  N   UNL A   1      47.262  27.015  26.053  1.00  0.00    -0.248 NA
ATOM     48  C   UNL A   1      47.934  25.173  24.786  1.00  0.00     0.031 C 
ATOM     49  C   UNL A   1      43.120  25.312  26.188  1.00  0.00     0.029 A 
ATOM     50  N   UNL A   1      44.368  27.132  26.551  1.00  0.00    -0.354 N 
ATOM     51  C   UNL A   1      48.603  27.152  25.714  1.00  0.00     0.074 A 
ATOM     52  C   UNL A   1      48.974  25.976  24.959  1.00  0.00     0.031 C 
ATOM     53  C   UNL A   1      42.300  26.282  26.619  1.00  0.00     0.029 A 
ATOM     54  C   UNL A   1      43.094  27.462  26.939  1.00  0.00     0.049 A 
ATOM     55  H   UNL A   1      45.124  27.761  26.585  1.00  0.00     0.167 HD
ATOM     56  C   UNL A   1      49.450  28.163  26.022  1.00  0.00     0.031 A 
ATOM     57  C   UNL A   1      42.623  28.571  27.539  1.00  0.00     0.031 A 
ATOM     58  C   UNL A   1      49.058  29.352  26.729  1.00  0.00     0.049 A 
ATOM     59  C   UNL A   1      43.583  29.663  27.907  1.00  0.00     0.074 A 
ATOM     60  C   UNL A   1      49.838  30.430  27.110  1.00  0.00     0.029 A 
ATOM     61  N   UNL A   1      47.763  29.629  27.138  1.00  0.00    -0.354 N 
ATOM     62  N   UNL A   1      44.874  29.735  27.689  1.00  0.00    -0.248 NA
ATOM     63  C   UNL A   1      43.027  30.816  28.630  1.00  0.00     0.031 C 
ATOM     64  C   UNL A   1      49.016  31.349  27.773  1.00  0.00     0.029 A 
ATOM     65  C   UNL A   1      47.719  30.858  27.770  1.00  0.00     0.049 A 
ATOM     66  H   UNL A   1      46.987  29.038  26.998  1.00  0.00     0.167 HD
ATOM     67  C   UNL A   1      45.284  30.937  28.245  1.00  0.00     0.074 A 
ATOM     68  C   UNL A   1      44.103  31.572  28.793  1.00  0.00     0.031 C 
ATOM     69  C   UNL A   1      46.532  31.464  28.307  1.00  0.00     0.031 A 
BRANCH  56  70
ATOM     70  C   UNL A   1      50.894  27.990  25.650  1.00  0.00    -0.014 A 
ATOM     71  C   UNL A   1      51.820  27.418  26.534  1.00  0.00     0.009 A 
ATOM     72  C   UNL A   1      51.328  28.398  24.378  1.00  0.00     0.009 A 
ATOM     73  C   UNL A   1      53.161  27.287  26.161  1.00  0.00     0.001 A 
ATOM     74  C   UNL A   1      52.663  28.246  24.001  1.00  0.00     0.001 A 
ATOM     75  C   UNL A   1      53.580  27.698  24.896  1.00  0.00     0.000 A 
ENDBRANCH  56  70
BRANCH  57  76
ATOM     76  C   UNL A   1      41.185  28.661  27.896  1.00  0.00    -0.014 A 
ATOM     77  C   UNL A   1      40.252  29.170  26.981  1.00  0.00     0.009 A 
ATOM     78  C   UNL A   1      40.734  28.209  29.147  1.00  0.00     0.009 A 
ATOM     79  C   UNL A   1      38.898  29.232  27.316  1.00  0.00     0.001 A 
ATOM     80  C   UNL A   1      39.376  28.248  29.469  1.00  0.00     0.001 A 
ATOM     81  C   UNL A   1      38.460  28.765  28.555  1.00  0.00     0.000 A 
ENDBRANCH  57  76
BRANCH  69  82
ATOM     82  C   UNL A   1      46.669  32.801  28.971  1.00  0.00    -0.014 A 
ATOM     83  C   UNL A   1      46.521  33.988  28.237  1.00  0.00     0.009 A 
ATOM     84  C   UNL A   1      46.914  32.872  30.350  1.00  0.00     0.009 A 
ATOM     85  C   UNL A   1      46.639  35.225  28.872  1.00  0.00     0.001 A 
ATOM     86  C   UNL A   1      47.013  34.111  30.984  1.00  0.00     0.001 A 
ATOM     87  C   UNL A   1      46.881  35.285  30.244  1.00  0.00     0.000 A 
ENDBRANCH  69  82
ENDBRANCH  43  44
ENDBRANCH  36  38
ENDBRANCH  35  36
ENDBRANCH  34  35
ENDBRANCH  33  34
ENDBRANCH   1  33
TORSDOF 17
ENDMDL
MODEL 2
REMARK VINA RESULT:     -11.3      1.865      2.849
REMARK SMILES CS(=O)(=O)N(Cc1ccc(Cl)cc1)c1ccc(C(=O)Nc2ccccc2C(=O)OCCOC(=O)c2ccc(-c3c4nc(c(-c5ccccc5)c5ccc([nH]5)c(-c5ccccc5)c5nc(c(-c6ccccc6)c6ccc3[nH]6)C=C5)C=C4)cc2)cc1
REMARK SMILES IDX 29 1 27 2 28 3 26 4 21 5 22 6 23 7 25 8 24 9 20 10 18 11
REMARK SMILES IDX 19 12 17 14 14 15 15 16 84 17 16 18 83 19 5 20 2 21 1 22
REMARK SMILES IDX 3 23 4 24 6 25 7 26 8 27 13 28 9 29 12 30 10 31 11 32 30 33
REMARK SMILES IDX 31 34 32 35 33 36 34 37 35 38 36 39 82 40 37 41 81 42 38 43
REMARK SMILES IDX 39 44 40 45 75 46 41 47 80 48 74 49 76 50 42 51 79 52 73 53
REMARK SMILES IDX 72 54 43 56 65 57 50 58 64 59 51 60 54 61 63 62 77 63 52 64
REMARK SMILES IDX 53 65 62 67 78 68 55 69 44 70 45 71 49 72 46 73 48 74 47 75
REMARK SMILES IDX 66 76 67 77 71 78 68 79 70 80 69 81 56 82 57 83 61 84 58 85
REMARK SMILES IDX 60 86 59 87
REMARK H PARENT 20 13 76 55 54 66
REMARK Flexibility Score: inf
ROOT
ATOM      1  O   UNL A   1      41.318  19.937  25.750  1.00  0.00    -0.458 OA
ENDROOT
BRANCH   1   2
ATOM      2  C   UNL A   1      40.791  20.347  26.929  1.00  0.00     0.340 C 
ATOM      3  O   UNL A   1      40.941  19.802  28.010  1.00  0.00    -0.246 OA
BRANCH   2   4
ATOM      4  C   UNL A   1      40.020  21.599  26.781  1.00  0.00     0.083 A 
ATOM      5  C   UNL A   1      38.867  21.740  25.993  1.00  0.00     0.056 A 
ATOM      6  C   UNL A   1      38.305  23.022  25.853  1.00  0.00     0.027 A 
ATOM      7  C   UNL A   1      38.804  24.117  26.565  1.00  0.00     0.002 A 
ATOM      8  C   UNL A   1      40.515  22.709  27.490  1.00  0.00     0.018 A 
ATOM      9  C   UNL A   1      39.901  23.957  27.398  1.00  0.00     0.001 A 
BRANCH   5  10
ATOM     10  N   UNL A   1      38.167  20.720  25.320  1.00  0.00    -0.321 N 
ATOM     11  C   UNL A   1      36.828  20.518  25.085  1.00  0.00     0.255 C 
ATOM     12  O   UNL A   1      36.441  19.417  24.695  1.00  0.00    -0.269 OA
ATOM     13  H   UNL A   1      38.748  20.019  24.945  1.00  0.00     0.170 HD
BRANCH  11  14
ATOM     14  C   UNL A   1      35.841  21.615  25.202  1.00  0.00     0.040 A 
ATOM     15  C   UNL A   1      33.815  23.619  25.238  1.00  0.00     0.052 A 
ATOM     16  C   UNL A   1      34.613  23.377  24.102  1.00  0.00     0.028 A 
ATOM     17  C   UNL A   1      34.152  22.894  26.390  1.00  0.00     0.028 A 
ATOM     18  C   UNL A   1      35.614  22.401  24.079  1.00  0.00     0.016 A 
ATOM     19  C   UNL A   1      35.146  21.897  26.377  1.00  0.00     0.016 A 
BRANCH  15  20
ATOM     20  N   UNL A   1      32.818  24.720  25.231  1.00  0.00    -0.266 N 
BRANCH  20  21
ATOM     21  S   UNL A   1      31.169  24.286  25.385  1.00  0.00     0.232 S 
ATOM     22  C   UNL A   1      30.295  25.412  24.309  1.00  0.00     0.183 C 
ATOM     23  O   UNL A   1      30.729  24.611  26.729  1.00  0.00    -0.207 OA
ATOM     24  O   UNL A   1      30.997  22.953  24.849  1.00  0.00    -0.207 OA
ENDBRANCH  20  21
BRANCH  20  25
ATOM     25  C   UNL A   1      33.092  25.845  24.278  1.00  0.00     0.170 C 
BRANCH  25  26
ATOM     26  C   UNL A   1      33.255  27.196  24.968  1.00  0.00    -0.027 A 
ATOM     27  C   UNL A   1      33.909  27.266  26.208  1.00  0.00     0.007 A 
ATOM     28  C   UNL A   1      32.700  28.372  24.431  1.00  0.00     0.007 A 
ATOM     29  C   UNL A   1      33.941  28.466  26.924  1.00  0.00     0.021 A 
ATOM     30  C   UNL A   1      32.718  29.566  25.154  1.00  0.00     0.021 A 
ATOM     31  C   UNL A   1      33.328  29.604  26.403  1.00  0.00     0.041 A 
ATOM     32  Cl  UNL A   1      33.306  31.061  27.318  1.00  0.00    -0.084 Cl
ENDBRANCH  25  26
ENDBRANCH  20  25
ENDBRANCH  15  20
ENDBRANCH  11  14
ENDBRANCH   5  10
ENDBRANCH   2   4
ENDBRANCH   1   2
BRANCH   1  33
ATOM     33  C   UNL A   1      42.323  18.905  25.857  1.00  0.00     0.275 C 
BRANCH  33  34
ATOM     34  C   UNL A   1      43.644  19.277  25.188  1.00  0.00     0.275 C 
BRANCH  34  35
ATOM     35  O   UNL A   1      44.180  20.488  25.751  1.00  0.00    -0.458 OA
BRANCH  35  36
ATOM     36  C   UNL A   1      44.251  21.534  24.901  1.00  0.00     0.338 C 
ATOM     37  O   UNL A   1      44.598  21.522  23.732  1.00  0.00    -0.246 OA
BRANCH  36  38
ATOM     38  C   UNL A   1      43.828  22.772  25.571  1.00  0.00     0.060 A 
ATOM     39  C   UNL A   1      43.355  23.835  24.807  1.00  0.00     0.016 A 
ATOM     40  C   UNL A   1      44.102  22.951  26.925  1.00  0.00     0.016 A 
ATOM     41  C   UNL A   1      43.276  25.110  25.350  1.00  0.00     0.010 A 
ATOM     42  C   UNL A   1      43.926  24.213  27.498  1.00  0.00     0.010 A 
ATOM     43  C   UNL A   1      43.565  25.317  26.702  1.00  0.00    -0.014 A 
BRANCH  43  44
ATOM     44  C   UNL A   1      43.578  26.690  27.267  1.00  0.00     0.031 A 
ATOM     45  C   UNL A   1      44.888  27.416  27.411  1.00  0.00     0.074 A 
ATOM     46  C   UNL A   1      42.434  27.301  27.627  1.00  0.00     0.049 A 
ATOM     47  N   UNL A   1      45.165  28.496  28.095  1.00  0.00    -0.248 NA
ATOM     48  C   UNL A   1      46.042  26.844  26.698  1.00  0.00     0.031 C 
ATOM     49  C   UNL A   1      41.084  26.761  27.451  1.00  0.00     0.029 A 
ATOM     50  N   UNL A   1      42.228  28.524  28.214  1.00  0.00    -0.354 N 
ATOM     51  C   UNL A   1      46.534  28.686  27.959  1.00  0.00     0.074 A 
ATOM     52  C   UNL A   1      47.031  27.623  27.112  1.00  0.00     0.031 C 
ATOM     53  C   UNL A   1      40.191  27.658  27.893  1.00  0.00     0.029 A 
ATOM     54  C   UNL A   1      40.906  28.791  28.469  1.00  0.00     0.049 A 
ATOM     55  H   UNL A   1      42.958  29.148  28.431  1.00  0.00     0.167 HD
ATOM     56  C   UNL A   1      47.309  29.652  28.508  1.00  0.00     0.031 A 
ATOM     57  C   UNL A   1      40.334  29.806  29.142  1.00  0.00     0.031 A 
ATOM     58  C   UNL A   1      46.798  30.733  29.306  1.00  0.00     0.049 A 
ATOM     59  C   UNL A   1      41.210  30.846  29.775  1.00  0.00     0.074 A 
ATOM     60  C   UNL A   1      47.495  31.756  29.927  1.00  0.00     0.029 A 
ATOM     61  N   UNL A   1      45.454  30.944  29.572  1.00  0.00    -0.354 N 
ATOM     62  N   UNL A   1      42.516  30.955  29.742  1.00  0.00    -0.248 NA
ATOM     63  C   UNL A   1      40.535  31.888  30.563  1.00  0.00     0.031 C 
ATOM     64  C   UNL A   1      46.571  32.572  30.589  1.00  0.00     0.029 A 
ATOM     65  C   UNL A   1      45.298  32.077  30.349  1.00  0.00     0.049 A 
ATOM     66  H   UNL A   1      44.718  30.371  29.254  1.00  0.00     0.167 HD
ATOM     67  C   UNL A   1      42.820  32.075  30.502  1.00  0.00     0.074 A 
ATOM     68  C   UNL A   1      41.562  32.623  30.966  1.00  0.00     0.031 C 
ATOM     69  C   UNL A   1      44.035  32.598  30.799  1.00  0.00     0.031 A 
BRANCH  56  70
ATOM     70  C   UNL A   1      48.793  29.541  28.312  1.00  0.00    -0.014 A 
ATOM     71  C   UNL A   1      49.602  28.817  29.201  1.00  0.00     0.009 A 
ATOM     72  C   UNL A   1      49.388  30.165  27.204  1.00  0.00     0.009 A 
ATOM     73  C   UNL A   1      50.983  28.748  28.997  1.00  0.00     0.001 A 
ATOM     74  C   UNL A   1      50.764  30.074  26.992  1.00  0.00     0.001 A 
ATOM     75  C   UNL A   1      51.562  29.373  27.893  1.00  0.00     0.000 A 
ENDBRANCH  56  70
BRANCH  57  76
ATOM     76  C   UNL A   1      38.859  29.837  29.312  1.00  0.00    -0.014 A 
ATOM     77  C   UNL A   1      38.263  29.321  30.471  1.00  0.00     0.009 A 
ATOM     78  C   UNL A   1      38.043  30.411  28.323  1.00  0.00     0.009 A 
ATOM     79  C   UNL A   1      36.876  29.373  30.633  1.00  0.00     0.001 A 
ATOM     80  C   UNL A   1      36.661  30.486  28.500  1.00  0.00     0.001 A 
ATOM     81  C   UNL A   1      36.078  29.961  29.652  1.00  0.00     0.000 A 
ENDBRANCH  57  76
BRANCH  69  82
ATOM     82  C   UNL A   1      44.051  33.835  31.644  1.00  0.00    -0.014 A 
ATOM     83  C   UNL A   1      44.159  33.752  33.040  1.00  0.00     0.009 A 
ATOM     84  C   UNL A   1      43.993  35.097  31.033  1.00  0.00     0.009 A 
ATOM     85  C   UNL A   1      44.184  34.914  33.812  1.00  0.00     0.001 A 
ATOM     86  C   UNL A   1      44.038  36.256  31.808  1.00  0.00     0.001 A 
ATOM     87  C   UNL A   1      44.128  36.164  33.196  1.00  0.00     0.000 A 
ENDBRANCH  69  82
ENDBRANCH  43  44
ENDBRANCH  36  38
ENDBRANCH  35  36
ENDBRANCH  34  35
ENDBRANCH  33  34
ENDBRANCH   1  33
TORSDOF 17
ENDMDL
MODEL 3
REMARK VINA RESULT:     -11.2      4.277      6.292
REMARK SMILES CS(=O)(=O)N(Cc1ccc(Cl)cc1)c1ccc(C(=O)Nc2ccccc2C(=O)OCCOC(=O)c2ccc(-c3c4nc(c(-c5ccccc5)c5ccc([nH]5)c(-c5ccccc5)c5nc(c(-c6ccccc6)c6ccc3[nH]6)C=C5)C=C4)cc2)cc1
REMARK SMILES IDX 29 1 27 2 28 3 26 4 21 5 22 6 23 7 25 8 24 9 20 10 18 11
REMARK SMILES IDX 19 12 17 14 14 15 15 16 84 17 16 18 83 19 5 20 2 21 1 22
REMARK SMILES IDX 3 23 4 24 6 25 7 26 8 27 13 28 9 29 12 30 10 31 11 32 30 33
REMARK SMILES IDX 31 34 32 35 33 36 34 37 35 38 36 39 82 40 37 41 81 42 38 43
REMARK SMILES IDX 39 44 40 45 75 46 41 47 80 48 74 49 76 50 42 51 79 52 73 53
REMARK SMILES IDX 72 54 43 56 65 57 50 58 64 59 51 60 54 61 63 62 77 63 52 64
REMARK SMILES IDX 53 65 62 67 78 68 55 69 44 70 45 71 49 72 46 73 48 74 47 75
REMARK SMILES IDX 66 76 67 77 71 78 68 79 70 80 69 81 56 82 57 83 61 84 58 85
REMARK SMILES IDX 60 86 59 87
REMARK H PARENT 20 13 76 55 54 66
REMARK Flexibility Score: inf
ROOT
ATOM      1  O   UNL A   1      41.712  20.816  25.774  1.00  0.00    -0.458 OA
ENDROOT
BRANCH   1   2
ATOM      2  C   UNL A   1      40.829  20.872  26.800  1.00  0.00     0.340 C 
ATOM      3  O   UNL A   1      40.798  20.120  27.760  1.00  0.00    -0.246 OA
BRANCH   2   4
ATOM      4  C   UNL A   1      39.894  22.007  26.661  1.00  0.00     0.083 A 
ATOM      5  C   UNL A   1      38.688  21.968  25.943  1.00  0.00     0.056 A 
ATOM      6  C   UNL A   1      37.956  23.160  25.797  1.00  0.00     0.027 A 
ATOM      7  C   UNL A   1      38.348  24.337  26.442  1.00  0.00     0.002 A 
ATOM      8  C   UNL A   1      40.279  23.199  27.303  1.00  0.00     0.018 A 
ATOM      9  C   UNL A   1      39.503  24.352  27.210  1.00  0.00     0.001 A 
BRANCH   5  10
ATOM     10  N   UNL A   1      38.090  20.840  25.346  1.00  0.00    -0.321 N 
ATOM     11  C   UNL A   1      36.776  20.494  25.136  1.00  0.00     0.255 C 
ATOM     12  O   UNL A   1      36.498  19.336  24.827  1.00  0.00    -0.269 OA
ATOM     13  H   UNL A   1      38.736  20.174  25.016  1.00  0.00     0.170 HD
BRANCH  11  14
ATOM     14  C   UNL A   1      35.688  21.495  25.185  1.00  0.00     0.040 A 
ATOM     15  C   UNL A   1      33.731  23.551  25.444  1.00  0.00     0.052 A 
ATOM     16  C   UNL A   1      34.152  22.771  26.540  1.00  0.00     0.028 A 
ATOM     17  C   UNL A   1      34.248  23.182  24.194  1.00  0.00     0.028 A 
ATOM     18  C   UNL A   1      35.105  21.755  26.419  1.00  0.00     0.016 A 
ATOM     19  C   UNL A   1      35.220  22.172  24.059  1.00  0.00     0.016 A 
BRANCH  15  20
ATOM     20  N   UNL A   1      32.659  24.565  25.615  1.00  0.00    -0.266 N 
BRANCH  20  21
ATOM     21  S   UNL A   1      31.152  24.020  26.217  1.00  0.00     0.232 S 
ATOM     22  C   UNL A   1      30.797  22.535  25.291  1.00  0.00     0.183 C 
ATOM     23  O   UNL A   1      30.129  24.973  25.831  1.00  0.00    -0.207 OA
ATOM     24  O   UNL A   1      31.326  23.636  27.602  1.00  0.00    -0.207 OA
ENDBRANCH  20  21
BRANCH  20  25
ATOM     25  C   UNL A   1      32.575  25.614  24.547  1.00  0.00     0.170 C 
BRANCH  25  26
ATOM     26  C   UNL A   1      32.464  27.032  25.098  1.00  0.00    -0.027 A 
ATOM     27  C   UNL A   1      32.619  27.253  26.476  1.00  0.00     0.007 A 
ATOM     28  C   UNL A   1      32.134  28.122  24.272  1.00  0.00     0.007 A 
ATOM     29  C   UNL A   1      32.378  28.518  27.020  1.00  0.00     0.021 A 
ATOM     30  C   UNL A   1      31.878  29.381  24.819  1.00  0.00     0.021 A 
ATOM     31  C   UNL A   1      31.989  29.570  26.193  1.00  0.00     0.041 A 
ATOM     32  Cl  UNL A   1      31.622  31.107  26.874  1.00  0.00    -0.084 Cl
ENDBRANCH  25  26
ENDBRANCH  20  25
ENDBRANCH  15  20
ENDBRANCH  11  14
ENDBRANCH   5  10
ENDBRANCH   2   4
ENDBRANCH   1   2
BRANCH   1  33
ATOM     33  C   UNL A   1      42.985  20.217  26.096  1.00  0.00     0.275 C 
BRANCH  33  34
ATOM     34  C   UNL A   1      44.162  20.878  25.382  1.00  0.00     0.275 C 
BRANCH  34  35
ATOM     35  O   UNL A   1      44.034  22.311  25.404  1.00  0.00    -0.458 OA
BRANCH  35  36
ATOM     36  C   UNL A   1      44.748  22.936  26.364  1.00  0.00     0.338 C 
ATOM     37  O   UNL A   1      45.925  22.778  26.639  1.00  0.00    -0.246 OA
BRANCH  36  38
ATOM     38  C   UNL A   1      43.906  23.901  27.086  1.00  0.00     0.060 A 
ATOM     39  C   UNL A   1      43.811  25.209  26.617  1.00  0.00     0.016 A 
ATOM     40  C   UNL A   1      43.390  23.566  28.336  1.00  0.00     0.016 A 
ATOM     41  C   UNL A   1      43.322  26.215  27.439  1.00  0.00     0.010 A 
ATOM     42  C   UNL A   1      42.805  24.561  29.124  1.00  0.00     0.010 A 
ATOM     43  C   UNL A   1      42.817  25.905  28.705  1.00  0.00    -0.014 A 
BRANCH  43  44
ATOM     44  C   UNL A   1      42.383  26.984  29.627  1.00  0.00     0.031 A 
ATOM     45  C   UNL A   1      43.203  27.282  30.853  1.00  0.00     0.074 A 
ATOM     46  C   UNL A   1      41.283  27.716  29.367  1.00  0.00     0.049 A 
ATOM     47  N   UNL A   1      42.889  27.990  31.907  1.00  0.00    -0.248 NA
ATOM     48  C   UNL A   1      44.552  26.693  30.905  1.00  0.00     0.031 C 
ATOM     49  C   UNL A   1      40.449  27.610  28.169  1.00  0.00     0.029 A 
ATOM     50  N   UNL A   1      40.682  28.706  30.104  1.00  0.00    -0.354 N 
ATOM     51  C   UNL A   1      43.966  27.867  32.777  1.00  0.00     0.074 A 
ATOM     52  C   UNL A   1      44.951  27.035  32.121  1.00  0.00     0.031 C 
ATOM     53  C   UNL A   1      39.463  28.516  28.238  1.00  0.00     0.029 A 
ATOM     54  C   UNL A   1      39.539  29.198  29.525  1.00  0.00     0.049 A 
ATOM     55  H   UNL A   1      41.035  29.030  30.964  1.00  0.00     0.167 HD
ATOM     56  C   UNL A   1      44.110  28.391  34.017  1.00  0.00     0.031 A 
ATOM     57  C   UNL A   1      38.621  30.061  29.998  1.00  0.00     0.031 A 
ATOM     58  C   UNL A   1      43.148  29.260  34.639  1.00  0.00     0.049 A 
ATOM     59  C   UNL A   1      38.778  30.601  31.389  1.00  0.00     0.074 A 
ATOM     60  C   UNL A   1      43.185  29.832  35.899  1.00  0.00     0.029 A 
ATOM     61  N   UNL A   1      41.985  29.703  34.030  1.00  0.00    -0.354 N 
ATOM     62  N   UNL A   1      39.741  30.388  32.252  1.00  0.00    -0.248 NA
ATOM     63  C   UNL A   1      37.706  31.477  31.882  1.00  0.00     0.031 C 
ATOM     64  C   UNL A   1      42.028  30.602  36.060  1.00  0.00     0.029 A 
ATOM     65  C   UNL A   1      41.292  30.538  34.887  1.00  0.00     0.049 A 
ATOM     66  H   UNL A   1      41.694  29.459  33.121  1.00  0.00     0.167 HD
ATOM     67  C   UNL A   1      39.394  31.102  33.389  1.00  0.00     0.074 A 
ATOM     68  C   UNL A   1      38.142  31.771  33.099  1.00  0.00     0.031 C 
ATOM     69  C   UNL A   1      40.048  31.188  34.574  1.00  0.00     0.031 A 
BRANCH  56  70
ATOM     70  C   UNL A   1      45.324  27.982  34.802  1.00  0.00    -0.014 A 
ATOM     71  C   UNL A   1      46.496  28.753  34.802  1.00  0.00     0.009 A 
ATOM     72  C   UNL A   1      45.281  26.807  35.569  1.00  0.00     0.009 A 
ATOM     73  C   UNL A   1      47.612  28.334  35.532  1.00  0.00     0.001 A 
ATOM     74  C   UNL A   1      46.390  26.404  36.313  1.00  0.00     0.001 A 
ATOM     75  C   UNL A   1      47.558  27.163  36.288  1.00  0.00     0.000 A 
ENDBRANCH  56  70
BRANCH  57  76
ATOM     76  C   UNL A   1      37.436  30.402  29.171  1.00  0.00    -0.014 A 
ATOM     77  C   UNL A   1      37.171  31.732  28.817  1.00  0.00     0.009 A 
ATOM     78  C   UNL A   1      36.578  29.390  28.709  1.00  0.00     0.009 A 
ATOM     79  C   UNL A   1      36.065  32.042  28.022  1.00  0.00     0.001 A 
ATOM     80  C   UNL A   1      35.490  29.700  27.893  1.00  0.00     0.001 A 
ATOM     81  C   UNL A   1      35.231  31.028  27.555  1.00  0.00     0.000 A 
ENDBRANCH  57  76
BRANCH  69  82
ATOM     82  C   UNL A   1      39.428  32.055  35.627  1.00  0.00    -0.014 A 
ATOM     83  C   UNL A   1      39.746  33.419  35.717  1.00  0.00     0.009 A 
ATOM     84  C   UNL A   1      38.491  31.508  36.516  1.00  0.00     0.009 A 
ATOM     85  C   UNL A   1      39.150  34.215  36.696  1.00  0.00     0.001 A 
ATOM     86  C   UNL A   1      37.884  32.312  37.481  1.00  0.00     0.001 A 
ATOM     87  C   UNL A   1      38.218  33.662  37.574  1.00  0.00     0.000 A 
ENDBRANCH  69  82
ENDBRANCH  43  44
ENDBRANCH  36  38
ENDBRANCH  35  36
ENDBRANCH  34  35
ENDBRANCH  33  34
ENDBRANCH   1  33
TORSDOF 17
ENDMDL
