MODEL 1
REMARK VINA RESULT:     -10.0      0.000      0.000
REMARK SMILES C[C@@H]1CCC[C@](C#N)([C@H](O)C(=O)OCCOC(=O)c2ccc(-c3c4nc(c(-c5ccccc5)c5ccc([nH]5)c(-c5ccccc5)c5nc(c(-c6ccccc6)c6ccc3[nH]6)C=C5)C=C4)cc2)C1
REMARK SMILES IDX 14 1 13 2 11 3 12 4 9 5 6 6 1 7 2 8 3 9 67 10 4 11 5 12 7 13
REMARK SMILES IDX 8 14 10 15 15 17 16 18 17 19 18 20 19 21 20 22 66 23 21 24
REMARK SMILES IDX 65 25 22 26 23 27 24 28 59 29 25 30 64 31 58 32 60 33 26 34
REMARK SMILES IDX 63 35 57 36 56 37 27 39 49 40 34 41 48 42 35 43 38 44 47 45
REMARK SMILES IDX 61 46 36 47 37 48 46 50 62 51 39 52 28 53 29 54 33 55 30 56
REMARK SMILES IDX 32 57 31 58 50 59 51 60 55 61 52 62 54 63 53 64 40 65 41 66
REMARK SMILES IDX 45 67 42 68 44 69 43 70
REMARK H PARENT 10 16 60 38 38 49
REMARK Flexibility Score: inf
ROOT
ATOM      1  C   UNL A   1      35.538  20.688  25.017  1.00  0.00     0.274 C 
ENDROOT
BRANCH   1   2
ATOM      2  O   UNL A   1      35.105  21.768  25.865  1.00  0.00    -0.460 OA
BRANCH   2   3
ATOM      3  C   UNL A   1      33.918  21.596  26.509  1.00  0.00     0.336 C 
ATOM      4  O   UNL A   1      33.791  21.414  27.711  1.00  0.00    -0.249 OA
BRANCH   3   5
ATOM      5  C   UNL A   1      32.733  21.751  25.534  1.00  0.00     0.244 C 
BRANCH   5   6
ATOM      6  C   UNL A   1      32.068  23.151  25.556  1.00  0.00     0.094 C 
ATOM      7  C   UNL A   1      33.024  23.082  22.258  1.00  0.00     0.008 C 
ATOM      8  C   UNL A   1      32.319  24.139  23.113  1.00  0.00    -0.013 C 
ATOM      9  C   UNL A   1      33.292  25.183  23.669  1.00  0.00     0.003 C 
ATOM     10  C   UNL A   1      31.409  23.561  24.214  1.00  0.00     0.029 C 
ATOM     11  C   UNL A   1      34.048  24.709  24.904  1.00  0.00     0.002 C 
ATOM     12  C   UNL A   1      33.094  24.235  25.997  1.00  0.00     0.026 C 
BRANCH   6  13
ATOM     13  C   UNL A   1      31.003  23.118  26.603  1.00  0.00     0.072 C 
ATOM     14  N   UNL A   1      30.187  23.080  27.418  1.00  0.00    -0.198 NA
ENDBRANCH   6  13
ENDBRANCH   5   6
BRANCH   5  15
ATOM     15  O   UNL A   1      31.772  20.705  25.643  1.00  0.00    -0.380 OA
ATOM     16  H   UNL A   1      31.455  20.462  24.758  1.00  0.00     0.211 HD
ENDBRANCH   5  15
ENDBRANCH   3   5
ENDBRANCH   2   3
ENDBRANCH   1   2
BRANCH   1  17
ATOM     17  C   UNL A   1      37.067  20.620  24.922  1.00  0.00     0.275 C 
BRANCH  17  18
ATOM     18  O   UNL A   1      37.716  21.732  25.574  1.00  0.00    -0.458 OA
BRANCH  18  19
ATOM     19  C   UNL A   1      38.939  21.445  26.080  1.00  0.00     0.338 C 
ATOM     20  O   UNL A   1      39.564  20.406  25.926  1.00  0.00    -0.246 OA
BRANCH  19  21
ATOM     21  C   UNL A   1      39.563  22.645  26.663  1.00  0.00     0.060 A 
ATOM     22  C   UNL A   1      39.079  23.872  26.208  1.00  0.00     0.016 A 
ATOM     23  C   UNL A   1      40.642  22.604  27.547  1.00  0.00     0.016 A 
ATOM     24  C   UNL A   1      39.652  25.062  26.620  1.00  0.00     0.010 A 
ATOM     25  C   UNL A   1      41.228  23.810  27.965  1.00  0.00     0.010 A 
ATOM     26  C   UNL A   1      40.740  25.044  27.495  1.00  0.00    -0.014 A 
BRANCH  26  27
ATOM     27  C   UNL A   1      41.379  26.341  27.820  1.00  0.00     0.031 A 
ATOM     28  C   UNL A   1      42.688  26.709  27.186  1.00  0.00     0.074 A 
ATOM     29  C   UNL A   1      40.723  27.231  28.587  1.00  0.00     0.049 A 
ATOM     30  N   UNL A   1      43.392  27.804  27.319  1.00  0.00    -0.248 NA
ATOM     31  C   UNL A   1      43.283  25.716  26.278  1.00  0.00     0.031 C 
ATOM     32  C   UNL A   1      39.409  27.015  29.197  1.00  0.00     0.029 A 
ATOM     33  N   UNL A   1      41.062  28.505  28.963  1.00  0.00    -0.354 N 
ATOM     34  C   UNL A   1      44.527  27.620  26.540  1.00  0.00     0.074 A 
ATOM     35  C   UNL A   1      44.424  26.303  25.949  1.00  0.00     0.031 C 
ATOM     36  C   UNL A   1      39.046  28.126  29.856  1.00  0.00     0.029 A 
ATOM     37  C   UNL A   1      40.120  29.109  29.759  1.00  0.00     0.049 A 
ATOM     38  H   UNL A   1      41.899  28.944  28.690  1.00  0.00     0.167 HD
ATOM     39  C   UNL A   1      45.562  28.470  26.341  1.00  0.00     0.031 A 
ATOM     40  C   UNL A   1      40.132  30.311  30.364  1.00  0.00     0.031 A 
ATOM     41  C   UNL A   1      45.655  29.783  26.927  1.00  0.00     0.049 A 
ATOM     42  C   UNL A   1      41.315  31.215  30.167  1.00  0.00     0.074 A 
ATOM     43  C   UNL A   1      46.659  30.724  26.780  1.00  0.00     0.029 A 
ATOM     44  N   UNL A   1      44.708  30.339  27.774  1.00  0.00    -0.354 N 
ATOM     45  N   UNL A   1      42.389  31.025  29.439  1.00  0.00    -0.248 NA
ATOM     46  C   UNL A   1      41.284  32.504  30.872  1.00  0.00     0.031 C 
ATOM     47  C   UNL A   1      46.347  31.826  27.585  1.00  0.00     0.029 A 
ATOM     48  C   UNL A   1      45.117  31.598  28.181  1.00  0.00     0.049 A 
ATOM     49  H   UNL A   1      43.868  29.902  28.046  1.00  0.00     0.167 HD
ATOM     50  C   UNL A   1      43.154  32.175  29.585  1.00  0.00     0.074 A 
ATOM     51  C   UNL A   1      42.407  33.066  30.448  1.00  0.00     0.031 C 
ATOM     52  C   UNL A   1      44.369  32.466  29.056  1.00  0.00     0.031 A 
BRANCH  39  53
ATOM     53  C   UNL A   1      46.707  27.975  25.501  1.00  0.00    -0.014 A 
ATOM     54  C   UNL A   1      47.827  27.348  26.071  1.00  0.00     0.009 A 
ATOM     55  C   UNL A   1      46.656  28.135  24.108  1.00  0.00     0.009 A 
ATOM     56  C   UNL A   1      48.890  26.932  25.264  1.00  0.00     0.001 A 
ATOM     57  C   UNL A   1      47.706  27.690  23.301  1.00  0.00     0.001 A 
ATOM     58  C   UNL A   1      48.827  27.099  23.881  1.00  0.00     0.000 A 
ENDBRANCH  39  53
BRANCH  40  59
ATOM     59  C   UNL A   1      39.002  30.708  31.246  1.00  0.00    -0.014 A 
ATOM     60  C   UNL A   1      37.904  31.417  30.740  1.00  0.00     0.009 A 
ATOM     61  C   UNL A   1      39.024  30.373  32.610  1.00  0.00     0.009 A 
ATOM     62  C   UNL A   1      36.860  31.802  31.587  1.00  0.00     0.001 A 
ATOM     63  C   UNL A   1      37.965  30.730  33.447  1.00  0.00     0.001 A 
ATOM     64  C   UNL A   1      36.889  31.452  32.938  1.00  0.00     0.000 A 
ENDBRANCH  40  59
BRANCH  52  65
ATOM     65  C   UNL A   1      44.943  33.817  29.380  1.00  0.00    -0.014 A 
ATOM     66  C   UNL A   1      44.671  34.940  28.581  1.00  0.00     0.009 A 
ATOM     67  C   UNL A   1      45.769  33.970  30.505  1.00  0.00     0.009 A 
ATOM     68  C   UNL A   1      45.254  36.174  28.874  1.00  0.00     0.001 A 
ATOM     69  C   UNL A   1      46.323  35.212  30.815  1.00  0.00     0.001 A 
ATOM     70  C   UNL A   1      46.077  36.309  29.991  1.00  0.00     0.000 A 
ENDBRANCH  52  65
ENDBRANCH  26  27
ENDBRANCH  19  21
ENDBRANCH  18  19
ENDBRANCH  17  18
ENDBRANCH   1  17
TORSDOF 14
ENDMDL
MODEL 2
REMARK VINA RESULT:      -9.9      4.610      8.869
REMARK SMILES C[C@@H]1CCC[C@](C#N)([C@H](O)C(=O)OCCOC(=O)c2ccc(-c3c4nc(c(-c5ccccc5)c5ccc([nH]5)c(-c5ccccc5)c5nc(c(-c6ccccc6)c6ccc3[nH]6)C=C5)C=C4)cc2)C1
REMARK SMILES IDX 14 1 13 2 11 3 12 4 9 5 6 6 1 7 2 8 3 9 67 10 4 11 5 12 7 13
REMARK SMILES IDX 8 14 10 15 15 17 16 18 17 19 18 20 19 21 20 22 66 23 21 24
REMARK SMILES IDX 65 25 22 26 23 27 24 28 59 29 25 30 64 31 58 32 60 33 26 34
REMARK SMILES IDX 63 35 57 36 56 37 27 39 49 40 34 41 48 42 35 43 38 44 47 45
REMARK SMILES IDX 61 46 36 47 37 48 46 50 62 51 39 52 28 53 29 54 33 55 30 56
REMARK SMILES IDX 32 57 31 58 50 59 51 60 55 61 52 62 54 63 53 64 40 65 41 66
REMARK SMILES IDX 45 67 42 68 44 69 43 70
REMARK H PARENT 10 16 60 38 38 49
REMARK Flexibility Score: inf
ROOT
ATOM      1  C   UNL A   1      31.774  29.179  24.651  1.00  0.00     0.274 C 
ENDROOT
BRANCH   1   2
ATOM      2  O   UNL A   1      33.040  29.152  23.967  1.00  0.00    -0.460 OA
BRANCH   2   3
ATOM      3  C   UNL A   1      33.093  28.431  22.813  1.00  0.00     0.336 C 
ATOM      4  O   UNL A   1      34.008  28.464  22.004  1.00  0.00    -0.249 OA
BRANCH   3   5
ATOM      5  C   UNL A   1      31.877  27.488  22.697  1.00  0.00     0.244 C 
BRANCH   5   6
ATOM      6  C   UNL A   1      32.239  25.980  22.694  1.00  0.00     0.094 C 
ATOM      7  C   UNL A   1      29.970  25.966  25.272  1.00  0.00     0.008 C 
ATOM      8  C   UNL A   1      30.829  24.867  24.638  1.00  0.00    -0.013 C 
ATOM      9  C   UNL A   1      32.132  24.630  25.405  1.00  0.00     0.003 C 
ATOM     10  C   UNL A   1      31.077  25.049  23.128  1.00  0.00     0.029 C 
ATOM     11  C   UNL A   1      33.219  25.646  25.081  1.00  0.00     0.002 C 
ATOM     12  C   UNL A   1      33.490  25.717  23.581  1.00  0.00     0.026 C 
BRANCH   6  13
ATOM     13  C   UNL A   1      32.621  25.620  21.295  1.00  0.00     0.072 C 
ATOM     14  N   UNL A   1      32.903  25.332  20.214  1.00  0.00    -0.198 NA
ENDBRANCH   6  13
ENDBRANCH   5   6
BRANCH   5  15
ATOM     15  O   UNL A   1      31.000  27.826  21.626  1.00  0.00    -0.380 OA
ATOM     16  H   UNL A   1      30.157  28.144  21.986  1.00  0.00     0.211 HD
ENDBRANCH   5  15
ENDBRANCH   3   5
ENDBRANCH   2   3
ENDBRANCH   1   2
BRANCH   1  17
ATOM     17  C   UNL A   1      31.713  30.310  25.685  1.00  0.00     0.275 C 
BRANCH  17  18
ATOM     18  O   UNL A   1      32.666  30.140  26.754  1.00  0.00    -0.458 OA
BRANCH  18  19
ATOM     19  C   UNL A   1      33.268  31.286  27.151  1.00  0.00     0.338 C 
ATOM     20  O   UNL A   1      32.744  32.386  27.251  1.00  0.00    -0.246 OA
BRANCH  19  21
ATOM     21  C   UNL A   1      34.610  31.016  27.695  1.00  0.00     0.060 A 
ATOM     22  C   UNL A   1      34.893  29.684  28.000  1.00  0.00     0.016 A 
ATOM     23  C   UNL A   1      35.538  32.014  27.994  1.00  0.00     0.016 A 
ATOM     24  C   UNL A   1      36.088  29.328  28.599  1.00  0.00     0.010 A 
ATOM     25  C   UNL A   1      36.752  31.656  28.605  1.00  0.00     0.010 A 
ATOM     26  C   UNL A   1      37.027  30.311  28.918  1.00  0.00    -0.014 A 
BRANCH  26  27
ATOM     27  C   UNL A   1      38.242  29.886  29.651  1.00  0.00     0.031 A 
ATOM     28  C   UNL A   1      38.410  30.254  31.096  1.00  0.00     0.074 A 
ATOM     29  C   UNL A   1      39.128  29.071  29.051  1.00  0.00     0.049 A 
ATOM     30  N   UNL A   1      39.385  29.954  31.917  1.00  0.00    -0.248 NA
ATOM     31  C   UNL A   1      37.339  31.061  31.700  1.00  0.00     0.031 C 
ATOM     32  C   UNL A   1      39.032  28.585  27.673  1.00  0.00     0.029 A 
ATOM     33  N   UNL A   1      40.273  28.489  29.532  1.00  0.00    -0.354 N 
ATOM     34  C   UNL A   1      39.062  30.563  33.123  1.00  0.00     0.074 A 
ATOM     35  C   UNL A   1      37.808  31.259  32.922  1.00  0.00     0.031 C 
ATOM     36  C   UNL A   1      40.063  27.763  27.426  1.00  0.00     0.029 A 
ATOM     37  C   UNL A   1      40.919  27.707  28.608  1.00  0.00     0.049 A 
ATOM     38  H   UNL A   1      40.599  28.619  30.451  1.00  0.00     0.167 HD
ATOM     39  C   UNL A   1      39.750  30.545  34.288  1.00  0.00     0.031 A 
ATOM     40  C   UNL A   1      42.085  27.040  28.693  1.00  0.00     0.031 A 
ATOM     41  C   UNL A   1      40.994  29.845  34.483  1.00  0.00     0.049 A 
ATOM     42  C   UNL A   1      42.855  27.078  29.982  1.00  0.00     0.074 A 
ATOM     43  C   UNL A   1      41.765  29.760  35.630  1.00  0.00     0.029 A 
ATOM     44  N   UNL A   1      41.648  29.110  33.506  1.00  0.00    -0.354 N 
ATOM     45  N   UNL A   1      42.546  27.668  31.112  1.00  0.00    -0.248 NA
ATOM     46  C   UNL A   1      44.132  26.353  30.008  1.00  0.00     0.031 C 
ATOM     47  C   UNL A   1      42.916  29.021  35.328  1.00  0.00     0.029 A 
ATOM     48  C   UNL A   1      42.828  28.592  34.014  1.00  0.00     0.049 A 
ATOM     49  H   UNL A   1      41.321  28.977  32.587  1.00  0.00     0.167 HD
ATOM     50  C   UNL A   1      43.582  27.372  31.989  1.00  0.00     0.074 A 
ATOM     51  C   UNL A   1      44.512  26.528  31.266  1.00  0.00     0.031 C 
ATOM     52  C   UNL A   1      43.752  27.767  33.275  1.00  0.00     0.031 A 
BRANCH  39  53
ATOM     53  C   UNL A   1      39.201  31.364  35.424  1.00  0.00    -0.014 A 
ATOM     54  C   UNL A   1      38.298  30.828  36.355  1.00  0.00     0.009 A 
ATOM     55  C   UNL A   1      39.604  32.701  35.565  1.00  0.00     0.009 A 
ATOM     56  C   UNL A   1      37.778  31.628  37.378  1.00  0.00     0.001 A 
ATOM     57  C   UNL A   1      39.108  33.489  36.605  1.00  0.00     0.001 A 
ATOM     58  C   UNL A   1      38.187  32.955  37.504  1.00  0.00     0.000 A 
ENDBRANCH  39  53
BRANCH  40  59
ATOM     59  C   UNL A   1      42.612  26.315  27.506  1.00  0.00    -0.014 A 
ATOM     60  C   UNL A   1      43.426  26.962  26.566  1.00  0.00     0.009 A 
ATOM     61  C   UNL A   1      42.298  24.960  27.312  1.00  0.00     0.009 A 
ATOM     62  C   UNL A   1      43.896  26.273  25.444  1.00  0.00     0.001 A 
ATOM     63  C   UNL A   1      42.796  24.265  26.209  1.00  0.00     0.001 A 
ATOM     64  C   UNL A   1      43.585  24.924  25.270  1.00  0.00     0.000 A 
ENDBRANCH  40  59
BRANCH  52  65
ATOM     65  C   UNL A   1      44.979  27.262  33.983  1.00  0.00    -0.014 A 
ATOM     66  C   UNL A   1      44.952  26.080  34.740  1.00  0.00     0.009 A 
ATOM     67  C   UNL A   1      46.181  27.980  33.889  1.00  0.00     0.009 A 
ATOM     68  C   UNL A   1      46.090  25.655  35.428  1.00  0.00     0.001 A 
ATOM     69  C   UNL A   1      47.327  27.536  34.550  1.00  0.00     0.001 A 
ATOM     70  C   UNL A   1      47.276  26.383  35.331  1.00  0.00     0.000 A 
ENDBRANCH  52  65
ENDBRANCH  26  27
ENDBRANCH  19  21
ENDBRANCH  18  19
ENDBRANCH  17  18
ENDBRANCH   1  17
TORSDOF 14
ENDMDL
MODEL 3
REMARK VINA RESULT:      -9.7      4.626      6.833
REMARK SMILES C[C@@H]1CCC[C@](C#N)([C@H](O)C(=O)OCCOC(=O)c2ccc(-c3c4nc(c(-c5ccccc5)c5ccc([nH]5)c(-c5ccccc5)c5nc(c(-c6ccccc6)c6ccc3[nH]6)C=C5)C=C4)cc2)C1
REMARK SMILES IDX 14 1 13 2 11 3 12 4 9 5 6 6 1 7 2 8 3 9 67 10 4 11 5 12 7 13
REMARK SMILES IDX 8 14 10 15 15 17 16 18 17 19 18 20 19 21 20 22 66 23 21 24
REMARK SMILES IDX 65 25 22 26 23 27 24 28 59 29 25 30 64 31 58 32 60 33 26 34
REMARK SMILES IDX 63 35 57 36 56 37 27 39 49 40 34 41 48 42 35 43 38 44 47 45
REMARK SMILES IDX 61 46 36 47 37 48 46 50 62 51 39 52 28 53 29 54 33 55 30 56
REMARK SMILES IDX 32 57 31 58 50 59 51 60 55 61 52 62 54 63 53 64 40 65 41 66
REMARK SMILES IDX 45 67 42 68 44 69 43 70
REMARK H PARENT 10 16 60 38 38 49
REMARK Flexibility Score: inf
ROOT
ATOM      1  C   UNL A   1      31.787  29.239  24.660  1.00  0.00     0.274 C 
ENDROOT
BRANCH   1   2
ATOM      2  O   UNL A   1      33.043  29.260  23.956  1.00  0.00    -0.460 OA
BRANCH   2   3
ATOM      3  C   UNL A   1      33.114  28.515  22.819  1.00  0.00     0.336 C 
ATOM      4  O   UNL A   1      34.026  28.558  22.006  1.00  0.00    -0.249 OA
BRANCH   3   5
ATOM      5  C   UNL A   1      31.929  27.532  22.729  1.00  0.00     0.244 C 
BRANCH   5   6
ATOM      6  C   UNL A   1      32.339  26.037  22.735  1.00  0.00     0.094 C 
ATOM      7  C   UNL A   1      30.197  26.001  25.420  1.00  0.00     0.008 C 
ATOM      8  C   UNL A   1      31.060  24.918  24.765  1.00  0.00    -0.013 C 
ATOM      9  C   UNL A   1      32.406  24.737  25.472  1.00  0.00     0.003 C 
ATOM     10  C   UNL A   1      31.230  25.078  23.241  1.00  0.00     0.029 C 
ATOM     11  C   UNL A   1      33.442  25.780  25.078  1.00  0.00     0.002 C 
ATOM     12  C   UNL A   1      33.639  25.831  23.565  1.00  0.00     0.026 C 
BRANCH   6  13
ATOM     13  C   UNL A   1      32.666  25.661  21.326  1.00  0.00     0.072 C 
ATOM     14  N   UNL A   1      32.904  25.380  20.234  1.00  0.00    -0.198 NA
ENDBRANCH   6  13
ENDBRANCH   5   6
BRANCH   5  15
ATOM     15  O   UNL A   1      31.027  27.831  21.666  1.00  0.00    -0.380 OA
ATOM     16  H   UNL A   1      30.761  28.763  21.720  1.00  0.00     0.211 HD
ENDBRANCH   5  15
ENDBRANCH   3   5
ENDBRANCH   2   3
ENDBRANCH   1   2
BRANCH   1  17
ATOM     17  C   UNL A   1      31.703  30.363  25.701  1.00  0.00     0.275 C 
BRANCH  17  18
ATOM     18  O   UNL A   1      32.644  30.194  26.781  1.00  0.00    -0.458 OA
BRANCH  18  19
ATOM     19  C   UNL A   1      33.266  31.336  27.161  1.00  0.00     0.338 C 
ATOM     20  O   UNL A   1      32.778  32.456  27.186  1.00  0.00    -0.246 OA
BRANCH  19  21
ATOM     21  C   UNL A   1      34.567  31.043  27.786  1.00  0.00     0.060 A 
ATOM     22  C   UNL A   1      34.744  29.743  28.259  1.00  0.00     0.016 A 
ATOM     23  C   UNL A   1      35.556  32.005  28.000  1.00  0.00     0.016 A 
ATOM     24  C   UNL A   1      35.892  29.382  28.942  1.00  0.00     0.010 A 
ATOM     25  C   UNL A   1      36.721  31.643  28.697  1.00  0.00     0.010 A 
ATOM     26  C   UNL A   1      36.888  30.331  29.179  1.00  0.00    -0.014 A 
BRANCH  26  27
ATOM     27  C   UNL A   1      38.046  29.917  30.005  1.00  0.00     0.031 A 
ATOM     28  C   UNL A   1      39.127  29.067  29.404  1.00  0.00     0.074 A 
ATOM     29  C   UNL A   1      38.181  30.405  31.251  1.00  0.00     0.049 A 
ATOM     30  N   UNL A   1      40.230  28.624  29.952  1.00  0.00    -0.248 NA
ATOM     31  C   UNL A   1      38.945  28.664  28.001  1.00  0.00     0.031 C 
ATOM     32  C   UNL A   1      37.233  31.302  31.916  1.00  0.00     0.029 A 
ATOM     33  N   UNL A   1      39.183  30.236  32.172  1.00  0.00    -0.354 N 
ATOM     34  C   UNL A   1      40.858  27.865  28.973  1.00  0.00     0.074 A 
ATOM     35  C   UNL A   1      40.007  27.896  27.803  1.00  0.00     0.031 C 
ATOM     36  C   UNL A   1      37.708  31.618  33.130  1.00  0.00     0.029 A 
ATOM     37  C   UNL A   1      38.964  30.907  33.349  1.00  0.00     0.049 A 
ATOM     38  H   UNL A   1      39.982  29.686  32.006  1.00  0.00     0.167 HD
ATOM     39  C   UNL A   1      42.035  27.200  29.046  1.00  0.00     0.031 A 
ATOM     40  C   UNL A   1      39.681  30.928  34.488  1.00  0.00     0.031 A 
ATOM     41  C   UNL A   1      42.882  27.179  30.211  1.00  0.00     0.049 A 
ATOM     42  C   UNL A   1      40.958  30.140  34.559  1.00  0.00     0.074 A 
ATOM     43  C   UNL A   1      44.099  26.541  30.382  1.00  0.00     0.029 A 
ATOM     44  N   UNL A   1      42.599  27.825  31.405  1.00  0.00    -0.354 N 
ATOM     45  N   UNL A   1      41.536  29.415  33.632  1.00  0.00    -0.248 NA
ATOM     46  C   UNL A   1      41.685  30.179  35.835  1.00  0.00     0.031 C 
ATOM     47  C   UNL A   1      44.523  26.753  31.699  1.00  0.00     0.029 A 
ATOM     48  C   UNL A   1      43.603  27.577  32.327  1.00  0.00     0.049 A 
ATOM     49  H   UNL A   1      41.801  28.377  31.572  1.00  0.00     0.167 HD
ATOM     50  C   UNL A   1      42.701  28.925  34.206  1.00  0.00     0.074 A 
ATOM     51  C   UNL A   1      42.760  29.458  35.551  1.00  0.00     0.031 C 
ATOM     52  C   UNL A   1      43.637  28.103  33.669  1.00  0.00     0.031 A 
BRANCH  39  53
ATOM     53  C   UNL A   1      42.441  26.387  27.848  1.00  0.00    -0.014 A 
ATOM     54  C   UNL A   1      42.075  25.039  27.708  1.00  0.00     0.009 A 
ATOM     55  C   UNL A   1      43.201  26.990  26.833  1.00  0.00     0.009 A 
ATOM     56  C   UNL A   1      42.499  24.302  26.598  1.00  0.00     0.001 A 
ATOM     57  C   UNL A   1      43.597  26.261  25.711  1.00  0.00     0.001 A 
ATOM     58  C   UNL A   1      43.256  24.914  25.599  1.00  0.00     0.000 A 
ENDBRANCH  39  53
BRANCH  40  59
ATOM     59  C   UNL A   1      39.182  31.689  35.664  1.00  0.00    -0.014 A 
ATOM     60  C   UNL A   1      38.252  31.125  36.549  1.00  0.00     0.009 A 
ATOM     61  C   UNL A   1      39.642  32.994  35.905  1.00  0.00     0.009 A 
ATOM     62  C   UNL A   1      37.776  31.861  37.638  1.00  0.00     0.001 A 
ATOM     63  C   UNL A   1      39.190  33.714  37.011  1.00  0.00     0.001 A 
ATOM     64  C   UNL A   1      38.250  33.152  37.871  1.00  0.00     0.000 A 
ENDBRANCH  40  59
BRANCH  52  65
ATOM     65  C   UNL A   1      44.815  27.758  34.539  1.00  0.00    -0.014 A 
ATOM     66  C   UNL A   1      45.971  28.557  34.555  1.00  0.00     0.009 A 
ATOM     67  C   UNL A   1      44.767  26.618  35.355  1.00  0.00     0.009 A 
ATOM     68  C   UNL A   1      47.071  28.192  35.333  1.00  0.00     0.001 A 
ATOM     69  C   UNL A   1      45.855  26.274  36.158  1.00  0.00     0.001 A 
ATOM     70  C   UNL A   1      47.011  27.052  36.135  1.00  0.00     0.000 A 
ENDBRANCH  52  65
ENDBRANCH  26  27
ENDBRANCH  19  21
ENDBRANCH  18  19
ENDBRANCH  17  18
ENDBRANCH   1  17
TORSDOF 14
ENDMDL
