MODEL 1
REMARK VINA RESULT:     -10.7      0.000      0.000
REMARK SMILES O=C(OCCOC(=O)[C@@H]1CC[C@@H](CN2C(=O)CC3(CCCC3)CC2=O)O1)c1ccc(-c2c3nc(c(-c4ccccc4)c4ccc([nH]4)c(-c4ccccc4)c4nc(c(-c5ccccc5)c5ccc2[nH]5)C=C4)C=C3)cc1
REMARK SMILES IDX 4 1 3 2 2 3 1 4 27 5 28 6 74 7 29 8 73 9 30 10 31 11 32 12
REMARK SMILES IDX 67 13 33 14 72 15 66 16 68 17 34 18 71 19 65 20 64 21 35 23
REMARK SMILES IDX 57 24 42 25 56 26 43 27 46 28 55 29 69 30 44 31 45 32 54 34
REMARK SMILES IDX 70 35 47 36 36 37 37 38 41 39 38 40 40 41 39 42 58 43 59 44
REMARK SMILES IDX 63 45 60 46 62 47 61 48 48 49 49 50 53 51 50 52 52 53 51 54
REMARK SMILES IDX 5 55 6 56 7 57 8 58 9 59 10 60 26 61 11 62 12 63 13 64 14 65
REMARK SMILES IDX 15 66 24 67 16 68 17 69 23 70 25 71 18 72 19 73 22 74 20 75
REMARK SMILES IDX 21 76
REMARK H PARENT 68 22 46 33
REMARK Flexibility Score: inf
ROOT
ATOM      1  C   UNL A   1      36.478  22.730  24.714  1.00  0.00     0.275 C 
ENDROOT
BRANCH   1   2
ATOM      2  O   UNL A   1      37.187  23.278  25.834  1.00  0.00    -0.458 OA
BRANCH   2   3
ATOM      3  C   UNL A   1      38.499  23.247  26.152  1.00  0.00     0.338 C 
ATOM      4  O   UNL A   1      39.104  22.181  26.033  1.00  0.00    -0.246 OA
BRANCH   3   5
ATOM      5  C   UNL A   1      39.242  24.387  26.787  1.00  0.00     0.060 A 
ATOM      6  C   UNL A   1      40.076  25.309  26.148  1.00  0.00     0.016 A 
ATOM      7  C   UNL A   1      38.964  24.606  28.149  1.00  0.00     0.016 A 
ATOM      8  C   UNL A   1      40.499  26.479  26.796  1.00  0.00     0.010 A 
ATOM      9  C   UNL A   1      39.342  25.797  28.783  1.00  0.00     0.010 A 
ATOM     10  C   UNL A   1      40.096  26.761  28.102  1.00  0.00    -0.014 A 
BRANCH  10  11
ATOM     11  C   UNL A   1      40.580  27.985  28.791  1.00  0.00     0.031 A 
ATOM     12  C   UNL A   1      39.647  29.162  28.855  1.00  0.00     0.074 A 
ATOM     13  C   UNL A   1      41.790  28.039  29.392  1.00  0.00     0.049 A 
ATOM     14  N   UNL A   1      39.792  30.298  29.485  1.00  0.00    -0.248 NA
ATOM     15  C   UNL A   1      38.373  29.042  28.121  1.00  0.00     0.031 C 
ATOM     16  C   UNL A   1      42.791  26.967  29.425  1.00  0.00     0.029 A 
ATOM     17  N   UNL A   1      42.381  29.048  30.116  1.00  0.00    -0.354 N 
ATOM     18  C   UNL A   1      38.611  30.993  29.259  1.00  0.00     0.074 A 
ATOM     19  C   UNL A   1      37.825  30.224  28.328  1.00  0.00     0.031 C 
ATOM     20  C   UNL A   1      43.863  27.376  30.131  1.00  0.00     0.029 A 
ATOM     21  C   UNL A   1      43.630  28.733  30.607  1.00  0.00     0.049 A 
ATOM     22  H   UNL A   1      41.951  29.920  30.268  1.00  0.00     0.167 HD
ATOM     23  C   UNL A   1      38.168  32.129  29.841  1.00  0.00     0.031 A 
ATOM     24  C   UNL A   1      44.470  29.456  31.374  1.00  0.00     0.031 A 
ATOM     25  C   UNL A   1      38.944  32.913  30.751  1.00  0.00     0.049 A 
ATOM     26  C   UNL A   1      44.019  30.802  31.874  1.00  0.00     0.074 A 
ATOM     27  C   UNL A   1      38.602  34.089  31.390  1.00  0.00     0.029 A 
ATOM     28  N   UNL A   1      40.235  32.594  31.142  1.00  0.00    -0.354 N 
ATOM     29  N   UNL A   1      42.875  31.414  31.689  1.00  0.00    -0.248 NA
ATOM     30  C   UNL A   1      44.968  31.533  32.725  1.00  0.00     0.031 C 
ATOM     31  C   UNL A   1      39.710  34.511  32.133  1.00  0.00     0.029 A 
ATOM     32  C   UNL A   1      40.716  33.565  32.000  1.00  0.00     0.049 A 
ATOM     33  H   UNL A   1      40.734  31.797  30.853  1.00  0.00     0.167 HD
ATOM     34  C   UNL A   1      42.949  32.579  32.441  1.00  0.00     0.074 A 
ATOM     35  C   UNL A   1      44.249  32.586  33.081  1.00  0.00     0.031 C 
ATOM     36  C   UNL A   1      42.019  33.549  32.608  1.00  0.00     0.031 A 
BRANCH  23  37
ATOM     37  C   UNL A   1      36.765  32.541  29.503  1.00  0.00    -0.014 A 
ATOM     38  C   UNL A   1      36.509  33.318  28.357  1.00  0.00     0.009 A 
ATOM     39  C   UNL A   1      35.706  32.219  30.359  1.00  0.00     0.009 A 
ATOM     40  C   UNL A   1      35.228  33.809  28.108  1.00  0.00     0.001 A 
ATOM     41  C   UNL A   1      34.418  32.687  30.089  1.00  0.00     0.001 A 
ATOM     42  C   UNL A   1      34.184  33.492  28.974  1.00  0.00     0.000 A 
ENDBRANCH  23  37
BRANCH  24  43
ATOM     43  C   UNL A   1      45.823  28.972  31.762  1.00  0.00    -0.014 A 
ATOM     44  C   UNL A   1      46.927  29.146  30.912  1.00  0.00     0.009 A 
ATOM     45  C   UNL A   1      45.970  28.165  32.898  1.00  0.00     0.009 A 
ATOM     46  C   UNL A   1      48.143  28.506  31.185  1.00  0.00     0.001 A 
ATOM     47  C   UNL A   1      47.186  27.529  33.167  1.00  0.00     0.001 A 
ATOM     48  C   UNL A   1      48.272  27.699  32.313  1.00  0.00     0.000 A 
ENDBRANCH  24  43
BRANCH  36  49
ATOM     49  C   UNL A   1      42.364  34.666  33.548  1.00  0.00    -0.014 A 
ATOM     50  C   UNL A   1      42.141  34.555  34.928  1.00  0.00     0.009 A 
ATOM     51  C   UNL A   1      42.946  35.837  33.038  1.00  0.00     0.009 A 
ATOM     52  C   UNL A   1      42.463  35.615  35.778  1.00  0.00     0.001 A 
ATOM     53  C   UNL A   1      43.299  36.879  33.894  1.00  0.00     0.001 A 
ATOM     54  C   UNL A   1      43.047  36.772  35.260  1.00  0.00     0.000 A 
ENDBRANCH  36  49
ENDBRANCH  10  11
ENDBRANCH   3   5
ENDBRANCH   2   3
ENDBRANCH   1   2
BRANCH   1  55
ATOM     55  C   UNL A   1      35.767  21.396  24.971  1.00  0.00     0.274 C 
BRANCH  55  56
ATOM     56  O   UNL A   1      34.661  21.463  25.885  1.00  0.00    -0.460 OA
BRANCH  56  57
ATOM     57  C   UNL A   1      33.518  20.824  25.477  1.00  0.00     0.335 C 
ATOM     58  O   UNL A   1      33.339  19.614  25.589  1.00  0.00    -0.249 OA
BRANCH  57  59
ATOM     59  C   UNL A   1      32.551  21.794  24.763  1.00  0.00     0.228 C 
ATOM     60  C   UNL A   1      32.579  21.711  23.256  1.00  0.00     0.047 C 
ATOM     61  O   UNL A   1      32.729  23.166  25.109  1.00  0.00    -0.361 OA
ATOM     62  C   UNL A   1      32.743  23.111  22.727  1.00  0.00     0.037 C 
ATOM     63  C   UNL A   1      32.745  24.010  23.948  1.00  0.00     0.139 C 
BRANCH  63  64
ATOM     64  C   UNL A   1      31.580  25.034  23.977  1.00  0.00     0.160 C 
BRANCH  64  65
ATOM     65  N   UNL A   1      31.950  26.213  24.760  1.00  0.00    -0.280 N 
ATOM     66  C   UNL A   1      31.408  26.387  26.024  1.00  0.00     0.229 C 
ATOM     67  C   UNL A   1      32.767  27.149  24.154  1.00  0.00     0.229 C 
ATOM     68  O   UNL A   1      30.432  25.757  26.432  1.00  0.00    -0.274 OA
ATOM     69  C   UNL A   1      32.153  27.312  26.963  1.00  0.00     0.108 C 
ATOM     70  C   UNL A   1      33.743  27.794  25.095  1.00  0.00     0.108 C 
ATOM     71  O   UNL A   1      32.780  27.395  22.952  1.00  0.00    -0.274 OA
ATOM     72  C   UNL A   1      33.042  28.372  26.306  1.00  0.00    -0.012 C 
ATOM     73  C   UNL A   1      34.103  28.855  27.324  1.00  0.00     0.008 C 
ATOM     74  C   UNL A   1      32.258  29.638  25.897  1.00  0.00     0.008 C 
ATOM     75  C   UNL A   1      34.102  30.367  27.207  1.00  0.00     0.001 C 
ATOM     76  C   UNL A   1      32.651  30.690  26.919  1.00  0.00     0.001 C 
ENDBRANCH  64  65
ENDBRANCH  63  64
ENDBRANCH  57  59
ENDBRANCH  56  57
ENDBRANCH  55  56
ENDBRANCH   1  55
TORSDOF 13
ENDMDL
MODEL 2
REMARK VINA RESULT:     -10.7      2.711      6.956
REMARK SMILES O=C(OCCOC(=O)[C@@H]1CC[C@@H](CN2C(=O)CC3(CCCC3)CC2=O)O1)c1ccc(-c2c3nc(c(-c4ccccc4)c4ccc([nH]4)c(-c4ccccc4)c4nc(c(-c5ccccc5)c5ccc2[nH]5)C=C4)C=C3)cc1
REMARK SMILES IDX 4 1 3 2 2 3 1 4 27 5 28 6 74 7 29 8 73 9 30 10 31 11 32 12
REMARK SMILES IDX 67 13 33 14 72 15 66 16 68 17 34 18 71 19 65 20 64 21 35 23
REMARK SMILES IDX 57 24 42 25 56 26 43 27 46 28 55 29 69 30 44 31 45 32 54 34
REMARK SMILES IDX 70 35 47 36 36 37 37 38 41 39 38 40 40 41 39 42 58 43 59 44
REMARK SMILES IDX 63 45 60 46 62 47 61 48 48 49 49 50 53 51 50 52 52 53 51 54
REMARK SMILES IDX 5 55 6 56 7 57 8 58 9 59 10 60 26 61 11 62 12 63 13 64 14 65
REMARK SMILES IDX 15 66 24 67 16 68 17 69 23 70 25 71 18 72 19 73 22 74 20 75
REMARK SMILES IDX 21 76
REMARK H PARENT 68 22 46 33
REMARK Flexibility Score: inf
ROOT
ATOM      1  C   UNL A   1      38.457  19.973  24.999  1.00  0.00     0.275 C 
ENDROOT
BRANCH   1   2
ATOM      2  O   UNL A   1      39.454  19.382  25.845  1.00  0.00    -0.458 OA
BRANCH   2   3
ATOM      3  C   UNL A   1      40.784  19.603  25.933  1.00  0.00     0.338 C 
ATOM      4  O   UNL A   1      41.547  18.655  25.751  1.00  0.00    -0.246 OA
BRANCH   3   5
ATOM      5  C   UNL A   1      41.395  20.897  26.388  1.00  0.00     0.060 A 
ATOM      6  C   UNL A   1      41.971  21.885  25.585  1.00  0.00     0.016 A 
ATOM      7  C   UNL A   1      41.261  21.179  27.761  1.00  0.00     0.016 A 
ATOM      8  C   UNL A   1      42.267  23.157  26.096  1.00  0.00     0.010 A 
ATOM      9  C   UNL A   1      41.508  22.464  28.263  1.00  0.00     0.010 A 
ATOM     10  C   UNL A   1      41.993  23.477  27.427  1.00  0.00    -0.014 A 
BRANCH  10  11
ATOM     11  C   UNL A   1      42.345  24.816  27.966  1.00  0.00     0.031 A 
ATOM     12  C   UNL A   1      43.805  25.138  28.129  1.00  0.00     0.074 A 
ATOM     13  C   UNL A   1      41.405  25.744  28.252  1.00  0.00     0.049 A 
ATOM     14  N   UNL A   1      44.369  26.265  28.478  1.00  0.00    -0.248 NA
ATOM     15  C   UNL A   1      44.761  24.049  27.853  1.00  0.00     0.031 C 
ATOM     16  C   UNL A   1      39.953  25.576  28.126  1.00  0.00     0.029 A 
ATOM     17  N   UNL A   1      41.537  27.037  28.701  1.00  0.00    -0.354 N 
ATOM     18  C   UNL A   1      45.734  26.025  28.410  1.00  0.00     0.074 A 
ATOM     19  C   UNL A   1      45.916  24.622  28.131  1.00  0.00     0.031 C 
ATOM     20  C   UNL A   1      39.336  26.719  28.483  1.00  0.00     0.029 A 
ATOM     21  C   UNL A   1      40.341  27.704  28.859  1.00  0.00     0.049 A 
ATOM     22  H   UNL A   1      42.409  27.451  28.892  1.00  0.00     0.167 HD
ATOM     23  C   UNL A   1      46.758  26.905  28.482  1.00  0.00     0.031 A 
ATOM     24  C   UNL A   1      40.098  28.973  29.242  1.00  0.00     0.031 A 
ATOM     25  C   UNL A   1      46.593  28.294  28.778  1.00  0.00     0.049 A 
ATOM     26  C   UNL A   1      41.263  29.894  29.485  1.00  0.00     0.074 A 
ATOM     27  C   UNL A   1      47.559  29.275  28.891  1.00  0.00     0.029 A 
ATOM     28  N   UNL A   1      45.368  28.896  29.020  1.00  0.00    -0.354 N 
ATOM     29  N   UNL A   1      42.546  29.656  29.363  1.00  0.00    -0.248 NA
ATOM     30  C   UNL A   1      40.935  31.272  29.876  1.00  0.00     0.031 C 
ATOM     31  C   UNL A   1      46.920  30.466  29.252  1.00  0.00     0.029 A 
ATOM     32  C   UNL A   1      45.554  30.235  29.304  1.00  0.00     0.049 A 
ATOM     33  H   UNL A   1      44.498  28.438  28.993  1.00  0.00     0.167 HD
ATOM     34  C   UNL A   1      43.176  30.868  29.615  1.00  0.00     0.074 A 
ATOM     35  C   UNL A   1      42.134  31.834  29.896  1.00  0.00     0.031 C 
ATOM     36  C   UNL A   1      44.497  31.166  29.595  1.00  0.00     0.031 A 
BRANCH  23  37
ATOM     37  C   UNL A   1      48.125  26.352  28.204  1.00  0.00    -0.014 A 
ATOM     38  C   UNL A   1      48.620  26.310  26.887  1.00  0.00     0.009 A 
ATOM     39  C   UNL A   1      48.894  25.808  29.240  1.00  0.00     0.009 A 
ATOM     40  C   UNL A   1      49.834  25.684  26.607  1.00  0.00     0.001 A 
ATOM     41  C   UNL A   1      50.123  25.209  28.960  1.00  0.00     0.001 A 
ATOM     42  C   UNL A   1      50.585  25.135  27.645  1.00  0.00     0.000 A 
ENDBRANCH  23  37
BRANCH  24  43
ATOM     43  C   UNL A   1      38.721  29.510  29.422  1.00  0.00    -0.014 A 
ATOM     44  C   UNL A   1      38.012  29.304  30.616  1.00  0.00     0.009 A 
ATOM     45  C   UNL A   1      38.045  30.061  28.326  1.00  0.00     0.009 A 
ATOM     46  C   UNL A   1      36.651  29.623  30.700  1.00  0.00     0.001 A 
ATOM     47  C   UNL A   1      36.685  30.379  28.414  1.00  0.00     0.001 A 
ATOM     48  C   UNL A   1      35.989  30.162  29.599  1.00  0.00     0.000 A 
ENDBRANCH  24  43
BRANCH  36  49
ATOM     49  C   UNL A   1      44.875  32.595  29.842  1.00  0.00    -0.014 A 
ATOM     50  C   UNL A   1      45.175  33.059  31.131  1.00  0.00     0.009 A 
ATOM     51  C   UNL A   1      44.955  33.482  28.758  1.00  0.00     0.009 A 
ATOM     52  C   UNL A   1      45.514  34.399  31.333  1.00  0.00     0.001 A 
ATOM     53  C   UNL A   1      45.328  34.810  28.958  1.00  0.00     0.001 A 
ATOM     54  C   UNL A   1      45.596  35.269  30.246  1.00  0.00     0.000 A 
ENDBRANCH  36  49
ENDBRANCH  10  11
ENDBRANCH   3   5
ENDBRANCH   2   3
ENDBRANCH   1   2
BRANCH   1  55
ATOM     55  C   UNL A   1      38.005  21.383  25.397  1.00  0.00     0.274 C 
BRANCH  55  56
ATOM     56  O   UNL A   1      36.613  21.660  25.175  1.00  0.00    -0.460 OA
BRANCH  56  57
ATOM     57  C   UNL A   1      36.339  22.502  24.127  1.00  0.00     0.335 C 
ATOM     58  O   UNL A   1      37.030  22.573  23.114  1.00  0.00    -0.249 OA
BRANCH  57  59
ATOM     59  C   UNL A   1      35.134  23.417  24.435  1.00  0.00     0.228 C 
ATOM     60  C   UNL A   1      34.917  23.696  25.903  1.00  0.00     0.047 C 
ATOM     61  O   UNL A   1      33.891  22.953  23.912  1.00  0.00    -0.361 OA
ATOM     62  C   UNL A   1      33.471  23.411  26.212  1.00  0.00     0.037 C 
ATOM     63  C   UNL A   1      32.841  23.024  24.888  1.00  0.00     0.139 C 
BRANCH  63  64
ATOM     64  C   UNL A   1      31.706  23.978  24.429  1.00  0.00     0.160 C 
BRANCH  64  65
ATOM     65  N   UNL A   1      31.914  25.322  24.968  1.00  0.00    -0.280 N 
ATOM     66  C   UNL A   1      31.199  25.725  26.083  1.00  0.00     0.229 C 
ATOM     67  C   UNL A   1      32.764  26.162  24.272  1.00  0.00     0.229 C 
ATOM     68  O   UNL A   1      30.205  25.129  26.500  1.00  0.00    -0.274 OA
ATOM     69  C   UNL A   1      31.767  26.883  26.875  1.00  0.00     0.108 C 
ATOM     70  C   UNL A   1      33.574  27.065  25.157  1.00  0.00     0.108 C 
ATOM     71  O   UNL A   1      32.929  26.142  23.056  1.00  0.00    -0.274 OA
ATOM     72  C   UNL A   1      32.690  27.839  26.113  1.00  0.00    -0.012 C 
ATOM     73  C   UNL A   1      33.580  28.607  27.118  1.00  0.00     0.008 C 
ATOM     74  C   UNL A   1      31.913  28.925  25.337  1.00  0.00     0.008 C 
ATOM     75  C   UNL A   1      33.528  30.053  26.666  1.00  0.00     0.001 C 
ATOM     76  C   UNL A   1      32.117  30.200  26.137  1.00  0.00     0.001 C 
ENDBRANCH  64  65
ENDBRANCH  63  64
ENDBRANCH  57  59
ENDBRANCH  56  57
ENDBRANCH  55  56
ENDBRANCH   1  55
TORSDOF 13
ENDMDL
MODEL 3
REMARK VINA RESULT:     -10.7      2.282      7.483
REMARK SMILES O=C(OCCOC(=O)[C@@H]1CC[C@@H](CN2C(=O)CC3(CCCC3)CC2=O)O1)c1ccc(-c2c3nc(c(-c4ccccc4)c4ccc([nH]4)c(-c4ccccc4)c4nc(c(-c5ccccc5)c5ccc2[nH]5)C=C4)C=C3)cc1
REMARK SMILES IDX 4 1 3 2 2 3 1 4 27 5 28 6 74 7 29 8 73 9 30 10 31 11 32 12
REMARK SMILES IDX 67 13 33 14 72 15 66 16 68 17 34 18 71 19 65 20 64 21 35 23
REMARK SMILES IDX 57 24 42 25 56 26 43 27 46 28 55 29 69 30 44 31 45 32 54 34
REMARK SMILES IDX 70 35 47 36 36 37 37 38 41 39 38 40 40 41 39 42 58 43 59 44
REMARK SMILES IDX 63 45 60 46 62 47 61 48 48 49 49 50 53 51 50 52 52 53 51 54
REMARK SMILES IDX 5 55 6 56 7 57 8 58 9 59 10 60 26 61 11 62 12 63 13 64 14 65
REMARK SMILES IDX 15 66 24 67 16 68 17 69 23 70 25 71 18 72 19 73 22 74 20 75
REMARK SMILES IDX 21 76
REMARK H PARENT 68 22 46 33
REMARK Flexibility Score: inf
ROOT
ATOM      1  C   UNL A   1      32.161  29.735  26.360  1.00  0.00     0.275 C 
ENDROOT
BRANCH   1   2
ATOM      2  O   UNL A   1      33.517  29.671  26.825  1.00  0.00    -0.458 OA
BRANCH   2   3
ATOM      3  C   UNL A   1      34.206  30.482  27.657  1.00  0.00     0.338 C 
ATOM      4  O   UNL A   1      33.739  31.593  27.908  1.00  0.00    -0.246 OA
BRANCH   3   5
ATOM      5  C   UNL A   1      35.581  30.183  28.181  1.00  0.00     0.060 A 
ATOM      6  C   UNL A   1      35.913  29.707  29.452  1.00  0.00     0.016 A 
ATOM      7  C   UNL A   1      36.622  30.288  27.239  1.00  0.00     0.016 A 
ATOM      8  C   UNL A   1      37.198  29.218  29.733  1.00  0.00     0.010 A 
ATOM      9  C   UNL A   1      37.891  29.754  27.501  1.00  0.00     0.010 A 
ATOM     10  C   UNL A   1      38.185  29.190  28.748  1.00  0.00    -0.014 A 
BRANCH  10  11
ATOM     11  C   UNL A   1      39.552  28.704  29.068  1.00  0.00     0.031 A 
ATOM     12  C   UNL A   1      40.428  29.593  29.907  1.00  0.00     0.074 A 
ATOM     13  C   UNL A   1      39.991  27.486  28.677  1.00  0.00     0.049 A 
ATOM     14  N   UNL A   1      41.613  29.354  30.406  1.00  0.00    -0.248 NA
ATOM     15  C   UNL A   1      39.897  30.929  30.238  1.00  0.00     0.031 C 
ATOM     16  C   UNL A   1      39.243  26.511  27.876  1.00  0.00     0.029 A 
ATOM     17  N   UNL A   1      41.185  26.848  28.921  1.00  0.00    -0.354 N 
ATOM     18  C   UNL A   1      41.933  30.486  31.143  1.00  0.00     0.074 A 
ATOM     19  C   UNL A   1      40.896  31.461  30.915  1.00  0.00     0.031 C 
ATOM     20  C   UNL A   1      39.993  25.406  27.700  1.00  0.00     0.029 A 
ATOM     21  C   UNL A   1      41.270  25.585  28.376  1.00  0.00     0.049 A 
ATOM     22  H   UNL A   1      41.915  27.259  29.438  1.00  0.00     0.167 HD
ATOM     23  C   UNL A   1      42.951  30.676  32.011  1.00  0.00     0.031 A 
ATOM     24  C   UNL A   1      42.263  24.676  28.443  1.00  0.00     0.031 A 
ATOM     25  C   UNL A   1      43.996  29.726  32.233  1.00  0.00     0.049 A 
ATOM     26  C   UNL A   1      43.472  24.982  29.284  1.00  0.00     0.074 A 
ATOM     27  C   UNL A   1      45.086  29.819  33.077  1.00  0.00     0.029 A 
ATOM     28  N   UNL A   1      44.082  28.502  31.586  1.00  0.00    -0.354 N 
ATOM     29  N   UNL A   1      43.727  26.039  30.015  1.00  0.00    -0.248 NA
ATOM     30  C   UNL A   1      44.510  23.942  29.338  1.00  0.00     0.031 C 
ATOM     31  C   UNL A   1      45.861  28.667  32.904  1.00  0.00     0.029 A 
ATOM     32  C   UNL A   1      45.220  27.836  31.997  1.00  0.00     0.049 A 
ATOM     33  H   UNL A   1      43.429  28.160  30.934  1.00  0.00     0.167 HD
ATOM     34  C   UNL A   1      44.930  25.771  30.654  1.00  0.00     0.074 A 
ATOM     35  C   UNL A   1      45.352  24.453  30.223  1.00  0.00     0.031 C 
ATOM     36  C   UNL A   1      45.619  26.533  31.537  1.00  0.00     0.031 A 
BRANCH  23  37
ATOM     37  C   UNL A   1      42.929  31.962  32.784  1.00  0.00    -0.014 A 
ATOM     38  C   UNL A   1      42.164  32.071  33.961  1.00  0.00     0.009 A 
ATOM     39  C   UNL A   1      43.610  33.088  32.306  1.00  0.00     0.009 A 
ATOM     40  C   UNL A   1      42.039  33.298  34.612  1.00  0.00     0.001 A 
ATOM     41  C   UNL A   1      43.507  34.308  32.977  1.00  0.00     0.001 A 
ATOM     42  C   UNL A   1      42.712  34.415  34.119  1.00  0.00     0.000 A 
ENDBRANCH  23  37
BRANCH  24  43
ATOM     43  C   UNL A   1      42.207  23.369  27.731  1.00  0.00    -0.014 A 
ATOM     44  C   UNL A   1      42.602  23.258  26.388  1.00  0.00     0.009 A 
ATOM     45  C   UNL A   1      41.575  22.277  28.339  1.00  0.00     0.009 A 
ATOM     46  C   UNL A   1      42.349  22.084  25.667  1.00  0.00     0.001 A 
ATOM     47  C   UNL A   1      41.325  21.106  27.615  1.00  0.00     0.001 A 
ATOM     48  C   UNL A   1      41.711  21.008  26.281  1.00  0.00     0.000 A 
ENDBRANCH  24  43
BRANCH  36  49
ATOM     49  C   UNL A   1      46.867  25.939  32.119  1.00  0.00    -0.014 A 
ATOM     50  C   UNL A   1      48.110  26.088  31.487  1.00  0.00     0.009 A 
ATOM     51  C   UNL A   1      46.793  25.243  33.335  1.00  0.00     0.009 A 
ATOM     52  C   UNL A   1      49.253  25.515  32.046  1.00  0.00     0.001 A 
ATOM     53  C   UNL A   1      47.943  24.703  33.908  1.00  0.00     0.001 A 
ATOM     54  C   UNL A   1      49.170  24.830  33.259  1.00  0.00     0.000 A 
ENDBRANCH  36  49
ENDBRANCH  10  11
ENDBRANCH   3   5
ENDBRANCH   2   3
ENDBRANCH   1   2
BRANCH   1  55
ATOM     55  C   UNL A   1      31.967  29.505  24.856  1.00  0.00     0.274 C 
BRANCH  55  56
ATOM     56  O   UNL A   1      30.712  28.912  24.489  1.00  0.00    -0.460 OA
BRANCH  56  57
ATOM     57  C   UNL A   1      30.680  28.313  23.255  1.00  0.00     0.335 C 
ATOM     58  O   UNL A   1      30.652  28.939  22.197  1.00  0.00    -0.249 OA
BRANCH  57  59
ATOM     59  C   UNL A   1      30.566  26.778  23.372  1.00  0.00     0.228 C 
ATOM     60  C   UNL A   1      29.596  26.300  24.426  1.00  0.00     0.047 C 
ATOM     61  O   UNL A   1      31.804  26.110  23.611  1.00  0.00    -0.361 OA
ATOM     62  C   UNL A   1      30.313  25.284  25.276  1.00  0.00     0.037 C 
ATOM     63  C   UNL A   1      31.690  25.137  24.659  1.00  0.00     0.139 C 
BRANCH  63  64
ATOM     64  C   UNL A   1      31.996  23.708  24.138  1.00  0.00     0.160 C 
BRANCH  64  65
ATOM     65  N   UNL A   1      33.398  23.362  24.376  1.00  0.00    -0.280 N 
ATOM     66  C   UNL A   1      34.291  23.381  23.317  1.00  0.00     0.229 C 
ATOM     67  C   UNL A   1      33.743  22.945  25.648  1.00  0.00     0.229 C 
ATOM     68  O   UNL A   1      33.939  23.411  22.137  1.00  0.00    -0.274 OA
ATOM     69  C   UNL A   1      35.759  23.496  23.667  1.00  0.00     0.108 C 
ATOM     70  C   UNL A   1      35.108  23.398  26.078  1.00  0.00     0.108 C 
ATOM     71  O   UNL A   1      33.002  22.335  26.411  1.00  0.00    -0.274 OA
ATOM     72  C   UNL A   1      36.164  23.014  25.063  1.00  0.00    -0.012 C 
ATOM     73  C   UNL A   1      37.511  23.661  25.460  1.00  0.00     0.008 C 
ATOM     74  C   UNL A   1      36.407  21.489  25.120  1.00  0.00     0.008 C 
ATOM     75  C   UNL A   1      38.341  22.528  26.031  1.00  0.00     0.001 C 
ATOM     76  C   UNL A   1      37.916  21.336  25.199  1.00  0.00     0.001 C 
ENDBRANCH  64  65
ENDBRANCH  63  64
ENDBRANCH  57  59
ENDBRANCH  56  57
ENDBRANCH  55  56
ENDBRANCH   1  55
TORSDOF 13
ENDMDL
