MODEL 1
REMARK VINA RESULT:     -12.8      0.000      0.000
REMARK SMILES C[C@@H](C(=O)OCCOC(=O)c1ccc(-c2c3nc(c(-c4ccccc4)c4ccc([nH]4)c(-c4ccccc4)c4nc(c(-c5ccccc5)c5ccc2[nH]5)C=C4)C=C3)cc1)c1ccc(O[C@H]2CCCC2=O)cc1F
REMARK SMILES IDX 6 1 5 2 3 3 4 4 2 5 1 6 59 7 60 8 71 9 61 10 70 11 72 12
REMARK SMILES IDX 62 13 63 14 64 15 65 16 68 17 66 18 67 19 69 20 7 21 8 22
REMARK SMILES IDX 9 23 10 24 11 25 12 26 58 27 13 28 57 29 14 30 15 31 16 32
REMARK SMILES IDX 51 33 17 34 56 35 50 36 52 37 18 38 55 39 49 40 48 41 19 43
REMARK SMILES IDX 41 44 26 45 40 46 27 47 30 48 39 49 53 50 28 51 29 52 38 54
REMARK SMILES IDX 54 55 31 56 20 57 21 58 25 59 22 60 24 61 23 62 42 63 43 64
REMARK SMILES IDX 47 65 44 66 46 67 45 68 32 69 33 70 37 71 34 72 36 73 35 74
REMARK H PARENT 52 42 30 53
REMARK Flexibility Score: inf
ROOT
ATOM      1  C   UNL A   1      43.739  23.035  24.790  1.00  0.00     0.274 C 
ENDROOT
BRANCH   1   2
ATOM      2  O   UNL A   1      42.419  22.674  25.259  1.00  0.00    -0.462 OA
BRANCH   2   3
ATOM      3  C   UNL A   1      42.234  21.433  25.794  1.00  0.00     0.313 C 
ATOM      4  O   UNL A   1      42.796  20.425  25.376  1.00  0.00    -0.252 OA
BRANCH   3   5
ATOM      5  C   UNL A   1      41.193  21.407  26.932  1.00  0.00     0.129 C 
ATOM      6  C   UNL A   1      41.175  20.063  27.666  1.00  0.00     0.025 C 
BRANCH   5   7
ATOM      7  C   UNL A   1      39.807  21.916  26.511  1.00  0.00     0.002 A 
ATOM      8  C   UNL A   1      39.383  23.207  26.877  1.00  0.00     0.011 A 
ATOM      9  C   UNL A   1      38.919  21.168  25.725  1.00  0.00     0.130 A 
ATOM     10  C   UNL A   1      38.187  23.747  26.365  1.00  0.00     0.047 A 
ATOM     11  C   UNL A   1      37.718  21.697  25.231  1.00  0.00     0.086 A 
ATOM     12  F   UNL A   1      39.214  19.911  25.376  1.00  0.00    -0.207 F 
ATOM     13  C   UNL A   1      37.399  23.025  25.457  1.00  0.00     0.123 A 
BRANCH  13  14
ATOM     14  O   UNL A   1      36.464  23.752  24.764  1.00  0.00    -0.483 OA
BRANCH  14  15
ATOM     15  C   UNL A   1      35.142  23.230  24.642  1.00  0.00     0.239 C 
ATOM     16  C   UNL A   1      34.242  23.567  26.395  1.00  0.00     0.054 C 
ATOM     17  C   UNL A   1      33.759  23.492  23.207  1.00  0.00     0.173 C 
ATOM     18  C   UNL A   1      32.245  23.987  26.041  1.00  0.00     0.012 C 
ATOM     19  C   UNL A   1      31.968  23.900  24.063  1.00  0.00     0.080 C 
ATOM     20  O   UNL A   1      33.942  23.328  22.003  1.00  0.00    -0.296 OA
ENDBRANCH  14  15
ENDBRANCH  13  14
ENDBRANCH   5   7
ENDBRANCH   3   5
ENDBRANCH   2   3
ENDBRANCH   1   2
BRANCH   1  21
ATOM     21  C   UNL A   1      44.035  24.515  25.045  1.00  0.00     0.275 C 
BRANCH  21  22
ATOM     22  O   UNL A   1      42.808  25.265  25.029  1.00  0.00    -0.458 OA
BRANCH  22  23
ATOM     23  C   UNL A   1      42.977  26.586  25.247  1.00  0.00     0.338 C 
ATOM     24  O   UNL A   1      43.967  27.254  25.001  1.00  0.00    -0.246 OA
BRANCH  23  25
ATOM     25  C   UNL A   1      41.740  27.164  25.779  1.00  0.00     0.060 A 
ATOM     26  C   UNL A   1      41.570  28.540  25.784  1.00  0.00     0.016 A 
ATOM     27  C   UNL A   1      40.848  26.363  26.465  1.00  0.00     0.016 A 
ATOM     28  C   UNL A   1      40.671  29.129  26.677  1.00  0.00     0.010 A 
ATOM     29  C   UNL A   1      39.873  26.962  27.278  1.00  0.00     0.010 A 
ATOM     30  C   UNL A   1      39.883  28.362  27.550  1.00  0.00    -0.014 A 
BRANCH  30  31
ATOM     31  C   UNL A   1      39.175  29.149  28.941  1.00  0.00     0.031 A 
ATOM     32  C   UNL A   1      37.420  30.400  29.018  1.00  0.00     0.074 A 
ATOM     33  C   UNL A   1      40.194  28.749  29.918  1.00  0.00     0.049 A 
ATOM     34  N   UNL A   1      36.878  31.102  30.078  1.00  0.00    -0.248 NA
ATOM     35  C   UNL A   1      36.342  30.936  27.868  1.00  0.00     0.031 C 
ATOM     36  C   UNL A   1      41.268  27.716  29.877  1.00  0.00     0.029 A 
ATOM     37  N   UNL A   1      40.373  29.182  31.246  1.00  0.00    -0.354 N 
ATOM     38  C   UNL A   1      35.986  32.080  29.782  1.00  0.00     0.074 A 
ATOM     39  C   UNL A   1      35.615  31.895  28.425  1.00  0.00     0.031 C 
ATOM     40  C   UNL A   1      41.793  27.523  31.110  1.00  0.00     0.029 A 
ATOM     41  C   UNL A   1      41.228  28.486  32.025  1.00  0.00     0.049 A 
ATOM     42  H   UNL A   1      39.890  29.966  31.594  1.00  0.00     0.167 HD
ATOM     43  C   UNL A   1      35.662  33.111  30.600  1.00  0.00     0.031 A 
ATOM     44  C   UNL A   1      41.427  28.705  33.337  1.00  0.00     0.031 A 
ATOM     45  C   UNL A   1      36.251  33.337  31.911  1.00  0.00     0.049 A 
ATOM     46  C   UNL A   1      40.666  29.844  34.033  1.00  0.00     0.074 A 
ATOM     47  C   UNL A   1      36.015  34.398  32.766  1.00  0.00     0.029 A 
ATOM     48  N   UNL A   1      37.207  32.528  32.549  1.00  0.00    -0.354 N 
ATOM     49  N   UNL A   1      39.711  30.645  33.589  1.00  0.00    -0.248 NA
ATOM     50  C   UNL A   1      41.052  30.100  35.425  1.00  0.00     0.031 C 
ATOM     51  C   UNL A   1      36.875  34.278  33.864  1.00  0.00     0.029 A 
ATOM     52  C   UNL A   1      37.597  33.091  33.760  1.00  0.00     0.049 A 
ATOM     53  H   UNL A   1      37.554  31.680  32.188  1.00  0.00     0.167 HD
ATOM     54  C   UNL A   1      39.377  31.495  34.654  1.00  0.00     0.074 A 
ATOM     55  C   UNL A   1      40.217  31.070  35.765  1.00  0.00     0.031 C 
ATOM     56  C   UNL A   1      38.500  32.537  34.761  1.00  0.00     0.031 A 
BRANCH  43  57
ATOM     57  C   UNL A   1      34.753  34.133  29.978  1.00  0.00    -0.014 A 
ATOM     58  C   UNL A   1      35.082  34.730  28.751  1.00  0.00     0.009 A 
ATOM     59  C   UNL A   1      33.635  34.605  30.685  1.00  0.00     0.009 A 
ATOM     60  C   UNL A   1      34.377  35.844  28.295  1.00  0.00     0.001 A 
ATOM     61  C   UNL A   1      32.903  35.692  30.203  1.00  0.00     0.001 A 
ATOM     62  C   UNL A   1      33.292  36.328  29.024  1.00  0.00     0.000 A 
ENDBRANCH  43  57
BRANCH  44  63
ATOM     63  C   UNL A   1      42.383  27.842  34.064  1.00  0.00    -0.014 A 
ATOM     64  C   UNL A   1      43.752  28.142  34.084  1.00  0.00     0.009 A 
ATOM     65  C   UNL A   1      41.924  26.714  34.763  1.00  0.00     0.009 A 
ATOM     66  C   UNL A   1      44.645  27.320  34.773  1.00  0.00     0.001 A 
ATOM     67  C   UNL A   1      42.812  25.914  35.480  1.00  0.00     0.001 A 
ATOM     68  C   UNL A   1      44.172  26.212  35.477  1.00  0.00     0.000 A 
ENDBRANCH  44  63
BRANCH  56  69
ATOM     69  C   UNL A   1      38.450  33.239  36.118  1.00  0.00    -0.014 A 
ATOM     70  C   UNL A   1      37.703  32.725  37.192  1.00  0.00     0.009 A 
ATOM     71  C   UNL A   1      39.251  34.371  36.342  1.00  0.00     0.009 A 
ATOM     72  C   UNL A   1      37.732  33.349  38.445  1.00  0.00     0.001 A 
ATOM     73  C   UNL A   1      39.307  34.971  37.604  1.00  0.00     0.001 A 
ATOM     74  C   UNL A   1      38.541  34.466  38.651  1.00  0.00     0.000 A 
ENDBRANCH  56  69
ENDBRANCH  30  31
ENDBRANCH  23  25
ENDBRANCH  22  23
ENDBRANCH  21  22
ENDBRANCH   1  21
TORSDOF 14
ENDMDL
MODEL 2
REMARK VINA RESULT:     -12.4      4.821     11.767
REMARK SMILES C[C@@H](C(=O)OCCOC(=O)c1ccc(-c2c3nc(c(-c4ccccc4)c4ccc([nH]4)c(-c4ccccc4)c4nc(c(-c5ccccc5)c5ccc2[nH]5)C=C4)C=C3)cc1)c1ccc(O[C@H]2CCCC2=O)cc1F
REMARK SMILES IDX 6 1 5 2 3 3 4 4 2 5 1 6 59 7 60 8 71 9 61 10 70 11 72 12
REMARK SMILES IDX 62 13 63 14 64 15 65 16 68 17 66 18 67 19 69 20 7 21 8 22
REMARK SMILES IDX 9 23 10 24 11 25 12 26 58 27 13 28 57 29 14 30 15 31 16 32
REMARK SMILES IDX 51 33 17 34 56 35 50 36 52 37 18 38 55 39 49 40 48 41 19 43
REMARK SMILES IDX 41 44 26 45 40 46 27 47 30 48 39 49 53 50 28 51 29 52 38 54
REMARK SMILES IDX 54 55 31 56 20 57 21 58 25 59 22 60 24 61 23 62 42 63 43 64
REMARK SMILES IDX 47 65 44 66 46 67 45 68 32 69 33 70 37 71 34 72 36 73 35 74
REMARK H PARENT 52 42 30 53
REMARK Flexibility Score: inf
ROOT
ATOM      1  C   UNL A   1      34.664  32.948  32.225  1.00  0.00     0.274 C 
ENDROOT
BRANCH   1   2
ATOM      2  O   UNL A   1      34.483  32.579  30.838  1.00  0.00    -0.462 OA
BRANCH   2   3
ATOM      3  C   UNL A   1      34.226  33.564  29.929  1.00  0.00     0.313 C 
ATOM      4  O   UNL A   1      33.515  34.536  30.168  1.00  0.00    -0.252 OA
BRANCH   3   5
ATOM      5  C   UNL A   1      34.858  33.301  28.547  1.00  0.00     0.129 C 
ATOM      6  C   UNL A   1      34.772  34.526  27.631  1.00  0.00     0.025 C 
BRANCH   5   7
ATOM      7  C   UNL A   1      34.392  31.991  27.896  1.00  0.00     0.002 A 
ATOM      8  C   UNL A   1      35.259  30.886  27.823  1.00  0.00     0.011 A 
ATOM      9  C   UNL A   1      33.100  31.803  27.384  1.00  0.00     0.130 A 
ATOM     10  C   UNL A   1      34.797  29.632  27.377  1.00  0.00     0.047 A 
ATOM     11  C   UNL A   1      32.644  30.561  26.921  1.00  0.00     0.086 A 
ATOM     12  F   UNL A   1      32.225  32.815  27.360  1.00  0.00    -0.207 F 
ATOM     13  C   UNL A   1      33.455  29.443  27.018  1.00  0.00     0.123 A 
BRANCH  13  14
ATOM     14  O   UNL A   1      33.035  28.140  26.934  1.00  0.00    -0.483 OA
BRANCH  14  15
ATOM     15  C   UNL A   1      32.551  27.654  25.682  1.00  0.00     0.239 C 
ATOM     16  C   UNL A   1      32.480  25.663  25.843  1.00  0.00     0.054 C 
ATOM     17  C   UNL A   1      30.961  28.217  24.588  1.00  0.00     0.173 C 
ATOM     18  C   UNL A   1      30.845  24.974  24.774  1.00  0.00     0.012 C 
ATOM     19  C   UNL A   1      29.944  26.573  23.981  1.00  0.00     0.080 C 
ATOM     20  O   UNL A   1      30.701  29.370  24.249  1.00  0.00    -0.296 OA
ENDBRANCH  14  15
ENDBRANCH  13  14
ENDBRANCH   5   7
ENDBRANCH   3   5
ENDBRANCH   2   3
ENDBRANCH   1   2
BRANCH   1  21
ATOM     21  C   UNL A   1      35.840  32.196  32.852  1.00  0.00     0.275 C 
BRANCH  21  22
ATOM     22  O   UNL A   1      36.006  30.925  32.200  1.00  0.00    -0.458 OA
BRANCH  22  23
ATOM     23  C   UNL A   1      37.087  30.237  32.622  1.00  0.00     0.338 C 
ATOM     24  O   UNL A   1      37.658  30.343  33.694  1.00  0.00    -0.246 OA
BRANCH  23  25
ATOM     25  C   UNL A   1      37.471  29.246  31.612  1.00  0.00     0.060 A 
ATOM     26  C   UNL A   1      38.239  28.152  31.979  1.00  0.00     0.016 A 
ATOM     27  C   UNL A   1      37.256  29.512  30.274  1.00  0.00     0.016 A 
ATOM     28  C   UNL A   1      38.999  27.480  31.018  1.00  0.00     0.010 A 
ATOM     29  C   UNL A   1      37.938  28.760  29.305  1.00  0.00     0.010 A 
ATOM     30  C   UNL A   1      38.974  27.847  29.662  1.00  0.00    -0.014 A 
BRANCH  30  31
ATOM     31  C   UNL A   1      40.281  27.312  28.632  1.00  0.00     0.031 A 
ATOM     32  C   UNL A   1      40.537  25.393  27.685  1.00  0.00     0.074 A 
ATOM     33  C   UNL A   1      41.103  28.525  28.733  1.00  0.00     0.049 A 
ATOM     34  N   UNL A   1      41.590  24.908  26.932  1.00  0.00    -0.248 NA
ATOM     35  C   UNL A   1      39.643  23.988  27.680  1.00  0.00     0.031 C 
ATOM     36  C   UNL A   1      40.799  29.901  29.217  1.00  0.00     0.029 A 
ATOM     37  N   UNL A   1      42.421  28.746  28.290  1.00  0.00    -0.354 N 
ATOM     38  C   UNL A   1      41.658  23.565  26.754  1.00  0.00     0.074 A 
ATOM     39  C   UNL A   1      40.402  23.038  27.152  1.00  0.00     0.031 C 
ATOM     40  C   UNL A   1      41.789  30.758  28.873  1.00  0.00     0.029 A 
ATOM     41  C   UNL A   1      42.873  30.018  28.273  1.00  0.00     0.049 A 
ATOM     42  H   UNL A   1      42.992  27.999  28.002  1.00  0.00     0.167 HD
ATOM     43  C   UNL A   1      42.777  22.881  26.414  1.00  0.00     0.031 A 
ATOM     44  C   UNL A   1      44.063  30.405  27.780  1.00  0.00     0.031 A 
ATOM     45  C   UNL A   1      44.086  23.489  26.221  1.00  0.00     0.049 A 
ATOM     46  C   UNL A   1      45.022  29.349  27.212  1.00  0.00     0.074 A 
ATOM     47  C   UNL A   1      45.276  22.846  25.938  1.00  0.00     0.029 A 
ATOM     48  N   UNL A   1      44.395  24.856  26.320  1.00  0.00    -0.354 N 
ATOM     49  N   UNL A   1      44.857  28.052  27.005  1.00  0.00    -0.248 NA
ATOM     50  C   UNL A   1      46.349  29.843  26.831  1.00  0.00     0.031 C 
ATOM     51  C   UNL A   1      46.304  23.797  25.948  1.00  0.00     0.029 A 
ATOM     52  C   UNL A   1      45.760  25.064  26.145  1.00  0.00     0.049 A 
ATOM     53  H   UNL A   1      43.737  25.569  26.488  1.00  0.00     0.167 HD
ATOM     54  C   UNL A   1      46.060  27.580  26.460  1.00  0.00     0.074 A 
ATOM     55  C   UNL A   1      46.917  28.751  26.342  1.00  0.00     0.031 C 
ATOM     56  C   UNL A   1      46.478  26.331  26.093  1.00  0.00     0.031 A 
BRANCH  43  57
ATOM     57  C   UNL A   1      42.615  21.387  26.415  1.00  0.00    -0.014 A 
ATOM     58  C   UNL A   1      42.028  20.734  27.510  1.00  0.00     0.009 A 
ATOM     59  C   UNL A   1      43.176  20.616  25.385  1.00  0.00     0.009 A 
ATOM     60  C   UNL A   1      42.097  19.345  27.624  1.00  0.00     0.001 A 
ATOM     61  C   UNL A   1      43.204  19.224  25.481  1.00  0.00     0.001 A 
ATOM     62  C   UNL A   1      42.691  18.592  26.613  1.00  0.00     0.000 A 
ENDBRANCH  43  57
BRANCH  44  63
ATOM     63  C   UNL A   1      44.411  31.843  27.811  1.00  0.00    -0.014 A 
ATOM     64  C   UNL A   1      45.019  32.412  28.939  1.00  0.00     0.009 A 
ATOM     65  C   UNL A   1      44.149  32.656  26.697  1.00  0.00     0.009 A 
ATOM     66  C   UNL A   1      45.342  33.770  28.956  1.00  0.00     0.001 A 
ATOM     67  C   UNL A   1      44.504  34.004  26.703  1.00  0.00     0.001 A 
ATOM     68  C   UNL A   1      45.091  34.562  27.835  1.00  0.00     0.000 A 
ENDBRANCH  44  63
BRANCH  56  69
ATOM     69  C   UNL A   1      47.903  26.230  25.552  1.00  0.00    -0.014 A 
ATOM     70  C   UNL A   1      48.210  26.509  24.209  1.00  0.00     0.009 A 
ATOM     71  C   UNL A   1      48.962  25.954  26.436  1.00  0.00     0.009 A 
ATOM     72  C   UNL A   1      49.535  26.478  23.758  1.00  0.00     0.001 A 
ATOM     73  C   UNL A   1      50.287  25.960  25.990  1.00  0.00     0.001 A 
ATOM     74  C   UNL A   1      50.572  26.213  24.651  1.00  0.00     0.000 A 
ENDBRANCH  56  69
ENDBRANCH  30  31
ENDBRANCH  23  25
ENDBRANCH  22  23
ENDBRANCH  21  22
ENDBRANCH   1  21
TORSDOF 14
ENDMDL
MODEL 3
REMARK VINA RESULT:     -11.6      2.238      7.375
REMARK SMILES C[C@@H](C(=O)OCCOC(=O)c1ccc(-c2c3nc(c(-c4ccccc4)c4ccc([nH]4)c(-c4ccccc4)c4nc(c(-c5ccccc5)c5ccc2[nH]5)C=C4)C=C3)cc1)c1ccc(O[C@H]2CCCC2=O)cc1F
REMARK SMILES IDX 6 1 5 2 3 3 4 4 2 5 1 6 59 7 60 8 71 9 61 10 70 11 72 12
REMARK SMILES IDX 62 13 63 14 64 15 65 16 68 17 66 18 67 19 69 20 7 21 8 22
REMARK SMILES IDX 9 23 10 24 11 25 12 26 58 27 13 28 57 29 14 30 15 31 16 32
REMARK SMILES IDX 51 33 17 34 56 35 50 36 52 37 18 38 55 39 49 40 48 41 19 43
REMARK SMILES IDX 41 44 26 45 40 46 27 47 30 48 39 49 53 50 28 51 29 52 38 54
REMARK SMILES IDX 54 55 31 56 20 57 21 58 25 59 22 60 24 61 23 62 42 63 43 64
REMARK SMILES IDX 47 65 44 66 46 67 45 68 32 69 33 70 37 71 34 72 36 73 35 74
REMARK H PARENT 52 42 30 53
REMARK Flexibility Score: inf
ROOT
ATOM      1  C   UNL A   1      37.796  21.943  25.263  1.00  0.00     0.274 C 
ENDROOT
BRANCH   1   2
ATOM      2  O   UNL A   1      36.644  21.400  25.949  1.00  0.00    -0.462 OA
BRANCH   2   3
ATOM      3  C   UNL A   1      35.737  20.678  25.230  1.00  0.00     0.313 C 
ATOM      4  O   UNL A   1      36.016  19.641  24.634  1.00  0.00    -0.252 OA
BRANCH   3   5
ATOM      5  C   UNL A   1      34.339  21.329  25.179  1.00  0.00     0.129 C 
ATOM      6  C   UNL A   1      33.384  20.574  24.250  1.00  0.00     0.025 C 
BRANCH   5   7
ATOM      7  C   UNL A   1      34.375  22.847  24.952  1.00  0.00     0.002 A 
ATOM      8  C   UNL A   1      34.431  23.369  23.646  1.00  0.00     0.011 A 
ATOM      9  C   UNL A   1      34.315  23.783  25.994  1.00  0.00     0.130 A 
ATOM     10  C   UNL A   1      34.302  24.752  23.414  1.00  0.00     0.047 A 
ATOM     11  C   UNL A   1      34.207  25.162  25.766  1.00  0.00     0.086 A 
ATOM     12  F   UNL A   1      34.315  23.380  27.270  1.00  0.00    -0.207 F 
ATOM     13  C   UNL A   1      34.089  25.645  24.474  1.00  0.00     0.123 A 
BRANCH  13  14
ATOM     14  O   UNL A   1      33.638  26.894  24.125  1.00  0.00    -0.483 OA
BRANCH  14  15
ATOM     15  C   UNL A   1      32.244  27.076  23.881  1.00  0.00     0.239 C 
ATOM     16  C   UNL A   1      31.687  28.655  24.974  1.00  0.00     0.054 C 
ATOM     17  C   UNL A   1      31.219  27.160  22.154  1.00  0.00     0.173 C 
ATOM     18  C   UNL A   1      30.240  29.704  23.926  1.00  0.00     0.012 C 
ATOM     19  C   UNL A   1      29.947  28.737  22.201  1.00  0.00     0.080 C 
ATOM     20  O   UNL A   1      31.275  26.328  21.251  1.00  0.00    -0.296 OA
ENDBRANCH  14  15
ENDBRANCH  13  14
ENDBRANCH   5   7
ENDBRANCH   3   5
ENDBRANCH   2   3
ENDBRANCH   1   2
BRANCH   1  21
ATOM     21  C   UNL A   1      39.092  21.292  25.751  1.00  0.00     0.275 C 
BRANCH  21  22
ATOM     22  O   UNL A   1      39.629  22.044  26.852  1.00  0.00    -0.458 OA
BRANCH  22  23
ATOM     23  C   UNL A   1      40.636  22.872  26.504  1.00  0.00     0.338 C 
ATOM     24  O   UNL A   1      41.639  22.589  25.871  1.00  0.00    -0.246 OA
BRANCH  23  25
ATOM     25  C   UNL A   1      40.331  24.237  26.941  1.00  0.00     0.060 A 
ATOM     26  C   UNL A   1      41.218  25.264  26.657  1.00  0.00     0.016 A 
ATOM     27  C   UNL A   1      39.283  24.461  27.812  1.00  0.00     0.016 A 
ATOM     28  C   UNL A   1      41.211  26.427  27.433  1.00  0.00     0.010 A 
ATOM     29  C   UNL A   1      39.217  25.677  28.510  1.00  0.00     0.010 A 
ATOM     30  C   UNL A   1      40.290  26.616  28.477  1.00  0.00    -0.014 A 
BRANCH  30  31
ATOM     31  C   UNL A   1      40.643  27.824  29.689  1.00  0.00     0.031 A 
ATOM     32  C   UNL A   1      42.291  27.881  31.078  1.00  0.00     0.074 A 
ATOM     33  C   UNL A   1      39.447  28.649  29.481  1.00  0.00     0.049 A 
ATOM     34  N   UNL A   1      42.560  28.773  32.100  1.00  0.00    -0.248 NA
ATOM     35  C   UNL A   1      43.578  26.867  31.373  1.00  0.00     0.031 C 
ATOM     36  C   UNL A   1      38.446  28.700  28.378  1.00  0.00     0.029 A 
ATOM     37  N   UNL A   1      38.962  29.724  30.251  1.00  0.00    -0.354 N 
ATOM     38  C   UNL A   1      43.459  28.387  33.038  1.00  0.00     0.074 A 
ATOM     39  C   UNL A   1      44.129  27.250  32.516  1.00  0.00     0.031 C 
ATOM     40  C   UNL A   1      37.668  29.802  28.488  1.00  0.00     0.029 A 
ATOM     41  C   UNL A   1      37.981  30.485  29.720  1.00  0.00     0.049 A 
ATOM     42  H   UNL A   1      39.328  29.915  31.144  1.00  0.00     0.167 HD
ATOM     43  C   UNL A   1      43.558  28.911  34.284  1.00  0.00     0.031 A 
ATOM     44  C   UNL A   1      37.488  31.605  30.279  1.00  0.00     0.031 A 
ATOM     45  C   UNL A   1      42.684  29.949  34.811  1.00  0.00     0.049 A 
ATOM     46  C   UNL A   1      38.034  32.072  31.637  1.00  0.00     0.074 A 
ATOM     47  C   UNL A   1      42.687  30.481  36.087  1.00  0.00     0.029 A 
ATOM     48  N   UNL A   1      41.639  30.591  34.124  1.00  0.00    -0.354 N 
ATOM     49  N   UNL A   1      39.035  31.613  32.371  1.00  0.00    -0.248 NA
ATOM     50  C   UNL A   1      37.340  33.217  32.234  1.00  0.00     0.031 C 
ATOM     51  C   UNL A   1      41.609  31.368  36.196  1.00  0.00     0.029 A 
ATOM     52  C   UNL A   1      40.971  31.476  34.963  1.00  0.00     0.049 A 
ATOM     53  H   UNL A   1      41.412  30.435  33.178  1.00  0.00     0.167 HD
ATOM     54  C   UNL A   1      39.094  32.423  33.515  1.00  0.00     0.074 A 
ATOM     55  C   UNL A   1      38.044  33.417  33.339  1.00  0.00     0.031 C 
ATOM     56  C   UNL A   1      39.888  32.392  34.626  1.00  0.00     0.031 A 
BRANCH  43  57
ATOM     57  C   UNL A   1      44.546  28.212  35.175  1.00  0.00    -0.014 A 
ATOM     58  C   UNL A   1      45.896  28.595  35.183  1.00  0.00     0.009 A 
ATOM     59  C   UNL A   1      44.157  27.075  35.902  1.00  0.00     0.009 A 
ATOM     60  C   UNL A   1      46.853  27.800  35.814  1.00  0.00     0.001 A 
ATOM     61  C   UNL A   1      45.112  26.306  36.571  1.00  0.00     0.001 A 
ATOM     62  C   UNL A   1      46.461  26.653  36.501  1.00  0.00     0.000 A 
ENDBRANCH  43  57
BRANCH  44  63
ATOM     63  C   UNL A   1      36.425  32.346  29.565  1.00  0.00    -0.014 A 
ATOM     64  C   UNL A   1      36.743  33.379  28.673  1.00  0.00     0.009 A 
ATOM     65  C   UNL A   1      35.077  32.007  29.762  1.00  0.00     0.009 A 
ATOM     66  C   UNL A   1      35.730  34.070  28.005  1.00  0.00     0.001 A 
ATOM     67  C   UNL A   1      34.069  32.675  29.068  1.00  0.00     0.001 A 
ATOM     68  C   UNL A   1      34.396  33.712  28.197  1.00  0.00     0.000 A 
ENDBRANCH  44  63
BRANCH  56  69
ATOM     69  C   UNL A   1      39.610  33.461  35.682  1.00  0.00    -0.014 A 
ATOM     70  C   UNL A   1      38.738  33.231  36.761  1.00  0.00     0.009 A 
ATOM     71  C   UNL A   1      40.320  34.674  35.644  1.00  0.00     0.009 A 
ATOM     72  C   UNL A   1      38.557  34.202  37.752  1.00  0.00     0.001 A 
ATOM     73  C   UNL A   1      40.165  35.627  36.655  1.00  0.00     0.001 A 
ATOM     74  C   UNL A   1      39.277  35.395  37.703  1.00  0.00     0.000 A 
ENDBRANCH  56  69
ENDBRANCH  30  31
ENDBRANCH  23  25
ENDBRANCH  22  23
ENDBRANCH  21  22
ENDBRANCH   1  21
TORSDOF 14
ENDMDL
