MODEL 1
REMARK VINA RESULT:     -12.3      0.000      0.000
REMARK SMILES COC(=O)c1ccc([C@H]2CC(=O)Nc3c(C(=O)OCCOC(=O)c4ccc(-c5c6nc(c(-c7ccccc7)c7ccc([nH]7)c(-c7ccccc7)c7nc(c(-c8ccccc8)c8ccc5[nH]8)C=C7)C=C6)cc4)cn(-c4ccccc4)c32)cc1
REMARK SMILES IDX 19 1 18 2 16 3 17 4 15 5 9 6 10 7 80 8 11 9 14 10 73 11
REMARK SMILES IDX 12 12 13 13 72 14 8 16 5 17 6 18 82 19 7 20 81 21 3 22 4 23
REMARK SMILES IDX 2 24 1 25 74 26 75 27 79 28 76 29 78 30 77 31 20 32 21 33
REMARK SMILES IDX 22 34 23 35 24 36 25 37 71 38 26 39 70 40 27 41 28 42 29 43
REMARK SMILES IDX 64 44 30 45 69 46 63 47 65 48 31 49 68 50 62 51 61 52 32 54
REMARK SMILES IDX 54 55 39 56 53 57 40 58 43 59 52 60 66 61 41 62 42 63 51 65
REMARK SMILES IDX 67 66 44 67 33 68 34 69 38 70 35 71 37 72 36 73 55 74 56 75
REMARK SMILES IDX 60 76 57 77 59 78 58 79 45 80 46 81 50 82 47 83 49 84 48 85
REMARK H PARENT 13 15 65 53 43 64
REMARK Flexibility Score: inf
ROOT
ATOM      1  C   UNL A   1      37.718  21.306  25.224  1.00  0.00     0.275 C 
ENDROOT
BRANCH   1   2
ATOM      2  O   UNL A   1      37.037  22.570  25.305  1.00  0.00    -0.458 OA
BRANCH   2   3
ATOM      3  C   UNL A   1      36.497  23.050  24.141  1.00  0.00     0.341 C 
ATOM      4  O   UNL A   1      36.985  22.879  23.028  1.00  0.00    -0.246 OA
BRANCH   3   5
ATOM      5  C   UNL A   1      35.223  23.719  24.360  1.00  0.00     0.102 A 
ATOM      6  C   UNL A   1      31.561  24.256  23.972  1.00  0.00     0.078 C 
ATOM      7  C   UNL A   1      31.299  23.190  22.894  1.00  0.00     0.115 C 
ATOM      8  C   UNL A   1      33.024  24.288  24.334  1.00  0.00     0.055 A 
ATOM      9  C   UNL A   1      32.224  21.985  22.917  1.00  0.00     0.225 C 
ATOM     10  C   UNL A   1      33.927  23.324  23.959  1.00  0.00     0.078 A 
ATOM     11  N   UNL A   1      33.713  25.251  25.056  1.00  0.00    -0.317 N 
ATOM     12  O   UNL A   1      31.866  20.889  22.482  1.00  0.00    -0.275 OA
ATOM     13  N   UNL A   1      33.518  22.186  23.314  1.00  0.00    -0.324 N 
ATOM     14  C   UNL A   1      35.060  24.958  24.967  1.00  0.00     0.109 A 
ATOM     15  H   UNL A   1      34.182  21.484  23.127  1.00  0.00     0.170 HD
BRANCH   6  16
ATOM     16  C   UNL A   1      30.973  25.585  23.494  1.00  0.00    -0.038 A 
ATOM     17  C   UNL A   1      29.995  28.150  22.845  1.00  0.00     0.060 A 
ATOM     18  C   UNL A   1      29.298  27.334  23.744  1.00  0.00     0.016 A 
ATOM     19  C   UNL A   1      31.136  27.650  22.211  1.00  0.00     0.016 A 
ATOM     20  C   UNL A   1      29.784  26.063  24.066  1.00  0.00     0.005 A 
ATOM     21  C   UNL A   1      31.599  26.366  22.507  1.00  0.00     0.005 A 
BRANCH  17  22
ATOM     22  C   UNL A   1      29.520  29.543  22.627  1.00  0.00     0.337 C 
ATOM     23  O   UNL A   1      29.490  30.395  23.500  1.00  0.00    -0.246 OA
BRANCH  22  24
ATOM     24  O   UNL A   1      29.151  29.716  21.332  1.00  0.00    -0.465 OA
ATOM     25  C   UNL A   1      28.119  30.681  21.132  1.00  0.00     0.282 C 
ENDBRANCH  22  24
ENDBRANCH  17  22
ENDBRANCH   6  16
BRANCH  11  26
ATOM     26  C   UNL A   1      33.166  26.373  25.725  1.00  0.00     0.045 A 
ATOM     27  C   UNL A   1      32.164  26.184  26.681  1.00  0.00     0.026 A 
ATOM     28  C   UNL A   1      33.558  27.664  25.349  1.00  0.00     0.026 A 
ATOM     29  C   UNL A   1      31.518  27.289  27.233  1.00  0.00     0.002 A 
ATOM     30  C   UNL A   1      32.877  28.763  25.877  1.00  0.00     0.002 A 
ATOM     31  C   UNL A   1      31.858  28.575  26.813  1.00  0.00     0.000 A 
ENDBRANCH  11  26
ENDBRANCH   3   5
ENDBRANCH   2   3
ENDBRANCH   1   2
BRANCH   1  32
ATOM     32  C   UNL A   1      39.145  21.404  25.748  1.00  0.00     0.275 C 
BRANCH  32  33
ATOM     33  O   UNL A   1      39.652  20.116  26.088  1.00  0.00    -0.458 OA
BRANCH  33  34
ATOM     34  C   UNL A   1      40.972  19.928  25.864  1.00  0.00     0.338 C 
ATOM     35  O   UNL A   1      41.497  18.990  25.289  1.00  0.00    -0.246 OA
BRANCH  34  36
ATOM     36  C   UNL A   1      41.725  20.943  26.608  1.00  0.00     0.060 A 
ATOM     37  C   UNL A   1      41.557  20.978  27.996  1.00  0.00     0.016 A 
ATOM     38  C   UNL A   1      42.334  21.994  25.908  1.00  0.00     0.016 A 
ATOM     39  C   UNL A   1      41.827  22.158  28.659  1.00  0.00     0.010 A 
ATOM     40  C   UNL A   1      42.588  23.171  26.567  1.00  0.00     0.010 A 
ATOM     41  C   UNL A   1      42.250  23.261  27.914  1.00  0.00    -0.014 A 
BRANCH  41  42
ATOM     42  C   UNL A   1      42.376  24.537  28.583  1.00  0.00     0.031 A 
ATOM     43  C   UNL A   1      41.300  25.497  28.255  1.00  0.00     0.074 A 
ATOM     44  C   UNL A   1      43.308  24.749  29.530  1.00  0.00     0.049 A 
ATOM     45  N   UNL A   1      41.412  26.653  27.694  1.00  0.00    -0.248 NA
ATOM     46  C   UNL A   1      39.911  25.055  28.464  1.00  0.00     0.031 C 
ATOM     47  C   UNL A   1      44.214  23.773  30.144  1.00  0.00     0.029 A 
ATOM     48  N   UNL A   1      43.543  25.879  30.246  1.00  0.00    -0.354 N 
ATOM     49  C   UNL A   1      40.121  27.165  27.629  1.00  0.00     0.074 A 
ATOM     50  C   UNL A   1      39.230  26.084  27.965  1.00  0.00     0.031 C 
ATOM     51  C   UNL A   1      44.707  24.290  31.293  1.00  0.00     0.029 A 
ATOM     52  C   UNL A   1      44.260  25.668  31.414  1.00  0.00     0.049 A 
ATOM     53  H   UNL A   1      43.230  26.768  29.961  1.00  0.00     0.167 HD
ATOM     54  C   UNL A   1      39.884  28.501  27.538  1.00  0.00     0.031 A 
ATOM     55  C   UNL A   1      44.395  26.543  32.439  1.00  0.00     0.031 A 
ATOM     56  C   UNL A   1      41.052  29.229  27.124  1.00  0.00     0.049 A 
ATOM     57  C   UNL A   1      44.039  27.890  31.930  1.00  0.00     0.074 A 
ATOM     58  C   UNL A   1      41.846  29.226  25.995  1.00  0.00     0.029 A 
ATOM     59  N   UNL A   1      41.785  29.853  28.105  1.00  0.00    -0.354 N 
ATOM     60  N   UNL A   1      44.748  28.533  31.047  1.00  0.00    -0.248 NA
ATOM     61  C   UNL A   1      42.657  28.328  32.056  1.00  0.00     0.031 C 
ATOM     62  C   UNL A   1      43.173  29.415  26.480  1.00  0.00     0.029 A 
ATOM     63  C   UNL A   1      43.107  29.577  27.866  1.00  0.00     0.049 A 
ATOM     64  H   UNL A   1      41.427  30.397  28.843  1.00  0.00     0.167 HD
ATOM     65  C   UNL A   1      43.817  29.141  30.217  1.00  0.00     0.074 A 
ATOM     66  C   UNL A   1      42.552  29.067  30.947  1.00  0.00     0.031 C 
ATOM     67  C   UNL A   1      44.097  29.387  28.903  1.00  0.00     0.031 A 
BRANCH  54  68
ATOM     68  C   UNL A   1      38.721  29.170  28.219  1.00  0.00    -0.014 A 
ATOM     69  C   UNL A   1      38.602  29.065  29.615  1.00  0.00     0.009 A 
ATOM     70  C   UNL A   1      37.597  29.651  27.518  1.00  0.00     0.009 A 
ATOM     71  C   UNL A   1      37.397  29.361  30.263  1.00  0.00     0.001 A 
ATOM     72  C   UNL A   1      36.408  29.988  28.167  1.00  0.00     0.001 A 
ATOM     73  C   UNL A   1      36.299  29.815  29.537  1.00  0.00     0.000 A 
ENDBRANCH  54  68
BRANCH  55  74
ATOM     74  C   UNL A   1      44.490  26.236  33.883  1.00  0.00    -0.014 A 
ATOM     75  C   UNL A   1      43.544  25.415  34.514  1.00  0.00     0.009 A 
ATOM     76  C   UNL A   1      45.665  26.547  34.594  1.00  0.00     0.009 A 
ATOM     77  C   UNL A   1      43.780  24.903  35.798  1.00  0.00     0.001 A 
ATOM     78  C   UNL A   1      45.899  26.039  35.875  1.00  0.00     0.001 A 
ATOM     79  C   UNL A   1      44.961  25.205  36.473  1.00  0.00     0.000 A 
ENDBRANCH  55  74
BRANCH  67  80
ATOM     80  C   UNL A   1      45.515  29.173  28.432  1.00  0.00    -0.014 A 
ATOM     81  C   UNL A   1      46.001  27.921  28.017  1.00  0.00     0.009 A 
ATOM     82  C   UNL A   1      46.326  30.300  28.231  1.00  0.00     0.009 A 
ATOM     83  C   UNL A   1      47.267  27.798  27.437  1.00  0.00     0.001 A 
ATOM     84  C   UNL A   1      47.582  30.181  27.633  1.00  0.00     0.001 A 
ATOM     85  C   UNL A   1      48.054  28.930  27.238  1.00  0.00     0.000 A 
ENDBRANCH  67  80
ENDBRANCH  41  42
ENDBRANCH  34  36
ENDBRANCH  33  34
ENDBRANCH  32  33
ENDBRANCH   1  32
TORSDOF 15
ENDMDL
MODEL 2
REMARK VINA RESULT:     -12.2      2.414      6.112
REMARK SMILES COC(=O)c1ccc([C@H]2CC(=O)Nc3c(C(=O)OCCOC(=O)c4ccc(-c5c6nc(c(-c7ccccc7)c7ccc([nH]7)c(-c7ccccc7)c7nc(c(-c8ccccc8)c8ccc5[nH]8)C=C7)C=C6)cc4)cn(-c4ccccc4)c32)cc1
REMARK SMILES IDX 19 1 18 2 16 3 17 4 15 5 9 6 10 7 80 8 11 9 14 10 73 11
REMARK SMILES IDX 12 12 13 13 72 14 8 16 5 17 6 18 82 19 7 20 81 21 3 22 4 23
REMARK SMILES IDX 2 24 1 25 74 26 75 27 79 28 76 29 78 30 77 31 20 32 21 33
REMARK SMILES IDX 22 34 23 35 24 36 25 37 71 38 26 39 70 40 27 41 28 42 29 43
REMARK SMILES IDX 64 44 30 45 69 46 63 47 65 48 31 49 68 50 62 51 61 52 32 54
REMARK SMILES IDX 54 55 39 56 53 57 40 58 43 59 52 60 66 61 41 62 42 63 51 65
REMARK SMILES IDX 67 66 44 67 33 68 34 69 38 70 35 71 37 72 36 73 55 74 56 75
REMARK SMILES IDX 60 76 57 77 59 78 58 79 45 80 46 81 50 82 47 83 49 84 48 85
REMARK H PARENT 13 15 65 53 43 64
REMARK Flexibility Score: inf
ROOT
ATOM      1  C   UNL A   1      37.575  21.734  25.714  1.00  0.00     0.275 C 
ENDROOT
BRANCH   1   2
ATOM      2  O   UNL A   1      37.019  23.040  25.480  1.00  0.00    -0.458 OA
BRANCH   2   3
ATOM      3  C   UNL A   1      36.349  23.217  24.299  1.00  0.00     0.341 C 
ATOM      4  O   UNL A   1      36.727  22.782  23.215  1.00  0.00    -0.246 OA
BRANCH   3   5
ATOM      5  C   UNL A   1      35.083  23.912  24.482  1.00  0.00     0.102 A 
ATOM      6  C   UNL A   1      31.423  24.456  24.095  1.00  0.00     0.078 C 
ATOM      7  C   UNL A   1      31.139  23.318  23.099  1.00  0.00     0.115 C 
ATOM      8  C   UNL A   1      32.889  24.499  24.438  1.00  0.00     0.055 A 
ATOM      9  C   UNL A   1      32.053  22.108  23.199  1.00  0.00     0.225 C 
ATOM     10  C   UNL A   1      33.780  23.502  24.124  1.00  0.00     0.078 A 
ATOM     11  N   UNL A   1      33.595  25.505  25.082  1.00  0.00    -0.317 N 
ATOM     12  O   UNL A   1      31.681  20.987  22.848  1.00  0.00    -0.275 OA
ATOM     13  N   UNL A   1      33.353  22.324  23.566  1.00  0.00    -0.324 N 
ATOM     14  C   UNL A   1      34.938  25.193  25.000  1.00  0.00     0.109 A 
ATOM     15  H   UNL A   1      34.009  21.605  23.424  1.00  0.00     0.170 HD
BRANCH   6  16
ATOM     16  C   UNL A   1      30.841  25.752  23.529  1.00  0.00    -0.038 A 
ATOM     17  C   UNL A   1      29.884  28.275  22.704  1.00  0.00     0.060 A 
ATOM     18  C   UNL A   1      29.202  27.546  23.686  1.00  0.00     0.016 A 
ATOM     19  C   UNL A   1      30.997  27.704  22.079  1.00  0.00     0.016 A 
ATOM     20  C   UNL A   1      29.678  26.296  24.095  1.00  0.00     0.005 A 
ATOM     21  C   UNL A   1      31.448  26.440  22.464  1.00  0.00     0.005 A 
BRANCH  17  22
ATOM     22  C   UNL A   1      29.425  29.654  22.388  1.00  0.00     0.337 C 
ATOM     23  O   UNL A   1      29.271  30.074  21.252  1.00  0.00    -0.246 OA
BRANCH  22  24
ATOM     24  O   UNL A   1      29.195  30.347  23.532  1.00  0.00    -0.465 OA
ATOM     25  C   UNL A   1      28.108  31.269  23.460  1.00  0.00     0.282 C 
ENDBRANCH  22  24
ENDBRANCH  17  22
ENDBRANCH   6  16
BRANCH  11  26
ATOM     26  C   UNL A   1      33.066  26.677  25.674  1.00  0.00     0.045 A 
ATOM     27  C   UNL A   1      32.126  26.565  26.703  1.00  0.00     0.026 A 
ATOM     28  C   UNL A   1      33.409  27.932  25.156  1.00  0.00     0.026 A 
ATOM     29  C   UNL A   1      31.491  27.709  27.186  1.00  0.00     0.002 A 
ATOM     30  C   UNL A   1      32.738  29.067  25.618  1.00  0.00     0.002 A 
ATOM     31  C   UNL A   1      31.779  28.953  26.627  1.00  0.00     0.000 A 
ENDBRANCH  11  26
ENDBRANCH   3   5
ENDBRANCH   2   3
ENDBRANCH   1   2
BRANCH   1  32
ATOM     32  C   UNL A   1      39.041  21.813  26.119  1.00  0.00     0.275 C 
BRANCH  32  33
ATOM     33  O   UNL A   1      39.334  23.065  26.734  1.00  0.00    -0.458 OA
BRANCH  33  34
ATOM     34  C   UNL A   1      40.519  23.137  27.379  1.00  0.00     0.338 C 
ATOM     35  O   UNL A   1      41.079  22.248  27.998  1.00  0.00    -0.246 OA
BRANCH  34  36
ATOM     36  C   UNL A   1      40.960  24.536  27.401  1.00  0.00     0.060 A 
ATOM     37  C   UNL A   1      41.896  24.900  28.374  1.00  0.00     0.016 A 
ATOM     38  C   UNL A   1      40.239  25.492  26.671  1.00  0.00     0.016 A 
ATOM     39  C   UNL A   1      41.967  26.224  28.751  1.00  0.00     0.010 A 
ATOM     40  C   UNL A   1      40.302  26.807  27.057  1.00  0.00     0.010 A 
ATOM     41  C   UNL A   1      41.101  27.139  28.148  1.00  0.00    -0.014 A 
BRANCH  41  42
ATOM     42  C   UNL A   1      41.063  28.493  28.657  1.00  0.00     0.031 A 
ATOM     43  C   UNL A   1      42.241  29.307  28.287  1.00  0.00     0.074 A 
ATOM     44  C   UNL A   1      39.973  28.985  29.274  1.00  0.00     0.049 A 
ATOM     45  N   UNL A   1      43.102  29.858  29.073  1.00  0.00    -0.248 NA
ATOM     46  C   UNL A   1      42.569  29.412  26.856  1.00  0.00     0.031 C 
ATOM     47  C   UNL A   1      38.652  28.363  29.413  1.00  0.00     0.029 A 
ATOM     48  N   UNL A   1      39.785  30.225  29.794  1.00  0.00    -0.354 N 
ATOM     49  C   UNL A   1      43.994  30.527  28.242  1.00  0.00     0.074 A 
ATOM     50  C   UNL A   1      43.716  30.088  26.899  1.00  0.00     0.031 C 
ATOM     51  C   UNL A   1      37.750  29.315  29.746  1.00  0.00     0.029 A 
ATOM     52  C   UNL A   1      38.453  30.566  29.973  1.00  0.00     0.049 A 
ATOM     53  H   UNL A   1      40.529  30.828  30.022  1.00  0.00     0.167 HD
ATOM     54  C   UNL A   1      44.740  31.573  28.687  1.00  0.00     0.031 A 
ATOM     55  C   UNL A   1      37.970  31.810  30.204  1.00  0.00     0.031 A 
ATOM     56  C   UNL A   1      44.796  31.624  30.122  1.00  0.00     0.049 A 
ATOM     57  C   UNL A   1      39.099  32.652  30.670  1.00  0.00     0.074 A 
ATOM     58  C   UNL A   1      45.274  30.781  31.105  1.00  0.00     0.029 A 
ATOM     59  N   UNL A   1      43.951  32.505  30.752  1.00  0.00    -0.354 N 
ATOM     60  N   UNL A   1      39.701  32.475  31.812  1.00  0.00    -0.248 NA
ATOM     61  C   UNL A   1      39.859  33.394  29.675  1.00  0.00     0.031 C 
ATOM     62  C   UNL A   1      44.337  30.895  32.172  1.00  0.00     0.029 A 
ATOM     63  C   UNL A   1      43.375  31.839  31.804  1.00  0.00     0.049 A 
ATOM     64  H   UNL A   1      43.788  33.442  30.496  1.00  0.00     0.167 HD
ATOM     65  C   UNL A   1      41.046  32.690  31.542  1.00  0.00     0.074 A 
ATOM     66  C   UNL A   1      41.070  33.354  30.239  1.00  0.00     0.031 C 
ATOM     67  C   UNL A   1      42.020  32.055  32.259  1.00  0.00     0.031 A 
BRANCH  54  68
ATOM     68  C   UNL A   1      45.065  32.765  27.827  1.00  0.00    -0.014 A 
ATOM     69  C   UNL A   1      44.020  33.610  27.419  1.00  0.00     0.009 A 
ATOM     70  C   UNL A   1      46.304  32.923  27.174  1.00  0.00     0.009 A 
ATOM     71  C   UNL A   1      44.191  34.517  26.367  1.00  0.00     0.001 A 
ATOM     72  C   UNL A   1      46.490  33.856  26.154  1.00  0.00     0.001 A 
ATOM     73  C   UNL A   1      45.423  34.634  25.730  1.00  0.00     0.000 A 
ENDBRANCH  54  68
BRANCH  55  74
ATOM     74  C   UNL A   1      36.688  32.383  29.738  1.00  0.00    -0.014 A 
ATOM     75  C   UNL A   1      36.308  32.309  28.390  1.00  0.00     0.009 A 
ATOM     76  C   UNL A   1      35.713  32.783  30.673  1.00  0.00     0.009 A 
ATOM     77  C   UNL A   1      34.993  32.598  27.998  1.00  0.00     0.001 A 
ATOM     78  C   UNL A   1      34.403  33.073  30.282  1.00  0.00     0.001 A 
ATOM     79  C   UNL A   1      34.039  32.968  28.944  1.00  0.00     0.000 A 
ENDBRANCH  55  74
BRANCH  67  80
ATOM     80  C   UNL A   1      41.602  31.280  33.484  1.00  0.00    -0.014 A 
ATOM     81  C   UNL A   1      41.216  29.929  33.438  1.00  0.00     0.009 A 
ATOM     82  C   UNL A   1      41.776  31.878  34.741  1.00  0.00     0.009 A 
ATOM     83  C   UNL A   1      40.993  29.205  34.614  1.00  0.00     0.001 A 
ATOM     84  C   UNL A   1      41.573  31.151  35.915  1.00  0.00     0.001 A 
ATOM     85  C   UNL A   1      41.179  29.815  35.852  1.00  0.00     0.000 A 
ENDBRANCH  67  80
ENDBRANCH  41  42
ENDBRANCH  34  36
ENDBRANCH  33  34
ENDBRANCH  32  33
ENDBRANCH   1  32
TORSDOF 15
ENDMDL
MODEL 3
REMARK VINA RESULT:     -12.2      3.429      8.651
REMARK SMILES COC(=O)c1ccc([C@H]2CC(=O)Nc3c(C(=O)OCCOC(=O)c4ccc(-c5c6nc(c(-c7ccccc7)c7ccc([nH]7)c(-c7ccccc7)c7nc(c(-c8ccccc8)c8ccc5[nH]8)C=C7)C=C6)cc4)cn(-c4ccccc4)c32)cc1
REMARK SMILES IDX 19 1 18 2 16 3 17 4 15 5 9 6 10 7 80 8 11 9 14 10 73 11
REMARK SMILES IDX 12 12 13 13 72 14 8 16 5 17 6 18 82 19 7 20 81 21 3 22 4 23
REMARK SMILES IDX 2 24 1 25 74 26 75 27 79 28 76 29 78 30 77 31 20 32 21 33
REMARK SMILES IDX 22 34 23 35 24 36 25 37 71 38 26 39 70 40 27 41 28 42 29 43
REMARK SMILES IDX 64 44 30 45 69 46 63 47 65 48 31 49 68 50 62 51 61 52 32 54
REMARK SMILES IDX 54 55 39 56 53 57 40 58 43 59 52 60 66 61 41 62 42 63 51 65
REMARK SMILES IDX 67 66 44 67 33 68 34 69 38 70 35 71 37 72 36 73 55 74 56 75
REMARK SMILES IDX 60 76 57 77 59 78 58 79 45 80 46 81 50 82 47 83 49 84 48 85
REMARK H PARENT 13 15 65 53 43 64
REMARK Flexibility Score: inf
ROOT
ATOM      1  C   UNL A   1      32.293  30.537  26.781  1.00  0.00     0.275 C 
ENDROOT
BRANCH   1   2
ATOM      2  O   UNL A   1      32.962  29.277  26.599  1.00  0.00    -0.458 OA
BRANCH   2   3
ATOM      3  C   UNL A   1      32.310  28.165  27.060  1.00  0.00     0.341 C 
ATOM      4  O   UNL A   1      31.572  28.151  28.042  1.00  0.00    -0.246 OA
BRANCH   3   5
ATOM      5  C   UNL A   1      32.520  27.007  26.203  1.00  0.00     0.102 A 
ATOM      6  C   UNL A   1      31.564  24.404  23.722  1.00  0.00     0.078 C 
ATOM      7  C   UNL A   1      30.059  24.716  23.650  1.00  0.00     0.115 C 
ATOM      8  C   UNL A   1      32.244  25.324  24.703  1.00  0.00     0.055 A 
ATOM      9  C   UNL A   1      29.670  26.161  23.913  1.00  0.00     0.225 C 
ATOM     10  C   UNL A   1      31.657  26.445  25.236  1.00  0.00     0.078 A 
ATOM     11  N   UNL A   1      33.515  25.216  25.248  1.00  0.00    -0.317 N 
ATOM     12  O   UNL A   1      28.644  26.650  23.437  1.00  0.00    -0.275 OA
ATOM     13  N   UNL A   1      30.425  26.869  24.807  1.00  0.00    -0.324 N 
ATOM     14  C   UNL A   1      33.629  26.172  26.239  1.00  0.00     0.109 A 
ATOM     15  H   UNL A   1      30.069  27.716  25.158  1.00  0.00     0.170 HD
BRANCH   6  16
ATOM     16  C   UNL A   1      31.737  22.909  23.994  1.00  0.00    -0.038 A 
ATOM     17  C   UNL A   1      32.332  20.200  24.511  1.00  0.00     0.060 A 
ATOM     18  C   UNL A   1      32.457  20.717  23.216  1.00  0.00     0.016 A 
ATOM     19  C   UNL A   1      31.831  21.018  25.528  1.00  0.00     0.016 A 
ATOM     20  C   UNL A   1      32.163  22.061  22.961  1.00  0.00     0.005 A 
ATOM     21  C   UNL A   1      31.504  22.349  25.262  1.00  0.00     0.005 A 
BRANCH  17  22
ATOM     22  C   UNL A   1      32.777  18.804  24.771  1.00  0.00     0.337 C 
ATOM     23  O   UNL A   1      32.207  18.041  25.533  1.00  0.00    -0.246 OA
BRANCH  22  24
ATOM     24  O   UNL A   1      33.879  18.517  24.033  1.00  0.00    -0.465 OA
ATOM     25  C   UNL A   1      33.890  17.208  23.464  1.00  0.00     0.282 C 
ENDBRANCH  22  24
ENDBRANCH  17  22
ENDBRANCH   6  16
BRANCH  11  26
ATOM     26  C   UNL A   1      34.514  24.272  24.909  1.00  0.00     0.045 A 
ATOM     27  C   UNL A   1      34.993  24.218  23.596  1.00  0.00     0.026 A 
ATOM     28  C   UNL A   1      34.936  23.336  25.860  1.00  0.00     0.026 A 
ATOM     29  C   UNL A   1      35.864  23.195  23.221  1.00  0.00     0.002 A 
ATOM     30  C   UNL A   1      35.776  22.292  25.464  1.00  0.00     0.002 A 
ATOM     31  C   UNL A   1      36.234  22.221  24.147  1.00  0.00     0.000 A 
ENDBRANCH  11  26
ENDBRANCH   3   5
ENDBRANCH   2   3
ENDBRANCH   1   2
BRANCH   1  32
ATOM     32  C   UNL A   1      33.098  31.477  27.670  1.00  0.00     0.275 C 
BRANCH  32  33
ATOM     33  O   UNL A   1      32.991  32.824  27.216  1.00  0.00    -0.458 OA
BRANCH  33  34
ATOM     34  C   UNL A   1      33.063  33.772  28.176  1.00  0.00     0.338 C 
ATOM     35  O   UNL A   1      32.237  34.633  28.428  1.00  0.00    -0.246 OA
BRANCH  34  36
ATOM     36  C   UNL A   1      34.407  33.747  28.763  1.00  0.00     0.060 A 
ATOM     37  C   UNL A   1      35.475  34.115  27.939  1.00  0.00     0.016 A 
ATOM     38  C   UNL A   1      34.606  33.097  29.989  1.00  0.00     0.016 A 
ATOM     39  C   UNL A   1      36.736  33.655  28.256  1.00  0.00     0.010 A 
ATOM     40  C   UNL A   1      35.860  32.630  30.297  1.00  0.00     0.010 A 
ATOM     41  C   UNL A   1      36.888  32.842  29.382  1.00  0.00    -0.014 A 
BRANCH  41  42
ATOM     42  C   UNL A   1      38.176  32.230  29.623  1.00  0.00     0.031 A 
ATOM     43  C   UNL A   1      38.223  30.786  29.310  1.00  0.00     0.074 A 
ATOM     44  C   UNL A   1      39.255  32.963  29.951  1.00  0.00     0.049 A 
ATOM     45  N   UNL A   1      38.473  29.808  30.113  1.00  0.00    -0.248 NA
ATOM     46  C   UNL A   1      37.814  30.372  27.958  1.00  0.00     0.031 C 
ATOM     47  C   UNL A   1      39.384  34.424  29.982  1.00  0.00     0.029 A 
ATOM     48  N   UNL A   1      40.521  32.538  30.198  1.00  0.00    -0.354 N 
ATOM     49  C   UNL A   1      38.421  28.659  29.333  1.00  0.00     0.074 A 
ATOM     50  C   UNL A   1      37.858  29.045  28.065  1.00  0.00     0.031 C 
ATOM     51  C   UNL A   1      40.697  34.751  29.982  1.00  0.00     0.029 A 
ATOM     52  C   UNL A   1      41.482  33.533  30.090  1.00  0.00     0.049 A 
ATOM     53  H   UNL A   1      40.737  31.607  30.432  1.00  0.00     0.167 HD
ATOM     54  C   UNL A   1      39.063  27.516  29.696  1.00  0.00     0.031 A 
ATOM     55  C   UNL A   1      42.821  33.346  30.008  1.00  0.00     0.031 A 
ATOM     56  C   UNL A   1      39.425  27.520  31.087  1.00  0.00     0.049 A 
ATOM     57  C   UNL A   1      43.114  31.975  30.492  1.00  0.00     0.074 A 
ATOM     58  C   UNL A   1      38.720  27.577  32.272  1.00  0.00     0.029 A 
ATOM     59  N   UNL A   1      40.722  27.849  31.398  1.00  0.00    -0.354 N 
ATOM     60  N   UNL A   1      42.954  31.603  31.730  1.00  0.00    -0.248 NA
ATOM     61  C   UNL A   1      43.147  30.895  29.517  1.00  0.00     0.031 C 
ATOM     62  C   UNL A   1      39.514  28.390  33.132  1.00  0.00     0.029 A 
ATOM     63  C   UNL A   1      40.680  28.735  32.444  1.00  0.00     0.049 A 
ATOM     64  H   UNL A   1      41.532  27.511  30.952  1.00  0.00     0.167 HD
ATOM     65  C   UNL A   1      42.438  30.316  31.651  1.00  0.00     0.074 A 
ATOM     66  C   UNL A   1      42.677  29.896  30.271  1.00  0.00     0.031 C 
ATOM     67  C   UNL A   1      41.612  29.826  32.622  1.00  0.00     0.031 A 
BRANCH  54  68
ATOM     68  C   UNL A   1      39.715  26.597  28.699  1.00  0.00    -0.014 A 
ATOM     69  C   UNL A   1      40.751  27.098  27.893  1.00  0.00     0.009 A 
ATOM     70  C   UNL A   1      39.163  25.355  28.328  1.00  0.00     0.009 A 
ATOM     71  C   UNL A   1      41.162  26.421  26.738  1.00  0.00     0.001 A 
ATOM     72  C   UNL A   1      39.600  24.657  27.201  1.00  0.00     0.001 A 
ATOM     73  C   UNL A   1      40.580  25.205  26.390  1.00  0.00     0.000 A 
ENDBRANCH  54  68
BRANCH  55  74
ATOM     74  C   UNL A   1      43.799  34.147  29.240  1.00  0.00    -0.014 A 
ATOM     75  C   UNL A   1      43.980  33.946  27.864  1.00  0.00     0.009 A 
ATOM     76  C   UNL A   1      44.379  35.294  29.817  1.00  0.00     0.009 A 
ATOM     77  C   UNL A   1      44.693  34.874  27.090  1.00  0.00     0.001 A 
ATOM     78  C   UNL A   1      45.091  36.217  29.046  1.00  0.00     0.001 A 
ATOM     79  C   UNL A   1      45.237  36.014  27.679  1.00  0.00     0.000 A 
ENDBRANCH  55  74
BRANCH  67  80
ATOM     80  C   UNL A   1      41.446  30.640  33.883  1.00  0.00    -0.014 A 
ATOM     81  C   UNL A   1      40.508  31.681  34.000  1.00  0.00     0.009 A 
ATOM     82  C   UNL A   1      42.125  30.224  35.037  1.00  0.00     0.009 A 
ATOM     83  C   UNL A   1      40.274  32.300  35.233  1.00  0.00     0.001 A 
ATOM     84  C   UNL A   1      41.877  30.828  36.271  1.00  0.00     0.001 A 
ATOM     85  C   UNL A   1      40.953  31.867  36.368  1.00  0.00     0.000 A 
ENDBRANCH  67  80
ENDBRANCH  41  42
ENDBRANCH  34  36
ENDBRANCH  33  34
ENDBRANCH  32  33
ENDBRANCH   1  32
TORSDOF 15
ENDMDL
