MODEL 1
REMARK VINA RESULT:     -11.1      0.000      0.000
REMARK SMILES COc1cc(C)cc2c1O[C@H](C(F)(F)F)C(C(=O)OCCOC(=O)c1ccc(-c3c4nc(c(-c5ccccc5)c5ccc([nH]5)c(-c5ccccc5)c5nc(c(-c6ccccc6)c6ccc3[nH]6)C=C5)C=C4)cc1)=C2
REMARK SMILES IDX 21 1 20 2 19 3 17 4 18 5 16 6 3 7 4 8 9 9 5 10 8 11 10 12
REMARK SMILES IDX 6 13 7 14 73 15 11 16 2 17 1 18 12 19 13 20 14 21 15 22
REMARK SMILES IDX 22 23 23 24 24 25 25 26 26 27 72 28 27 29 71 30 28 31 29 32
REMARK SMILES IDX 30 33 65 34 31 35 70 36 64 37 66 38 32 39 69 40 63 41 62 42
REMARK SMILES IDX 33 44 55 45 40 46 54 47 41 48 44 49 53 50 67 51 42 52 43 53
REMARK SMILES IDX 52 55 68 56 45 57 34 58 35 59 39 60 36 61 38 62 37 63 56 64
REMARK SMILES IDX 57 65 61 66 58 67 60 68 59 69 46 70 47 71 51 72 48 73 50 74
REMARK SMILES IDX 49 75
REMARK H PARENT 66 43 44 54
REMARK Flexibility Score: inf
ROOT
ATOM      1  C   UNL A   1      36.585  20.572  25.001  1.00  0.00     0.275 C 
ENDROOT
BRANCH   1   2
ATOM      2  C   UNL A   1      35.205  21.223  24.906  1.00  0.00     0.275 C 
BRANCH   2   3
ATOM      3  O   UNL A   1      35.294  22.664  24.956  1.00  0.00    -0.459 OA
BRANCH   3   4
ATOM      4  C   UNL A   1      35.150  23.300  23.769  1.00  0.00     0.338 C 
ATOM      5  O   UNL A   1      35.711  23.021  22.721  1.00  0.00    -0.246 OA
BRANCH   4   6
ATOM      6  C   UNL A   1      34.153  24.383  23.879  1.00  0.00     0.087 C 
ATOM      7  C   UNL A   1      31.221  27.303  24.504  1.00  0.00     0.161 A 
ATOM      8  C   UNL A   1      31.408  28.252  25.522  1.00  0.00     0.054 A 
ATOM      9  C   UNL A   1      32.202  26.336  24.252  1.00  0.00     0.169 A 
ATOM     10  C   UNL A   1      32.595  28.276  26.264  1.00  0.00    -0.047 A 
ATOM     11  C   UNL A   1      33.370  26.346  25.009  1.00  0.00     0.021 A 
ATOM     12  O   UNL A   1      31.979  25.435  23.244  1.00  0.00    -0.471 OA
ATOM     13  C   UNL A   1      32.824  29.284  27.351  1.00  0.00     0.044 C 
ATOM     14  C   UNL A   1      33.577  27.322  25.993  1.00  0.00     0.015 A 
ATOM     15  C   UNL A   1      34.369  25.323  24.804  1.00  0.00     0.027 C 
ATOM     16  C   UNL A   1      32.893  24.319  23.061  1.00  0.00     0.316 C 
BRANCH   7  17
ATOM     17  O   UNL A   1      30.057  27.226  23.781  1.00  0.00    -0.493 OA
ATOM     18  C   UNL A   1      29.896  28.288  22.847  1.00  0.00     0.278 C 
ENDBRANCH   7  17
BRANCH  16  19
ATOM     19  C   UNL A   1      32.132  23.009  23.325  1.00  0.00     0.430 C 
ATOM     20  F   UNL A   1      32.161  22.668  24.634  1.00  0.00    -0.167 F 
ATOM     21  F   UNL A   1      30.823  23.122  22.987  1.00  0.00    -0.167 F 
ATOM     22  F   UNL A   1      32.639  21.972  22.619  1.00  0.00    -0.167 F 
ENDBRANCH  16  19
ENDBRANCH   4   6
ENDBRANCH   3   4
ENDBRANCH   2   3
ENDBRANCH   1   2
BRANCH   1  23
ATOM     23  O   UNL A   1      37.603  21.581  25.123  1.00  0.00    -0.458 OA
BRANCH  23  24
ATOM     24  C   UNL A   1      38.706  21.221  25.819  1.00  0.00     0.338 C 
ATOM     25  O   UNL A   1      39.217  20.118  25.892  1.00  0.00    -0.246 OA
BRANCH  24  26
ATOM     26  C   UNL A   1      39.294  22.414  26.446  1.00  0.00     0.060 A 
ATOM     27  C   UNL A   1      40.458  22.340  27.200  1.00  0.00     0.016 A 
ATOM     28  C   UNL A   1      38.744  23.652  26.139  1.00  0.00     0.016 A 
ATOM     29  C   UNL A   1      41.052  23.526  27.652  1.00  0.00     0.010 A 
ATOM     30  C   UNL A   1      39.411  24.828  26.460  1.00  0.00     0.010 A 
ATOM     31  C   UNL A   1      40.560  24.788  27.254  1.00  0.00    -0.014 A 
BRANCH  31  32
ATOM     32  C   UNL A   1      41.243  26.053  27.656  1.00  0.00     0.031 A 
ATOM     33  C   UNL A   1      42.598  26.428  27.098  1.00  0.00     0.074 A 
ATOM     34  C   UNL A   1      40.659  26.865  28.562  1.00  0.00     0.049 A 
ATOM     35  N   UNL A   1      43.303  27.513  27.311  1.00  0.00    -0.248 NA
ATOM     36  C   UNL A   1      43.270  25.450  26.225  1.00  0.00     0.031 C 
ATOM     37  C   UNL A   1      39.405  26.583  29.267  1.00  0.00     0.029 A 
ATOM     38  N   UNL A   1      41.026  28.104  29.029  1.00  0.00    -0.354 N 
ATOM     39  C   UNL A   1      44.500  27.331  26.625  1.00  0.00     0.074 A 
ATOM     40  C   UNL A   1      44.460  26.008  26.049  1.00  0.00     0.031 C 
ATOM     41  C   UNL A   1      39.060  27.653  29.998  1.00  0.00     0.029 A 
ATOM     42  C   UNL A   1      40.087  28.680  29.853  1.00  0.00     0.049 A 
ATOM     43  H   UNL A   1      41.878  28.539  28.795  1.00  0.00     0.167 HD
ATOM     44  C   UNL A   1      45.524  28.199  26.450  1.00  0.00     0.031 A 
ATOM     45  C   UNL A   1      40.036  29.907  30.409  1.00  0.00     0.031 A 
ATOM     46  C   UNL A   1      45.542  29.539  26.969  1.00  0.00     0.049 A 
ATOM     47  C   UNL A   1      41.143  30.885  30.140  1.00  0.00     0.074 A 
ATOM     48  C   UNL A   1      46.492  30.525  26.767  1.00  0.00     0.029 A 
ATOM     49  N   UNL A   1      44.559  30.085  27.777  1.00  0.00    -0.354 N 
ATOM     50  N   UNL A   1      42.223  30.726  29.415  1.00  0.00    -0.248 NA
ATOM     51  C   UNL A   1      41.021  32.216  30.753  1.00  0.00     0.031 C 
ATOM     52  C   UNL A   1      46.105  31.656  27.488  1.00  0.00     0.029 A 
ATOM     53  C   UNL A   1      44.886  31.392  28.094  1.00  0.00     0.049 A 
ATOM     54  H   UNL A   1      43.749  29.615  28.081  1.00  0.00     0.167 HD
ATOM     55  C   UNL A   1      42.901  31.936  29.470  1.00  0.00     0.074 A 
ATOM     56  C   UNL A   1      42.101  32.829  30.284  1.00  0.00     0.031 C 
ATOM     57  C   UNL A   1      44.082  32.272  28.900  1.00  0.00     0.031 A 
BRANCH  44  58
ATOM     58  C   UNL A   1      46.701  27.750  25.624  1.00  0.00    -0.014 A 
ATOM     59  C   UNL A   1      46.704  27.955  24.235  1.00  0.00     0.009 A 
ATOM     60  C   UNL A   1      47.768  27.047  26.206  1.00  0.00     0.009 A 
ATOM     61  C   UNL A   1      47.748  27.464  23.448  1.00  0.00     0.001 A 
ATOM     62  C   UNL A   1      48.826  26.586  25.421  1.00  0.00     0.001 A 
ATOM     63  C   UNL A   1      48.811  26.787  24.042  1.00  0.00     0.000 A 
ENDBRANCH  44  58
BRANCH  45  64
ATOM     64  C   UNL A   1      38.842  30.295  31.207  1.00  0.00    -0.014 A 
ATOM     65  C   UNL A   1      37.719  30.871  30.593  1.00  0.00     0.009 A 
ATOM     66  C   UNL A   1      38.851  30.149  32.603  1.00  0.00     0.009 A 
ATOM     67  C   UNL A   1      36.640  31.313  31.361  1.00  0.00     0.001 A 
ATOM     68  C   UNL A   1      37.758  30.566  33.366  1.00  0.00     0.001 A 
ATOM     69  C   UNL A   1      36.658  31.157  32.747  1.00  0.00     0.000 A 
ENDBRANCH  45  64
BRANCH  57  70
ATOM     70  C   UNL A   1      44.599  33.665  29.116  1.00  0.00    -0.014 A 
ATOM     71  C   UNL A   1      44.292  34.673  28.187  1.00  0.00     0.009 A 
ATOM     72  C   UNL A   1      45.486  33.951  30.165  1.00  0.00     0.009 A 
ATOM     73  C   UNL A   1      44.878  35.935  28.295  1.00  0.00     0.001 A 
ATOM     74  C   UNL A   1      46.049  35.222  30.284  1.00  0.00     0.001 A 
ATOM     75  C   UNL A   1      45.754  36.209  29.344  1.00  0.00     0.000 A 
ENDBRANCH  57  70
ENDBRANCH  31  32
ENDBRANCH  24  26
ENDBRANCH  23  24
ENDBRANCH   1  23
TORSDOF 13
ENDMDL
MODEL 2
REMARK VINA RESULT:     -11.0      5.808      9.682
REMARK SMILES COc1cc(C)cc2c1O[C@H](C(F)(F)F)C(C(=O)OCCOC(=O)c1ccc(-c3c4nc(c(-c5ccccc5)c5ccc([nH]5)c(-c5ccccc5)c5nc(c(-c6ccccc6)c6ccc3[nH]6)C=C5)C=C4)cc1)=C2
REMARK SMILES IDX 21 1 20 2 19 3 17 4 18 5 16 6 3 7 4 8 9 9 5 10 8 11 10 12
REMARK SMILES IDX 6 13 7 14 73 15 11 16 2 17 1 18 12 19 13 20 14 21 15 22
REMARK SMILES IDX 22 23 23 24 24 25 25 26 26 27 72 28 27 29 71 30 28 31 29 32
REMARK SMILES IDX 30 33 65 34 31 35 70 36 64 37 66 38 32 39 69 40 63 41 62 42
REMARK SMILES IDX 33 44 55 45 40 46 54 47 41 48 44 49 53 50 67 51 42 52 43 53
REMARK SMILES IDX 52 55 68 56 45 57 34 58 35 59 39 60 36 61 38 62 37 63 56 64
REMARK SMILES IDX 57 65 61 66 58 67 60 68 59 69 46 70 47 71 51 72 48 73 50 74
REMARK SMILES IDX 49 75
REMARK H PARENT 66 43 44 54
REMARK Flexibility Score: inf
ROOT
ATOM      1  C   UNL A   1      33.418  33.721  27.892  1.00  0.00     0.275 C 
ENDROOT
BRANCH   1   2
ATOM      2  C   UNL A   1      33.398  34.466  29.226  1.00  0.00     0.275 C 
BRANCH   2   3
ATOM      3  O   UNL A   1      34.715  34.530  29.817  1.00  0.00    -0.459 OA
BRANCH   3   4
ATOM      4  C   UNL A   1      34.939  33.671  30.839  1.00  0.00     0.338 C 
ATOM      5  O   UNL A   1      34.326  32.640  31.071  1.00  0.00    -0.246 OA
BRANCH   4   6
ATOM      6  C   UNL A   1      36.094  34.113  31.645  1.00  0.00     0.087 C 
ATOM      7  C   UNL A   1      39.449  35.016  33.979  1.00  0.00     0.161 A 
ATOM      8  C   UNL A   1      40.729  34.785  33.452  1.00  0.00     0.054 A 
ATOM      9  C   UNL A   1      38.310  34.754  33.206  1.00  0.00     0.169 A 
ATOM     10  C   UNL A   1      40.888  34.338  32.136  1.00  0.00    -0.047 A 
ATOM     11  C   UNL A   1      38.470  34.285  31.906  1.00  0.00     0.021 A 
ATOM     12  O   UNL A   1      37.081  35.003  33.759  1.00  0.00    -0.471 OA
ATOM     13  C   UNL A   1      42.245  34.090  31.546  1.00  0.00     0.044 C 
ATOM     14  C   UNL A   1      39.749  34.099  31.365  1.00  0.00     0.015 A 
ATOM     15  C   UNL A   1      37.309  33.954  31.112  1.00  0.00     0.027 C 
ATOM     16  C   UNL A   1      35.878  34.589  33.054  1.00  0.00     0.316 C 
BRANCH   7  17
ATOM     17  O   UNL A   1      39.253  35.420  35.276  1.00  0.00    -0.493 OA
ATOM     18  C   UNL A   1      40.293  36.253  35.776  1.00  0.00     0.278 C 
ENDBRANCH   7  17
BRANCH  16  19
ATOM     19  C   UNL A   1      35.157  33.520  33.892  1.00  0.00     0.430 C 
ATOM     20  F   UNL A   1      35.610  32.276  33.613  1.00  0.00    -0.167 F 
ATOM     21  F   UNL A   1      35.360  33.714  35.219  1.00  0.00    -0.167 F 
ATOM     22  F   UNL A   1      33.820  33.526  33.687  1.00  0.00    -0.167 F 
ENDBRANCH  16  19
ENDBRANCH   4   6
ENDBRANCH   3   4
ENDBRANCH   2   3
ENDBRANCH   1   2
BRANCH   1  23
ATOM     23  O   UNL A   1      34.621  32.940  27.776  1.00  0.00    -0.458 OA
BRANCH  23  24
ATOM     24  C   UNL A   1      34.458  31.599  27.845  1.00  0.00     0.338 C 
ATOM     25  O   UNL A   1      33.459  30.953  27.587  1.00  0.00    -0.246 OA
BRANCH  24  26
ATOM     26  C   UNL A   1      35.738  30.974  28.210  1.00  0.00     0.060 A 
ATOM     27  C   UNL A   1      36.928  31.691  28.194  1.00  0.00     0.016 A 
ATOM     28  C   UNL A   1      35.712  29.685  28.725  1.00  0.00     0.016 A 
ATOM     29  C   UNL A   1      38.092  31.086  28.688  1.00  0.00     0.010 A 
ATOM     30  C   UNL A   1      36.829  29.143  29.348  1.00  0.00     0.010 A 
ATOM     31  C   UNL A   1      38.051  29.820  29.310  1.00  0.00    -0.014 A 
BRANCH  31  32
ATOM     32  C   UNL A   1      39.269  29.212  29.922  1.00  0.00     0.031 A 
ATOM     33  C   UNL A   1      39.998  28.069  29.251  1.00  0.00     0.074 A 
ATOM     34  C   UNL A   1      39.712  29.664  31.114  1.00  0.00     0.049 A 
ATOM     35  N   UNL A   1      41.098  27.461  29.629  1.00  0.00    -0.248 NA
ATOM     36  C   UNL A   1      39.405  27.505  28.026  1.00  0.00     0.031 C 
ATOM     37  C   UNL A   1      39.051  30.686  31.930  1.00  0.00     0.029 A 
ATOM     38  N   UNL A   1      40.836  29.343  31.837  1.00  0.00    -0.354 N 
ATOM     39  C   UNL A   1      41.303  26.437  28.709  1.00  0.00     0.074 A 
ATOM     40  C   UNL A   1      40.183  26.457  27.798  1.00  0.00     0.031 C 
ATOM     41  C   UNL A   1      39.825  30.976  32.986  1.00  0.00     0.029 A 
ATOM     42  C   UNL A   1      41.014  30.131  32.950  1.00  0.00     0.049 A 
ATOM     43  H   UNL A   1      41.454  28.621  31.582  1.00  0.00     0.167 HD
ATOM     44  C   UNL A   1      42.348  25.584  28.601  1.00  0.00     0.031 A 
ATOM     45  C   UNL A   1      42.032  30.193  33.832  1.00  0.00     0.031 A 
ATOM     46  C   UNL A   1      43.495  25.601  29.467  1.00  0.00     0.049 A 
ATOM     47  C   UNL A   1      43.220  29.293  33.651  1.00  0.00     0.074 A 
ATOM     48  C   UNL A   1      44.647  24.838  29.381  1.00  0.00     0.029 A 
ATOM     49  N   UNL A   1      43.642  26.431  30.565  1.00  0.00    -0.354 N 
ATOM     50  N   UNL A   1      43.437  28.393  32.723  1.00  0.00    -0.248 NA
ATOM     51  C   UNL A   1      44.311  29.423  34.629  1.00  0.00     0.031 C 
ATOM     52  C   UNL A   1      45.474  25.177  30.453  1.00  0.00     0.029 A 
ATOM     53  C   UNL A   1      44.861  26.190  31.174  1.00  0.00     0.049 A 
ATOM     54  H   UNL A   1      42.979  27.093  30.868  1.00  0.00     0.167 HD
ATOM     55  C   UNL A   1      44.691  27.862  32.993  1.00  0.00     0.074 A 
ATOM     56  C   UNL A   1      45.198  28.553  34.161  1.00  0.00     0.031 C 
ATOM     57  C   UNL A   1      45.357  26.886  32.333  1.00  0.00     0.031 A 
BRANCH  44  58
ATOM     58  C   UNL A   1      42.331  24.581  27.477  1.00  0.00    -0.014 A 
ATOM     59  C   UNL A   1      41.719  23.330  27.659  1.00  0.00     0.009 A 
ATOM     60  C   UNL A   1      42.995  24.839  26.267  1.00  0.00     0.009 A 
ATOM     61  C   UNL A   1      41.774  22.360  26.656  1.00  0.00     0.001 A 
ATOM     62  C   UNL A   1      43.021  23.879  25.253  1.00  0.00     0.001 A 
ATOM     63  C   UNL A   1      42.418  22.639  25.452  1.00  0.00     0.000 A 
ENDBRANCH  44  58
BRANCH  45  64
ATOM     64  C   UNL A   1      41.996  31.212  34.915  1.00  0.00    -0.014 A 
ATOM     65  C   UNL A   1      42.800  32.360  34.854  1.00  0.00     0.009 A 
ATOM     66  C   UNL A   1      41.199  31.003  36.052  1.00  0.00     0.009 A 
ATOM     67  C   UNL A   1      42.825  33.266  35.916  1.00  0.00     0.001 A 
ATOM     68  C   UNL A   1      41.204  31.925  37.101  1.00  0.00     0.001 A 
ATOM     69  C   UNL A   1      42.024  33.051  37.037  1.00  0.00     0.000 A 
ENDBRANCH  45  64
BRANCH  57  70
ATOM     70  C   UNL A   1      46.717  26.493  32.836  1.00  0.00    -0.014 A 
ATOM     71  C   UNL A   1      47.858  27.139  32.332  1.00  0.00     0.009 A 
ATOM     72  C   UNL A   1      46.876  25.409  33.710  1.00  0.00     0.009 A 
ATOM     73  C   UNL A   1      49.133  26.693  32.681  1.00  0.00     0.001 A 
ATOM     74  C   UNL A   1      48.154  24.982  34.078  1.00  0.00     0.001 A 
ATOM     75  C   UNL A   1      49.280  25.618  33.555  1.00  0.00     0.000 A 
ENDBRANCH  57  70
ENDBRANCH  31  32
ENDBRANCH  24  26
ENDBRANCH  23  24
ENDBRANCH   1  23
TORSDOF 13
ENDMDL
MODEL 3
REMARK VINA RESULT:     -11.0      3.623      8.618
REMARK SMILES COc1cc(C)cc2c1O[C@H](C(F)(F)F)C(C(=O)OCCOC(=O)c1ccc(-c3c4nc(c(-c5ccccc5)c5ccc([nH]5)c(-c5ccccc5)c5nc(c(-c6ccccc6)c6ccc3[nH]6)C=C5)C=C4)cc1)=C2
REMARK SMILES IDX 21 1 20 2 19 3 17 4 18 5 16 6 3 7 4 8 9 9 5 10 8 11 10 12
REMARK SMILES IDX 6 13 7 14 73 15 11 16 2 17 1 18 12 19 13 20 14 21 15 22
REMARK SMILES IDX 22 23 23 24 24 25 25 26 26 27 72 28 27 29 71 30 28 31 29 32
REMARK SMILES IDX 30 33 65 34 31 35 70 36 64 37 66 38 32 39 69 40 63 41 62 42
REMARK SMILES IDX 33 44 55 45 40 46 54 47 41 48 44 49 53 50 67 51 42 52 43 53
REMARK SMILES IDX 52 55 68 56 45 57 34 58 35 59 39 60 36 61 38 62 37 63 56 64
REMARK SMILES IDX 57 65 61 66 58 67 60 68 59 69 46 70 47 71 51 72 48 73 50 74
REMARK SMILES IDX 49 75
REMARK H PARENT 66 43 44 54
REMARK Flexibility Score: inf
ROOT
ATOM      1  C   UNL A   1      31.691  30.425  25.697  1.00  0.00     0.275 C 
ENDROOT
BRANCH   1   2
ATOM      2  C   UNL A   1      31.372  29.094  25.016  1.00  0.00     0.275 C 
BRANCH   2   3
ATOM      3  O   UNL A   1      32.293  28.057  25.421  1.00  0.00    -0.459 OA
BRANCH   3   4
ATOM      4  C   UNL A   1      31.783  27.109  26.241  1.00  0.00     0.338 C 
ATOM      5  O   UNL A   1      31.029  27.292  27.184  1.00  0.00    -0.246 OA
BRANCH   4   6
ATOM      6  C   UNL A   1      32.219  25.765  25.813  1.00  0.00     0.087 C 
ATOM      7  C   UNL A   1      33.583  22.109  24.301  1.00  0.00     0.161 A 
ATOM      8  C   UNL A   1      34.964  21.865  24.249  1.00  0.00     0.054 A 
ATOM      9  C   UNL A   1      33.099  23.311  24.833  1.00  0.00     0.169 A 
ATOM     10  C   UNL A   1      35.873  22.792  24.772  1.00  0.00    -0.047 A 
ATOM     11  C   UNL A   1      34.006  24.243  25.329  1.00  0.00     0.021 A 
ATOM     12  O   UNL A   1      31.742  23.502  24.871  1.00  0.00    -0.471 OA
ATOM     13  C   UNL A   1      37.353  22.553  24.736  1.00  0.00     0.044 C 
ATOM     14  C   UNL A   1      35.381  23.979  25.320  1.00  0.00     0.015 A 
ATOM     15  C   UNL A   1      33.531  25.513  25.830  1.00  0.00     0.027 C 
ATOM     16  C   UNL A   1      31.210  24.798  25.261  1.00  0.00     0.316 C 
BRANCH   7  17
ATOM     17  O   UNL A   1      32.666  21.239  23.766  1.00  0.00    -0.493 OA
ATOM     18  C   UNL A   1      32.528  20.031  24.506  1.00  0.00     0.278 C 
ENDBRANCH   7  17
BRANCH  16  19
ATOM     19  C   UNL A   1      30.463  25.406  24.062  1.00  0.00     0.430 C 
ATOM     20  F   UNL A   1      29.906  24.451  23.282  1.00  0.00    -0.167 F 
ATOM     21  F   UNL A   1      29.449  26.210  24.468  1.00  0.00    -0.167 F 
ATOM     22  F   UNL A   1      31.276  26.153  23.279  1.00  0.00    -0.167 F 
ENDBRANCH  16  19
ENDBRANCH   4   6
ENDBRANCH   3   4
ENDBRANCH   2   3
ENDBRANCH   1   2
BRANCH   1  23
ATOM     23  O   UNL A   1      32.688  30.235  26.717  1.00  0.00    -0.458 OA
BRANCH  23  24
ATOM     24  C   UNL A   1      33.284  31.361  27.171  1.00  0.00     0.338 C 
ATOM     25  O   UNL A   1      32.808  32.479  27.250  1.00  0.00    -0.246 OA
BRANCH  24  26
ATOM     26  C   UNL A   1      34.629  31.032  27.664  1.00  0.00     0.060 A 
ATOM     27  C   UNL A   1      35.539  32.023  28.012  1.00  0.00     0.016 A 
ATOM     28  C   UNL A   1      34.922  29.699  27.924  1.00  0.00     0.016 A 
ATOM     29  C   UNL A   1      36.750  31.653  28.611  1.00  0.00     0.010 A 
ATOM     30  C   UNL A   1      36.053  29.346  28.649  1.00  0.00     0.010 A 
ATOM     31  C   UNL A   1      37.007  30.314  28.976  1.00  0.00    -0.014 A 
BRANCH  31  32
ATOM     32  C   UNL A   1      38.255  29.928  29.697  1.00  0.00     0.031 A 
ATOM     33  C   UNL A   1      38.471  30.295  31.149  1.00  0.00     0.074 A 
ATOM     34  C   UNL A   1      39.230  29.269  29.035  1.00  0.00     0.049 A 
ATOM     35  N   UNL A   1      39.479  29.994  31.932  1.00  0.00    -0.248 NA
ATOM     36  C   UNL A   1      37.452  31.138  31.798  1.00  0.00     0.031 C 
ATOM     37  C   UNL A   1      39.210  28.943  27.607  1.00  0.00     0.029 A 
ATOM     38  N   UNL A   1      40.415  28.732  29.479  1.00  0.00    -0.354 N 
ATOM     39  C   UNL A   1      39.226  30.631  33.142  1.00  0.00     0.074 A 
ATOM     40  C   UNL A   1      38.011  31.392  32.973  1.00  0.00     0.031 C 
ATOM     41  C   UNL A   1      40.276  28.184  27.314  1.00  0.00     0.029 A 
ATOM     42  C   UNL A   1      41.080  28.006  28.519  1.00  0.00     0.049 A 
ATOM     43  H   UNL A   1      40.753  28.854  30.395  1.00  0.00     0.167 HD
ATOM     44  C   UNL A   1      39.914  30.559  34.306  1.00  0.00     0.031 A 
ATOM     45  C   UNL A   1      42.196  27.254  28.599  1.00  0.00     0.031 A 
ATOM     46  C   UNL A   1      41.089  29.754  34.498  1.00  0.00     0.049 A 
ATOM     47  C   UNL A   1      42.903  27.121  29.917  1.00  0.00     0.074 A 
ATOM     48  C   UNL A   1      41.803  29.542  35.665  1.00  0.00     0.029 A 
ATOM     49  N   UNL A   1      41.712  29.017  33.505  1.00  0.00    -0.354 N 
ATOM     50  N   UNL A   1      42.598  27.659  31.072  1.00  0.00    -0.248 NA
ATOM     51  C   UNL A   1      44.101  26.268  29.948  1.00  0.00     0.031 C 
ATOM     52  C   UNL A   1      42.884  28.709  35.368  1.00  0.00     0.029 A 
ATOM     53  C   UNL A   1      42.810  28.359  34.029  1.00  0.00     0.049 A 
ATOM     54  H   UNL A   1      41.418  28.969  32.567  1.00  0.00     0.167 HD
ATOM     55  C   UNL A   1      43.551  27.200  31.970  1.00  0.00     0.074 A 
ATOM     56  C   UNL A   1      44.436  26.322  31.232  1.00  0.00     0.031 C 
ATOM     57  C   UNL A   1      43.681  27.486  33.287  1.00  0.00     0.031 A 
BRANCH  44  58
ATOM     58  C   UNL A   1      39.394  31.335  35.487  1.00  0.00    -0.014 A 
ATOM     59  C   UNL A   1      38.327  30.828  36.248  1.00  0.00     0.009 A 
ATOM     60  C   UNL A   1      39.900  32.607  35.797  1.00  0.00     0.009 A 
ATOM     61  C   UNL A   1      37.778  31.580  37.289  1.00  0.00     0.001 A 
ATOM     62  C   UNL A   1      39.371  33.342  36.860  1.00  0.00     0.001 A 
ATOM     63  C   UNL A   1      38.306  32.832  37.599  1.00  0.00     0.000 A 
ENDBRANCH  44  58
BRANCH  45  64
ATOM     64  C   UNL A   1      42.655  26.503  27.399  1.00  0.00    -0.014 A 
ATOM     65  C   UNL A   1      42.218  25.191  27.158  1.00  0.00     0.009 A 
ATOM     66  C   UNL A   1      43.589  27.077  26.523  1.00  0.00     0.009 A 
ATOM     67  C   UNL A   1      42.722  24.463  26.078  1.00  0.00     0.001 A 
ATOM     68  C   UNL A   1      44.070  26.357  25.428  1.00  0.00     0.001 A 
ATOM     69  C   UNL A   1      43.645  25.048  25.211  1.00  0.00     0.000 A 
ENDBRANCH  45  64
BRANCH  57  70
ATOM     70  C   UNL A   1      44.813  26.847  34.040  1.00  0.00    -0.014 A 
ATOM     71  C   UNL A   1      46.078  27.459  34.045  1.00  0.00     0.009 A 
ATOM     72  C   UNL A   1      44.662  25.587  34.636  1.00  0.00     0.009 A 
ATOM     73  C   UNL A   1      47.173  26.811  34.619  1.00  0.00     0.001 A 
ATOM     74  C   UNL A   1      45.754  24.954  35.232  1.00  0.00     0.001 A 
ATOM     75  C   UNL A   1      47.009  25.561  35.213  1.00  0.00     0.000 A 
ENDBRANCH  57  70
ENDBRANCH  31  32
ENDBRANCH  24  26
ENDBRANCH  23  24
ENDBRANCH   1  23
TORSDOF 13
ENDMDL
