MODEL 1
REMARK VINA RESULT:     -11.3      0.000      0.000
REMARK SMILES Nc1c(Cl)ccc2c1C=C(C(=O)OCCOC(=O)c1ccc(-c3c4nc(c(-c5ccccc5)c5ccc([nH]5)c(-c5ccccc5)c5nc(c(-c6ccccc6)c6ccc3[nH]6)C=C5)C=C4)cc1)[C@@H](C(F)(F)F)O2
REMARK SMILES IDX 15 1 14 2 13 3 11 4 12 5 10 6 2 7 3 8 8 9 4 10 5 11 7 12
REMARK SMILES IDX 9 13 6 14 72 15 67 16 1 17 68 20 69 21 70 22 71 23 16 24
REMARK SMILES IDX 17 25 18 26 19 27 20 28 66 29 21 30 65 31 22 32 23 33 24 34
REMARK SMILES IDX 59 35 25 36 64 37 58 38 60 39 26 40 63 41 57 42 56 43 27 45
REMARK SMILES IDX 49 46 34 47 48 48 35 49 38 50 47 51 61 52 36 53 37 54 46 56
REMARK SMILES IDX 62 57 39 58 28 59 29 60 33 61 30 62 32 63 31 64 50 65 51 66
REMARK SMILES IDX 55 67 52 68 54 69 53 70 40 71 41 72 45 73 42 74 44 75 43 76
REMARK H PARENT 1 18 1 19 60 44 38 55
REMARK Flexibility Score: inf
ROOT
ATOM      1  C   UNL A   1      33.441  28.615  26.303  1.00  0.00     0.275 C 
ENDROOT
BRANCH   1   2
ATOM      2  C   UNL A   1      33.805  27.209  25.828  1.00  0.00     0.275 C 
BRANCH   2   3
ATOM      3  O   UNL A   1      33.543  27.055  24.417  1.00  0.00    -0.459 OA
BRANCH   3   4
ATOM      4  C   UNL A   1      32.723  26.028  24.086  1.00  0.00     0.338 C 
ATOM      5  O   UNL A   1      33.009  24.846  24.065  1.00  0.00    -0.246 OA
BRANCH   4   6
ATOM      6  C   UNL A   1      31.369  26.540  23.789  1.00  0.00     0.088 C 
ATOM      7  C   UNL A   1      29.804  29.465  22.114  1.00  0.00     0.061 A 
ATOM      8  C   UNL A   1      28.524  30.055  22.082  1.00  0.00     0.064 A 
ATOM      9  C   UNL A   1      29.966  28.261  22.842  1.00  0.00     0.042 A 
ATOM     10  Cl  UNL A   1      28.269  31.572  21.284  1.00  0.00    -0.082 Cl
ATOM     11  C   UNL A   1      27.423  29.427  22.665  1.00  0.00     0.026 A 
ATOM     12  C   UNL A   1      28.850  27.622  23.399  1.00  0.00     0.130 A 
ATOM     13  C   UNL A   1      31.277  27.670  23.080  1.00  0.00     0.029 C 
ATOM     14  C   UNL A   1      27.584  28.199  23.303  1.00  0.00     0.049 A 
ATOM     15  O   UNL A   1      28.896  26.419  24.049  1.00  0.00    -0.475 OA
ATOM     16  C   UNL A   1      30.185  25.842  24.387  1.00  0.00     0.316 C 
BRANCH   7  17
ATOM     17  N   UNL A   1      30.896  30.123  21.527  1.00  0.00    -0.397 N 
ATOM     18  H   UNL A   1      31.395  29.694  20.795  1.00  0.00     0.156 HD
ATOM     19  H   UNL A   1      31.164  31.015  21.848  1.00  0.00     0.156 HD
ENDBRANCH   7  17
BRANCH  16  20
ATOM     20  C   UNL A   1      30.296  25.764  25.920  1.00  0.00     0.430 C 
ATOM     21  F   UNL A   1      30.652  26.958  26.449  1.00  0.00    -0.167 F 
ATOM     22  F   UNL A   1      29.115  25.424  26.491  1.00  0.00    -0.167 F 
ATOM     23  F   UNL A   1      31.213  24.853  26.318  1.00  0.00    -0.167 F 
ENDBRANCH  16  20
ENDBRANCH   4   6
ENDBRANCH   3   4
ENDBRANCH   2   3
ENDBRANCH   1   2
BRANCH   1  24
ATOM     24  O   UNL A   1      33.980  28.855  27.616  1.00  0.00    -0.458 OA
BRANCH  24  25
ATOM     25  C   UNL A   1      34.534  30.074  27.798  1.00  0.00     0.338 C 
ATOM     26  O   UNL A   1      33.995  31.161  27.674  1.00  0.00    -0.246 OA
BRANCH  25  27
ATOM     27  C   UNL A   1      35.934  29.940  28.228  1.00  0.00     0.060 A 
ATOM     28  C   UNL A   1      36.956  30.198  27.320  1.00  0.00     0.016 A 
ATOM     29  C   UNL A   1      36.224  29.379  29.470  1.00  0.00     0.016 A 
ATOM     30  C   UNL A   1      38.250  29.760  27.590  1.00  0.00     0.010 A 
ATOM     31  C   UNL A   1      37.546  29.055  29.788  1.00  0.00     0.010 A 
ATOM     32  C   UNL A   1      38.567  29.187  28.830  1.00  0.00    -0.014 A 
BRANCH  32  33
ATOM     33  C   UNL A   1      39.947  28.704  29.115  1.00  0.00     0.031 A 
ATOM     34  C   UNL A   1      40.935  29.591  29.832  1.00  0.00     0.074 A 
ATOM     35  C   UNL A   1      40.322  27.463  28.742  1.00  0.00     0.049 A 
ATOM     36  N   UNL A   1      42.220  29.412  30.016  1.00  0.00    -0.248 NA
ATOM     37  C   UNL A   1      40.420  30.845  30.411  1.00  0.00     0.031 C 
ATOM     38  C   UNL A   1      39.462  26.476  28.087  1.00  0.00     0.029 A 
ATOM     39  N   UNL A   1      41.528  26.816  28.870  1.00  0.00    -0.354 N 
ATOM     40  C   UNL A   1      42.672  30.547  30.678  1.00  0.00     0.074 A 
ATOM     41  C   UNL A   1      41.531  31.411  30.870  1.00  0.00     0.031 C 
ATOM     42  C   UNL A   1      40.151  25.338  27.911  1.00  0.00     0.029 A 
ATOM     43  C   UNL A   1      41.526  25.544  28.350  1.00  0.00     0.049 A 
ATOM     44  H   UNL A   1      42.318  27.224  29.293  1.00  0.00     0.167 HD
ATOM     45  C   UNL A   1      43.928  30.839  31.087  1.00  0.00     0.031 A 
ATOM     46  C   UNL A   1      42.520  24.651  28.192  1.00  0.00     0.031 A 
ATOM     47  C   UNL A   1      45.055  29.957  30.947  1.00  0.00     0.049 A 
ATOM     48  C   UNL A   1      43.911  25.014  28.616  1.00  0.00     0.074 A 
ATOM     49  C   UNL A   1      46.361  30.166  31.354  1.00  0.00     0.029 A 
ATOM     50  N   UNL A   1      45.008  28.698  30.375  1.00  0.00    -0.354 N 
ATOM     51  N   UNL A   1      44.331  26.116  29.187  1.00  0.00    -0.248 NA
ATOM     52  C   UNL A   1      44.968  24.025  28.359  1.00  0.00     0.031 C 
ATOM     53  C   UNL A   1      47.116  29.049  30.992  1.00  0.00     0.029 A 
ATOM     54  C   UNL A   1      46.267  28.125  30.402  1.00  0.00     0.049 A 
ATOM     55  H   UNL A   1      44.200  28.273  30.005  1.00  0.00     0.167 HD
ATOM     56  C   UNL A   1      45.698  25.952  29.362  1.00  0.00     0.074 A 
ATOM     57  C   UNL A   1      46.035  24.640  28.852  1.00  0.00     0.031 C 
ATOM     58  C   UNL A   1      46.590  26.819  29.894  1.00  0.00     0.031 A 
BRANCH  45  59
ATOM     59  C   UNL A   1      44.184  32.177  31.719  1.00  0.00    -0.014 A 
ATOM     60  C   UNL A   1      44.517  33.296  30.942  1.00  0.00     0.009 A 
ATOM     61  C   UNL A   1      43.948  32.347  33.094  1.00  0.00     0.009 A 
ATOM     62  C   UNL A   1      44.610  34.559  31.532  1.00  0.00     0.001 A 
ATOM     63  C   UNL A   1      44.023  33.612  33.676  1.00  0.00     0.001 A 
ATOM     64  C   UNL A   1      44.353  34.718  32.894  1.00  0.00     0.000 A 
ENDBRANCH  45  59
BRANCH  46  65
ATOM     65  C   UNL A   1      42.225  23.343  27.553  1.00  0.00    -0.014 A 
ATOM     66  C   UNL A   1      42.552  23.115  26.209  1.00  0.00     0.009 A 
ATOM     67  C   UNL A   1      41.677  22.292  28.308  1.00  0.00     0.009 A 
ATOM     68  C   UNL A   1      42.337  21.860  25.634  1.00  0.00     0.001 A 
ATOM     69  C   UNL A   1      41.489  21.032  27.739  1.00  0.00     0.001 A 
ATOM     70  C   UNL A   1      41.817  20.818  26.401  1.00  0.00     0.000 A 
ENDBRANCH  46  65
BRANCH  58  71
ATOM     71  C   UNL A   1      48.024  26.392  29.974  1.00  0.00    -0.014 A 
ATOM     72  C   UNL A   1      48.918  26.680  28.933  1.00  0.00     0.009 A 
ATOM     73  C   UNL A   1      48.511  25.804  31.153  1.00  0.00     0.009 A 
ATOM     74  C   UNL A   1      50.275  26.385  29.071  1.00  0.00     0.001 A 
ATOM     75  C   UNL A   1      49.871  25.530  31.295  1.00  0.00     0.001 A 
ATOM     76  C   UNL A   1      50.751  25.820  30.254  1.00  0.00     0.000 A 
ENDBRANCH  58  71
ENDBRANCH  32  33
ENDBRANCH  25  27
ENDBRANCH  24  25
ENDBRANCH   1  24
TORSDOF 13
ENDMDL
MODEL 2
REMARK VINA RESULT:     -11.1      4.270      8.425
REMARK SMILES Nc1c(Cl)ccc2c1C=C(C(=O)OCCOC(=O)c1ccc(-c3c4nc(c(-c5ccccc5)c5ccc([nH]5)c(-c5ccccc5)c5nc(c(-c6ccccc6)c6ccc3[nH]6)C=C5)C=C4)cc1)[C@@H](C(F)(F)F)O2
REMARK SMILES IDX 15 1 14 2 13 3 11 4 12 5 10 6 2 7 3 8 8 9 4 10 5 11 7 12
REMARK SMILES IDX 9 13 6 14 72 15 67 16 1 17 68 20 69 21 70 22 71 23 16 24
REMARK SMILES IDX 17 25 18 26 19 27 20 28 66 29 21 30 65 31 22 32 23 33 24 34
REMARK SMILES IDX 59 35 25 36 64 37 58 38 60 39 26 40 63 41 57 42 56 43 27 45
REMARK SMILES IDX 49 46 34 47 48 48 35 49 38 50 47 51 61 52 36 53 37 54 46 56
REMARK SMILES IDX 62 57 39 58 28 59 29 60 33 61 30 62 32 63 31 64 50 65 51 66
REMARK SMILES IDX 55 67 52 68 54 69 53 70 40 71 41 72 45 73 42 74 44 75 43 76
REMARK H PARENT 1 18 1 19 60 44 38 55
REMARK Flexibility Score: inf
ROOT
ATOM      1  C   UNL A   1      36.226  23.040  25.777  1.00  0.00     0.275 C 
ENDROOT
BRANCH   1   2
ATOM      2  C   UNL A   1      35.074  24.042  25.716  1.00  0.00     0.275 C 
BRANCH   2   3
ATOM      3  O   UNL A   1      33.858  23.466  26.240  1.00  0.00    -0.459 OA
BRANCH   3   4
ATOM      4  C   UNL A   1      32.764  23.604  25.454  1.00  0.00     0.338 C 
ATOM      5  O   UNL A   1      32.067  24.594  25.342  1.00  0.00    -0.246 OA
BRANCH   4   6
ATOM      6  C   UNL A   1      32.541  22.365  24.679  1.00  0.00     0.088 C 
ATOM      7  C   UNL A   1      32.716  18.689  25.195  1.00  0.00     0.061 A 
ATOM      8  C   UNL A   1      32.759  17.546  24.369  1.00  0.00     0.064 A 
ATOM      9  C   UNL A   1      32.562  19.953  24.576  1.00  0.00     0.042 A 
ATOM     10  Cl  UNL A   1      33.032  15.975  25.049  1.00  0.00    -0.082 Cl
ATOM     11  C   UNL A   1      32.556  17.639  22.993  1.00  0.00     0.026 A 
ATOM     12  C   UNL A   1      32.330  20.036  23.196  1.00  0.00     0.130 A 
ATOM     13  C   UNL A   1      32.681  21.201  25.321  1.00  0.00     0.029 C 
ATOM     14  C   UNL A   1      32.319  18.883  22.411  1.00  0.00     0.049 A 
ATOM     15  O   UNL A   1      32.089  21.203  22.525  1.00  0.00    -0.475 OA
ATOM     16  C   UNL A   1      32.288  22.470  23.205  1.00  0.00     0.316 C 
BRANCH   7  17
ATOM     17  N   UNL A   1      32.932  18.566  26.577  1.00  0.00    -0.397 N 
ATOM     18  H   UNL A   1      33.223  19.347  27.101  1.00  0.00     0.156 HD
ATOM     19  H   UNL A   1      32.794  17.699  27.022  1.00  0.00     0.156 HD
ENDBRANCH   7  17
BRANCH  16  20
ATOM     20  C   UNL A   1      33.420  23.232  22.495  1.00  0.00     0.430 C 
ATOM     21  F   UNL A   1      33.379  24.555  22.781  1.00  0.00    -0.167 F 
ATOM     22  F   UNL A   1      34.641  22.791  22.882  1.00  0.00    -0.167 F 
ATOM     23  F   UNL A   1      33.353  23.105  21.150  1.00  0.00    -0.167 F 
ENDBRANCH  16  20
ENDBRANCH   4   6
ENDBRANCH   3   4
ENDBRANCH   2   3
ENDBRANCH   1   2
BRANCH   1  24
ATOM     24  O   UNL A   1      37.470  23.686  25.447  1.00  0.00    -0.458 OA
BRANCH  24  25
ATOM     25  C   UNL A   1      38.553  23.223  26.106  1.00  0.00     0.338 C 
ATOM     26  O   UNL A   1      38.984  22.081  26.118  1.00  0.00    -0.246 OA
BRANCH  25  27
ATOM     27  C   UNL A   1      39.225  24.318  26.820  1.00  0.00     0.060 A 
ATOM     28  C   UNL A   1      38.961  24.518  28.171  1.00  0.00     0.016 A 
ATOM     29  C   UNL A   1      39.968  25.256  26.105  1.00  0.00     0.016 A 
ATOM     30  C   UNL A   1      39.309  25.724  28.775  1.00  0.00     0.010 A 
ATOM     31  C   UNL A   1      40.424  26.410  26.747  1.00  0.00     0.010 A 
ATOM     32  C   UNL A   1      40.050  26.686  28.075  1.00  0.00    -0.014 A 
BRANCH  32  33
ATOM     33  C   UNL A   1      40.410  27.984  28.714  1.00  0.00     0.031 A 
ATOM     34  C   UNL A   1      41.798  28.207  29.261  1.00  0.00     0.074 A 
ATOM     35  C   UNL A   1      39.498  28.973  28.801  1.00  0.00     0.049 A 
ATOM     36  N   UNL A   1      42.244  29.196  29.997  1.00  0.00    -0.248 NA
ATOM     37  C   UNL A   1      42.819  27.189  28.952  1.00  0.00     0.031 C 
ATOM     38  C   UNL A   1      38.133  28.920  28.273  1.00  0.00     0.029 A 
ATOM     39  N   UNL A   1      39.586  30.225  29.360  1.00  0.00    -0.354 N 
ATOM     40  C   UNL A   1      43.570  28.892  30.281  1.00  0.00     0.074 A 
ATOM     41  C   UNL A   1      43.865  27.631  29.640  1.00  0.00     0.031 C 
ATOM     42  C   UNL A   1      37.529  30.098  28.492  1.00  0.00     0.029 A 
ATOM     43  C   UNL A   1      38.425  30.954  29.260  1.00  0.00     0.049 A 
ATOM     44  H   UNL A   1      40.402  30.569  29.790  1.00  0.00     0.167 HD
ATOM     45  C   UNL A   1      44.459  29.604  31.012  1.00  0.00     0.031 A 
ATOM     46  C   UNL A   1      38.087  32.155  29.766  1.00  0.00     0.031 A 
ATOM     47  C   UNL A   1      44.185  30.884  31.605  1.00  0.00     0.049 A 
ATOM     48  C   UNL A   1      39.076  32.904  30.607  1.00  0.00     0.074 A 
ATOM     49  C   UNL A   1      45.037  31.685  32.345  1.00  0.00     0.029 A 
ATOM     50  N   UNL A   1      42.980  31.559  31.509  1.00  0.00    -0.354 N 
ATOM     51  N   UNL A   1      40.306  32.574  30.914  1.00  0.00    -0.248 NA
ATOM     52  C   UNL A   1      38.629  34.179  31.187  1.00  0.00     0.031 C 
ATOM     53  C   UNL A   1      44.335  32.827  32.733  1.00  0.00     0.029 A 
ATOM     54  C   UNL A   1      43.061  32.758  32.194  1.00  0.00     0.049 A 
ATOM     55  H   UNL A   1      42.185  31.234  31.028  1.00  0.00     0.167 HD
ATOM     56  C   UNL A   1      40.782  33.600  31.718  1.00  0.00     0.074 A 
ATOM     57  C   UNL A   1      39.715  34.572  31.839  1.00  0.00     0.031 C 
ATOM     58  C   UNL A   1      41.995  33.717  32.306  1.00  0.00     0.031 A 
BRANCH  45  59
ATOM     59  C   UNL A   1      45.824  29.023  31.243  1.00  0.00    -0.014 A 
ATOM     60  C   UNL A   1      46.901  29.340  30.403  1.00  0.00     0.009 A 
ATOM     61  C   UNL A   1      46.062  28.261  32.400  1.00  0.00     0.009 A 
ATOM     62  C   UNL A   1      48.191  28.903  30.718  1.00  0.00     0.001 A 
ATOM     63  C   UNL A   1      47.354  27.844  32.721  1.00  0.00     0.001 A 
ATOM     64  C   UNL A   1      48.417  28.166  31.880  1.00  0.00     0.000 A 
ENDBRANCH  45  59
BRANCH  46  65
ATOM     65  C   UNL A   1      36.722  32.687  29.522  1.00  0.00    -0.014 A 
ATOM     66  C   UNL A   1      35.709  32.517  30.475  1.00  0.00     0.009 A 
ATOM     67  C   UNL A   1      36.447  33.427  28.360  1.00  0.00     0.009 A 
ATOM     68  C   UNL A   1      34.447  33.081  30.270  1.00  0.00     0.001 A 
ATOM     69  C   UNL A   1      35.195  34.013  28.171  1.00  0.00     0.001 A 
ATOM     70  C   UNL A   1      34.194  33.837  29.126  1.00  0.00     0.000 A 
ENDBRANCH  46  65
BRANCH  58  71
ATOM     71  C   UNL A   1      42.262  34.941  33.129  1.00  0.00    -0.014 A 
ATOM     72  C   UNL A   1      41.829  35.017  34.461  1.00  0.00     0.009 A 
ATOM     73  C   UNL A   1      43.058  35.972  32.606  1.00  0.00     0.009 A 
ATOM     74  C   UNL A   1      42.187  36.108  35.254  1.00  0.00     0.001 A 
ATOM     75  C   UNL A   1      43.431  37.050  33.408  1.00  0.00     0.001 A 
ATOM     76  C   UNL A   1      42.995  37.118  34.730  1.00  0.00     0.000 A 
ENDBRANCH  58  71
ENDBRANCH  32  33
ENDBRANCH  25  27
ENDBRANCH  24  25
ENDBRANCH   1  24
TORSDOF 13
ENDMDL
MODEL 3
REMARK VINA RESULT:     -11.0      4.226      8.106
REMARK SMILES Nc1c(Cl)ccc2c1C=C(C(=O)OCCOC(=O)c1ccc(-c3c4nc(c(-c5ccccc5)c5ccc([nH]5)c(-c5ccccc5)c5nc(c(-c6ccccc6)c6ccc3[nH]6)C=C5)C=C4)cc1)[C@@H](C(F)(F)F)O2
REMARK SMILES IDX 15 1 14 2 13 3 11 4 12 5 10 6 2 7 3 8 8 9 4 10 5 11 7 12
REMARK SMILES IDX 9 13 6 14 72 15 67 16 1 17 68 20 69 21 70 22 71 23 16 24
REMARK SMILES IDX 17 25 18 26 19 27 20 28 66 29 21 30 65 31 22 32 23 33 24 34
REMARK SMILES IDX 59 35 25 36 64 37 58 38 60 39 26 40 63 41 57 42 56 43 27 45
REMARK SMILES IDX 49 46 34 47 48 48 35 49 38 50 47 51 61 52 36 53 37 54 46 56
REMARK SMILES IDX 62 57 39 58 28 59 29 60 33 61 30 62 32 63 31 64 50 65 51 66
REMARK SMILES IDX 55 67 52 68 54 69 53 70 40 71 41 72 45 73 42 74 44 75 43 76
REMARK H PARENT 1 18 1 19 60 44 38 55
REMARK Flexibility Score: inf
ROOT
ATOM      1  C   UNL A   1      36.105  23.087  25.965  1.00  0.00     0.275 C 
ENDROOT
BRANCH   1   2
ATOM      2  C   UNL A   1      34.930  24.050  25.801  1.00  0.00     0.275 C 
BRANCH   2   3
ATOM      3  O   UNL A   1      33.701  23.452  26.265  1.00  0.00    -0.459 OA
BRANCH   3   4
ATOM      4  C   UNL A   1      32.640  23.581  25.432  1.00  0.00     0.338 C 
ATOM      5  O   UNL A   1      31.942  24.568  25.288  1.00  0.00    -0.246 OA
BRANCH   4   6
ATOM      6  C   UNL A   1      32.459  22.340  24.651  1.00  0.00     0.088 C 
ATOM      7  C   UNL A   1      32.703  18.667  25.165  1.00  0.00     0.061 A 
ATOM      8  C   UNL A   1      32.786  17.527  24.339  1.00  0.00     0.064 A 
ATOM      9  C   UNL A   1      32.533  19.929  24.545  1.00  0.00     0.042 A 
ATOM     10  Cl  UNL A   1      33.080  15.962  25.021  1.00  0.00    -0.082 Cl
ATOM     11  C   UNL A   1      32.607  17.619  22.959  1.00  0.00     0.026 A 
ATOM     12  C   UNL A   1      32.325  20.010  23.161  1.00  0.00     0.130 A 
ATOM     13  C   UNL A   1      32.611  21.177  25.294  1.00  0.00     0.029 C 
ATOM     14  C   UNL A   1      32.354  18.858  22.375  1.00  0.00     0.049 A 
ATOM     15  O   UNL A   1      32.072  21.172  22.487  1.00  0.00    -0.475 OA
ATOM     16  C   UNL A   1      32.230  22.442  23.173  1.00  0.00     0.316 C 
BRANCH   7  17
ATOM     17  N   UNL A   1      32.896  18.547  26.551  1.00  0.00    -0.397 N 
ATOM     18  H   UNL A   1      33.649  19.009  26.985  1.00  0.00     0.156 HD
ATOM     19  H   UNL A   1      32.278  18.001  27.088  1.00  0.00     0.156 HD
ENDBRANCH   7  17
BRANCH  16  20
ATOM     20  C   UNL A   1      33.359  23.230  22.485  1.00  0.00     0.430 C 
ATOM     21  F   UNL A   1      34.576  22.829  22.922  1.00  0.00    -0.167 F 
ATOM     22  F   UNL A   1      33.352  23.047  21.142  1.00  0.00    -0.167 F 
ATOM     23  F   UNL A   1      33.264  24.560  22.712  1.00  0.00    -0.167 F 
ENDBRANCH  16  20
ENDBRANCH   4   6
ENDBRANCH   3   4
ENDBRANCH   2   3
ENDBRANCH   1   2
BRANCH   1  24
ATOM     24  O   UNL A   1      37.317  23.687  25.471  1.00  0.00    -0.458 OA
BRANCH  24  25
ATOM     25  C   UNL A   1      38.459  23.183  25.985  1.00  0.00     0.338 C 
ATOM     26  O   UNL A   1      38.889  22.047  25.871  1.00  0.00    -0.246 OA
BRANCH  25  27
ATOM     27  C   UNL A   1      39.199  24.228  26.708  1.00  0.00     0.060 A 
ATOM     28  C   UNL A   1      39.016  24.372  28.080  1.00  0.00     0.016 A 
ATOM     29  C   UNL A   1      39.926  25.180  25.994  1.00  0.00     0.016 A 
ATOM     30  C   UNL A   1      39.429  25.540  28.716  1.00  0.00     0.010 A 
ATOM     31  C   UNL A   1      40.447  26.292  26.661  1.00  0.00     0.010 A 
ATOM     32  C   UNL A   1      40.156  26.515  28.019  1.00  0.00    -0.014 A 
BRANCH  32  33
ATOM     33  C   UNL A   1      40.585  27.773  28.694  1.00  0.00     0.031 A 
ATOM     34  C   UNL A   1      39.598  28.890  28.927  1.00  0.00     0.074 A 
ATOM     35  C   UNL A   1      41.859  27.918  29.110  1.00  0.00     0.049 A 
ATOM     36  N   UNL A   1      39.822  30.113  29.339  1.00  0.00    -0.248 NA
ATOM     37  C   UNL A   1      38.178  28.605  28.656  1.00  0.00     0.031 C 
ATOM     38  C   UNL A   1      42.911  26.906  28.999  1.00  0.00     0.029 A 
ATOM     39  N   UNL A   1      42.486  28.978  29.722  1.00  0.00    -0.354 N 
ATOM     40  C   UNL A   1      38.589  30.753  29.324  1.00  0.00     0.074 A 
ATOM     41  C   UNL A   1      37.615  29.789  28.866  1.00  0.00     0.031 C 
ATOM     42  C   UNL A   1      44.035  27.373  29.562  1.00  0.00     0.029 A 
ATOM     43  C   UNL A   1      43.815  28.750  29.986  1.00  0.00     0.049 A 
ATOM     44  H   UNL A   1      42.027  29.818  29.949  1.00  0.00     0.167 HD
ATOM     45  C   UNL A   1      38.298  32.031  29.662  1.00  0.00     0.031 A 
ATOM     46  C   UNL A   1      44.773  29.564  30.470  1.00  0.00     0.031 A 
ATOM     47  C   UNL A   1      39.255  32.976  30.170  1.00  0.00     0.049 A 
ATOM     48  C   UNL A   1      44.434  30.986  30.798  1.00  0.00     0.074 A 
ATOM     49  C   UNL A   1      39.040  34.287  30.558  1.00  0.00     0.029 A 
ATOM     50  N   UNL A   1      40.597  32.708  30.379  1.00  0.00    -0.354 N 
ATOM     51  N   UNL A   1      43.274  31.591  30.722  1.00  0.00    -0.248 NA
ATOM     52  C   UNL A   1      45.534  31.846  31.259  1.00  0.00     0.031 C 
ATOM     53  C   UNL A   1      40.261  34.827  30.964  1.00  0.00     0.029 A 
ATOM     54  C   UNL A   1      41.226  33.837  30.874  1.00  0.00     0.049 A 
ATOM     55  H   UNL A   1      41.037  31.845  30.202  1.00  0.00     0.167 HD
ATOM     56  C   UNL A   1      43.503  32.898  31.129  1.00  0.00     0.074 A 
ATOM     57  C   UNL A   1      44.907  32.996  31.466  1.00  0.00     0.031 C 
ATOM     58  C   UNL A   1      42.622  33.922  31.207  1.00  0.00     0.031 A 
BRANCH  45  59
ATOM     59  C   UNL A   1      36.888  32.516  29.485  1.00  0.00    -0.014 A 
ATOM     60  C   UNL A   1      35.972  32.491  30.547  1.00  0.00     0.009 A 
ATOM     61  C   UNL A   1      36.518  33.134  28.279  1.00  0.00     0.009 A 
ATOM     62  C   UNL A   1      34.712  33.077  30.401  1.00  0.00     0.001 A 
ATOM     63  C   UNL A   1      35.266  33.735  28.144  1.00  0.00     0.001 A 
ATOM     64  C   UNL A   1      34.364  33.707  29.206  1.00  0.00     0.000 A 
ENDBRANCH  45  59
BRANCH  46  65
ATOM     65  C   UNL A   1      46.157  29.046  30.618  1.00  0.00    -0.014 A 
ATOM     66  C   UNL A   1      47.081  29.169  29.572  1.00  0.00     0.009 A 
ATOM     67  C   UNL A   1      46.577  28.486  31.837  1.00  0.00     0.009 A 
ATOM     68  C   UNL A   1      48.400  28.744  29.744  1.00  0.00     0.001 A 
ATOM     69  C   UNL A   1      47.903  28.088  32.015  1.00  0.00     0.001 A 
ATOM     70  C   UNL A   1      48.813  28.215  30.967  1.00  0.00     0.000 A 
ENDBRANCH  46  65
BRANCH  58  71
ATOM     71  C   UNL A   1      43.128  35.248  31.689  1.00  0.00    -0.014 A 
ATOM     72  C   UNL A   1      43.645  36.189  30.787  1.00  0.00     0.009 A 
ATOM     73  C   UNL A   1      42.974  35.605  33.038  1.00  0.00     0.009 A 
ATOM     74  C   UNL A   1      44.001  37.464  31.228  1.00  0.00     0.001 A 
ATOM     75  C   UNL A   1      43.310  36.887  33.471  1.00  0.00     0.001 A 
ATOM     76  C   UNL A   1      43.824  37.814  32.567  1.00  0.00     0.000 A 
ENDBRANCH  58  71
ENDBRANCH  32  33
ENDBRANCH  25  27
ENDBRANCH  24  25
ENDBRANCH   1  24
TORSDOF 13
ENDMDL
