MODEL 1
REMARK VINA RESULT:     -11.4      0.000      0.000
REMARK SMILES O=C(OCCOC(=O)[C@@H]1C=C[C@H](NC(=O)c2ccc(Cl)cc2[N+](=O)[O-])C1)c1ccc(-c2c3nc(c(-c4ccccc4)c4ccc([nH]4)c(-c4ccccc4)c4nc(c(-c5ccccc5)c5ccc2[nH]5)C=C4)C=C3)cc1
REMARK SMILES IDX 5 1 4 2 3 3 2 4 1 5 27 6 28 7 74 8 29 9 73 10 30 11 31 12
REMARK SMILES IDX 32 13 67 14 33 15 72 16 66 17 68 18 34 19 71 20 65 21 64 22
REMARK SMILES IDX 35 24 57 25 42 26 56 27 43 28 46 29 55 30 69 31 44 32 45 33
REMARK SMILES IDX 54 35 70 36 47 37 36 38 37 39 41 40 38 41 40 42 39 43 58 44
REMARK SMILES IDX 59 45 63 46 60 47 62 48 61 49 48 50 49 51 53 52 50 53 52 54
REMARK SMILES IDX 51 55 6 56 7 57 8 58 9 59 10 60 26 61 11 62 12 63 13 64
REMARK SMILES IDX 14 65 15 67 16 68 17 69 22 70 18 71 21 72 19 73 20 74 23 75
REMARK SMILES IDX 24 76 25 77
REMARK H PARENT 68 23 46 34 13 66
REMARK Flexibility Score: inf
ROOT
ATOM      1  C   UNL A   1      37.927  21.037  25.261  1.00  0.00     0.274 C 
ENDROOT
BRANCH   1   2
ATOM      2  C   UNL A   1      38.489  19.663  24.872  1.00  0.00     0.275 C 
BRANCH   2   3
ATOM      3  O   UNL A   1      39.529  19.146  25.726  1.00  0.00    -0.458 OA
BRANCH   3   4
ATOM      4  C   UNL A   1      40.802  19.566  25.922  1.00  0.00     0.338 C 
ATOM      5  O   UNL A   1      41.734  18.793  25.714  1.00  0.00    -0.246 OA
BRANCH   4   6
ATOM      6  C   UNL A   1      41.128  20.879  26.554  1.00  0.00     0.060 A 
ATOM      7  C   UNL A   1      41.072  21.152  27.920  1.00  0.00     0.016 A 
ATOM      8  C   UNL A   1      41.566  21.904  25.689  1.00  0.00     0.016 A 
ATOM      9  C   UNL A   1      41.567  22.353  28.429  1.00  0.00     0.010 A 
ATOM     10  C   UNL A   1      42.064  23.111  26.192  1.00  0.00     0.010 A 
ATOM     11  C   UNL A   1      42.078  23.332  27.572  1.00  0.00    -0.014 A 
BRANCH  11  12
ATOM     12  C   UNL A   1      42.429  24.644  28.154  1.00  0.00     0.031 A 
ATOM     13  C   UNL A   1      43.886  24.963  28.301  1.00  0.00     0.074 A 
ATOM     14  C   UNL A   1      41.481  25.570  28.397  1.00  0.00     0.049 A 
ATOM     15  N   UNL A   1      44.457  26.098  28.600  1.00  0.00    -0.248 NA
ATOM     16  C   UNL A   1      44.828  23.858  28.051  1.00  0.00     0.031 C 
ATOM     17  C   UNL A   1      40.037  25.373  28.246  1.00  0.00     0.029 A 
ATOM     18  N   UNL A   1      41.596  26.880  28.791  1.00  0.00    -0.354 N 
ATOM     19  C   UNL A   1      45.822  25.848  28.541  1.00  0.00     0.074 A 
ATOM     20  C   UNL A   1      45.996  24.447  28.247  1.00  0.00     0.031 C 
ATOM     21  C   UNL A   1      39.404  26.528  28.521  1.00  0.00     0.029 A 
ATOM     22  C   UNL A   1      40.393  27.541  28.879  1.00  0.00     0.049 A 
ATOM     23  H   UNL A   1      42.460  27.306  28.992  1.00  0.00     0.167 HD
ATOM     24  C   UNL A   1      46.846  26.719  28.688  1.00  0.00     0.031 A 
ATOM     25  C   UNL A   1      40.133  28.824  29.200  1.00  0.00     0.031 A 
ATOM     26  C   UNL A   1      46.670  28.101  29.023  1.00  0.00     0.049 A 
ATOM     27  C   UNL A   1      41.296  29.748  29.467  1.00  0.00     0.074 A 
ATOM     28  C   UNL A   1      47.633  29.063  29.258  1.00  0.00     0.029 A 
ATOM     29  N   UNL A   1      45.436  28.713  29.182  1.00  0.00    -0.354 N 
ATOM     30  N   UNL A   1      42.583  29.504  29.379  1.00  0.00    -0.248 NA
ATOM     31  C   UNL A   1      40.972  31.126  29.858  1.00  0.00     0.031 C 
ATOM     32  C   UNL A   1      46.979  30.250  29.607  1.00  0.00     0.029 A 
ATOM     33  C   UNL A   1      45.610  30.040  29.530  1.00  0.00     0.049 A 
ATOM     34  H   UNL A   1      44.564  28.270  29.063  1.00  0.00     0.167 HD
ATOM     35  C   UNL A   1      43.219  30.703  29.679  1.00  0.00     0.074 A 
ATOM     36  C   UNL A   1      42.174  31.679  29.918  1.00  0.00     0.031 C 
ATOM     37  C   UNL A   1      44.545  30.980  29.759  1.00  0.00     0.031 A 
BRANCH  24  38
ATOM     38  C   UNL A   1      48.229  26.166  28.512  1.00  0.00    -0.014 A 
ATOM     39  C   UNL A   1      48.946  25.652  29.605  1.00  0.00     0.009 A 
ATOM     40  C   UNL A   1      48.839  26.196  27.250  1.00  0.00     0.009 A 
ATOM     41  C   UNL A   1      50.261  25.214  29.444  1.00  0.00     0.001 A 
ATOM     42  C   UNL A   1      50.146  25.732  27.087  1.00  0.00     0.001 A 
ATOM     43  C   UNL A   1      50.858  25.252  28.185  1.00  0.00     0.000 A 
ENDBRANCH  24  38
BRANCH  25  44
ATOM     44  C   UNL A   1      38.732  29.323  29.309  1.00  0.00    -0.014 A 
ATOM     45  C   UNL A   1      37.995  29.179  30.496  1.00  0.00     0.009 A 
ATOM     46  C   UNL A   1      38.093  29.883  28.190  1.00  0.00     0.009 A 
ATOM     47  C   UNL A   1      36.644  29.539  30.545  1.00  0.00     0.001 A 
ATOM     48  C   UNL A   1      36.752  30.274  28.251  1.00  0.00     0.001 A 
ATOM     49  C   UNL A   1      36.025  30.087  29.423  1.00  0.00     0.000 A 
ENDBRANCH  25  44
BRANCH  37  50
ATOM     50  C   UNL A   1      44.929  32.393  30.092  1.00  0.00    -0.014 A 
ATOM     51  C   UNL A   1      45.127  32.801  31.420  1.00  0.00     0.009 A 
ATOM     52  C   UNL A   1      45.141  33.316  29.056  1.00  0.00     0.009 A 
ATOM     53  C   UNL A   1      45.490  34.118  31.706  1.00  0.00     0.001 A 
ATOM     54  C   UNL A   1      45.538  34.623  29.343  1.00  0.00     0.001 A 
ATOM     55  C   UNL A   1      45.701  35.025  30.667  1.00  0.00     0.000 A 
ENDBRANCH  37  50
ENDBRANCH  11  12
ENDBRANCH   4   6
ENDBRANCH   3   4
ENDBRANCH   2   3
ENDBRANCH   1   2
BRANCH   1  56
ATOM     56  O   UNL A   1      36.740  21.411  24.540  1.00  0.00    -0.462 OA
BRANCH  56  57
ATOM     57  C   UNL A   1      35.628  21.571  25.322  1.00  0.00     0.312 C 
ATOM     58  O   UNL A   1      34.728  20.743  25.396  1.00  0.00    -0.252 OA
BRANCH  57  59
ATOM     59  C   UNL A   1      35.688  22.893  26.092  1.00  0.00     0.124 C 
ATOM     60  C   UNL A   1      34.476  23.067  26.963  1.00  0.00    -0.014 C 
ATOM     61  C   UNL A   1      35.572  24.145  25.234  1.00  0.00     0.048 C 
ATOM     62  C   UNL A   1      33.587  23.886  26.379  1.00  0.00    -0.006 C 
ATOM     63  C   UNL A   1      34.069  24.338  25.025  1.00  0.00     0.106 C 
BRANCH  63  64
ATOM     64  N   UNL A   1      33.447  23.452  24.047  1.00  0.00    -0.346 N 
ATOM     65  C   UNL A   1      32.308  23.566  23.303  1.00  0.00     0.258 C 
ATOM     66  H   UNL A   1      33.941  22.615  23.896  1.00  0.00     0.164 HD
ATOM     67  O   UNL A   1      31.875  22.645  22.613  1.00  0.00    -0.269 OA
BRANCH  65  68
ATOM     68  C   UNL A   1      31.586  24.837  23.273  1.00  0.00     0.117 A 
ATOM     69  C   UNL A   1      30.562  25.044  24.209  1.00  0.00     0.022 A 
ATOM     70  C   UNL A   1      31.899  25.848  22.373  1.00  0.00     0.283 A 
ATOM     71  C   UNL A   1      29.743  26.171  24.106  1.00  0.00     0.022 A 
ATOM     72  C   UNL A   1      31.109  27.001  22.283  1.00  0.00     0.107 A 
ATOM     73  C   UNL A   1      30.006  27.129  23.126  1.00  0.00     0.047 A 
ATOM     74  Cl  UNL A   1      28.948  28.472  22.952  1.00  0.00    -0.084 Cl
BRANCH  70  75
ATOM     75  N   UNL A   1      33.070  25.745  21.527  1.00  0.00     0.063 N 
ATOM     76  O   UNL A   1      34.161  26.001  22.054  1.00  0.00    -0.258 OA
ATOM     77  O   UNL A   1      32.890  25.485  20.331  1.00  0.00    -0.258 OA
ENDBRANCH  70  75
ENDBRANCH  65  68
ENDBRANCH  63  64
ENDBRANCH  57  59
ENDBRANCH  56  57
ENDBRANCH   1  56
TORSDOF 14
ENDMDL
MODEL 2
REMARK VINA RESULT:     -11.2      4.663      9.309
REMARK SMILES O=C(OCCOC(=O)[C@@H]1C=C[C@H](NC(=O)c2ccc(Cl)cc2[N+](=O)[O-])C1)c1ccc(-c2c3nc(c(-c4ccccc4)c4ccc([nH]4)c(-c4ccccc4)c4nc(c(-c5ccccc5)c5ccc2[nH]5)C=C4)C=C3)cc1
REMARK SMILES IDX 5 1 4 2 3 3 2 4 1 5 27 6 28 7 74 8 29 9 73 10 30 11 31 12
REMARK SMILES IDX 32 13 67 14 33 15 72 16 66 17 68 18 34 19 71 20 65 21 64 22
REMARK SMILES IDX 35 24 57 25 42 26 56 27 43 28 46 29 55 30 69 31 44 32 45 33
REMARK SMILES IDX 54 35 70 36 47 37 36 38 37 39 41 40 38 41 40 42 39 43 58 44
REMARK SMILES IDX 59 45 63 46 60 47 62 48 61 49 48 50 49 51 53 52 50 53 52 54
REMARK SMILES IDX 51 55 6 56 7 57 8 58 9 59 10 60 26 61 11 62 12 63 13 64
REMARK SMILES IDX 14 65 15 67 16 68 17 69 22 70 18 71 21 72 19 73 20 74 23 75
REMARK SMILES IDX 24 76 25 77
REMARK H PARENT 68 23 46 34 13 66
REMARK Flexibility Score: inf
ROOT
ATOM      1  C   UNL A   1      32.379  31.010  26.563  1.00  0.00     0.274 C 
ENDROOT
BRANCH   1   2
ATOM      2  C   UNL A   1      31.471  32.200  26.904  1.00  0.00     0.275 C 
BRANCH   2   3
ATOM      3  O   UNL A   1      32.127  33.480  27.008  1.00  0.00    -0.458 OA
BRANCH   3   4
ATOM      4  C   UNL A   1      32.841  34.027  28.020  1.00  0.00     0.338 C 
ATOM      5  O   UNL A   1      32.489  35.104  28.496  1.00  0.00    -0.246 OA
BRANCH   4   6
ATOM      6  C   UNL A   1      34.150  33.471  28.476  1.00  0.00     0.060 A 
ATOM      7  C   UNL A   1      35.404  33.927  28.070  1.00  0.00     0.016 A 
ATOM      8  C   UNL A   1      34.096  32.427  29.423  1.00  0.00     0.016 A 
ATOM      9  C   UNL A   1      36.565  33.462  28.687  1.00  0.00     0.010 A 
ATOM     10  C   UNL A   1      35.258  31.956  30.046  1.00  0.00     0.010 A 
ATOM     11  C   UNL A   1      36.500  32.487  29.687  1.00  0.00    -0.014 A 
BRANCH  11  12
ATOM     12  C   UNL A   1      37.770  31.916  30.179  1.00  0.00     0.031 A 
ATOM     13  C   UNL A   1      38.228  32.335  31.544  1.00  0.00     0.074 A 
ATOM     14  C   UNL A   1      38.407  30.946  29.493  1.00  0.00     0.049 A 
ATOM     15  N   UNL A   1      39.191  31.847  32.278  1.00  0.00    -0.248 NA
ATOM     16  C   UNL A   1      37.482  33.436  32.177  1.00  0.00     0.031 C 
ATOM     17  C   UNL A   1      38.018  30.438  28.176  1.00  0.00     0.029 A 
ATOM     18  N   UNL A   1      39.499  30.188  29.831  1.00  0.00    -0.354 N 
ATOM     19  C   UNL A   1      39.142  32.560  33.468  1.00  0.00     0.074 A 
ATOM     20  C   UNL A   1      38.106  33.555  33.337  1.00  0.00     0.031 C 
ATOM     21  C   UNL A   1      38.847  29.436  27.828  1.00  0.00     0.029 A 
ATOM     22  C   UNL A   1      39.829  29.240  28.890  1.00  0.00     0.049 A 
ATOM     23  H   UNL A   1      40.001  30.312  30.668  1.00  0.00     0.167 HD
ATOM     24  C   UNL A   1      39.875  32.381  34.589  1.00  0.00     0.031 A 
ATOM     25  C   UNL A   1      40.809  28.314  28.902  1.00  0.00     0.031 A 
ATOM     26  C   UNL A   1      40.933  31.420  34.701  1.00  0.00     0.049 A 
ATOM     27  C   UNL A   1      41.685  28.211  30.127  1.00  0.00     0.074 A 
ATOM     28  C   UNL A   1      41.784  31.191  35.764  1.00  0.00     0.029 A 
ATOM     29  N   UNL A   1      41.287  30.533  33.696  1.00  0.00    -0.354 N 
ATOM     30  N   UNL A   1      41.608  28.874  31.258  1.00  0.00    -0.248 NA
ATOM     31  C   UNL A   1      42.770  27.221  30.084  1.00  0.00     0.031 C 
ATOM     32  C   UNL A   1      42.689  30.194  35.383  1.00  0.00     0.029 A 
ATOM     33  C   UNL A   1      42.360  29.763  34.107  1.00  0.00     0.049 A 
ATOM     34  H   UNL A   1      40.842  30.460  32.821  1.00  0.00     0.167 HD
ATOM     35  C   UNL A   1      42.616  28.363  32.068  1.00  0.00     0.074 A 
ATOM     36  C   UNL A   1      43.267  27.314  31.309  1.00  0.00     0.031 C 
ATOM     37  C   UNL A   1      42.981  28.727  33.322  1.00  0.00     0.031 A 
BRANCH  24  38
ATOM     38  C   UNL A   1      39.556  33.275  35.751  1.00  0.00    -0.014 A 
ATOM     39  C   UNL A   1      40.196  34.516  35.904  1.00  0.00     0.009 A 
ATOM     40  C   UNL A   1      38.639  32.856  36.725  1.00  0.00     0.009 A 
ATOM     41  C   UNL A   1      39.951  35.303  37.031  1.00  0.00     0.001 A 
ATOM     42  C   UNL A   1      38.375  33.658  37.836  1.00  0.00     0.001 A 
ATOM     43  C   UNL A   1      39.039  34.874  37.994  1.00  0.00     0.000 A 
ENDBRANCH  24  38
BRANCH  25  44
ATOM     44  C   UNL A   1      41.040  27.421  27.730  1.00  0.00    -0.014 A 
ATOM     45  C   UNL A   1      40.462  26.143  27.661  1.00  0.00     0.009 A 
ATOM     46  C   UNL A   1      41.910  27.818  26.702  1.00  0.00     0.009 A 
ATOM     47  C   UNL A   1      40.786  25.270  26.616  1.00  0.00     0.001 A 
ATOM     48  C   UNL A   1      42.206  26.956  25.641  1.00  0.00     0.001 A 
ATOM     49  C   UNL A   1      41.657  25.678  25.608  1.00  0.00     0.000 A 
ENDBRANCH  25  44
BRANCH  37  50
ATOM     50  C   UNL A   1      44.113  27.968  33.952  1.00  0.00    -0.014 A 
ATOM     51  C   UNL A   1      45.439  28.414  33.843  1.00  0.00     0.009 A 
ATOM     52  C   UNL A   1      43.841  26.814  34.703  1.00  0.00     0.009 A 
ATOM     53  C   UNL A   1      46.475  27.696  34.442  1.00  0.00     0.001 A 
ATOM     54  C   UNL A   1      44.875  26.118  35.330  1.00  0.00     0.001 A 
ATOM     55  C   UNL A   1      46.192  26.553  35.189  1.00  0.00     0.000 A 
ENDBRANCH  37  50
ENDBRANCH  11  12
ENDBRANCH   4   6
ENDBRANCH   3   4
ENDBRANCH   2   3
ENDBRANCH   1   2
BRANCH   1  56
ATOM     56  O   UNL A   1      31.667  29.800  26.247  1.00  0.00    -0.462 OA
BRANCH  56  57
ATOM     57  C   UNL A   1      31.951  29.280  25.013  1.00  0.00     0.312 C 
ATOM     58  O   UNL A   1      31.174  29.320  24.067  1.00  0.00    -0.252 OA
BRANCH  57  59
ATOM     59  C   UNL A   1      33.360  28.681  24.985  1.00  0.00     0.124 C 
ATOM     60  C   UNL A   1      33.761  28.306  23.586  1.00  0.00    -0.014 C 
ATOM     61  C   UNL A   1      33.500  27.328  25.666  1.00  0.00     0.048 C 
ATOM     62  C   UNL A   1      33.607  26.987  23.388  1.00  0.00    -0.006 C 
ATOM     63  C   UNL A   1      33.050  26.312  24.614  1.00  0.00     0.106 C 
BRANCH  63  64
ATOM     64  N   UNL A   1      31.609  26.208  24.409  1.00  0.00    -0.346 N 
ATOM     65  C   UNL A   1      30.790  25.137  24.192  1.00  0.00     0.258 C 
ATOM     66  H   UNL A   1      31.139  27.072  24.431  1.00  0.00     0.164 HD
ATOM     67  O   UNL A   1      29.599  25.262  23.915  1.00  0.00    -0.269 OA
BRANCH  65  68
ATOM     68  C   UNL A   1      31.317  23.782  24.335  1.00  0.00     0.117 A 
ATOM     69  C   UNL A   1      31.967  23.199  23.238  1.00  0.00     0.022 A 
ATOM     70  C   UNL A   1      31.221  23.069  25.524  1.00  0.00     0.283 A 
ATOM     71  C   UNL A   1      32.335  21.853  23.281  1.00  0.00     0.022 A 
ATOM     72  C   UNL A   1      31.619  21.728  25.594  1.00  0.00     0.107 A 
ATOM     73  C   UNL A   1      32.134  21.118  24.450  1.00  0.00     0.047 A 
ATOM     74  Cl  UNL A   1      32.513  19.443  24.473  1.00  0.00    -0.084 Cl
BRANCH  70  75
ATOM     75  N   UNL A   1      30.731  23.707  26.729  1.00  0.00     0.063 N 
ATOM     76  O   UNL A   1      31.430  24.614  27.200  1.00  0.00    -0.258 OA
ATOM     77  O   UNL A   1      29.698  23.254  27.237  1.00  0.00    -0.258 OA
ENDBRANCH  70  75
ENDBRANCH  65  68
ENDBRANCH  63  64
ENDBRANCH  57  59
ENDBRANCH  56  57
ENDBRANCH   1  56
TORSDOF 14
ENDMDL
MODEL 3
REMARK VINA RESULT:     -11.0      0.872      6.088
REMARK SMILES O=C(OCCOC(=O)[C@@H]1C=C[C@H](NC(=O)c2ccc(Cl)cc2[N+](=O)[O-])C1)c1ccc(-c2c3nc(c(-c4ccccc4)c4ccc([nH]4)c(-c4ccccc4)c4nc(c(-c5ccccc5)c5ccc2[nH]5)C=C4)C=C3)cc1
REMARK SMILES IDX 5 1 4 2 3 3 2 4 1 5 27 6 28 7 74 8 29 9 73 10 30 11 31 12
REMARK SMILES IDX 32 13 67 14 33 15 72 16 66 17 68 18 34 19 71 20 65 21 64 22
REMARK SMILES IDX 35 24 57 25 42 26 56 27 43 28 46 29 55 30 69 31 44 32 45 33
REMARK SMILES IDX 54 35 70 36 47 37 36 38 37 39 41 40 38 41 40 42 39 43 58 44
REMARK SMILES IDX 59 45 63 46 60 47 62 48 61 49 48 50 49 51 53 52 50 53 52 54
REMARK SMILES IDX 51 55 6 56 7 57 8 58 9 59 10 60 26 61 11 62 12 63 13 64
REMARK SMILES IDX 14 65 15 67 16 68 17 69 22 70 18 71 21 72 19 73 20 74 23 75
REMARK SMILES IDX 24 76 25 77
REMARK H PARENT 68 23 46 34 13 66
REMARK Flexibility Score: inf
ROOT
ATOM      1  C   UNL A   1      37.998  21.208  25.326  1.00  0.00     0.274 C 
ENDROOT
BRANCH   1   2
ATOM      2  C   UNL A   1      38.638  19.840  25.055  1.00  0.00     0.275 C 
BRANCH   2   3
ATOM      3  O   UNL A   1      39.676  19.440  25.972  1.00  0.00    -0.458 OA
BRANCH   3   4
ATOM      4  C   UNL A   1      40.996  19.741  25.998  1.00  0.00     0.338 C 
ATOM      5  O   UNL A   1      41.823  18.857  25.786  1.00  0.00    -0.246 OA
BRANCH   4   6
ATOM      6  C   UNL A   1      41.511  21.068  26.451  1.00  0.00     0.060 A 
ATOM      7  C   UNL A   1      42.141  22.008  25.636  1.00  0.00     0.016 A 
ATOM      8  C   UNL A   1      41.299  21.397  27.805  1.00  0.00     0.016 A 
ATOM      9  C   UNL A   1      42.425  23.288  26.112  1.00  0.00     0.010 A 
ATOM     10  C   UNL A   1      41.582  22.679  28.290  1.00  0.00     0.010 A 
ATOM     11  C   UNL A   1      42.135  23.637  27.435  1.00  0.00    -0.014 A 
BRANCH  11  12
ATOM     12  C   UNL A   1      42.613  24.946  27.925  1.00  0.00     0.031 A 
ATOM     13  C   UNL A   1      41.590  26.027  28.102  1.00  0.00     0.074 A 
ATOM     14  C   UNL A   1      43.885  25.110  28.337  1.00  0.00     0.049 A 
ATOM     15  N   UNL A   1      41.709  27.189  28.687  1.00  0.00    -0.248 NA
ATOM     16  C   UNL A   1      40.244  25.751  27.571  1.00  0.00     0.031 C 
ATOM     17  C   UNL A   1      44.947  24.104  28.247  1.00  0.00     0.029 A 
ATOM     18  N   UNL A   1      44.491  26.176  28.952  1.00  0.00    -0.354 N 
ATOM     19  C   UNL A   1      40.447  27.762  28.622  1.00  0.00     0.074 A 
ATOM     20  C   UNL A   1      39.596  26.860  27.885  1.00  0.00     0.031 C 
ATOM     21  C   UNL A   1      46.068  24.596  28.808  1.00  0.00     0.029 A 
ATOM     22  C   UNL A   1      45.807  25.951  29.285  1.00  0.00     0.049 A 
ATOM     23  H   UNL A   1      44.028  27.024  29.136  1.00  0.00     0.167 HD
ATOM     24  C   UNL A   1      40.021  28.929  29.157  1.00  0.00     0.031 A 
ATOM     25  C   UNL A   1      46.688  26.752  29.918  1.00  0.00     0.031 A 
ATOM     26  C   UNL A   1      40.880  29.843  29.851  1.00  0.00     0.049 A 
ATOM     27  C   UNL A   1      46.212  28.097  30.408  1.00  0.00     0.074 A 
ATOM     28  C   UNL A   1      40.576  31.081  30.382  1.00  0.00     0.029 A 
ATOM     29  N   UNL A   1      42.226  29.613  30.097  1.00  0.00    -0.354 N 
ATOM     30  N   UNL A   1      45.007  28.615  30.364  1.00  0.00    -0.248 NA
ATOM     31  C   UNL A   1      47.212  28.960  31.051  1.00  0.00     0.031 C 
ATOM     32  C   UNL A   1      41.753  31.623  30.909  1.00  0.00     0.029 A 
ATOM     33  C   UNL A   1      42.773  30.696  30.759  1.00  0.00     0.049 A 
ATOM     34  H   UNL A   1      42.717  28.799  29.841  1.00  0.00     0.167 HD
ATOM     35  C   UNL A   1      45.099  29.850  30.995  1.00  0.00     0.074 A 
ATOM     36  C   UNL A   1      46.472  29.987  31.441  1.00  0.00     0.031 C 
ATOM     37  C   UNL A   1      44.145  30.795  31.187  1.00  0.00     0.031 A 
BRANCH  24  38
ATOM     38  C   UNL A   1      38.572  29.265  28.971  1.00  0.00    -0.014 A 
ATOM     39  C   UNL A   1      38.101  29.777  27.750  1.00  0.00     0.009 A 
ATOM     40  C   UNL A   1      37.674  29.110  30.036  1.00  0.00     0.009 A 
ATOM     41  C   UNL A   1      36.766  30.162  27.614  1.00  0.00     0.001 A 
ATOM     42  C   UNL A   1      36.334  29.470  29.888  1.00  0.00     0.001 A 
ATOM     43  C   UNL A   1      35.884  30.005  28.682  1.00  0.00     0.000 A 
ENDBRANCH  24  38
BRANCH  25  44
ATOM     44  C   UNL A   1      48.106  26.333  30.115  1.00  0.00    -0.014 A 
ATOM     45  C   UNL A   1      49.054  26.457  29.086  1.00  0.00     0.009 A 
ATOM     46  C   UNL A   1      48.502  25.733  31.322  1.00  0.00     0.009 A 
ATOM     47  C   UNL A   1      50.347  25.947  29.244  1.00  0.00     0.001 A 
ATOM     48  C   UNL A   1      49.806  25.255  31.489  1.00  0.00     0.001 A 
ATOM     49  C   UNL A   1      50.722  25.348  30.445  1.00  0.00     0.000 A 
ENDBRANCH  25  44
BRANCH  37  50
ATOM     50  C   UNL A   1      44.550  32.035  31.929  1.00  0.00    -0.014 A 
ATOM     51  C   UNL A   1      45.030  33.166  31.250  1.00  0.00     0.009 A 
ATOM     52  C   UNL A   1      44.405  32.088  33.324  1.00  0.00     0.009 A 
ATOM     53  C   UNL A   1      45.395  34.311  31.960  1.00  0.00     0.001 A 
ATOM     54  C   UNL A   1      44.738  33.246  34.027  1.00  0.00     0.001 A 
ATOM     55  C   UNL A   1      45.243  34.352  33.346  1.00  0.00     0.000 A 
ENDBRANCH  37  50
ENDBRANCH  11  12
ENDBRANCH   4   6
ENDBRANCH   3   4
ENDBRANCH   2   3
ENDBRANCH   1   2
BRANCH   1  56
ATOM     56  O   UNL A   1      36.804  21.459  24.563  1.00  0.00    -0.462 OA
BRANCH  56  57
ATOM     57  C   UNL A   1      35.672  21.614  25.316  1.00  0.00     0.312 C 
ATOM     58  O   UNL A   1      34.772  20.784  25.361  1.00  0.00    -0.252 OA
BRANCH  57  59
ATOM     59  C   UNL A   1      35.708  22.932  26.094  1.00  0.00     0.124 C 
ATOM     60  C   UNL A   1      34.462  23.112  26.914  1.00  0.00    -0.014 C 
ATOM     61  C   UNL A   1      35.639  24.189  25.238  1.00  0.00     0.048 C 
ATOM     62  C   UNL A   1      33.605  23.940  26.296  1.00  0.00    -0.006 C 
ATOM     63  C   UNL A   1      34.148  24.394  24.966  1.00  0.00     0.106 C 
BRANCH  63  64
ATOM     64  N   UNL A   1      33.561  23.517  23.959  1.00  0.00    -0.346 N 
ATOM     65  C   UNL A   1      32.417  23.610  23.219  1.00  0.00     0.258 C 
ATOM     66  H   UNL A   1      34.088  22.706  23.779  1.00  0.00     0.164 HD
ATOM     67  O   UNL A   1      32.021  22.696  22.497  1.00  0.00    -0.269 OA
BRANCH  65  68
ATOM     68  C   UNL A   1      31.644  24.850  23.232  1.00  0.00     0.117 A 
ATOM     69  C   UNL A   1      30.621  24.989  24.181  1.00  0.00     0.022 A 
ATOM     70  C   UNL A   1      31.907  25.899  22.359  1.00  0.00     0.283 A 
ATOM     71  C   UNL A   1      29.757  26.083  24.119  1.00  0.00     0.022 A 
ATOM     72  C   UNL A   1      31.070  27.021  22.309  1.00  0.00     0.107 A 
ATOM     73  C   UNL A   1      29.971  27.079  23.165  1.00  0.00     0.047 A 
ATOM     74  Cl  UNL A   1      28.858  28.383  23.038  1.00  0.00    -0.084 Cl
BRANCH  70  75
ATOM     75  N   UNL A   1      33.073  25.869  21.500  1.00  0.00     0.063 N 
ATOM     76  O   UNL A   1      34.088  26.441  21.921  1.00  0.00    -0.258 OA
ATOM     77  O   UNL A   1      32.949  25.343  20.387  1.00  0.00    -0.258 OA
ENDBRANCH  70  75
ENDBRANCH  65  68
ENDBRANCH  63  64
ENDBRANCH  57  59
ENDBRANCH  56  57
ENDBRANCH   1  56
TORSDOF 14
ENDMDL
