MODEL 1
REMARK VINA RESULT:     -10.5      0.000      0.000
REMARK SMILES Cc1ccc2c(c1C)O[C@@H](C(=O)OCCOC(=O)c1ccc(-c3c4nc(c(-c5ccccc5)c5ccc([nH]5)c(-c5ccccc5)c5nc(c(-c6ccccc6)c6ccc3[nH]6)C=C5)C=C4)cc1)CC2=O
REMARK SMILES IDX 15 1 14 2 13 3 11 4 12 5 10 6 1 7 2 8 3 9 7 10 4 11 6 12
REMARK SMILES IDX 8 13 5 14 9 15 68 16 67 17 69 18 16 19 17 20 18 21 19 22
REMARK SMILES IDX 20 23 66 24 21 25 65 26 22 27 23 28 24 29 59 30 25 31 64 32
REMARK SMILES IDX 58 33 60 34 26 35 63 36 57 37 56 38 27 40 49 41 34 42 48 43
REMARK SMILES IDX 35 44 38 45 47 46 61 47 36 48 37 49 46 51 62 52 39 53 28 54
REMARK SMILES IDX 29 55 33 56 30 57 32 58 31 59 50 60 51 61 55 62 52 63 54 64
REMARK SMILES IDX 53 65 40 66 41 67 45 68 42 69 44 70 43 71
REMARK H PARENT 60 39 38 50
REMARK Flexibility Score: inf
ROOT
ATOM      1  C   UNL A   1      31.408  32.277  26.882  1.00  0.00     0.275 C 
ENDROOT
BRANCH   1   2
ATOM      2  C   UNL A   1      31.337  30.976  26.083  1.00  0.00     0.274 C 
BRANCH   2   3
ATOM      3  O   UNL A   1      32.662  30.488  25.797  1.00  0.00    -0.459 OA
BRANCH   3   4
ATOM      4  C   UNL A   1      32.822  29.140  25.737  1.00  0.00     0.347 C 
ATOM      5  O   UNL A   1      32.716  28.382  26.695  1.00  0.00    -0.248 OA
BRANCH   4   6
ATOM      6  C   UNL A   1      33.188  28.652  24.325  1.00  0.00     0.290 C 
ATOM      7  C   UNL A   1      27.275  28.578  23.128  1.00  0.00     0.045 C 
ATOM      8  C   UNL A   1      28.642  28.020  23.415  1.00  0.00    -0.044 A 
ATOM      9  C   UNL A   1      28.739  26.694  23.880  1.00  0.00     0.005 A 
ATOM     10  C   UNL A   1      29.817  28.771  23.201  1.00  0.00    -0.005 A 
ATOM     11  C   UNL A   1      29.977  26.119  24.156  1.00  0.00     0.016 A 
ATOM     12  C   UNL A   1      31.056  28.192  23.526  1.00  0.00     0.134 A 
ATOM     13  C   UNL A   1      29.785  30.197  22.712  1.00  0.00     0.049 C 
ATOM     14  C   UNL A   1      31.133  26.873  23.981  1.00  0.00     0.060 A 
ATOM     15  O   UNL A   1      32.177  28.970  23.370  1.00  0.00    -0.477 OA
ATOM     16  C   UNL A   1      32.454  26.288  24.281  1.00  0.00     0.170 C 
ATOM     17  C   UNL A   1      33.639  27.207  24.200  1.00  0.00     0.138 C 
ATOM     18  O   UNL A   1      32.568  25.093  24.539  1.00  0.00    -0.294 OA
ENDBRANCH   4   6
ENDBRANCH   3   4
ENDBRANCH   2   3
ENDBRANCH   1   2
BRANCH   1  19
ATOM     19  O   UNL A   1      32.677  32.928  26.681  1.00  0.00    -0.458 OA
BRANCH  19  20
ATOM     20  C   UNL A   1      33.143  33.618  27.745  1.00  0.00     0.338 C 
ATOM     21  O   UNL A   1      32.631  34.569  28.307  1.00  0.00    -0.246 OA
BRANCH  20  22
ATOM     22  C   UNL A   1      34.360  32.972  28.243  1.00  0.00     0.060 A 
ATOM     23  C   UNL A   1      34.286  31.646  28.669  1.00  0.00     0.016 A 
ATOM     24  C   UNL A   1      35.534  33.710  28.393  1.00  0.00     0.016 A 
ATOM     25  C   UNL A   1      35.386  31.050  29.272  1.00  0.00     0.010 A 
ATOM     26  C   UNL A   1      36.649  33.103  28.977  1.00  0.00     0.010 A 
ATOM     27  C   UNL A   1      36.573  31.776  29.433  1.00  0.00    -0.014 A 
BRANCH  27  28
ATOM     28  C   UNL A   1      37.725  31.137  30.105  1.00  0.00     0.031 A 
ATOM     29  C   UNL A   1      38.009  31.431  31.547  1.00  0.00     0.074 A 
ATOM     30  C   UNL A   1      38.480  30.260  29.421  1.00  0.00     0.049 A 
ATOM     31  N   UNL A   1      38.982  30.982  32.298  1.00  0.00    -0.248 NA
ATOM     32  C   UNL A   1      37.081  32.339  32.242  1.00  0.00     0.031 C 
ATOM     33  C   UNL A   1      38.263  29.863  28.029  1.00  0.00     0.029 A 
ATOM     34  N   UNL A   1      39.578  29.536  29.810  1.00  0.00    -0.354 N 
ATOM     35  C   UNL A   1      38.788  31.556  33.546  1.00  0.00     0.074 A 
ATOM     36  C   UNL A   1      37.617  32.398  33.454  1.00  0.00     0.031 C 
ATOM     37  C   UNL A   1      39.192  28.956  27.683  1.00  0.00     0.029 A 
ATOM     38  C   UNL A   1      40.089  28.740  28.814  1.00  0.00     0.049 A 
ATOM     39  H   UNL A   1      39.963  29.583  30.715  1.00  0.00     0.167 HD
ATOM     40  C   UNL A   1      39.523  31.386  34.669  1.00  0.00     0.031 A 
ATOM     41  C   UNL A   1      41.170  27.938  28.809  1.00  0.00     0.031 A 
ATOM     42  C   UNL A   1      40.681  30.541  34.761  1.00  0.00     0.049 A 
ATOM     43  C   UNL A   1      42.006  27.823  30.051  1.00  0.00     0.074 A 
ATOM     44  C   UNL A   1      41.484  30.304  35.863  1.00  0.00     0.029 A 
ATOM     45  N   UNL A   1      41.198  29.796  33.714  1.00  0.00    -0.354 N 
ATOM     46  N   UNL A   1      41.815  28.379  31.222  1.00  0.00    -0.248 NA
ATOM     47  C   UNL A   1      43.206  26.978  29.970  1.00  0.00     0.031 C 
ATOM     48  C   UNL A   1      42.512  29.442  35.473  1.00  0.00     0.029 A 
ATOM     49  C   UNL A   1      42.324  29.115  34.139  1.00  0.00     0.049 A 
ATOM     50  H   UNL A   1      40.822  29.757  32.805  1.00  0.00     0.167 HD
ATOM     51  C   UNL A   1      42.864  27.945  32.021  1.00  0.00     0.074 A 
ATOM     52  C   UNL A   1      43.681  27.070  31.206  1.00  0.00     0.031 C 
ATOM     53  C   UNL A   1      43.125  28.250  33.314  1.00  0.00     0.031 A 
BRANCH  40  54
ATOM     54  C   UNL A   1      39.112  32.134  35.900  1.00  0.00    -0.014 A 
ATOM     55  C   UNL A   1      39.585  33.431  36.144  1.00  0.00     0.009 A 
ATOM     56  C   UNL A   1      38.157  31.578  36.766  1.00  0.00     0.009 A 
ATOM     57  C   UNL A   1      39.108  34.160  37.235  1.00  0.00     0.001 A 
ATOM     58  C   UNL A   1      37.671  32.315  37.846  1.00  0.00     0.001 A 
ATOM     59  C   UNL A   1      38.146  33.605  38.079  1.00  0.00     0.000 A 
ENDBRANCH  40  54
BRANCH  41  60
ATOM     60  C   UNL A   1      41.529  27.200  27.573  1.00  0.00    -0.014 A 
ATOM     61  C   UNL A   1      42.406  27.762  26.636  1.00  0.00     0.009 A 
ATOM     62  C   UNL A   1      41.015  25.913  27.342  1.00  0.00     0.009 A 
ATOM     63  C   UNL A   1      42.757  27.052  25.485  1.00  0.00     0.001 A 
ATOM     64  C   UNL A   1      41.384  25.199  26.202  1.00  0.00     0.001 A 
ATOM     65  C   UNL A   1      42.251  25.770  25.272  1.00  0.00     0.000 A 
ENDBRANCH  41  60
BRANCH  53  66
ATOM     66  C   UNL A   1      44.338  27.636  33.944  1.00  0.00    -0.014 A 
ATOM     67  C   UNL A   1      44.269  26.367  34.538  1.00  0.00     0.009 A 
ATOM     68  C   UNL A   1      45.581  28.281  33.842  1.00  0.00     0.009 A 
ATOM     69  C   UNL A   1      45.427  25.756  35.022  1.00  0.00     0.001 A 
ATOM     70  C   UNL A   1      46.737  27.659  34.311  1.00  0.00     0.001 A 
ATOM     71  C   UNL A   1      46.659  26.398  34.901  1.00  0.00     0.000 A 
ENDBRANCH  53  66
ENDBRANCH  27  28
ENDBRANCH  20  22
ENDBRANCH  19  20
ENDBRANCH   1  19
TORSDOF 11
ENDMDL
MODEL 2
REMARK VINA RESULT:     -10.5      4.778      8.705
REMARK SMILES Cc1ccc2c(c1C)O[C@@H](C(=O)OCCOC(=O)c1ccc(-c3c4nc(c(-c5ccccc5)c5ccc([nH]5)c(-c5ccccc5)c5nc(c(-c6ccccc6)c6ccc3[nH]6)C=C5)C=C4)cc1)CC2=O
REMARK SMILES IDX 15 1 14 2 13 3 11 4 12 5 10 6 1 7 2 8 3 9 7 10 4 11 6 12
REMARK SMILES IDX 8 13 5 14 9 15 68 16 67 17 69 18 16 19 17 20 18 21 19 22
REMARK SMILES IDX 20 23 66 24 21 25 65 26 22 27 23 28 24 29 59 30 25 31 64 32
REMARK SMILES IDX 58 33 60 34 26 35 63 36 57 37 56 38 27 40 49 41 34 42 48 43
REMARK SMILES IDX 35 44 38 45 47 46 61 47 36 48 37 49 46 51 62 52 39 53 28 54
REMARK SMILES IDX 29 55 33 56 30 57 32 58 31 59 50 60 51 61 55 62 52 63 54 64
REMARK SMILES IDX 53 65 40 66 41 67 45 68 42 69 44 70 43 71
REMARK H PARENT 60 39 38 50
REMARK Flexibility Score: inf
ROOT
ATOM      1  C   UNL A   1      38.664  19.712  25.145  1.00  0.00     0.275 C 
ENDROOT
BRANCH   1   2
ATOM      2  C   UNL A   1      37.925  21.040  24.993  1.00  0.00     0.274 C 
BRANCH   2   3
ATOM      3  O   UNL A   1      36.598  20.944  25.547  1.00  0.00    -0.459 OA
BRANCH   3   4
ATOM      4  C   UNL A   1      35.844  22.073  25.538  1.00  0.00     0.347 C 
ATOM      5  O   UNL A   1      36.125  23.095  24.921  1.00  0.00    -0.248 OA
BRANCH   4   6
ATOM      6  C   UNL A   1      34.590  21.952  26.421  1.00  0.00     0.290 C 
ATOM      7  C   UNL A   1      32.279  18.369  22.152  1.00  0.00     0.045 C 
ATOM      8  C   UNL A   1      32.448  19.613  22.980  1.00  0.00    -0.044 A 
ATOM      9  C   UNL A   1      31.951  20.828  22.471  1.00  0.00     0.005 A 
ATOM     10  C   UNL A   1      33.056  19.587  24.253  1.00  0.00    -0.005 A 
ATOM     11  C   UNL A   1      32.072  22.012  23.194  1.00  0.00     0.016 A 
ATOM     12  C   UNL A   1      33.210  20.798  24.952  1.00  0.00     0.134 A 
ATOM     13  C   UNL A   1      33.616  18.323  24.855  1.00  0.00     0.049 C 
ATOM     14  C   UNL A   1      32.705  21.993  24.432  1.00  0.00     0.060 A 
ATOM     15  O   UNL A   1      33.864  20.752  26.158  1.00  0.00    -0.477 OA
ATOM     16  C   UNL A   1      32.856  23.239  25.209  1.00  0.00     0.170 C 
ATOM     17  C   UNL A   1      33.671  23.161  26.468  1.00  0.00     0.138 C 
ATOM     18  O   UNL A   1      32.298  24.273  24.853  1.00  0.00    -0.294 OA
ENDBRANCH   4   6
ENDBRANCH   3   4
ENDBRANCH   2   3
ENDBRANCH   1   2
BRANCH   1  19
ATOM     19  O   UNL A   1      39.460  19.707  26.346  1.00  0.00    -0.458 OA
BRANCH  19  20
ATOM     20  C   UNL A   1      40.796  19.707  26.148  1.00  0.00     0.338 C 
ATOM     21  O   UNL A   1      41.471  18.872  25.575  1.00  0.00    -0.246 OA
BRANCH  20  22
ATOM     22  C   UNL A   1      41.357  20.969  26.639  1.00  0.00     0.060 A 
ATOM     23  C   UNL A   1      41.275  21.251  28.003  1.00  0.00     0.016 A 
ATOM     24  C   UNL A   1      41.854  21.912  25.740  1.00  0.00     0.016 A 
ATOM     25  C   UNL A   1      41.672  22.493  28.479  1.00  0.00     0.010 A 
ATOM     26  C   UNL A   1      42.278  23.153  26.222  1.00  0.00     0.010 A 
ATOM     27  C   UNL A   1      42.172  23.454  27.590  1.00  0.00    -0.014 A 
BRANCH  27  28
ATOM     28  C   UNL A   1      42.562  24.782  28.108  1.00  0.00     0.031 A 
ATOM     29  C   UNL A   1      41.519  25.838  28.326  1.00  0.00     0.074 A 
ATOM     30  C   UNL A   1      43.849  25.014  28.423  1.00  0.00     0.049 A 
ATOM     31  N   UNL A   1      41.673  27.064  28.754  1.00  0.00    -0.248 NA
ATOM     32  C   UNL A   1      40.123  25.471  28.034  1.00  0.00     0.031 C 
ATOM     33  C   UNL A   1      44.937  24.043  28.298  1.00  0.00     0.029 A 
ATOM     34  N   UNL A   1      44.457  26.137  28.922  1.00  0.00    -0.354 N 
ATOM     35  C   UNL A   1      40.400  27.616  28.775  1.00  0.00     0.074 A 
ATOM     36  C   UNL A   1      39.484  26.601  28.304  1.00  0.00     0.031 C 
ATOM     37  C   UNL A   1      46.079  24.608  28.722  1.00  0.00     0.029 A 
ATOM     38  C   UNL A   1      45.808  25.990  29.110  1.00  0.00     0.049 A 
ATOM     39  H   UNL A   1      43.970  26.969  29.125  1.00  0.00     0.167 HD
ATOM     40  C   UNL A   1      40.032  28.860  29.161  1.00  0.00     0.031 A 
ATOM     41  C   UNL A   1      46.731  26.875  29.531  1.00  0.00     0.031 A 
ATOM     42  C   UNL A   1      40.943  29.863  29.637  1.00  0.00     0.049 A 
ATOM     43  C   UNL A   1      46.302  28.269  29.888  1.00  0.00     0.074 A 
ATOM     44  C   UNL A   1      40.657  31.151  30.057  1.00  0.00     0.029 A 
ATOM     45  N   UNL A   1      42.312  29.692  29.759  1.00  0.00    -0.354 N 
ATOM     46  N   UNL A   1      45.096  28.780  29.895  1.00  0.00    -0.248 NA
ATOM     47  C   UNL A   1      47.359  29.209  30.287  1.00  0.00     0.031 C 
ATOM     48  C   UNL A   1      41.860  31.773  30.399  1.00  0.00     0.029 A 
ATOM     49  C   UNL A   1      42.888  30.859  30.226  1.00  0.00     0.049 A 
ATOM     50  H   UNL A   1      42.802  28.865  29.545  1.00  0.00     0.167 HD
ATOM     51  C   UNL A   1      45.245  30.097  30.307  1.00  0.00     0.074 A 
ATOM     52  C   UNL A   1      46.657  30.304  30.553  1.00  0.00     0.031 C 
ATOM     53  C   UNL A   1      44.295  31.048  30.464  1.00  0.00     0.031 A 
BRANCH  40  54
ATOM     54  C   UNL A   1      38.582  29.223  29.079  1.00  0.00    -0.014 A 
ATOM     55  C   UNL A   1      37.751  29.120  30.204  1.00  0.00     0.009 A 
ATOM     56  C   UNL A   1      38.069  29.778  27.896  1.00  0.00     0.009 A 
ATOM     57  C   UNL A   1      36.430  29.568  30.145  1.00  0.00     0.001 A 
ATOM     58  C   UNL A   1      36.752  30.238  27.846  1.00  0.00     0.001 A 
ATOM     59  C   UNL A   1      35.935  30.134  28.970  1.00  0.00     0.000 A 
ENDBRANCH  40  54
BRANCH  41  60
ATOM     60  C   UNL A   1      48.154  26.466  29.616  1.00  0.00    -0.014 A 
ATOM     61  C   UNL A   1      48.655  25.857  30.775  1.00  0.00     0.009 A 
ATOM     62  C   UNL A   1      49.012  26.658  28.520  1.00  0.00     0.009 A 
ATOM     63  C   UNL A   1      49.991  25.455  30.839  1.00  0.00     0.001 A 
ATOM     64  C   UNL A   1      50.341  26.236  28.580  1.00  0.00     0.001 A 
ATOM     65  C   UNL A   1      50.830  25.639  29.741  1.00  0.00     0.000 A 
ENDBRANCH  41  60
BRANCH  53  66
ATOM     66  C   UNL A   1      44.733  32.403  30.927  1.00  0.00    -0.014 A 
ATOM     67  C   UNL A   1      44.826  32.693  32.296  1.00  0.00     0.009 A 
ATOM     68  C   UNL A   1      45.165  33.356  29.991  1.00  0.00     0.009 A 
ATOM     69  C   UNL A   1      45.342  33.920  32.719  1.00  0.00     0.001 A 
ATOM     70  C   UNL A   1      45.696  34.572  30.418  1.00  0.00     0.001 A 
ATOM     71  C   UNL A   1      45.784  34.853  31.782  1.00  0.00     0.000 A 
ENDBRANCH  53  66
ENDBRANCH  27  28
ENDBRANCH  20  22
ENDBRANCH  19  20
ENDBRANCH   1  19
TORSDOF 11
ENDMDL
MODEL 3
REMARK VINA RESULT:     -10.5      0.259      6.124
REMARK SMILES Cc1ccc2c(c1C)O[C@@H](C(=O)OCCOC(=O)c1ccc(-c3c4nc(c(-c5ccccc5)c5ccc([nH]5)c(-c5ccccc5)c5nc(c(-c6ccccc6)c6ccc3[nH]6)C=C5)C=C4)cc1)CC2=O
REMARK SMILES IDX 15 1 14 2 13 3 11 4 12 5 10 6 1 7 2 8 3 9 7 10 4 11 6 12
REMARK SMILES IDX 8 13 5 14 9 15 68 16 67 17 69 18 16 19 17 20 18 21 19 22
REMARK SMILES IDX 20 23 66 24 21 25 65 26 22 27 23 28 24 29 59 30 25 31 64 32
REMARK SMILES IDX 58 33 60 34 26 35 63 36 57 37 56 38 27 40 49 41 34 42 48 43
REMARK SMILES IDX 35 44 38 45 47 46 61 47 36 48 37 49 46 51 62 52 39 53 28 54
REMARK SMILES IDX 29 55 33 56 30 57 32 58 31 59 50 60 51 61 55 62 52 63 54 64
REMARK SMILES IDX 53 65 40 66 41 67 45 68 42 69 44 70 43 71
REMARK H PARENT 60 39 38 50
REMARK Flexibility Score: inf
ROOT
ATOM      1  C   UNL A   1      31.403  32.326  26.877  1.00  0.00     0.275 C 
ENDROOT
BRANCH   1   2
ATOM      2  C   UNL A   1      31.361  31.077  25.997  1.00  0.00     0.274 C 
BRANCH   2   3
ATOM      3  O   UNL A   1      32.667  30.475  25.916  1.00  0.00    -0.459 OA
BRANCH   3   4
ATOM      4  C   UNL A   1      32.716  29.121  25.818  1.00  0.00     0.347 C 
ATOM      5  O   UNL A   1      32.502  28.347  26.745  1.00  0.00    -0.248 OA
BRANCH   4   6
ATOM      6  C   UNL A   1      33.104  28.645  24.408  1.00  0.00     0.290 C 
ATOM      7  C   UNL A   1      27.211  28.578  23.117  1.00  0.00     0.045 C 
ATOM      8  C   UNL A   1      28.574  28.017  23.421  1.00  0.00    -0.044 A 
ATOM      9  C   UNL A   1      28.665  26.688  23.876  1.00  0.00     0.005 A 
ATOM     10  C   UNL A   1      29.751  28.772  23.232  1.00  0.00    -0.005 A 
ATOM     11  C   UNL A   1      29.898  26.112  24.167  1.00  0.00     0.016 A 
ATOM     12  C   UNL A   1      30.986  28.190  23.571  1.00  0.00     0.134 A 
ATOM     13  C   UNL A   1      29.726  30.202  22.755  1.00  0.00     0.049 C 
ATOM     14  C   UNL A   1      31.056  26.868  24.017  1.00  0.00     0.060 A 
ATOM     15  O   UNL A   1      32.108  28.970  23.440  1.00  0.00    -0.477 OA
ATOM     16  C   UNL A   1      32.373  26.281  24.332  1.00  0.00     0.170 C 
ATOM     17  C   UNL A   1      33.558  27.201  24.278  1.00  0.00     0.138 C 
ATOM     18  O   UNL A   1      32.484  25.084  24.583  1.00  0.00    -0.294 OA
ENDBRANCH   4   6
ENDBRANCH   3   4
ENDBRANCH   2   3
ENDBRANCH   1   2
BRANCH   1  19
ATOM     19  O   UNL A   1      32.645  33.033  26.698  1.00  0.00    -0.458 OA
BRANCH  19  20
ATOM     20  C   UNL A   1      33.075  33.720  27.779  1.00  0.00     0.338 C 
ATOM     21  O   UNL A   1      32.539  34.663  28.332  1.00  0.00    -0.246 OA
BRANCH  20  22
ATOM     22  C   UNL A   1      34.283  33.081  28.308  1.00  0.00     0.060 A 
ATOM     23  C   UNL A   1      34.203  31.758  28.744  1.00  0.00     0.016 A 
ATOM     24  C   UNL A   1      35.452  33.823  28.476  1.00  0.00     0.016 A 
ATOM     25  C   UNL A   1      35.292  31.170  29.374  1.00  0.00     0.010 A 
ATOM     26  C   UNL A   1      36.555  33.223  29.087  1.00  0.00     0.010 A 
ATOM     27  C   UNL A   1      36.473  31.900  29.553  1.00  0.00    -0.014 A 
BRANCH  27  28
ATOM     28  C   UNL A   1      37.612  31.270  30.254  1.00  0.00     0.031 A 
ATOM     29  C   UNL A   1      38.524  30.336  29.515  1.00  0.00     0.074 A 
ATOM     30  C   UNL A   1      37.844  31.579  31.542  1.00  0.00     0.049 A 
ATOM     31  N   UNL A   1      39.559  29.676  29.965  1.00  0.00    -0.248 NA
ATOM     32  C   UNL A   1      38.244  30.119  28.085  1.00  0.00     0.031 C 
ATOM     33  C   UNL A   1      37.051  32.513  32.343  1.00  0.00     0.029 A 
ATOM     34  N   UNL A   1      38.823  31.147  32.400  1.00  0.00    -0.354 N 
ATOM     35  C   UNL A   1      40.049  28.961  28.881  1.00  0.00     0.074 A 
ATOM     36  C   UNL A   1      39.193  29.253  27.753  1.00  0.00     0.031 C 
ATOM     37  C   UNL A   1      37.582  32.594  33.573  1.00  0.00     0.029 A 
ATOM     38  C   UNL A   1      38.726  31.691  33.657  1.00  0.00     0.049 A 
ATOM     39  H   UNL A   1      39.526  30.510  32.139  1.00  0.00     0.167 HD
ATOM     40  C   UNL A   1      41.123  28.141  28.835  1.00  0.00     0.031 A 
ATOM     41  C   UNL A   1      39.466  31.472  34.760  1.00  0.00     0.031 A 
ATOM     42  C   UNL A   1      41.977  27.860  29.955  1.00  0.00     0.049 A 
ATOM     43  C   UNL A   1      40.611  30.502  34.695  1.00  0.00     0.074 A 
ATOM     44  C   UNL A   1      43.095  27.044  29.997  1.00  0.00     0.029 A 
ATOM     45  N   UNL A   1      41.811  28.386  31.225  1.00  0.00    -0.354 N 
ATOM     46  N   UNL A   1      41.058  29.828  33.665  1.00  0.00    -0.248 NA
ATOM     47  C   UNL A   1      41.349  30.259  35.943  1.00  0.00     0.031 C 
ATOM     48  C   UNL A   1      43.585  27.047  31.306  1.00  0.00     0.029 A 
ATOM     49  C   UNL A   1      42.794  27.895  32.065  1.00  0.00     0.049 A 
ATOM     50  H   UNL A   1      41.102  29.015  31.490  1.00  0.00     0.167 HD
ATOM     51  C   UNL A   1      42.133  29.087  34.136  1.00  0.00     0.074 A 
ATOM     52  C   UNL A   1      42.281  29.404  35.541  1.00  0.00     0.031 C 
ATOM     53  C   UNL A   1      42.924  28.220  33.461  1.00  0.00     0.031 A 
BRANCH  40  54
ATOM     54  C   UNL A   1      41.443  27.470  27.534  1.00  0.00    -0.014 A 
ATOM     55  C   UNL A   1      42.320  28.064  26.616  1.00  0.00     0.009 A 
ATOM     56  C   UNL A   1      40.947  26.181  27.276  1.00  0.00     0.009 A 
ATOM     57  C   UNL A   1      42.697  27.378  25.460  1.00  0.00     0.001 A 
ATOM     58  C   UNL A   1      41.338  25.494  26.126  1.00  0.00     0.001 A 
ATOM     59  C   UNL A   1      42.213  26.091  25.221  1.00  0.00     0.000 A 
ENDBRANCH  40  54
BRANCH  41  60
ATOM     60  C   UNL A   1      39.126  32.173  36.022  1.00  0.00    -0.014 A 
ATOM     61  C   UNL A   1      39.743  33.387  36.353  1.00  0.00     0.009 A 
ATOM     62  C   UNL A   1      38.157  31.641  36.889  1.00  0.00     0.009 A 
ATOM     63  C   UNL A   1      39.401  34.053  37.532  1.00  0.00     0.001 A 
ATOM     64  C   UNL A   1      37.804  32.319  38.056  1.00  0.00     0.001 A 
ATOM     65  C   UNL A   1      38.429  33.522  38.379  1.00  0.00     0.000 A 
ENDBRANCH  41  60
BRANCH  53  66
ATOM     66  C   UNL A   1      44.029  27.548  34.218  1.00  0.00    -0.014 A 
ATOM     67  C   UNL A   1      43.855  26.257  34.738  1.00  0.00     0.009 A 
ATOM     68  C   UNL A   1      45.286  28.164  34.313  1.00  0.00     0.009 A 
ATOM     69  C   UNL A   1      44.925  25.596  35.344  1.00  0.00     0.001 A 
ATOM     70  C   UNL A   1      46.357  27.494  34.903  1.00  0.00     0.001 A 
ATOM     71  C   UNL A   1      46.175  26.210  35.418  1.00  0.00     0.000 A 
ENDBRANCH  53  66
ENDBRANCH  27  28
ENDBRANCH  20  22
ENDBRANCH  19  20
ENDBRANCH   1  19
TORSDOF 11
ENDMDL
