MODEL 1
REMARK VINA RESULT:     -10.6      0.000      0.000
REMARK SMILES O=C(OCCOC(=O)c1ccccc1C[NH2+]C1CCCC1)c1ccc(-c2c3nc(c(-c4ccccc4)c4ccc([nH]4)c(-c4ccccc4)c4nc(c(-c5ccccc5)c5ccc2[nH]5)C=C4)C=C3)cc1
REMARK SMILES IDX 5 1 4 2 3 3 2 4 1 5 22 6 23 7 69 8 24 9 68 10 25 11 26 12
REMARK SMILES IDX 27 13 62 14 28 15 67 16 61 17 63 18 29 19 66 20 60 21 59 22
REMARK SMILES IDX 30 24 52 25 37 26 51 27 38 28 41 29 50 30 64 31 39 32 40 33
REMARK SMILES IDX 49 35 65 36 42 37 31 38 32 39 36 40 33 41 35 42 34 43 53 44
REMARK SMILES IDX 54 45 58 46 55 47 57 48 56 49 43 50 44 51 48 52 45 53 47 54
REMARK SMILES IDX 46 55 6 56 7 57 8 58 9 59 10 60 14 61 11 62 13 63 12 64
REMARK SMILES IDX 15 65 16 66 17 69 18 70 21 71 19 72 20 73
REMARK H PARENT 63 23 41 34 16 67 16 68
REMARK Flexibility Score: inf
ROOT
ATOM      1  C   UNL A   1      32.384  31.107  26.808  1.00  0.00     0.275 C 
ENDROOT
BRANCH   1   2
ATOM      2  C   UNL A   1      31.490  32.316  27.078  1.00  0.00     0.275 C 
BRANCH   2   3
ATOM      3  O   UNL A   1      32.203  33.561  27.189  1.00  0.00    -0.458 OA
BRANCH   3   4
ATOM      4  C   UNL A   1      32.950  34.075  28.193  1.00  0.00     0.338 C 
ATOM      5  O   UNL A   1      32.542  35.098  28.746  1.00  0.00    -0.246 OA
BRANCH   4   6
ATOM      6  C   UNL A   1      34.283  33.545  28.639  1.00  0.00     0.060 A 
ATOM      7  C   UNL A   1      35.496  33.646  27.953  1.00  0.00     0.016 A 
ATOM      8  C   UNL A   1      34.296  32.878  29.881  1.00  0.00     0.016 A 
ATOM      9  C   UNL A   1      36.686  33.148  28.499  1.00  0.00     0.010 A 
ATOM     10  C   UNL A   1      35.480  32.382  30.435  1.00  0.00     0.010 A 
ATOM     11  C   UNL A   1      36.686  32.510  29.739  1.00  0.00    -0.014 A 
BRANCH  11  12
ATOM     12  C   UNL A   1      37.915  31.857  30.239  1.00  0.00     0.031 A 
ATOM     13  C   UNL A   1      38.714  32.557  31.287  1.00  0.00     0.074 A 
ATOM     14  C   UNL A   1      38.297  30.649  29.789  1.00  0.00     0.049 A 
ATOM     15  N   UNL A   1      39.813  32.166  31.874  1.00  0.00    -0.248 NA
ATOM     16  C   UNL A   1      38.193  33.849  31.760  1.00  0.00     0.031 C 
ATOM     17  C   UNL A   1      37.533  29.847  28.851  1.00  0.00     0.029 A 
ATOM     18  N   UNL A   1      39.411  29.888  30.037  1.00  0.00    -0.354 N 
ATOM     19  C   UNL A   1      40.104  33.153  32.801  1.00  0.00     0.074 A 
ATOM     20  C   UNL A   1      39.096  34.182  32.669  1.00  0.00     0.031 C 
ATOM     21  C   UNL A   1      38.218  28.736  28.538  1.00  0.00     0.029 A 
ATOM     22  C   UNL A   1      39.475  28.746  29.269  1.00  0.00     0.049 A 
ATOM     23  H   UNL A   1      40.096  30.133  30.698  1.00  0.00     0.167 HD
ATOM     24  C   UNL A   1      41.118  33.182  33.694  1.00  0.00     0.031 A 
ATOM     25  C   UNL A   1      40.443  27.819  29.160  1.00  0.00     0.031 A 
ATOM     26  C   UNL A   1      42.134  32.172  33.776  1.00  0.00     0.049 A 
ATOM     27  C   UNL A   1      41.637  27.951  30.058  1.00  0.00     0.074 A 
ATOM     28  C   UNL A   1      43.213  32.101  34.636  1.00  0.00     0.029 A 
ATOM     29  N   UNL A   1      42.208  31.063  32.943  1.00  0.00    -0.354 N 
ATOM     30  N   UNL A   1      41.877  28.863  30.971  1.00  0.00    -0.248 NA
ATOM     31  C   UNL A   1      42.680  26.925  29.941  1.00  0.00     0.031 C 
ATOM     32  C   UNL A   1      43.977  30.984  34.280  1.00  0.00     0.029 A 
ATOM     33  C   UNL A   1      43.341  30.325  33.238  1.00  0.00     0.049 A 
ATOM     34  H   UNL A   1      41.552  30.835  32.246  1.00  0.00     0.167 HD
ATOM     35  C   UNL A   1      43.076  28.502  31.563  1.00  0.00     0.074 A 
ATOM     36  C   UNL A   1      43.511  27.282  30.910  1.00  0.00     0.031 C 
ATOM     37  C   UNL A   1      43.751  29.119  32.563  1.00  0.00     0.031 A 
BRANCH  24  38
ATOM     38  C   UNL A   1      41.184  34.379  34.595  1.00  0.00    -0.014 A 
ATOM     39  C   UNL A   1      40.464  34.425  35.801  1.00  0.00     0.009 A 
ATOM     40  C   UNL A   1      41.947  35.491  34.213  1.00  0.00     0.009 A 
ATOM     41  C   UNL A   1      40.476  35.579  36.585  1.00  0.00     0.001 A 
ATOM     42  C   UNL A   1      41.977  36.634  35.013  1.00  0.00     0.001 A 
ATOM     43  C   UNL A   1      41.233  36.682  36.191  1.00  0.00     0.000 A 
ENDBRANCH  24  38
BRANCH  25  44
ATOM     44  C   UNL A   1      40.330  26.713  28.168  1.00  0.00    -0.014 A 
ATOM     45  C   UNL A   1      39.673  25.515  28.483  1.00  0.00     0.009 A 
ATOM     46  C   UNL A   1      40.904  26.849  26.893  1.00  0.00     0.009 A 
ATOM     47  C   UNL A   1      39.623  24.467  27.557  1.00  0.00     0.001 A 
ATOM     48  C   UNL A   1      40.830  25.810  25.960  1.00  0.00     0.001 A 
ATOM     49  C   UNL A   1      40.199  24.615  26.297  1.00  0.00     0.000 A 
ENDBRANCH  25  44
BRANCH  37  50
ATOM     50  C   UNL A   1      45.019  28.465  33.024  1.00  0.00    -0.014 A 
ATOM     51  C   UNL A   1      45.005  27.475  34.017  1.00  0.00     0.009 A 
ATOM     52  C   UNL A   1      46.235  28.809  32.415  1.00  0.00     0.009 A 
ATOM     53  C   UNL A   1      46.192  26.856  34.408  1.00  0.00     0.001 A 
ATOM     54  C   UNL A   1      47.415  28.167  32.786  1.00  0.00     0.001 A 
ATOM     55  C   UNL A   1      47.394  27.197  33.788  1.00  0.00     0.000 A 
ENDBRANCH  37  50
ENDBRANCH  11  12
ENDBRANCH   4   6
ENDBRANCH   3   4
ENDBRANCH   2   3
ENDBRANCH   1   2
BRANCH   1  56
ATOM     56  O   UNL A   1      31.639  29.956  26.391  1.00  0.00    -0.458 OA
BRANCH  56  57
ATOM     57  C   UNL A   1      32.149  29.276  25.328  1.00  0.00     0.338 C 
ATOM     58  O   UNL A   1      33.106  29.590  24.656  1.00  0.00    -0.246 OA
BRANCH  57  59
ATOM     59  C   UNL A   1      31.411  28.000  25.163  1.00  0.00     0.068 A 
ATOM     60  C   UNL A   1      31.683  27.001  26.114  1.00  0.00     0.016 A 
ATOM     61  C   UNL A   1      30.477  27.782  24.129  1.00  0.00     0.021 A 
ATOM     62  C   UNL A   1      30.991  25.792  26.081  1.00  0.00     0.001 A 
ATOM     63  C   UNL A   1      29.835  26.528  24.091  1.00  0.00     0.010 A 
ATOM     64  C   UNL A   1      30.068  25.558  25.069  1.00  0.00     0.001 A 
BRANCH  61  65
ATOM     65  C   UNL A   1      30.100  28.906  23.179  1.00  0.00     0.298 C 
BRANCH  65  66
ATOM     66  N   UNL A   1      28.706  28.892  22.729  1.00  0.00    -0.340 N 
ATOM     67  H   UNL A   1      28.152  28.350  23.392  1.00  0.00     0.346 HD
ATOM     68  H   UNL A   1      28.678  28.476  21.799  1.00  0.00     0.346 HD
BRANCH  66  69
ATOM     69  C   UNL A   1      28.145  30.240  22.638  1.00  0.00     0.182 C 
ATOM     70  C   UNL A   1      28.922  31.226  23.508  1.00  0.00     0.065 C 
ATOM     71  C   UNL A   1      28.243  30.900  21.258  1.00  0.00     0.065 C 
ATOM     72  C   UNL A   1      28.443  32.586  23.014  1.00  0.00     0.006 C 
ATOM     73  C   UNL A   1      28.127  32.399  21.530  1.00  0.00     0.006 C 
ENDBRANCH  66  69
ENDBRANCH  65  66
ENDBRANCH  61  65
ENDBRANCH  57  59
ENDBRANCH  56  57
ENDBRANCH   1  56
TORSDOF 14
ENDMDL
MODEL 2
REMARK VINA RESULT:     -10.6      0.285      6.211
REMARK SMILES O=C(OCCOC(=O)c1ccccc1C[NH2+]C1CCCC1)c1ccc(-c2c3nc(c(-c4ccccc4)c4ccc([nH]4)c(-c4ccccc4)c4nc(c(-c5ccccc5)c5ccc2[nH]5)C=C4)C=C3)cc1
REMARK SMILES IDX 5 1 4 2 3 3 2 4 1 5 22 6 23 7 69 8 24 9 68 10 25 11 26 12
REMARK SMILES IDX 27 13 62 14 28 15 67 16 61 17 63 18 29 19 66 20 60 21 59 22
REMARK SMILES IDX 30 24 52 25 37 26 51 27 38 28 41 29 50 30 64 31 39 32 40 33
REMARK SMILES IDX 49 35 65 36 42 37 31 38 32 39 36 40 33 41 35 42 34 43 53 44
REMARK SMILES IDX 54 45 58 46 55 47 57 48 56 49 43 50 44 51 48 52 45 53 47 54
REMARK SMILES IDX 46 55 6 56 7 57 8 58 9 59 10 60 14 61 11 62 13 63 12 64
REMARK SMILES IDX 15 65 16 66 17 69 18 70 21 71 19 72 20 73
REMARK H PARENT 63 23 41 34 16 67 16 68
REMARK Flexibility Score: inf
ROOT
ATOM      1  C   UNL A   1      32.401  31.128  26.752  1.00  0.00     0.275 C 
ENDROOT
BRANCH   1   2
ATOM      2  C   UNL A   1      31.473  32.318  26.986  1.00  0.00     0.275 C 
BRANCH   2   3
ATOM      3  O   UNL A   1      32.152  33.581  27.094  1.00  0.00    -0.458 OA
BRANCH   3   4
ATOM      4  C   UNL A   1      32.896  34.112  28.091  1.00  0.00     0.338 C 
ATOM      5  O   UNL A   1      32.580  35.227  28.511  1.00  0.00    -0.246 OA
BRANCH   4   6
ATOM      6  C   UNL A   1      34.129  33.486  28.679  1.00  0.00     0.060 A 
ATOM      7  C   UNL A   1      34.205  32.726  29.848  1.00  0.00     0.016 A 
ATOM      8  C   UNL A   1      35.326  33.697  27.965  1.00  0.00     0.016 A 
ATOM      9  C   UNL A   1      35.413  32.155  30.270  1.00  0.00     0.010 A 
ATOM     10  C   UNL A   1      36.535  33.127  28.377  1.00  0.00     0.010 A 
ATOM     11  C   UNL A   1      36.585  32.356  29.541  1.00  0.00    -0.014 A 
BRANCH  11  12
ATOM     12  C   UNL A   1      37.880  31.876  30.070  1.00  0.00     0.031 A 
ATOM     13  C   UNL A   1      38.405  30.567  29.582  1.00  0.00     0.074 A 
ATOM     14  C   UNL A   1      38.589  32.607  30.948  1.00  0.00     0.049 A 
ATOM     15  N   UNL A   1      39.518  29.963  29.901  1.00  0.00    -0.248 NA
ATOM     16  C   UNL A   1      37.589  29.860  28.583  1.00  0.00     0.031 C 
ATOM     17  C   UNL A   1      38.214  33.934  31.400  1.00  0.00     0.029 A 
ATOM     18  N   UNL A   1      39.754  32.350  31.625  1.00  0.00    -0.354 N 
ATOM     19  C   UNL A   1      39.547  28.816  29.125  1.00  0.00     0.074 A 
ATOM     20  C   UNL A   1      38.323  28.782  28.356  1.00  0.00     0.031 C 
ATOM     21  C   UNL A   1      39.080  34.360  32.331  1.00  0.00     0.029 A 
ATOM     22  C   UNL A   1      40.086  33.331  32.534  1.00  0.00     0.049 A 
ATOM     23  H   UNL A   1      40.299  31.545  31.477  1.00  0.00     0.167 HD
ATOM     24  C   UNL A   1      40.523  27.885  29.055  1.00  0.00     0.031 A 
ATOM     25  C   UNL A   1      41.081  33.386  33.436  1.00  0.00     0.031 A 
ATOM     26  C   UNL A   1      41.710  27.914  29.862  1.00  0.00     0.049 A 
ATOM     27  C   UNL A   1      42.077  32.263  33.444  1.00  0.00     0.074 A 
ATOM     28  C   UNL A   1      42.764  27.020  29.880  1.00  0.00     0.029 A 
ATOM     29  N   UNL A   1      41.986  28.883  30.818  1.00  0.00    -0.354 N 
ATOM     30  N   UNL A   1      42.123  31.207  32.667  1.00  0.00    -0.248 NA
ATOM     31  C   UNL A   1      43.168  32.343  34.422  1.00  0.00     0.031 C 
ATOM     32  C   UNL A   1      43.645  27.412  30.894  1.00  0.00     0.029 A 
ATOM     33  C   UNL A   1      43.172  28.584  31.466  1.00  0.00     0.049 A 
ATOM     34  H   UNL A   1      41.422  29.667  31.007  1.00  0.00     0.167 HD
ATOM     35  C   UNL A   1      43.266  30.515  33.035  1.00  0.00     0.074 A 
ATOM     36  C   UNL A   1      43.888  31.277  34.101  1.00  0.00     0.031 C 
ATOM     37  C   UNL A   1      43.760  29.360  32.529  1.00  0.00     0.031 A 
BRANCH  24  38
ATOM     38  C   UNL A   1      40.295  26.743  28.109  1.00  0.00    -0.014 A 
ATOM     39  C   UNL A   1      39.612  25.585  28.516  1.00  0.00     0.009 A 
ATOM     40  C   UNL A   1      40.803  26.814  26.805  1.00  0.00     0.009 A 
ATOM     41  C   UNL A   1      39.481  24.502  27.645  1.00  0.00     0.001 A 
ATOM     42  C   UNL A   1      40.648  25.739  25.929  1.00  0.00     0.001 A 
ATOM     43  C   UNL A   1      39.998  24.581  26.352  1.00  0.00     0.000 A 
ENDBRANCH  24  38
BRANCH  25  44
ATOM     44  C   UNL A   1      41.175  34.519  34.399  1.00  0.00    -0.014 A 
ATOM     45  C   UNL A   1      40.510  34.484  35.634  1.00  0.00     0.009 A 
ATOM     46  C   UNL A   1      41.925  35.662  34.072  1.00  0.00     0.009 A 
ATOM     47  C   UNL A   1      40.567  35.580  36.503  1.00  0.00     0.001 A 
ATOM     48  C   UNL A   1      42.001  36.744  34.954  1.00  0.00     0.001 A 
ATOM     49  C   UNL A   1      41.312  36.707  36.164  1.00  0.00     0.000 A 
ENDBRANCH  25  44
BRANCH  37  50
ATOM     50  C   UNL A   1      45.051  28.866  33.112  1.00  0.00    -0.014 A 
ATOM     51  C   UNL A   1      46.284  29.370  32.672  1.00  0.00     0.009 A 
ATOM     52  C   UNL A   1      45.025  27.927  34.153  1.00  0.00     0.009 A 
ATOM     53  C   UNL A   1      47.471  28.921  33.250  1.00  0.00     0.001 A 
ATOM     54  C   UNL A   1      46.211  27.503  34.749  1.00  0.00     0.001 A 
ATOM     55  C   UNL A   1      47.434  27.995  34.293  1.00  0.00     0.000 A 
ENDBRANCH  37  50
ENDBRANCH  11  12
ENDBRANCH   4   6
ENDBRANCH   3   4
ENDBRANCH   2   3
ENDBRANCH   1   2
BRANCH   1  56
ATOM     56  O   UNL A   1      31.688  29.933  26.410  1.00  0.00    -0.458 OA
BRANCH  56  57
ATOM     57  C   UNL A   1      32.172  29.241  25.344  1.00  0.00     0.338 C 
ATOM     58  O   UNL A   1      33.128  29.534  24.661  1.00  0.00    -0.246 OA
BRANCH  57  59
ATOM     59  C   UNL A   1      31.407  27.980  25.188  1.00  0.00     0.068 A 
ATOM     60  C   UNL A   1      31.673  26.975  26.134  1.00  0.00     0.016 A 
ATOM     61  C   UNL A   1      30.453  27.781  24.169  1.00  0.00     0.021 A 
ATOM     62  C   UNL A   1      30.956  25.780  26.112  1.00  0.00     0.001 A 
ATOM     63  C   UNL A   1      29.785  26.541  24.140  1.00  0.00     0.010 A 
ATOM     64  C   UNL A   1      30.013  25.565  25.114  1.00  0.00     0.001 A 
BRANCH  61  65
ATOM     65  C   UNL A   1      30.084  28.914  23.226  1.00  0.00     0.298 C 
BRANCH  65  66
ATOM     66  N   UNL A   1      28.680  28.936  22.807  1.00  0.00    -0.340 N 
ATOM     67  H   UNL A   1      28.122  28.439  23.501  1.00  0.00     0.346 HD
ATOM     68  H   UNL A   1      28.616  28.489  21.893  1.00  0.00     0.346 HD
BRANCH  66  69
ATOM     69  C   UNL A   1      28.166  30.300  22.680  1.00  0.00     0.182 C 
ATOM     70  C   UNL A   1      29.002  31.287  23.494  1.00  0.00     0.065 C 
ATOM     71  C   UNL A   1      28.252  30.905  21.275  1.00  0.00     0.065 C 
ATOM     72  C   UNL A   1      28.560  32.645  22.962  1.00  0.00     0.006 C 
ATOM     73  C   UNL A   1      28.198  32.416  21.494  1.00  0.00     0.006 C 
ENDBRANCH  66  69
ENDBRANCH  65  66
ENDBRANCH  61  65
ENDBRANCH  57  59
ENDBRANCH  56  57
ENDBRANCH   1  56
TORSDOF 14
ENDMDL
MODEL 3
REMARK VINA RESULT:     -10.5      5.163      9.991
REMARK SMILES O=C(OCCOC(=O)c1ccccc1C[NH2+]C1CCCC1)c1ccc(-c2c3nc(c(-c4ccccc4)c4ccc([nH]4)c(-c4ccccc4)c4nc(c(-c5ccccc5)c5ccc2[nH]5)C=C4)C=C3)cc1
REMARK SMILES IDX 5 1 4 2 3 3 2 4 1 5 22 6 23 7 69 8 24 9 68 10 25 11 26 12
REMARK SMILES IDX 27 13 62 14 28 15 67 16 61 17 63 18 29 19 66 20 60 21 59 22
REMARK SMILES IDX 30 24 52 25 37 26 51 27 38 28 41 29 50 30 64 31 39 32 40 33
REMARK SMILES IDX 49 35 65 36 42 37 31 38 32 39 36 40 33 41 35 42 34 43 53 44
REMARK SMILES IDX 54 45 58 46 55 47 57 48 56 49 43 50 44 51 48 52 45 53 47 54
REMARK SMILES IDX 46 55 6 56 7 57 8 58 9 59 10 60 14 61 11 62 13 63 12 64
REMARK SMILES IDX 15 65 16 66 17 69 18 70 21 71 19 72 20 73
REMARK H PARENT 63 23 41 34 16 67 16 68
REMARK Flexibility Score: inf
ROOT
ATOM      1  C   UNL A   1      37.957  20.998  25.302  1.00  0.00     0.275 C 
ENDROOT
BRANCH   1   2
ATOM      2  C   UNL A   1      38.607  19.683  24.875  1.00  0.00     0.275 C 
BRANCH   2   3
ATOM      3  O   UNL A   1      39.596  19.190  25.796  1.00  0.00    -0.458 OA
BRANCH   3   4
ATOM      4  C   UNL A   1      40.867  19.585  26.036  1.00  0.00     0.338 C 
ATOM      5  O   UNL A   1      41.773  18.785  25.791  1.00  0.00    -0.246 OA
BRANCH   4   6
ATOM      6  C   UNL A   1      41.264  20.896  26.653  1.00  0.00     0.060 A 
ATOM      7  C   UNL A   1      41.133  21.264  27.994  1.00  0.00     0.016 A 
ATOM      8  C   UNL A   1      41.828  21.844  25.774  1.00  0.00     0.016 A 
ATOM      9  C   UNL A   1      41.585  22.506  28.457  1.00  0.00     0.010 A 
ATOM     10  C   UNL A   1      42.285  23.085  26.229  1.00  0.00     0.010 A 
ATOM     11  C   UNL A   1      42.159  23.425  27.579  1.00  0.00    -0.014 A 
BRANCH  11  12
ATOM     12  C   UNL A   1      42.498  24.787  28.046  1.00  0.00     0.031 A 
ATOM     13  C   UNL A   1      43.914  25.081  28.412  1.00  0.00     0.074 A 
ATOM     14  C   UNL A   1      41.566  25.753  28.114  1.00  0.00     0.049 A 
ATOM     15  N   UNL A   1      44.434  26.202  28.832  1.00  0.00    -0.248 NA
ATOM     16  C   UNL A   1      44.878  23.979  28.255  1.00  0.00     0.031 C 
ATOM     17  C   UNL A   1      40.189  25.594  27.682  1.00  0.00     0.029 A 
ATOM     18  N   UNL A   1      41.614  27.044  28.575  1.00  0.00    -0.354 N 
ATOM     19  C   UNL A   1      45.789  25.948  28.969  1.00  0.00     0.074 A 
ATOM     20  C   UNL A   1      46.006  24.558  28.634  1.00  0.00     0.031 C 
ATOM     21  C   UNL A   1      39.494  26.708  27.956  1.00  0.00     0.029 A 
ATOM     22  C   UNL A   1      40.388  27.671  28.577  1.00  0.00     0.049 A 
ATOM     23  H   UNL A   1      42.444  27.480  28.874  1.00  0.00     0.167 HD
ATOM     24  C   UNL A   1      46.764  26.812  29.328  1.00  0.00     0.031 A 
ATOM     25  C   UNL A   1      40.025  28.880  29.040  1.00  0.00     0.031 A 
ATOM     26  C   UNL A   1      46.520  28.176  29.702  1.00  0.00     0.049 A 
ATOM     27  C   UNL A   1      41.105  29.773  29.576  1.00  0.00     0.074 A 
ATOM     28  C   UNL A   1      47.430  29.141  30.090  1.00  0.00     0.029 A 
ATOM     29  N   UNL A   1      45.262  28.763  29.757  1.00  0.00    -0.354 N 
ATOM     30  N   UNL A   1      42.395  29.541  29.652  1.00  0.00    -0.248 NA
ATOM     31  C   UNL A   1      40.699  31.097  30.063  1.00  0.00     0.031 C 
ATOM     32  C   UNL A   1      46.716  30.291  30.444  1.00  0.00     0.029 A 
ATOM     33  C   UNL A   1      45.366  30.063  30.218  1.00  0.00     0.049 A 
ATOM     34  H   UNL A   1      44.420  28.318  29.505  1.00  0.00     0.167 HD
ATOM     35  C   UNL A   1      42.960  30.700  30.159  1.00  0.00     0.074 A 
ATOM     36  C   UNL A   1      41.872  31.637  30.365  1.00  0.00     0.031 C 
ATOM     37  C   UNL A   1      44.262  30.967  30.421  1.00  0.00     0.031 A 
BRANCH  24  38
ATOM     38  C   UNL A   1      48.159  26.265  29.381  1.00  0.00    -0.014 A 
ATOM     39  C   UNL A   1      48.689  25.732  30.568  1.00  0.00     0.009 A 
ATOM     40  C   UNL A   1      48.966  26.318  28.237  1.00  0.00     0.009 A 
ATOM     41  C   UNL A   1      50.017  25.302  30.617  1.00  0.00     0.001 A 
ATOM     42  C   UNL A   1      50.285  25.863  28.282  1.00  0.00     0.001 A 
ATOM     43  C   UNL A   1      50.812  25.367  29.473  1.00  0.00     0.000 A 
ENDBRANCH  24  38
BRANCH  25  44
ATOM     44  C   UNL A   1      38.597  29.303  29.030  1.00  0.00    -0.014 A 
ATOM     45  C   UNL A   1      38.050  29.999  27.942  1.00  0.00     0.009 A 
ATOM     46  C   UNL A   1      37.771  29.022  30.132  1.00  0.00     0.009 A 
ATOM     47  C   UNL A   1      36.720  30.434  27.972  1.00  0.00     0.001 A 
ATOM     48  C   UNL A   1      36.435  29.435  30.148  1.00  0.00     0.001 A 
ATOM     49  C   UNL A   1      35.913  30.151  29.073  1.00  0.00     0.000 A 
ENDBRANCH  25  44
BRANCH  37  50
ATOM     50  C   UNL A   1      44.578  32.339  30.936  1.00  0.00    -0.014 A 
ATOM     51  C   UNL A   1      44.680  32.591  32.312  1.00  0.00     0.009 A 
ATOM     52  C   UNL A   1      44.831  33.378  30.028  1.00  0.00     0.009 A 
ATOM     53  C   UNL A   1      45.008  33.868  32.769  1.00  0.00     0.001 A 
ATOM     54  C   UNL A   1      45.188  34.645  30.487  1.00  0.00     0.001 A 
ATOM     55  C   UNL A   1      45.269  34.890  31.858  1.00  0.00     0.000 A 
ENDBRANCH  37  50
ENDBRANCH  11  12
ENDBRANCH   4   6
ENDBRANCH   3   4
ENDBRANCH   2   3
ENDBRANCH   1   2
BRANCH   1  56
ATOM     56  O   UNL A   1      36.817  21.333  24.501  1.00  0.00    -0.458 OA
BRANCH  56  57
ATOM     57  C   UNL A   1      35.970  22.253  25.035  1.00  0.00     0.338 C 
ATOM     58  O   UNL A   1      36.187  22.978  25.981  1.00  0.00    -0.246 OA
BRANCH  57  59
ATOM     59  C   UNL A   1      34.740  22.326  24.210  1.00  0.00     0.068 A 
ATOM     60  C   UNL A   1      34.715  23.328  23.225  1.00  0.00     0.016 A 
ATOM     61  C   UNL A   1      33.651  21.444  24.374  1.00  0.00     0.021 A 
ATOM     62  C   UNL A   1      33.631  23.433  22.355  1.00  0.00     0.001 A 
ATOM     63  C   UNL A   1      32.547  21.612  23.516  1.00  0.00     0.010 A 
ATOM     64  C   UNL A   1      32.548  22.575  22.503  1.00  0.00     0.001 A 
BRANCH  61  65
ATOM     65  C   UNL A   1      33.736  20.289  25.358  1.00  0.00     0.298 C 
BRANCH  65  66
ATOM     66  N   UNL A   1      34.570  19.166  24.920  1.00  0.00    -0.340 N 
ATOM     67  H   UNL A   1      35.257  18.964  25.646  1.00  0.00     0.346 HD
ATOM     68  H   UNL A   1      35.023  19.431  24.046  1.00  0.00     0.346 HD
BRANCH  66  69
ATOM     69  C   UNL A   1      33.779  17.961  24.671  1.00  0.00     0.182 C 
ATOM     70  C   UNL A   1      34.652  16.707  24.694  1.00  0.00     0.065 C 
ATOM     71  C   UNL A   1      32.731  17.630  25.739  1.00  0.00     0.065 C 
ATOM     72  C   UNL A   1      33.638  15.573  24.782  1.00  0.00     0.006 C 
ATOM     73  C   UNL A   1      32.454  16.137  25.568  1.00  0.00     0.006 C 
ENDBRANCH  66  69
ENDBRANCH  65  66
ENDBRANCH  61  65
ENDBRANCH  57  59
ENDBRANCH  56  57
ENDBRANCH   1  56
TORSDOF 14
ENDMDL
