MODEL 1
REMARK VINA RESULT:     -12.1      0.000      0.000
REMARK SMILES Cn1cc([C@@H]2CC(OCCOC(=O)c3ccc(-c4c5nc(c(-c6ccccc6)c6ccc([nH]6)c(-c6ccccc6)c6nc(c(-c7ccccc7)c7ccc4[nH]7)C=C6)C=C5)cc3)=Nc3c2sc(C(=O)[O-])c3-c2ccc(Cl)cc2)cn1
REMARK SMILES IDX 10 1 9 2 8 3 7 4 5 5 6 6 64 7 63 8 65 9 62 10 70 11 66 12
REMARK SMILES IDX 4 13 1 14 2 15 3 16 79 17 78 18 71 19 72 20 77 21 73 22
REMARK SMILES IDX 76 23 74 24 75 25 67 26 68 27 69 28 11 29 12 30 13 31 14 32
REMARK SMILES IDX 15 33 61 34 16 35 60 36 17 37 18 38 19 39 54 40 20 41 59 42
REMARK SMILES IDX 53 43 55 44 21 45 58 46 52 47 51 48 22 50 44 51 29 52 43 53
REMARK SMILES IDX 30 54 33 55 42 56 56 57 31 58 32 59 41 61 57 62 34 63 23 64
REMARK SMILES IDX 24 65 28 66 25 67 27 68 26 69 45 70 46 71 50 72 47 73 49 74
REMARK SMILES IDX 48 75 35 76 36 77 40 78 37 79 39 80 38 81
REMARK H PARENT 55 49 33 60
REMARK Flexibility Score: inf
ROOT
ATOM      1  C   UNL A   1      35.393  30.747  27.678  1.00  0.00     0.274 C 
ENDROOT
BRANCH   1   2
ATOM      2  C   UNL A   1      34.137  29.860  27.704  1.00  0.00     0.272 C 
BRANCH   2   3
ATOM      3  O   UNL A   1      34.198  28.683  26.860  1.00  0.00    -0.477 OA
BRANCH   3   4
ATOM      4  C   UNL A   1      33.227  27.810  26.514  1.00  0.00     0.189 C 
ATOM      5  C   UNL A   1      30.848  27.381  25.399  1.00  0.00     0.074 C 
ATOM      6  C   UNL A   1      31.741  28.200  26.500  1.00  0.00     0.111 C 
ATOM      7  C   UNL A   1      31.458  26.003  25.372  1.00  0.00     0.040 A 
ATOM      8  C   UNL A   1      32.748  25.697  25.757  1.00  0.00     0.090 A 
ATOM      9  S   UNL A   1      30.585  24.580  25.089  1.00  0.00    -0.135 S 
ATOM     10  N   UNL A   1      33.673  26.630  26.228  1.00  0.00    -0.216 NA
ATOM     11  C   UNL A   1      33.142  24.351  25.468  1.00  0.00     0.028 A 
ATOM     12  C   UNL A   1      32.015  23.591  25.150  1.00  0.00     0.060 A 
BRANCH   5  13
ATOM     13  C   UNL A   1      30.427  28.291  23.858  1.00  0.00    -0.001 A 
ATOM     14  C   UNL A   1      27.661  31.522  22.906  1.00  0.00     0.173 C 
ATOM     15  N   UNL A   1      28.224  30.211  22.922  1.00  0.00    -0.276 N 
ATOM     16  C   UNL A   1      30.020  30.177  23.379  1.00  0.00     0.112 A 
ATOM     17  N   UNL A   1      27.484  28.542  23.065  1.00  0.00    -0.182 NA
ATOM     18  C   UNL A   1      28.682  27.413  23.508  1.00  0.00     0.139 A 
ENDBRANCH   5  13
BRANCH  11  19
ATOM     19  C   UNL A   1      34.515  23.816  25.467  1.00  0.00    -0.015 A 
ATOM     20  C   UNL A   1      34.976  23.065  26.563  1.00  0.00     0.010 A 
ATOM     21  C   UNL A   1      35.395  24.046  24.400  1.00  0.00     0.010 A 
ATOM     22  C   UNL A   1      36.318  22.679  26.657  1.00  0.00     0.021 A 
ATOM     23  C   UNL A   1      36.735  23.637  24.482  1.00  0.00     0.021 A 
ATOM     24  C   UNL A   1      37.197  22.988  25.625  1.00  0.00     0.041 A 
ATOM     25  Cl  UNL A   1      38.865  22.589  25.776  1.00  0.00    -0.084 Cl
ENDBRANCH  11  19
BRANCH  12  26
ATOM     26  C   UNL A   1      31.827  22.184  24.857  1.00  0.00     0.082 C 
ATOM     27  O   UNL A   1      32.297  21.537  23.930  1.00  0.00    -0.544 OA
ATOM     28  O   UNL A   1      31.041  21.547  25.749  1.00  0.00    -0.544 OA
ENDBRANCH  12  26
ENDBRANCH   3   4
ENDBRANCH   2   3
ENDBRANCH   1   2
BRANCH   1  29
ATOM     29  O   UNL A   1      35.909  30.999  28.970  1.00  0.00    -0.458 OA
BRANCH  29  30
ATOM     30  C   UNL A   1      37.239  31.015  29.191  1.00  0.00     0.338 C 
ATOM     31  O   UNL A   1      37.937  31.943  29.522  1.00  0.00    -0.246 OA
BRANCH  30  32
ATOM     32  C   UNL A   1      37.598  29.650  28.766  1.00  0.00     0.060 A 
ATOM     33  C   UNL A   1      37.969  28.356  29.919  1.00  0.00     0.016 A 
ATOM     34  C   UNL A   1      38.513  29.611  27.198  1.00  0.00     0.016 A 
ATOM     35  C   UNL A   1      39.325  27.223  29.736  1.00  0.00     0.010 A 
ATOM     36  C   UNL A   1      39.990  28.163  27.070  1.00  0.00     0.010 A 
ATOM     37  C   UNL A   1      40.447  27.217  28.415  1.00  0.00    -0.014 A 
BRANCH  37  38
ATOM     38  C   UNL A   1      42.091  27.322  28.378  1.00  0.00     0.031 A 
ATOM     39  C   UNL A   1      42.352  26.120  27.600  1.00  0.00     0.074 A 
ATOM     40  C   UNL A   1      43.193  28.173  28.656  1.00  0.00     0.049 A 
ATOM     41  N   UNL A   1      42.380  24.982  28.207  1.00  0.00    -0.248 NA
ATOM     42  C   UNL A   1      42.091  26.037  26.155  1.00  0.00     0.031 C 
ATOM     43  C   UNL A   1      43.369  29.408  29.453  1.00  0.00     0.029 A 
ATOM     44  N   UNL A   1      44.545  28.109  28.174  1.00  0.00    -0.354 N 
ATOM     45  C   UNL A   1      42.582  24.088  27.193  1.00  0.00     0.074 A 
ATOM     46  C   UNL A   1      42.007  24.707  26.026  1.00  0.00     0.031 C 
ATOM     47  C   UNL A   1      44.486  30.129  29.135  1.00  0.00     0.029 A 
ATOM     48  C   UNL A   1      45.338  29.332  28.265  1.00  0.00     0.049 A 
ATOM     49  H   UNL A   1      44.920  27.279  27.801  1.00  0.00     0.167 HD
ATOM     50  C   UNL A   1      43.649  23.257  27.312  1.00  0.00     0.031 A 
ATOM     51  C   UNL A   1      46.709  29.587  28.194  1.00  0.00     0.031 A 
ATOM     52  C   UNL A   1      44.200  23.314  28.662  1.00  0.00     0.049 A 
ATOM     53  C   UNL A   1      47.417  28.324  28.450  1.00  0.00     0.074 A 
ATOM     54  C   UNL A   1      43.688  23.165  29.939  1.00  0.00     0.029 A 
ATOM     55  N   UNL A   1      45.330  24.085  28.791  1.00  0.00    -0.354 N 
ATOM     56  N   UNL A   1      47.458  27.773  29.623  1.00  0.00    -0.248 NA
ATOM     57  C   UNL A   1      47.549  27.447  27.307  1.00  0.00     0.031 C 
ATOM     58  C   UNL A   1      44.358  24.130  30.749  1.00  0.00     0.029 A 
ATOM     59  C   UNL A   1      45.368  24.728  29.998  1.00  0.00     0.049 A 
ATOM     60  H   UNL A   1      46.027  24.166  28.100  1.00  0.00     0.167 HD
ATOM     61  C   UNL A   1      47.010  26.491  29.366  1.00  0.00     0.074 A 
ATOM     62  C   UNL A   1      47.143  26.330  27.910  1.00  0.00     0.031 C 
ATOM     63  C   UNL A   1      46.251  25.838  30.292  1.00  0.00     0.031 A 
BRANCH  50  64
ATOM     64  C   UNL A   1      44.483  22.870  26.124  1.00  0.00    -0.014 A 
ATOM     65  C   UNL A   1      44.592  21.510  25.821  1.00  0.00     0.009 A 
ATOM     66  C   UNL A   1      45.348  23.750  25.439  1.00  0.00     0.009 A 
ATOM     67  C   UNL A   1      45.526  21.053  24.886  1.00  0.00     0.001 A 
ATOM     68  C   UNL A   1      46.255  23.306  24.481  1.00  0.00     0.001 A 
ATOM     69  C   UNL A   1      46.352  21.950  24.214  1.00  0.00     0.000 A 
ENDBRANCH  50  64
BRANCH  51  70
ATOM     70  C   UNL A   1      47.518  30.695  27.524  1.00  0.00    -0.014 A 
ATOM     71  C   UNL A   1      46.912  31.808  26.862  1.00  0.00     0.009 A 
ATOM     72  C   UNL A   1      48.889  30.812  27.770  1.00  0.00     0.009 A 
ATOM     73  C   UNL A   1      47.625  32.996  26.571  1.00  0.00     0.001 A 
ATOM     74  C   UNL A   1      49.598  31.998  27.485  1.00  0.00     0.001 A 
ATOM     75  C   UNL A   1      48.965  33.100  26.915  1.00  0.00     0.000 A 
ENDBRANCH  51  70
BRANCH  63  76
ATOM     76  C   UNL A   1      46.237  26.374  31.712  1.00  0.00    -0.014 A 
ATOM     77  C   UNL A   1      45.318  27.313  32.222  1.00  0.00     0.009 A 
ATOM     78  C   UNL A   1      47.148  25.797  32.607  1.00  0.00     0.009 A 
ATOM     79  C   UNL A   1      45.332  27.665  33.582  1.00  0.00     0.001 A 
ATOM     80  C   UNL A   1      47.151  26.134  33.961  1.00  0.00     0.001 A 
ATOM     81  C   UNL A   1      46.247  27.073  34.449  1.00  0.00     0.000 A 
ENDBRANCH  63  76
ENDBRANCH  37  38
ENDBRANCH  30  32
ENDBRANCH  29  30
ENDBRANCH   1  29
TORSDOF 13
ENDMDL
MODEL 2
REMARK VINA RESULT:     -12.1      7.283     11.892
REMARK SMILES Cn1cc([C@@H]2CC(OCCOC(=O)c3ccc(-c4c5nc(c(-c6ccccc6)c6ccc([nH]6)c(-c6ccccc6)c6nc(c(-c7ccccc7)c7ccc4[nH]7)C=C6)C=C5)cc3)=Nc3c2sc(C(=O)[O-])c3-c2ccc(Cl)cc2)cn1
REMARK SMILES IDX 10 1 9 2 8 3 7 4 5 5 6 6 64 7 63 8 65 9 62 10 70 11 66 12
REMARK SMILES IDX 4 13 1 14 2 15 3 16 79 17 78 18 71 19 72 20 77 21 73 22
REMARK SMILES IDX 76 23 74 24 75 25 67 26 68 27 69 28 11 29 12 30 13 31 14 32
REMARK SMILES IDX 15 33 61 34 16 35 60 36 17 37 18 38 19 39 54 40 20 41 59 42
REMARK SMILES IDX 53 43 55 44 21 45 58 46 52 47 51 48 22 50 44 51 29 52 43 53
REMARK SMILES IDX 30 54 33 55 42 56 56 57 31 58 32 59 41 61 57 62 34 63 23 64
REMARK SMILES IDX 24 65 28 66 25 67 27 68 26 69 45 70 46 71 50 72 47 73 49 74
REMARK SMILES IDX 48 75 35 76 36 77 40 78 37 79 39 80 38 81
REMARK H PARENT 55 49 33 60
REMARK Flexibility Score: inf
ROOT
ATOM      1  C   UNL A   1      39.558  31.373  30.775  1.00  0.00     0.274 C 
ENDROOT
BRANCH   1   2
ATOM      2  C   UNL A   1      38.436  30.322  30.783  1.00  0.00     0.272 C 
BRANCH   2   3
ATOM      3  O   UNL A   1      37.629  30.273  29.579  1.00  0.00    -0.477 OA
BRANCH   3   4
ATOM      4  C   UNL A   1      36.637  31.092  29.164  1.00  0.00     0.189 C 
ATOM      5  C   UNL A   1      34.485  31.464  27.643  1.00  0.00     0.074 C 
ATOM      6  C   UNL A   1      36.058  31.021  27.743  1.00  0.00     0.111 C 
ATOM      7  C   UNL A   1      34.339  32.563  28.663  1.00  0.00     0.040 A 
ATOM      8  C   UNL A   1      35.165  32.750  29.754  1.00  0.00     0.090 A 
ATOM      9  S   UNL A   1      33.285  33.879  28.504  1.00  0.00    -0.135 S 
ATOM     10  N   UNL A   1      36.258  31.939  30.064  1.00  0.00    -0.216 NA
ATOM     11  C   UNL A   1      34.709  33.753  30.669  1.00  0.00     0.028 A 
ATOM     12  C   UNL A   1      33.703  34.512  30.069  1.00  0.00     0.060 A 
BRANCH   5  13
ATOM     13  C   UNL A   1      33.265  30.096  27.503  1.00  0.00    -0.001 A 
ATOM     14  C   UNL A   1      32.168  27.326  24.321  1.00  0.00     0.173 C 
ATOM     15  N   UNL A   1      32.049  28.401  25.252  1.00  0.00    -0.276 N 
ATOM     16  C   UNL A   1      33.234  28.290  26.674  1.00  0.00     0.112 A 
ATOM     17  N   UNL A   1      31.343  30.086  25.124  1.00  0.00    -0.182 NA
ATOM     18  C   UNL A   1      31.924  31.057  26.399  1.00  0.00     0.139 A 
ENDBRANCH   5  13
BRANCH  11  19
ATOM     19  C   UNL A   1      35.183  33.967  32.048  1.00  0.00    -0.015 A 
ATOM     20  C   UNL A   1      36.458  34.516  32.274  1.00  0.00     0.010 A 
ATOM     21  C   UNL A   1      34.398  33.626  33.158  1.00  0.00     0.010 A 
ATOM     22  C   UNL A   1      36.992  34.586  33.567  1.00  0.00     0.021 A 
ATOM     23  C   UNL A   1      34.923  33.719  34.457  1.00  0.00     0.021 A 
ATOM     24  C   UNL A   1      36.229  34.165  34.650  1.00  0.00     0.041 A 
ATOM     25  Cl  UNL A   1      36.912  34.171  36.230  1.00  0.00    -0.084 Cl
ENDBRANCH  11  19
BRANCH  12  26
ATOM     26  C   UNL A   1      32.959  35.679  30.501  1.00  0.00     0.082 C 
ATOM     27  O   UNL A   1      32.153  35.763  31.418  1.00  0.00    -0.544 OA
ATOM     28  O   UNL A   1      33.232  36.789  29.784  1.00  0.00    -0.544 OA
ENDBRANCH  12  26
ENDBRANCH   3   4
ENDBRANCH   2   3
ENDBRANCH   1   2
BRANCH   1  29
ATOM     29  O   UNL A   1      39.315  32.438  31.673  1.00  0.00    -0.458 OA
BRANCH  29  30
ATOM     30  C   UNL A   1      40.078  33.549  31.649  1.00  0.00     0.338 C 
ATOM     31  O   UNL A   1      40.180  34.411  32.488  1.00  0.00    -0.246 OA
BRANCH  30  32
ATOM     32  C   UNL A   1      40.603  33.484  30.273  1.00  0.00     0.060 A 
ATOM     33  C   UNL A   1      42.286  33.062  29.912  1.00  0.00     0.016 A 
ATOM     34  C   UNL A   1      39.822  34.683  29.155  1.00  0.00     0.016 A 
ATOM     35  C   UNL A   1      43.289  33.917  28.720  1.00  0.00     0.010 A 
ATOM     36  C   UNL A   1      41.077  35.519  27.735  1.00  0.00     0.010 A 
ATOM     37  C   UNL A   1      42.763  35.252  27.749  1.00  0.00    -0.014 A 
BRANCH  37  38
ATOM     38  C   UNL A   1      43.363  36.776  27.570  1.00  0.00     0.031 A 
ATOM     39  C   UNL A   1      44.777  36.436  27.558  1.00  0.00     0.074 A 
ATOM     40  C   UNL A   1      43.011  38.121  27.280  1.00  0.00     0.049 A 
ATOM     41  N   UNL A   1      45.385  36.267  28.684  1.00  0.00    -0.248 NA
ATOM     42  C   UNL A   1      45.429  35.793  26.407  1.00  0.00     0.031 C 
ATOM     43  C   UNL A   1      41.736  38.875  27.267  1.00  0.00     0.029 A 
ATOM     44  N   UNL A   1      43.836  39.209  26.837  1.00  0.00    -0.354 N 
ATOM     45  C   UNL A   1      46.649  35.907  28.310  1.00  0.00     0.074 A 
ATOM     46  C   UNL A   1      46.495  35.269  27.027  1.00  0.00     0.031 C 
ATOM     47  C   UNL A   1      41.777  40.036  26.547  1.00  0.00     0.029 A 
ATOM     48  C   UNL A   1      43.159  40.338  26.205  1.00  0.00     0.049 A 
ATOM     49  H   UNL A   1      44.813  39.196  26.955  1.00  0.00     0.167 HD
ATOM     50  C   UNL A   1      47.670  36.654  28.802  1.00  0.00     0.031 A 
ATOM     51  C   UNL A   1      43.547  41.651  25.931  1.00  0.00     0.031 A 
ATOM     52  C   UNL A   1      47.200  37.529  29.872  1.00  0.00     0.049 A 
ATOM     53  C   UNL A   1      44.695  41.972  26.793  1.00  0.00     0.074 A 
ATOM     54  C   UNL A   1      46.497  37.350  31.050  1.00  0.00     0.029 A 
ATOM     55  N   UNL A   1      46.994  38.835  29.498  1.00  0.00    -0.354 N 
ATOM     56  N   UNL A   1      44.578  42.145  28.073  1.00  0.00    -0.248 NA
ATOM     57  C   UNL A   1      45.980  41.520  26.306  1.00  0.00     0.031 C 
ATOM     58  C   UNL A   1      45.627  38.474  31.167  1.00  0.00     0.029 A 
ATOM     59  C   UNL A   1      45.928  39.386  30.158  1.00  0.00     0.049 A 
ATOM     60  H   UNL A   1      47.543  39.315  28.838  1.00  0.00     0.167 HD
ATOM     61  C   UNL A   1      45.520  41.270  28.580  1.00  0.00     0.074 A 
ATOM     62  C   UNL A   1      46.397  40.959  27.441  1.00  0.00     0.031 C 
ATOM     63  C   UNL A   1      45.278  40.616  29.752  1.00  0.00     0.031 A 
BRANCH  50  64
ATOM     64  C   UNL A   1      48.877  36.984  27.972  1.00  0.00    -0.014 A 
ATOM     65  C   UNL A   1      48.664  37.544  26.709  1.00  0.00     0.009 A 
ATOM     66  C   UNL A   1      50.190  36.561  28.272  1.00  0.00     0.009 A 
ATOM     67  C   UNL A   1      49.711  37.663  25.789  1.00  0.00     0.001 A 
ATOM     68  C   UNL A   1      51.243  36.710  27.374  1.00  0.00     0.001 A 
ATOM     69  C   UNL A   1      50.998  37.252  26.123  1.00  0.00     0.000 A 
ENDBRANCH  50  64
BRANCH  51  70
ATOM     70  C   UNL A   1      43.331  42.560  24.723  1.00  0.00    -0.014 A 
ATOM     71  C   UNL A   1      44.209  43.639  24.396  1.00  0.00     0.009 A 
ATOM     72  C   UNL A   1      42.418  42.201  23.727  1.00  0.00     0.009 A 
ATOM     73  C   UNL A   1      44.230  44.236  23.113  1.00  0.00     0.001 A 
ATOM     74  C   UNL A   1      42.444  42.791  22.446  1.00  0.00     0.001 A 
ATOM     75  C   UNL A   1      43.365  43.785  22.126  1.00  0.00     0.000 A 
ENDBRANCH  51  70
BRANCH  63  76
ATOM     76  C   UNL A   1      44.174  41.142  30.650  1.00  0.00    -0.014 A 
ATOM     77  C   UNL A   1      42.797  40.894  30.484  1.00  0.00     0.009 A 
ATOM     78  C   UNL A   1      44.580  41.837  31.798  1.00  0.00     0.009 A 
ATOM     79  C   UNL A   1      41.866  41.346  31.434  1.00  0.00     0.001 A 
ATOM     80  C   UNL A   1      43.657  42.272  32.750  1.00  0.00     0.001 A 
ATOM     81  C   UNL A   1      42.298  42.032  32.566  1.00  0.00     0.000 A 
ENDBRANCH  63  76
ENDBRANCH  37  38
ENDBRANCH  30  32
ENDBRANCH  29  30
ENDBRANCH   1  29
TORSDOF 13
ENDMDL
MODEL 3
REMARK VINA RESULT:     -12.1      2.206      5.961
REMARK SMILES Cn1cc([C@@H]2CC(OCCOC(=O)c3ccc(-c4c5nc(c(-c6ccccc6)c6ccc([nH]6)c(-c6ccccc6)c6nc(c(-c7ccccc7)c7ccc4[nH]7)C=C6)C=C5)cc3)=Nc3c2sc(C(=O)[O-])c3-c2ccc(Cl)cc2)cn1
REMARK SMILES IDX 10 1 9 2 8 3 7 4 5 5 6 6 64 7 63 8 65 9 62 10 70 11 66 12
REMARK SMILES IDX 4 13 1 14 2 15 3 16 79 17 78 18 71 19 72 20 77 21 73 22
REMARK SMILES IDX 76 23 74 24 75 25 67 26 68 27 69 28 11 29 12 30 13 31 14 32
REMARK SMILES IDX 15 33 61 34 16 35 60 36 17 37 18 38 19 39 54 40 20 41 59 42
REMARK SMILES IDX 53 43 55 44 21 45 58 46 52 47 51 48 22 50 44 51 29 52 43 53
REMARK SMILES IDX 30 54 33 55 42 56 56 57 31 58 32 59 41 61 57 62 34 63 23 64
REMARK SMILES IDX 24 65 28 66 25 67 27 68 26 69 45 70 46 71 50 72 47 73 49 74
REMARK SMILES IDX 48 75 35 76 36 77 40 78 37 79 39 80 38 81
REMARK H PARENT 55 49 33 60
REMARK Flexibility Score: inf
ROOT
ATOM      1  C   UNL A   1      35.760  31.323  28.044  1.00  0.00     0.274 C 
ENDROOT
BRANCH   1   2
ATOM      2  C   UNL A   1      35.566  29.811  28.245  1.00  0.00     0.272 C 
BRANCH   2   3
ATOM      3  O   UNL A   1      35.129  29.085  27.068  1.00  0.00    -0.477 OA
BRANCH   3   4
ATOM      4  C   UNL A   1      33.937  28.510  26.793  1.00  0.00     0.189 C 
ATOM      5  C   UNL A   1      31.410  28.785  26.005  1.00  0.00     0.074 C 
ATOM      6  C   UNL A   1      32.604  29.236  27.030  1.00  0.00     0.111 C 
ATOM      7  C   UNL A   1      31.651  27.316  25.771  1.00  0.00     0.040 A 
ATOM      8  C   UNL A   1      32.863  26.674  25.935  1.00  0.00     0.090 A 
ATOM      9  S   UNL A   1      30.426  26.180  25.498  1.00  0.00    -0.135 S 
ATOM     10  N   UNL A   1      34.040  27.302  26.345  1.00  0.00    -0.216 NA
ATOM     11  C   UNL A   1      32.873  25.317  25.477  1.00  0.00     0.028 A 
ATOM     12  C   UNL A   1      31.563  24.885  25.263  1.00  0.00     0.060 A 
BRANCH   5  13
ATOM     13  C   UNL A   1      31.043  29.944  24.627  1.00  0.00    -0.001 A 
ATOM     14  C   UNL A   1      27.930  30.149  21.584  1.00  0.00     0.173 C 
ATOM     15  N   UNL A   1      29.227  29.982  22.154  1.00  0.00    -0.276 N 
ATOM     16  C   UNL A   1      29.407  30.747  23.833  1.00  0.00     0.112 A 
ATOM     17  N   UNL A   1      30.585  28.797  21.830  1.00  0.00    -0.182 NA
ATOM     18  C   UNL A   1      31.673  28.789  23.142  1.00  0.00     0.139 A 
ENDBRANCH   5  13
BRANCH  11  19
ATOM     19  C   UNL A   1      34.061  24.481  25.229  1.00  0.00    -0.015 A 
ATOM     20  C   UNL A   1      34.543  24.319  23.918  1.00  0.00     0.010 A 
ATOM     21  C   UNL A   1      34.727  23.819  26.270  1.00  0.00     0.010 A 
ATOM     22  C   UNL A   1      35.571  23.410  23.636  1.00  0.00     0.021 A 
ATOM     23  C   UNL A   1      35.774  22.927  25.992  1.00  0.00     0.021 A 
ATOM     24  C   UNL A   1      36.166  22.701  24.673  1.00  0.00     0.041 A 
ATOM     25  Cl  UNL A   1      37.370  21.522  24.322  1.00  0.00    -0.084 Cl
ENDBRANCH  11  19
BRANCH  12  26
ATOM     26  C   UNL A   1      30.999  23.605  24.880  1.00  0.00     0.082 C 
ATOM     27  O   UNL A   1      30.869  22.601  25.569  1.00  0.00    -0.544 OA
ATOM     28  O   UNL A   1      30.565  23.567  23.604  1.00  0.00    -0.544 OA
ENDBRANCH  12  26
ENDBRANCH   3   4
ENDBRANCH   2   3
ENDBRANCH   1   2
BRANCH   1  29
ATOM     29  O   UNL A   1      36.580  31.905  29.038  1.00  0.00    -0.458 OA
BRANCH  29  30
ATOM     30  C   UNL A   1      36.042  32.622  30.045  1.00  0.00     0.338 C 
ATOM     31  O   UNL A   1      35.163  33.448  29.995  1.00  0.00    -0.246 OA
BRANCH  30  32
ATOM     32  C   UNL A   1      36.926  32.229  31.157  1.00  0.00     0.060 A 
ATOM     33  C   UNL A   1      38.530  32.941  31.399  1.00  0.00     0.016 A 
ATOM     34  C   UNL A   1      36.746  30.483  31.626  1.00  0.00     0.016 A 
ATOM     35  C   UNL A   1      39.981  32.002  31.813  1.00  0.00     0.010 A 
ATOM     36  C   UNL A   1      38.497  29.536  32.201  1.00  0.00     0.010 A 
ATOM     37  C   UNL A   1      40.023  30.286  32.047  1.00  0.00    -0.014 A 
BRANCH  37  38
ATOM     38  C   UNL A   1      40.923  29.106  31.330  1.00  0.00     0.031 A 
ATOM     39  C   UNL A   1      41.502  28.534  32.536  1.00  0.00     0.074 A 
ATOM     40  C   UNL A   1      41.159  28.427  30.105  1.00  0.00     0.049 A 
ATOM     41  N   UNL A   1      42.543  29.096  33.052  1.00  0.00    -0.248 NA
ATOM     42  C   UNL A   1      40.729  27.702  33.470  1.00  0.00     0.031 C 
ATOM     43  C   UNL A   1      40.828  28.707  28.689  1.00  0.00     0.029 A 
ATOM     44  N   UNL A   1      41.788  27.159  29.867  1.00  0.00    -0.354 N 
ATOM     45  C   UNL A   1      42.777  28.357  34.176  1.00  0.00     0.074 A 
ATOM     46  C   UNL A   1      41.487  27.845  34.565  1.00  0.00     0.031 C 
ATOM     47  C   UNL A   1      40.881  27.612  27.873  1.00  0.00     0.029 A 
ATOM     48  C   UNL A   1      41.508  26.511  28.588  1.00  0.00     0.049 A 
ATOM     49  H   UNL A   1      42.381  26.744  30.535  1.00  0.00     0.167 HD
ATOM     50  C   UNL A   1      44.014  27.813  34.307  1.00  0.00     0.031 A 
ATOM     51  C   UNL A   1      42.131  25.477  27.887  1.00  0.00     0.031 A 
ATOM     52  C   UNL A   1      44.933  28.381  33.325  1.00  0.00     0.049 A 
ATOM     53  C   UNL A   1      43.499  25.336  28.410  1.00  0.00     0.074 A 
ATOM     54  C   UNL A   1      45.315  29.660  32.964  1.00  0.00     0.029 A 
ATOM     55  N   UNL A   1      45.169  27.587  32.229  1.00  0.00    -0.354 N 
ATOM     56  N   UNL A   1      44.427  26.213  28.181  1.00  0.00    -0.248 NA
ATOM     57  C   UNL A   1      43.620  24.551  29.619  1.00  0.00     0.031 C 
ATOM     58  C   UNL A   1      45.464  29.643  31.545  1.00  0.00     0.029 A 
ATOM     59  C   UNL A   1      45.332  28.332  31.092  1.00  0.00     0.049 A 
ATOM     60  H   UNL A   1      45.213  26.604  32.257  1.00  0.00     0.167 HD
ATOM     61  C   UNL A   1      44.875  26.511  29.455  1.00  0.00     0.074 A 
ATOM     62  C   UNL A   1      44.384  25.409  30.295  1.00  0.00     0.031 C 
ATOM     63  C   UNL A   1      45.274  27.780  29.754  1.00  0.00     0.031 A 
BRANCH  50  64
ATOM     64  C   UNL A   1      44.216  26.444  34.892  1.00  0.00    -0.014 A 
ATOM     65  C   UNL A   1      43.870  25.342  34.103  1.00  0.00     0.009 A 
ATOM     66  C   UNL A   1      44.505  26.194  36.250  1.00  0.00     0.009 A 
ATOM     67  C   UNL A   1      43.807  24.058  34.651  1.00  0.00     0.001 A 
ATOM     68  C   UNL A   1      44.479  24.912  36.793  1.00  0.00     0.001 A 
ATOM     69  C   UNL A   1      44.116  23.842  35.991  1.00  0.00     0.000 A 
ENDBRANCH  50  64
BRANCH  51  70
ATOM     70  C   UNL A   1      41.584  24.294  27.091  1.00  0.00    -0.014 A 
ATOM     71  C   UNL A   1      42.421  23.389  26.370  1.00  0.00     0.009 A 
ATOM     72  C   UNL A   1      40.258  23.884  27.263  1.00  0.00     0.009 A 
ATOM     73  C   UNL A   1      41.973  22.114  25.949  1.00  0.00     0.001 A 
ATOM     74  C   UNL A   1      39.813  22.611  26.850  1.00  0.00     0.001 A 
ATOM     75  C   UNL A   1      40.673  21.713  26.221  1.00  0.00     0.000 A 
ENDBRANCH  51  70
BRANCH  63  76
ATOM     76  C   UNL A   1      45.574  28.726  28.605  1.00  0.00    -0.014 A 
ATOM     77  C   UNL A   1      46.808  28.831  27.934  1.00  0.00     0.009 A 
ATOM     78  C   UNL A   1      44.494  29.469  28.109  1.00  0.00     0.009 A 
ATOM     79  C   UNL A   1      46.949  29.668  26.814  1.00  0.00     0.001 A 
ATOM     80  C   UNL A   1      44.628  30.288  26.987  1.00  0.00     0.001 A 
ATOM     81  C   UNL A   1      45.857  30.393  26.342  1.00  0.00     0.000 A 
ENDBRANCH  63  76
ENDBRANCH  37  38
ENDBRANCH  30  32
ENDBRANCH  29  30
ENDBRANCH   1  29
TORSDOF 13
ENDMDL
