MODEL 1
REMARK VINA RESULT:     -11.4      0.000      0.000
REMARK SMILES CC(C)C(=O)Nc1ccc2c([C@H](C(=O)OCCOC(=O)c3ccc(-c4c5nc(c(-c6ccccc6)c6ccc([nH]6)c(-c6ccccc6)c6nc(c(-c7ccccc7)c7ccc4[nH]7)C=C6)C=C5)cc3)[NH+]3CC[NH+](CC(=O)N(C)C)CC3)c[nH]c2c1
REMARK SMILES IDX 16 1 15 2 13 3 14 4 12 5 11 6 7 7 8 8 84 9 9 10 83 11 10 12
REMARK SMILES IDX 82 13 81 14 6 16 4 17 5 18 2 20 1 21 3 22 69 23 70 24 80 25
REMARK SMILES IDX 71 27 79 28 72 29 73 31 74 32 75 33 76 34 77 35 78 36 17 37
REMARK SMILES IDX 18 38 19 39 20 40 21 41 22 42 68 43 23 44 67 45 24 46 25 47
REMARK SMILES IDX 26 48 61 49 27 50 66 51 60 52 62 53 28 54 65 55 59 56 58 57
REMARK SMILES IDX 29 59 51 60 36 61 50 62 37 63 40 64 49 65 63 66 38 67 39 68
REMARK SMILES IDX 48 70 64 71 41 72 30 73 31 74 35 75 32 76 34 77 33 78 52 79
REMARK SMILES IDX 53 80 57 81 54 82 56 83 55 84 42 85 43 86 47 87 44 88 46 89
REMARK SMILES IDX 45 90
REMARK H PARENT 82 15 6 19 69 26 72 30 62 58 40 69
REMARK Flexibility Score: inf
ROOT
ATOM      1  C   UNL A   1      33.334  28.456  27.219  1.00  0.00     0.274 C 
ENDROOT
BRANCH   1   2
ATOM      2  O   UNL A   1      34.043  27.601  26.300  1.00  0.00    -0.457 OA
BRANCH   2   3
ATOM      3  C   UNL A   1      33.552  27.592  25.034  1.00  0.00     0.370 C 
ATOM      4  O   UNL A   1      34.063  28.261  24.134  1.00  0.00    -0.245 OA
BRANCH   3   5
ATOM      5  C   UNL A   1      32.295  26.713  24.811  1.00  0.00     0.328 C 
BRANCH   5   6
ATOM      6  C   UNL A   1      32.433  25.322  25.447  1.00  0.00     0.046 A 
ATOM      7  C   UNL A   1      34.839  21.973  24.637  1.00  0.00     0.043 A 
ATOM      8  C   UNL A   1      34.681  22.860  23.585  1.00  0.00     0.027 A 
ATOM      9  C   UNL A   1      34.013  22.053  25.763  1.00  0.00     0.052 A 
ATOM     10  C   UNL A   1      33.917  24.012  23.734  1.00  0.00     0.013 A 
ATOM     11  C   UNL A   1      33.217  23.205  25.886  1.00  0.00     0.048 A 
ATOM     12  C   UNL A   1      33.214  24.224  24.933  1.00  0.00     0.009 A 
ATOM     13  N   UNL A   1      32.368  23.599  26.889  1.00  0.00    -0.361 N 
ATOM     14  C   UNL A   1      31.896  24.861  26.639  1.00  0.00     0.094 A 
ATOM     15  H   UNL A   1      32.132  23.055  27.675  1.00  0.00     0.166 HD
BRANCH   7  16
ATOM     16  N   UNL A   1      35.839  20.999  24.602  1.00  0.00    -0.326 N 
ATOM     17  C   UNL A   1      37.153  21.092  24.974  1.00  0.00     0.226 C 
ATOM     18  O   UNL A   1      37.892  20.143  24.685  1.00  0.00    -0.274 OA
ATOM     19  H   UNL A   1      35.559  20.119  24.260  1.00  0.00     0.169 HD
BRANCH  17  20
ATOM     20  C   UNL A   1      37.721  22.254  25.817  1.00  0.00     0.072 C 
ATOM     21  C   UNL A   1      39.130  22.045  26.362  1.00  0.00     0.018 C 
ATOM     22  C   UNL A   1      37.528  23.640  25.202  1.00  0.00     0.018 C 
ENDBRANCH  17  20
ENDBRANCH   7  16
ENDBRANCH   5   6
BRANCH   5  23
ATOM     23  N   UNL A   1      30.948  27.282  25.058  1.00  0.00    -0.310 N 
ATOM     24  C   UNL A   1      30.696  28.673  24.718  1.00  0.00     0.325 C 
ATOM     25  C   UNL A   1      29.780  26.446  24.787  1.00  0.00     0.325 C 
ATOM     26  H   UNL A   1      31.059  27.281  26.071  1.00  0.00     0.349 HD
ATOM     27  C   UNL A   1      30.205  28.844  23.293  1.00  0.00     0.325 C 
ATOM     28  C   UNL A   1      28.955  26.740  23.499  1.00  0.00     0.325 C 
ATOM     29  N   UNL A   1      29.033  28.070  22.902  1.00  0.00    -0.318 N 
ATOM     30  H   UNL A   1      29.171  27.819  21.923  1.00  0.00     0.348 HD
BRANCH  29  31
ATOM     31  C   UNL A   1      27.803  28.865  22.833  1.00  0.00     0.364 C 
BRANCH  31  32
ATOM     32  C   UNL A   1      27.976  30.144  22.004  1.00  0.00     0.277 C 
ATOM     33  O   UNL A   1      28.158  30.062  20.784  1.00  0.00    -0.268 OA
ATOM     34  N   UNL A   1      28.016  31.365  22.654  1.00  0.00    -0.344 N 
ATOM     35  C   UNL A   1      27.466  31.629  23.969  1.00  0.00     0.146 C 
ATOM     36  C   UNL A   1      28.550  32.505  21.931  1.00  0.00     0.146 C 
ENDBRANCH  31  32
ENDBRANCH  29  31
ENDBRANCH   5  23
ENDBRANCH   3   5
ENDBRANCH   2   3
ENDBRANCH   1   2
BRANCH   1  37
ATOM     37  C   UNL A   1      33.892  29.885  27.185  1.00  0.00     0.275 C 
BRANCH  37  38
ATOM     38  O   UNL A   1      35.320  29.963  27.348  1.00  0.00    -0.458 OA
BRANCH  38  39
ATOM     39  C   UNL A   1      35.779  30.322  28.567  1.00  0.00     0.338 C 
ATOM     40  O   UNL A   1      35.234  31.052  29.376  1.00  0.00    -0.246 OA
BRANCH  39  41
ATOM     41  C   UNL A   1      37.179  29.865  28.666  1.00  0.00     0.060 A 
ATOM     42  C   UNL A   1      37.951  29.955  27.514  1.00  0.00     0.016 A 
ATOM     43  C   UNL A   1      37.703  29.263  29.815  1.00  0.00     0.016 A 
ATOM     44  C   UNL A   1      39.202  29.343  27.480  1.00  0.00     0.010 A 
ATOM     45  C   UNL A   1      39.029  28.788  29.815  1.00  0.00     0.010 A 
ATOM     46  C   UNL A   1      39.804  28.825  28.645  1.00  0.00    -0.014 A 
BRANCH  46  47
ATOM     47  C   UNL A   1      41.263  28.477  28.622  1.00  0.00     0.031 A 
ATOM     48  C   UNL A   1      42.367  29.473  28.891  1.00  0.00     0.074 A 
ATOM     49  C   UNL A   1      41.608  27.197  28.356  1.00  0.00     0.049 A 
ATOM     50  N   UNL A   1      43.662  29.327  28.721  1.00  0.00    -0.248 NA
ATOM     51  C   UNL A   1      41.985  30.792  29.412  1.00  0.00     0.031 C 
ATOM     52  C   UNL A   1      40.666  26.100  28.105  1.00  0.00     0.029 A 
ATOM     53  N   UNL A   1      42.836  26.587  28.276  1.00  0.00    -0.354 N 
ATOM     54  C   UNL A   1      44.244  30.536  29.091  1.00  0.00     0.074 A 
ATOM     55  C   UNL A   1      43.159  31.409  29.496  1.00  0.00     0.031 C 
ATOM     56  C   UNL A   1      41.335  24.950  28.008  1.00  0.00     0.029 A 
ATOM     57  C   UNL A   1      42.757  25.245  27.991  1.00  0.00     0.049 A 
ATOM     58  H   UNL A   1      43.687  27.062  28.410  1.00  0.00     0.167 HD
ATOM     59  C   UNL A   1      45.556  30.885  29.086  1.00  0.00     0.031 A 
ATOM     60  C   UNL A   1      43.693  24.344  27.648  1.00  0.00     0.031 A 
ATOM     61  C   UNL A   1      46.636  30.012  28.690  1.00  0.00     0.049 A 
ATOM     62  C   UNL A   1      45.109  24.788  27.506  1.00  0.00     0.074 A 
ATOM     63  C   UNL A   1      47.993  30.288  28.634  1.00  0.00     0.029 A 
ATOM     64  N   UNL A   1      46.485  28.696  28.287  1.00  0.00    -0.354 N 
ATOM     65  N   UNL A   1      45.626  25.964  27.757  1.00  0.00    -0.248 NA
ATOM     66  C   UNL A   1      46.059  23.797  26.991  1.00  0.00     0.031 C 
ATOM     67  C   UNL A   1      48.656  29.157  28.142  1.00  0.00     0.029 A 
ATOM     68  C   UNL A   1      47.718  28.159  27.946  1.00  0.00     0.049 A 
ATOM     69  H   UNL A   1      45.628  28.212  28.248  1.00  0.00     0.167 HD
ATOM     70  C   UNL A   1      46.966  25.860  27.423  1.00  0.00     0.074 A 
ATOM     71  C   UNL A   1      47.184  24.498  26.977  1.00  0.00     0.031 C 
ATOM     72  C   UNL A   1      47.924  26.814  27.475  1.00  0.00     0.031 A 
BRANCH  59  73
ATOM     73  C   UNL A   1      45.919  32.297  29.470  1.00  0.00    -0.014 A 
ATOM     74  C   UNL A   1      45.807  33.360  28.563  1.00  0.00     0.009 A 
ATOM     75  C   UNL A   1      46.277  32.578  30.801  1.00  0.00     0.009 A 
ATOM     76  C   UNL A   1      46.057  34.672  28.977  1.00  0.00     0.001 A 
ATOM     77  C   UNL A   1      46.506  33.891  31.217  1.00  0.00     0.001 A 
ATOM     78  C   UNL A   1      46.399  34.938  30.303  1.00  0.00     0.000 A 
ENDBRANCH  59  73
BRANCH  60  79
ATOM     79  C   UNL A   1      43.263  22.971  27.276  1.00  0.00    -0.014 A 
ATOM     80  C   UNL A   1      42.745  22.092  28.234  1.00  0.00     0.009 A 
ATOM     81  C   UNL A   1      43.285  22.573  25.926  1.00  0.00     0.009 A 
ATOM     82  C   UNL A   1      42.243  20.847  27.845  1.00  0.00     0.001 A 
ATOM     83  C   UNL A   1      42.746  21.349  25.536  1.00  0.00     0.001 A 
ATOM     84  C   UNL A   1      42.227  20.486  26.497  1.00  0.00     0.000 A 
ENDBRANCH  60  79
BRANCH  72  85
ATOM     85  C   UNL A   1      49.300  26.398  27.047  1.00  0.00    -0.014 A 
ATOM     86  C   UNL A   1      49.706  26.515  25.709  1.00  0.00     0.009 A 
ATOM     87  C   UNL A   1      50.187  25.857  27.988  1.00  0.00     0.009 A 
ATOM     88  C   UNL A   1      50.964  26.059  25.314  1.00  0.00     0.001 A 
ATOM     89  C   UNL A   1      51.453  25.425  27.595  1.00  0.00     0.001 A 
ATOM     90  C   UNL A   1      51.837  25.515  26.257  1.00  0.00     0.000 A 
ENDBRANCH  72  85
ENDBRANCH  46  47
ENDBRANCH  39  41
ENDBRANCH  38  39
ENDBRANCH  37  38
ENDBRANCH   1  37
TORSDOF 17
ENDMDL
MODEL 2
REMARK VINA RESULT:     -11.3      3.814      8.940
REMARK SMILES CC(C)C(=O)Nc1ccc2c([C@H](C(=O)OCCOC(=O)c3ccc(-c4c5nc(c(-c6ccccc6)c6ccc([nH]6)c(-c6ccccc6)c6nc(c(-c7ccccc7)c7ccc4[nH]7)C=C6)C=C5)cc3)[NH+]3CC[NH+](CC(=O)N(C)C)CC3)c[nH]c2c1
REMARK SMILES IDX 16 1 15 2 13 3 14 4 12 5 11 6 7 7 8 8 84 9 9 10 83 11 10 12
REMARK SMILES IDX 82 13 81 14 6 16 4 17 5 18 2 20 1 21 3 22 69 23 70 24 80 25
REMARK SMILES IDX 71 27 79 28 72 29 73 31 74 32 75 33 76 34 77 35 78 36 17 37
REMARK SMILES IDX 18 38 19 39 20 40 21 41 22 42 68 43 23 44 67 45 24 46 25 47
REMARK SMILES IDX 26 48 61 49 27 50 66 51 60 52 62 53 28 54 65 55 59 56 58 57
REMARK SMILES IDX 29 59 51 60 36 61 50 62 37 63 40 64 49 65 63 66 38 67 39 68
REMARK SMILES IDX 48 70 64 71 41 72 30 73 31 74 35 75 32 76 34 77 33 78 52 79
REMARK SMILES IDX 53 80 57 81 54 82 56 83 55 84 42 85 43 86 47 87 44 88 46 89
REMARK SMILES IDX 45 90
REMARK H PARENT 82 15 6 19 69 26 72 30 62 58 40 69
REMARK Flexibility Score: inf
ROOT
ATOM      1  C   UNL A   1      31.645  27.399  26.919  1.00  0.00     0.274 C 
ENDROOT
BRANCH   1   2
ATOM      2  O   UNL A   1      32.515  26.459  26.259  1.00  0.00    -0.457 OA
BRANCH   2   3
ATOM      3  C   UNL A   1      31.987  25.220  26.081  1.00  0.00     0.370 C 
ATOM      4  O   UNL A   1      31.678  24.502  27.034  1.00  0.00    -0.245 OA
BRANCH   3   5
ATOM      5  C   UNL A   1      31.832  24.765  24.607  1.00  0.00     0.328 C 
BRANCH   5   6
ATOM      6  C   UNL A   1      31.590  25.944  23.653  1.00  0.00     0.046 A 
ATOM      7  C   UNL A   1      28.383  28.590  23.043  1.00  0.00     0.043 A 
ATOM      8  C   UNL A   1      28.059  27.397  23.669  1.00  0.00     0.027 A 
ATOM      9  C   UNL A   1      29.619  28.744  22.408  1.00  0.00     0.052 A 
ATOM     10  C   UNL A   1      29.037  26.446  23.937  1.00  0.00     0.013 A 
ATOM     11  C   UNL A   1      30.588  27.758  22.655  1.00  0.00     0.048 A 
ATOM     12  C   UNL A   1      30.348  26.653  23.473  1.00  0.00     0.009 A 
ATOM     13  N   UNL A   1      31.893  27.664  22.239  1.00  0.00    -0.361 N 
ATOM     14  C   UNL A   1      32.501  26.587  22.829  1.00  0.00     0.094 A 
ATOM     15  H   UNL A   1      32.329  28.281  21.608  1.00  0.00     0.166 HD
BRANCH   7  16
ATOM     16  N   UNL A   1      27.491  29.664  23.055  1.00  0.00    -0.326 N 
ATOM     17  C   UNL A   1      27.726  30.982  23.337  1.00  0.00     0.226 C 
ATOM     18  O   UNL A   1      26.740  31.720  23.456  1.00  0.00    -0.274 OA
ATOM     19  H   UNL A   1      26.559  29.441  22.828  1.00  0.00     0.169 HD
BRANCH  17  20
ATOM     20  C   UNL A   1      29.138  31.602  23.404  1.00  0.00     0.072 C 
ATOM     21  C   UNL A   1      29.282  32.982  22.771  1.00  0.00     0.018 C 
ATOM     22  C   UNL A   1      29.808  31.510  24.775  1.00  0.00     0.018 C 
ENDBRANCH  17  20
ENDBRANCH   7  16
ENDBRANCH   5   6
BRANCH   5  23
ATOM     23  N   UNL A   1      32.801  23.801  24.032  1.00  0.00    -0.310 N 
ATOM     24  C   UNL A   1      33.584  22.966  24.928  1.00  0.00     0.325 C 
ATOM     25  C   UNL A   1      32.423  23.076  22.820  1.00  0.00     0.325 C 
ATOM     26  H   UNL A   1      33.448  24.528  23.727  1.00  0.00     0.349 HD
ATOM     27  C   UNL A   1      32.892  21.655  25.254  1.00  0.00     0.325 C 
ATOM     28  C   UNL A   1      32.010  21.581  22.963  1.00  0.00     0.325 C 
ATOM     29  N   UNL A   1      32.476  20.831  24.125  1.00  0.00    -0.318 N 
ATOM     30  H   UNL A   1      31.607  20.379  24.408  1.00  0.00     0.348 HD
BRANCH  29  31
ATOM     31  C   UNL A   1      33.347  19.674  23.893  1.00  0.00     0.364 C 
BRANCH  31  32
ATOM     32  C   UNL A   1      32.866  18.418  24.631  1.00  0.00     0.277 C 
ATOM     33  O   UNL A   1      32.039  18.525  25.543  1.00  0.00    -0.268 OA
ATOM     34  N   UNL A   1      33.437  17.197  24.321  1.00  0.00    -0.344 N 
ATOM     35  C   UNL A   1      34.109  16.882  23.075  1.00  0.00     0.146 C 
ATOM     36  C   UNL A   1      33.261  16.104  25.260  1.00  0.00     0.146 C 
ENDBRANCH  31  32
ENDBRANCH  29  31
ENDBRANCH   5  23
ENDBRANCH   3   5
ENDBRANCH   2   3
ENDBRANCH   1   2
BRANCH   1  37
ATOM     37  C   UNL A   1      31.746  28.790  26.276  1.00  0.00     0.275 C 
BRANCH  37  38
ATOM     38  O   UNL A   1      33.067  29.360  26.311  1.00  0.00    -0.458 OA
BRANCH  38  39
ATOM     39  C   UNL A   1      33.202  30.560  26.916  1.00  0.00     0.338 C 
ATOM     40  O   UNL A   1      32.477  31.533  26.795  1.00  0.00    -0.246 OA
BRANCH  39  41
ATOM     41  C   UNL A   1      34.520  30.579  27.578  1.00  0.00     0.060 A 
ATOM     42  C   UNL A   1      34.950  29.388  28.152  1.00  0.00     0.016 A 
ATOM     43  C   UNL A   1      35.276  31.745  27.735  1.00  0.00     0.016 A 
ATOM     44  C   UNL A   1      36.075  29.394  28.975  1.00  0.00     0.010 A 
ATOM     45  C   UNL A   1      36.495  31.701  28.439  1.00  0.00     0.010 A 
ATOM     46  C   UNL A   1      36.918  30.519  29.068  1.00  0.00    -0.014 A 
BRANCH  46  47
ATOM     47  C   UNL A   1      38.270  30.370  29.699  1.00  0.00     0.031 A 
ATOM     48  C   UNL A   1      39.427  29.652  29.043  1.00  0.00     0.074 A 
ATOM     49  C   UNL A   1      38.468  30.918  30.919  1.00  0.00     0.049 A 
ATOM     50  N   UNL A   1      40.581  29.306  29.568  1.00  0.00    -0.248 NA
ATOM     51  C   UNL A   1      39.283  29.273  27.632  1.00  0.00     0.031 C 
ATOM     52  C   UNL A   1      37.467  31.674  31.680  1.00  0.00     0.029 A 
ATOM     53  N   UNL A   1      39.577  30.954  31.728  1.00  0.00    -0.354 N 
ATOM     54  C   UNL A   1      41.288  28.653  28.562  1.00  0.00     0.074 A 
ATOM     55  C   UNL A   1      40.432  28.649  27.392  1.00  0.00     0.031 C 
ATOM     56  C   UNL A   1      38.030  32.182  32.778  1.00  0.00     0.029 A 
ATOM     57  C   UNL A   1      39.368  31.631  32.905  1.00  0.00     0.049 A 
ATOM     58  H   UNL A   1      40.436  30.535  31.490  1.00  0.00     0.167 HD
ATOM     59  C   UNL A   1      42.528  28.103  28.614  1.00  0.00     0.031 A 
ATOM     60  C   UNL A   1      40.105  31.735  34.024  1.00  0.00     0.031 A 
ATOM     61  C   UNL A   1      43.383  28.114  29.778  1.00  0.00     0.049 A 
ATOM     62  C   UNL A   1      41.399  30.999  34.110  1.00  0.00     0.074 A 
ATOM     63  C   UNL A   1      44.646  27.564  29.927  1.00  0.00     0.029 A 
ATOM     64  N   UNL A   1      43.067  28.708  30.989  1.00  0.00    -0.354 N 
ATOM     65  N   UNL A   1      42.004  30.296  33.186  1.00  0.00    -0.248 NA
ATOM     66  C   UNL A   1      42.088  31.033  35.404  1.00  0.00     0.031 C 
ATOM     67  C   UNL A   1      45.069  27.774  31.245  1.00  0.00     0.029 A 
ATOM     68  C   UNL A   1      44.093  28.506  31.899  1.00  0.00     0.049 A 
ATOM     69  H   UNL A   1      42.236  29.202  31.175  1.00  0.00     0.167 HD
ATOM     70  C   UNL A   1      43.144  29.793  33.788  1.00  0.00     0.074 A 
ATOM     71  C   UNL A   1      43.159  30.295  35.148  1.00  0.00     0.031 C 
ATOM     72  C   UNL A   1      44.089  28.981  33.259  1.00  0.00     0.031 A 
BRANCH  59  73
ATOM     73  C   UNL A   1      43.040  27.382  27.393  1.00  0.00    -0.014 A 
ATOM     74  C   UNL A   1      43.867  28.016  26.456  1.00  0.00     0.009 A 
ATOM     75  C   UNL A   1      42.773  26.010  27.241  1.00  0.00     0.009 A 
ATOM     76  C   UNL A   1      44.407  27.295  25.386  1.00  0.00     0.001 A 
ATOM     77  C   UNL A   1      43.328  25.287  26.184  1.00  0.00     0.001 A 
ATOM     78  C   UNL A   1      44.143  25.931  25.254  1.00  0.00     0.000 A 
ENDBRANCH  59  73
BRANCH  60  79
ATOM     79  C   UNL A   1      39.536  32.456  35.192  1.00  0.00    -0.014 A 
ATOM     80  C   UNL A   1      39.743  33.829  35.363  1.00  0.00     0.009 A 
ATOM     81  C   UNL A   1      38.698  31.774  36.094  1.00  0.00     0.009 A 
ATOM     82  C   UNL A   1      39.107  34.509  36.406  1.00  0.00     0.001 A 
ATOM     83  C   UNL A   1      38.033  32.462  37.107  1.00  0.00     0.001 A 
ATOM     84  C   UNL A   1      38.240  33.829  37.263  1.00  0.00     0.000 A 
ENDBRANCH  60  79
BRANCH  72  85
ATOM     85  C   UNL A   1      45.223  28.603  34.163  1.00  0.00    -0.014 A 
ATOM     86  C   UNL A   1      46.376  29.398  34.245  1.00  0.00     0.009 A 
ATOM     87  C   UNL A   1      45.148  27.424  34.918  1.00  0.00     0.009 A 
ATOM     88  C   UNL A   1      47.452  28.996  35.038  1.00  0.00     0.001 A 
ATOM     89  C   UNL A   1      46.215  27.038  35.729  1.00  0.00     0.001 A 
ATOM     90  C   UNL A   1      47.370  27.817  35.780  1.00  0.00     0.000 A 
ENDBRANCH  72  85
ENDBRANCH  46  47
ENDBRANCH  39  41
ENDBRANCH  38  39
ENDBRANCH  37  38
ENDBRANCH   1  37
TORSDOF 17
ENDMDL
MODEL 3
REMARK VINA RESULT:     -11.3      1.744      5.973
REMARK SMILES CC(C)C(=O)Nc1ccc2c([C@H](C(=O)OCCOC(=O)c3ccc(-c4c5nc(c(-c6ccccc6)c6ccc([nH]6)c(-c6ccccc6)c6nc(c(-c7ccccc7)c7ccc4[nH]7)C=C6)C=C5)cc3)[NH+]3CC[NH+](CC(=O)N(C)C)CC3)c[nH]c2c1
REMARK SMILES IDX 16 1 15 2 13 3 14 4 12 5 11 6 7 7 8 8 84 9 9 10 83 11 10 12
REMARK SMILES IDX 82 13 81 14 6 16 4 17 5 18 2 20 1 21 3 22 69 23 70 24 80 25
REMARK SMILES IDX 71 27 79 28 72 29 73 31 74 32 75 33 76 34 77 35 78 36 17 37
REMARK SMILES IDX 18 38 19 39 20 40 21 41 22 42 68 43 23 44 67 45 24 46 25 47
REMARK SMILES IDX 26 48 61 49 27 50 66 51 60 52 62 53 28 54 65 55 59 56 58 57
REMARK SMILES IDX 29 59 51 60 36 61 50 62 37 63 40 64 49 65 63 66 38 67 39 68
REMARK SMILES IDX 48 70 64 71 41 72 30 73 31 74 35 75 32 76 34 77 33 78 52 79
REMARK SMILES IDX 53 80 57 81 54 82 56 83 55 84 42 85 43 86 47 87 44 88 46 89
REMARK SMILES IDX 45 90
REMARK H PARENT 82 15 6 19 69 26 72 30 62 58 40 69
REMARK Flexibility Score: inf
ROOT
ATOM      1  C   UNL A   1      33.968  28.415  27.047  1.00  0.00     0.274 C 
ENDROOT
BRANCH   1   2
ATOM      2  O   UNL A   1      32.941  27.528  26.564  1.00  0.00    -0.457 OA
BRANCH   2   3
ATOM      3  C   UNL A   1      33.159  27.027  25.320  1.00  0.00     0.370 C 
ATOM      4  O   UNL A   1      34.034  27.480  24.580  1.00  0.00    -0.245 OA
BRANCH   3   5
ATOM      5  C   UNL A   1      32.216  25.874  24.890  1.00  0.00     0.328 C 
BRANCH   5   6
ATOM      6  C   UNL A   1      30.822  26.378  24.489  1.00  0.00     0.046 A 
ATOM      7  C   UNL A   1      29.441  29.621  22.202  1.00  0.00     0.043 A 
ATOM      8  C   UNL A   1      30.725  29.753  22.707  1.00  0.00     0.027 A 
ATOM      9  C   UNL A   1      28.591  28.619  22.679  1.00  0.00     0.052 A 
ATOM     10  C   UNL A   1      31.297  28.741  23.469  1.00  0.00     0.013 A 
ATOM     11  C   UNL A   1      29.171  27.621  23.480  1.00  0.00     0.048 A 
ATOM     12  C   UNL A   1      30.525  27.618  23.818  1.00  0.00     0.009 A 
ATOM     13  N   UNL A   1      28.624  26.492  24.034  1.00  0.00    -0.361 N 
ATOM     14  C   UNL A   1      29.599  25.741  24.638  1.00  0.00     0.094 A 
ATOM     15  H   UNL A   1      27.669  26.255  24.003  1.00  0.00     0.166 HD
BRANCH   7  16
ATOM     16  N   UNL A   1      28.984  30.471  21.192  1.00  0.00    -0.326 N 
ATOM     17  C   UNL A   1      28.238  31.614  21.293  1.00  0.00     0.226 C 
ATOM     18  O   UNL A   1      27.804  32.101  20.242  1.00  0.00    -0.274 OA
ATOM     19  H   UNL A   1      29.234  30.210  20.276  1.00  0.00     0.169 HD
BRANCH  17  20
ATOM     20  C   UNL A   1      28.010  32.369  22.619  1.00  0.00     0.072 C 
ATOM     21  C   UNL A   1      27.409  31.544  23.752  1.00  0.00     0.018 C 
ATOM     22  C   UNL A   1      29.192  33.223  23.077  1.00  0.00     0.018 C 
ENDBRANCH  17  20
ENDBRANCH   7  16
ENDBRANCH   5   6
BRANCH   5  23
ATOM     23  N   UNL A   1      32.704  24.840  23.945  1.00  0.00    -0.310 N 
ATOM     24  C   UNL A   1      33.831  24.006  24.331  1.00  0.00     0.325 C 
ATOM     25  C   UNL A   1      31.719  24.085  23.173  1.00  0.00     0.325 C 
ATOM     26  H   UNL A   1      33.098  25.522  23.297  1.00  0.00     0.349 HD
ATOM     27  C   UNL A   1      33.399  22.746  25.056  1.00  0.00     0.325 C 
ATOM     28  C   UNL A   1      31.421  22.619  23.607  1.00  0.00     0.325 C 
ATOM     29  N   UNL A   1      32.426  21.896  24.380  1.00  0.00    -0.318 N 
ATOM     30  H   UNL A   1      31.837  21.500  25.113  1.00  0.00     0.348 HD
BRANCH  29  31
ATOM     31  C   UNL A   1      33.013  20.689  23.789  1.00  0.00     0.364 C 
BRANCH  31  32
ATOM     32  C   UNL A   1      32.622  19.414  24.546  1.00  0.00     0.277 C 
ATOM     33  O   UNL A   1      32.425  19.463  25.765  1.00  0.00    -0.268 OA
ATOM     34  N   UNL A   1      32.587  18.212  23.862  1.00  0.00    -0.344 N 
ATOM     35  C   UNL A   1      32.433  18.072  22.427  1.00  0.00     0.146 C 
ATOM     36  C   UNL A   1      32.593  16.985  24.638  1.00  0.00     0.146 C 
ENDBRANCH  31  32
ENDBRANCH  29  31
ENDBRANCH   5  23
ENDBRANCH   3   5
ENDBRANCH   2   3
ENDBRANCH   1   2
BRANCH   1  37
ATOM     37  C   UNL A   1      33.420  29.835  27.250  1.00  0.00     0.275 C 
BRANCH  37  38
ATOM     38  O   UNL A   1      34.436  30.851  27.341  1.00  0.00    -0.458 OA
BRANCH  38  39
ATOM     39  C   UNL A   1      34.852  31.193  28.580  1.00  0.00     0.338 C 
ATOM     40  O   UNL A   1      34.328  31.989  29.341  1.00  0.00    -0.246 OA
BRANCH  39  41
ATOM     41  C   UNL A   1      36.194  30.612  28.775  1.00  0.00     0.060 A 
ATOM     42  C   UNL A   1      37.042  30.610  27.674  1.00  0.00     0.016 A 
ATOM     43  C   UNL A   1      36.587  29.988  29.963  1.00  0.00     0.016 A 
ATOM     44  C   UNL A   1      38.231  29.886  27.729  1.00  0.00     0.010 A 
ATOM     45  C   UNL A   1      37.861  29.393  30.054  1.00  0.00     0.010 A 
ATOM     46  C   UNL A   1      38.708  29.338  28.936  1.00  0.00    -0.014 A 
BRANCH  46  47
ATOM     47  C   UNL A   1      40.127  28.857  29.011  1.00  0.00     0.031 A 
ATOM     48  C   UNL A   1      41.291  29.737  29.404  1.00  0.00     0.074 A 
ATOM     49  C   UNL A   1      40.377  27.560  28.722  1.00  0.00     0.049 A 
ATOM     50  N   UNL A   1      42.577  29.478  29.328  1.00  0.00    -0.248 NA
ATOM     51  C   UNL A   1      40.988  31.068  29.947  1.00  0.00     0.031 C 
ATOM     52  C   UNL A   1      39.363  26.564  28.355  1.00  0.00     0.029 A 
ATOM     53  N   UNL A   1      41.547  26.842  28.712  1.00  0.00    -0.354 N 
ATOM     54  C   UNL A   1      43.232  30.615  29.791  1.00  0.00     0.074 A 
ATOM     55  C   UNL A   1      42.202  31.570  30.146  1.00  0.00     0.031 C 
ATOM     56  C   UNL A   1      39.932  25.360  28.263  1.00  0.00     0.029 A 
ATOM     57  C   UNL A   1      41.372  25.523  28.368  1.00  0.00     0.049 A 
ATOM     58  H   UNL A   1      42.424  27.232  28.930  1.00  0.00     0.167 HD
ATOM     59  C   UNL A   1      44.566  30.842  29.901  1.00  0.00     0.031 A 
ATOM     60  C   UNL A   1      42.248  24.552  28.062  1.00  0.00     0.031 A 
ATOM     61  C   UNL A   1      45.593  29.887  29.554  1.00  0.00     0.049 A 
ATOM     62  C   UNL A   1      43.705  24.868  28.047  1.00  0.00     0.074 A 
ATOM     63  C   UNL A   1      46.970  30.038  29.614  1.00  0.00     0.029 A 
ATOM     64  N   UNL A   1      45.358  28.604  29.088  1.00  0.00    -0.354 N 
ATOM     65  N   UNL A   1      44.304  25.982  28.385  1.00  0.00    -0.248 NA
ATOM     66  C   UNL A   1      44.601  23.811  27.567  1.00  0.00     0.031 C 
ATOM     67  C   UNL A   1      47.566  28.868  29.129  1.00  0.00     0.029 A 
ATOM     68  C   UNL A   1      46.561  27.967  28.822  1.00  0.00     0.049 A 
ATOM     69  H   UNL A   1      44.467  28.203  28.964  1.00  0.00     0.167 HD
ATOM     70  C   UNL A   1      45.651  25.766  28.150  1.00  0.00     0.074 A 
ATOM     71  C   UNL A   1      45.782  24.405  27.668  1.00  0.00     0.031 C 
ATOM     72  C   UNL A   1      46.683  26.626  28.314  1.00  0.00     0.031 A 
BRANCH  59  73
ATOM     73  C   UNL A   1      45.023  32.200  30.369  1.00  0.00    -0.014 A 
ATOM     74  C   UNL A   1      45.309  32.458  31.716  1.00  0.00     0.009 A 
ATOM     75  C   UNL A   1      45.272  33.207  29.419  1.00  0.00     0.009 A 
ATOM     76  C   UNL A   1      45.825  33.699  32.105  1.00  0.00     0.001 A 
ATOM     77  C   UNL A   1      45.806  34.438  29.807  1.00  0.00     0.001 A 
ATOM     78  C   UNL A   1      46.079  34.685  31.151  1.00  0.00     0.000 A 
ENDBRANCH  59  73
BRANCH  60  79
ATOM     79  C   UNL A   1      41.728  23.237  27.602  1.00  0.00    -0.014 A 
ATOM     80  C   UNL A   1      41.800  22.106  28.424  1.00  0.00     0.009 A 
ATOM     81  C   UNL A   1      41.069  23.141  26.363  1.00  0.00     0.009 A 
ATOM     82  C   UNL A   1      41.206  20.908  28.019  1.00  0.00     0.001 A 
ATOM     83  C   UNL A   1      40.441  21.956  25.982  1.00  0.00     0.001 A 
ATOM     84  C   UNL A   1      40.513  20.840  26.809  1.00  0.00     0.000 A 
ENDBRANCH  60  79
BRANCH  72  85
ATOM     85  C   UNL A   1      48.046  26.099  27.977  1.00  0.00    -0.014 A 
ATOM     86  C   UNL A   1      48.850  25.497  28.957  1.00  0.00     0.009 A 
ATOM     87  C   UNL A   1      48.541  26.233  26.672  1.00  0.00     0.009 A 
ATOM     88  C   UNL A   1      50.143  25.076  28.645  1.00  0.00     0.001 A 
ATOM     89  C   UNL A   1      49.825  25.788  26.357  1.00  0.00     0.001 A 
ATOM     90  C   UNL A   1      50.629  25.221  27.345  1.00  0.00     0.000 A 
ENDBRANCH  72  85
ENDBRANCH  46  47
ENDBRANCH  39  41
ENDBRANCH  38  39
ENDBRANCH  37  38
ENDBRANCH   1  37
TORSDOF 17
ENDMDL
