MODEL 1
REMARK VINA RESULT:      -9.6      0.000      0.000
REMARK SMILES C=CCN(CC(=O)OCCOC(=O)c1ccc(-c2c3nc(c(-c4ccccc4)c4ccc([nH]4)c(-c4ccccc4)c4nc(c(-c5ccccc5)c5ccc2[nH]5)C=C4)C=C3)cc1)c1ccc([N+](=O)[O-])cc1Br
REMARK SMILES IDX 9 1 8 2 6 3 7 4 5 5 4 6 3 7 2 8 1 9 62 10 63 11 70 12 64 13
REMARK SMILES IDX 69 14 71 15 65 16 66 17 67 18 68 19 10 20 11 21 12 22 13 23
REMARK SMILES IDX 14 24 15 25 61 26 16 27 60 28 17 29 18 30 19 31 54 32 20 33
REMARK SMILES IDX 59 34 53 35 55 36 21 37 58 38 52 39 51 40 22 42 44 43 29 44
REMARK SMILES IDX 43 45 30 46 33 47 42 48 56 49 31 50 32 51 41 53 57 54 34 55
REMARK SMILES IDX 23 56 24 57 28 58 25 59 27 60 26 61 45 62 46 63 50 64 47 65
REMARK SMILES IDX 49 66 48 67 35 68 36 69 40 70 37 71 39 72 38 73
REMARK H PARENT 55 41 33 52
REMARK Flexibility Score: inf
ROOT
ATOM      1  C   UNL A   1      38.505  21.380  25.668  1.00  0.00     0.274 C 
ENDROOT
BRANCH   1   2
ATOM      2  O   UNL A   1      37.104  21.433  25.340  1.00  0.00    -0.461 OA
BRANCH   2   3
ATOM      3  C   UNL A   1      36.640  22.649  24.940  1.00  0.00     0.325 C 
ATOM      4  O   UNL A   1      36.863  23.147  23.839  1.00  0.00    -0.250 OA
BRANCH   3   5
ATOM      5  C   UNL A   1      35.790  23.373  25.981  1.00  0.00     0.239 C 
BRANCH   5   6
ATOM      6  N   UNL A   1      34.337  23.279  25.793  1.00  0.00    -0.356 N 
BRANCH   6   7
ATOM      7  C   UNL A   1      33.499  24.422  26.122  1.00  0.00     0.144 C 
BRANCH   7   8
ATOM      8  C   UNL A   1      34.094  25.639  25.476  1.00  0.00    -0.014 C 
ATOM      9  C   UNL A   1      33.797  26.905  25.799  1.00  0.00     0.006 C 
ENDBRANCH   7   8
ENDBRANCH   6   7
BRANCH   6  10
ATOM     10  C   UNL A   1      33.771  22.103  25.326  1.00  0.00     0.052 A 
ATOM     11  C   UNL A   1      33.640  21.017  26.210  1.00  0.00     0.034 A 
ATOM     12  C   UNL A   1      33.331  21.919  23.997  1.00  0.00     0.048 A 
ATOM     13  C   UNL A   1      33.134  19.782  25.789  1.00  0.00     0.088 A 
ATOM     14  C   UNL A   1      32.810  20.693  23.564  1.00  0.00     0.103 A 
ATOM     15  Br  UNL A   1      33.363  23.325  22.711  1.00  0.00    -0.048 Br
ATOM     16  C   UNL A   1      32.730  19.628  24.463  1.00  0.00     0.270 A 
BRANCH  16  17
ATOM     17  N   UNL A   1      32.226  18.334  24.002  1.00  0.00     0.062 N 
ATOM     18  O   UNL A   1      32.207  18.125  22.780  1.00  0.00    -0.258 OA
ATOM     19  O   UNL A   1      31.839  17.532  24.863  1.00  0.00    -0.258 OA
ENDBRANCH  16  17
ENDBRANCH   6  10
ENDBRANCH   5   6
ENDBRANCH   3   5
ENDBRANCH   2   3
ENDBRANCH   1   2
BRANCH   1  20
ATOM     20  C   UNL A   1      39.086  20.004  25.354  1.00  0.00     0.275 C 
BRANCH  20  21
ATOM     21  O   UNL A   1      40.003  19.607  26.390  1.00  0.00    -0.458 OA
BRANCH  21  22
ATOM     22  C   UNL A   1      41.310  19.718  26.073  1.00  0.00     0.338 C 
ATOM     23  O   UNL A   1      41.988  18.930  25.429  1.00  0.00    -0.246 OA
BRANCH  22  24
ATOM     24  C   UNL A   1      41.878  20.948  26.647  1.00  0.00     0.060 A 
ATOM     25  C   UNL A   1      41.757  21.231  28.009  1.00  0.00     0.016 A 
ATOM     26  C   UNL A   1      42.416  21.895  25.772  1.00  0.00     0.016 A 
ATOM     27  C   UNL A   1      42.100  22.498  28.485  1.00  0.00     0.010 A 
ATOM     28  C   UNL A   1      42.812  23.140  26.259  1.00  0.00     0.010 A 
ATOM     29  C   UNL A   1      42.613  23.469  27.610  1.00  0.00    -0.014 A 
BRANCH  29  30
ATOM     30  C   UNL A   1      42.876  24.853  28.076  1.00  0.00     0.031 A 
ATOM     31  C   UNL A   1      44.287  25.286  28.375  1.00  0.00     0.074 A 
ATOM     32  C   UNL A   1      41.861  25.719  28.235  1.00  0.00     0.049 A 
ATOM     33  N   UNL A   1      44.716  26.418  28.873  1.00  0.00    -0.248 NA
ATOM     34  C   UNL A   1      45.354  24.317  28.078  1.00  0.00     0.031 C 
ATOM     35  C   UNL A   1      40.455  25.438  27.948  1.00  0.00     0.029 A 
ATOM     36  N   UNL A   1      41.862  27.019  28.676  1.00  0.00    -0.354 N 
ATOM     37  C   UNL A   1      46.096  26.288  28.975  1.00  0.00     0.074 A 
ATOM     38  C   UNL A   1      46.433  24.964  28.497  1.00  0.00     0.031 C 
ATOM     39  C   UNL A   1      39.731  26.543  28.192  1.00  0.00     0.029 A 
ATOM     40  C   UNL A   1      40.614  27.589  28.700  1.00  0.00     0.049 A 
ATOM     41  H   UNL A   1      42.679  27.495  28.947  1.00  0.00     0.167 HD
ATOM     42  C   UNL A   1      47.002  27.189  29.427  1.00  0.00     0.031 A 
ATOM     43  C   UNL A   1      40.221  28.811  29.101  1.00  0.00     0.031 A 
ATOM     44  C   UNL A   1      46.675  28.507  29.900  1.00  0.00     0.049 A 
ATOM     45  C   UNL A   1      41.238  29.778  29.633  1.00  0.00     0.074 A 
ATOM     46  C   UNL A   1      47.523  29.487  30.386  1.00  0.00     0.029 A 
ATOM     47  N   UNL A   1      45.394  29.033  29.938  1.00  0.00    -0.354 N 
ATOM     48  N   UNL A   1      42.535  29.628  29.755  1.00  0.00    -0.248 NA
ATOM     49  C   UNL A   1      40.734  31.082  30.089  1.00  0.00     0.031 C 
ATOM     50  C   UNL A   1      46.750  30.597  30.744  1.00  0.00     0.029 A 
ATOM     51  C   UNL A   1      45.426  30.320  30.446  1.00  0.00     0.049 A 
ATOM     52  H   UNL A   1      44.580  28.560  29.647  1.00  0.00     0.167 HD
ATOM     53  C   UNL A   1      43.004  30.821  30.287  1.00  0.00     0.074 A 
ATOM     54  C   UNL A   1      41.856  31.689  30.454  1.00  0.00     0.031 C 
ATOM     55  C   UNL A   1      44.274  31.166  30.609  1.00  0.00     0.031 A 
BRANCH  42  56
ATOM     56  C   UNL A   1      48.440  26.756  29.460  1.00  0.00    -0.014 A 
ATOM     57  C   UNL A   1      48.965  26.060  30.559  1.00  0.00     0.009 A 
ATOM     58  C   UNL A   1      49.274  27.030  28.364  1.00  0.00     0.009 A 
ATOM     59  C   UNL A   1      50.308  25.674  30.572  1.00  0.00     0.001 A 
ATOM     60  C   UNL A   1      50.609  26.624  28.372  1.00  0.00     0.001 A 
ATOM     61  C   UNL A   1      51.127  25.952  29.479  1.00  0.00     0.000 A 
ENDBRANCH  42  56
BRANCH  43  62
ATOM     62  C   UNL A   1      38.789  29.189  29.010  1.00  0.00    -0.014 A 
ATOM     63  C   UNL A   1      38.267  29.697  27.812  1.00  0.00     0.009 A 
ATOM     64  C   UNL A   1      37.935  29.019  30.109  1.00  0.00     0.009 A 
ATOM     65  C   UNL A   1      36.915  30.032  27.718  1.00  0.00     0.001 A 
ATOM     66  C   UNL A   1      36.579  29.336  30.005  1.00  0.00     0.001 A 
ATOM     67  C   UNL A   1      36.071  29.846  28.811  1.00  0.00     0.000 A 
ENDBRANCH  43  62
BRANCH  55  68
ATOM     68  C   UNL A   1      44.482  32.549  31.149  1.00  0.00    -0.014 A 
ATOM     69  C   UNL A   1      44.440  32.802  32.528  1.00  0.00     0.009 A 
ATOM     70  C   UNL A   1      44.736  33.610  30.265  1.00  0.00     0.009 A 
ATOM     71  C   UNL A   1      44.616  34.100  33.010  1.00  0.00     0.001 A 
ATOM     72  C   UNL A   1      44.930  34.902  30.751  1.00  0.00     0.001 A 
ATOM     73  C   UNL A   1      44.862  35.148  32.123  1.00  0.00     0.000 A 
ENDBRANCH  55  68
ENDBRANCH  29  30
ENDBRANCH  22  24
ENDBRANCH  21  22
ENDBRANCH  20  21
ENDBRANCH   1  20
TORSDOF 16
ENDMDL
MODEL 2
REMARK VINA RESULT:      -9.5      1.505      6.645
REMARK SMILES C=CCN(CC(=O)OCCOC(=O)c1ccc(-c2c3nc(c(-c4ccccc4)c4ccc([nH]4)c(-c4ccccc4)c4nc(c(-c5ccccc5)c5ccc2[nH]5)C=C4)C=C3)cc1)c1ccc([N+](=O)[O-])cc1Br
REMARK SMILES IDX 9 1 8 2 6 3 7 4 5 5 4 6 3 7 2 8 1 9 62 10 63 11 70 12 64 13
REMARK SMILES IDX 69 14 71 15 65 16 66 17 67 18 68 19 10 20 11 21 12 22 13 23
REMARK SMILES IDX 14 24 15 25 61 26 16 27 60 28 17 29 18 30 19 31 54 32 20 33
REMARK SMILES IDX 59 34 53 35 55 36 21 37 58 38 52 39 51 40 22 42 44 43 29 44
REMARK SMILES IDX 43 45 30 46 33 47 42 48 56 49 31 50 32 51 41 53 57 54 34 55
REMARK SMILES IDX 23 56 24 57 28 58 25 59 27 60 26 61 45 62 46 63 50 64 47 65
REMARK SMILES IDX 49 66 48 67 35 68 36 69 40 70 37 71 39 72 38 73
REMARK H PARENT 55 41 33 52
REMARK Flexibility Score: inf
ROOT
ATOM      1  C   UNL A   1      37.479  20.960  24.729  1.00  0.00     0.274 C 
ENDROOT
BRANCH   1   2
ATOM      2  O   UNL A   1      36.179  20.736  25.308  1.00  0.00    -0.461 OA
BRANCH   2   3
ATOM      3  C   UNL A   1      35.600  21.822  25.890  1.00  0.00     0.325 C 
ATOM      4  O   UNL A   1      36.155  22.910  26.031  1.00  0.00    -0.250 OA
BRANCH   3   5
ATOM      5  C   UNL A   1      34.168  21.594  26.367  1.00  0.00     0.239 C 
BRANCH   5   6
ATOM      6  N   UNL A   1      33.136  21.643  25.323  1.00  0.00    -0.356 N 
BRANCH   6   7
ATOM      7  C   UNL A   1      32.149  20.576  25.243  1.00  0.00     0.144 C 
BRANCH   7   8
ATOM      8  C   UNL A   1      32.848  19.328  24.789  1.00  0.00    -0.014 C 
ATOM      9  C   UNL A   1      32.641  18.714  23.617  1.00  0.00     0.006 C 
ENDBRANCH   7   8
ENDBRANCH   6   7
BRANCH   6  10
ATOM     10  C   UNL A   1      33.117  22.688  24.413  1.00  0.00     0.052 A 
ATOM     11  C   UNL A   1      33.527  22.441  23.090  1.00  0.00     0.034 A 
ATOM     12  C   UNL A   1      32.726  24.006  24.740  1.00  0.00     0.048 A 
ATOM     13  C   UNL A   1      33.590  23.463  22.137  1.00  0.00     0.088 A 
ATOM     14  C   UNL A   1      32.772  25.036  23.793  1.00  0.00     0.103 A 
ATOM     15  Br  UNL A   1      32.064  24.471  26.465  1.00  0.00    -0.048 Br
ATOM     16  C   UNL A   1      33.219  24.758  22.500  1.00  0.00     0.270 A 
BRANCH  16  17
ATOM     17  N   UNL A   1      33.308  25.842  21.521  1.00  0.00     0.062 N 
ATOM     18  O   UNL A   1      33.673  26.955  21.925  1.00  0.00    -0.258 OA
ATOM     19  O   UNL A   1      33.001  25.580  20.349  1.00  0.00    -0.258 OA
ENDBRANCH  16  17
ENDBRANCH   6  10
ENDBRANCH   5   6
ENDBRANCH   3   5
ENDBRANCH   2   3
ENDBRANCH   1   2
BRANCH   1  20
ATOM     20  C   UNL A   1      38.422  19.802  25.042  1.00  0.00     0.275 C 
BRANCH  20  21
ATOM     21  O   UNL A   1      39.181  20.092  26.230  1.00  0.00    -0.458 OA
BRANCH  21  22
ATOM     22  C   UNL A   1      40.515  19.915  26.116  1.00  0.00     0.338 C 
ATOM     23  O   UNL A   1      41.099  18.950  25.643  1.00  0.00    -0.246 OA
BRANCH  22  24
ATOM     24  C   UNL A   1      41.239  21.063  26.685  1.00  0.00     0.060 A 
ATOM     25  C   UNL A   1      41.342  21.237  28.067  1.00  0.00     0.016 A 
ATOM     26  C   UNL A   1      41.697  22.052  25.811  1.00  0.00     0.016 A 
ATOM     27  C   UNL A   1      41.832  22.441  28.577  1.00  0.00     0.010 A 
ATOM     28  C   UNL A   1      42.239  23.230  26.323  1.00  0.00     0.010 A 
ATOM     29  C   UNL A   1      42.266  23.454  27.709  1.00  0.00    -0.014 A 
BRANCH  29  30
ATOM     30  C   UNL A   1      42.683  24.779  28.231  1.00  0.00     0.031 A 
ATOM     31  C   UNL A   1      41.653  25.854  28.452  1.00  0.00     0.074 A 
ATOM     32  C   UNL A   1      43.977  25.023  28.504  1.00  0.00     0.049 A 
ATOM     33  N   UNL A   1      41.824  27.101  28.816  1.00  0.00    -0.248 NA
ATOM     34  C   UNL A   1      40.247  25.480  28.229  1.00  0.00     0.031 C 
ATOM     35  C   UNL A   1      45.068  24.059  28.367  1.00  0.00     0.029 A 
ATOM     36  N   UNL A   1      44.590  26.164  28.959  1.00  0.00    -0.354 N 
ATOM     37  C   UNL A   1      40.555  27.665  28.841  1.00  0.00     0.074 A 
ATOM     38  C   UNL A   1      39.623  26.630  28.445  1.00  0.00     0.031 C 
ATOM     39  C   UNL A   1      46.214  24.640  28.759  1.00  0.00     0.029 A 
ATOM     40  C   UNL A   1      45.945  26.027  29.124  1.00  0.00     0.049 A 
ATOM     41  H   UNL A   1      44.103  26.998  29.149  1.00  0.00     0.167 HD
ATOM     42  C   UNL A   1      40.195  28.931  29.162  1.00  0.00     0.031 A 
ATOM     43  C   UNL A   1      46.871  26.923  29.511  1.00  0.00     0.031 A 
ATOM     44  C   UNL A   1      41.114  29.963  29.560  1.00  0.00     0.049 A 
ATOM     45  C   UNL A   1      46.453  28.330  29.825  1.00  0.00     0.074 A 
ATOM     46  C   UNL A   1      40.845  31.279  29.897  1.00  0.00     0.029 A 
ATOM     47  N   UNL A   1      42.483  29.792  29.683  1.00  0.00    -0.354 N 
ATOM     48  N   UNL A   1      45.254  28.858  29.811  1.00  0.00    -0.248 NA
ATOM     49  C   UNL A   1      47.522  29.267  30.204  1.00  0.00     0.031 C 
ATOM     50  C   UNL A   1      42.057  31.911  30.198  1.00  0.00     0.029 A 
ATOM     51  C   UNL A   1      43.075  30.978  30.083  1.00  0.00     0.049 A 
ATOM     52  H   UNL A   1      42.965  28.950  29.511  1.00  0.00     0.167 HD
ATOM     53  C   UNL A   1      45.419  30.182  30.191  1.00  0.00     0.074 A 
ATOM     54  C   UNL A   1      46.833  30.375  30.442  1.00  0.00     0.031 C 
ATOM     55  C   UNL A   1      44.482  31.152  30.321  1.00  0.00     0.031 A 
BRANCH  42  56
ATOM     56  C   UNL A   1      38.736  29.275  29.063  1.00  0.00    -0.014 A 
ATOM     57  C   UNL A   1      38.174  29.717  27.855  1.00  0.00     0.009 A 
ATOM     58  C   UNL A   1      37.910  29.134  30.189  1.00  0.00     0.009 A 
ATOM     59  C   UNL A   1      36.816  30.038  27.787  1.00  0.00     0.001 A 
ATOM     60  C   UNL A   1      36.550  29.437  30.111  1.00  0.00     0.001 A 
ATOM     61  C   UNL A   1      36.005  29.896  28.912  1.00  0.00     0.000 A 
ENDBRANCH  42  56
BRANCH  43  62
ATOM     62  C   UNL A   1      48.291  26.510  29.622  1.00  0.00    -0.014 A 
ATOM     63  C   UNL A   1      49.158  26.655  28.529  1.00  0.00     0.009 A 
ATOM     64  C   UNL A   1      48.792  25.994  30.826  1.00  0.00     0.009 A 
ATOM     65  C   UNL A   1      50.499  26.286  28.639  1.00  0.00     0.001 A 
ATOM     66  C   UNL A   1      50.139  25.645  30.939  1.00  0.00     0.001 A 
ATOM     67  C   UNL A   1      50.991  25.788  29.845  1.00  0.00     0.000 A 
ENDBRANCH  43  62
BRANCH  55  68
ATOM     68  C   UNL A   1      44.962  32.497  30.779  1.00  0.00    -0.014 A 
ATOM     69  C   UNL A   1      45.424  33.452  29.861  1.00  0.00     0.009 A 
ATOM     70  C   UNL A   1      44.938  32.816  32.146  1.00  0.00     0.009 A 
ATOM     71  C   UNL A   1      45.884  34.692  30.307  1.00  0.00     0.001 A 
ATOM     72  C   UNL A   1      45.381  34.063  32.587  1.00  0.00     0.001 A 
ATOM     73  C   UNL A   1      45.862  34.996  31.669  1.00  0.00     0.000 A 
ENDBRANCH  55  68
ENDBRANCH  29  30
ENDBRANCH  22  24
ENDBRANCH  21  22
ENDBRANCH  20  21
ENDBRANCH   1  20
TORSDOF 16
ENDMDL
MODEL 3
REMARK VINA RESULT:      -9.5      3.799      8.244
REMARK SMILES C=CCN(CC(=O)OCCOC(=O)c1ccc(-c2c3nc(c(-c4ccccc4)c4ccc([nH]4)c(-c4ccccc4)c4nc(c(-c5ccccc5)c5ccc2[nH]5)C=C4)C=C3)cc1)c1ccc([N+](=O)[O-])cc1Br
REMARK SMILES IDX 9 1 8 2 6 3 7 4 5 5 4 6 3 7 2 8 1 9 62 10 63 11 70 12 64 13
REMARK SMILES IDX 69 14 71 15 65 16 66 17 67 18 68 19 10 20 11 21 12 22 13 23
REMARK SMILES IDX 14 24 15 25 61 26 16 27 60 28 17 29 18 30 19 31 54 32 20 33
REMARK SMILES IDX 59 34 53 35 55 36 21 37 58 38 52 39 51 40 22 42 44 43 29 44
REMARK SMILES IDX 43 45 30 46 33 47 42 48 56 49 31 50 32 51 41 53 57 54 34 55
REMARK SMILES IDX 23 56 24 57 28 58 25 59 27 60 26 61 45 62 46 63 50 64 47 65
REMARK SMILES IDX 49 66 48 67 35 68 36 69 40 70 37 71 39 72 38 73
REMARK H PARENT 55 41 33 52
REMARK Flexibility Score: inf
ROOT
ATOM      1  C   UNL A   1      32.213  29.394  27.220  1.00  0.00     0.274 C 
ENDROOT
BRANCH   1   2
ATOM      2  O   UNL A   1      31.740  28.647  26.083  1.00  0.00    -0.461 OA
BRANCH   2   3
ATOM      3  C   UNL A   1      31.660  27.299  26.258  1.00  0.00     0.325 C 
ATOM      4  O   UNL A   1      31.108  26.756  27.213  1.00  0.00    -0.250 OA
BRANCH   3   5
ATOM      5  C   UNL A   1      32.318  26.479  25.151  1.00  0.00     0.239 C 
BRANCH   5   6
ATOM      6  N   UNL A   1      31.506  26.273  23.945  1.00  0.00    -0.356 N 
BRANCH   6   7
ATOM      7  C   UNL A   1      31.595  25.008  23.231  1.00  0.00     0.144 C 
BRANCH   7   8
ATOM      8  C   UNL A   1      32.756  25.087  22.283  1.00  0.00    -0.014 C 
ATOM      9  C   UNL A   1      32.681  25.486  21.007  1.00  0.00     0.006 C 
ENDBRANCH   7   8
ENDBRANCH   6   7
BRANCH   6  10
ATOM     10  C   UNL A   1      30.679  27.284  23.483  1.00  0.00     0.052 A 
ATOM     11  C   UNL A   1      29.286  27.129  23.604  1.00  0.00     0.034 A 
ATOM     12  C   UNL A   1      31.153  28.468  22.873  1.00  0.00     0.048 A 
ATOM     13  C   UNL A   1      28.393  28.083  23.104  1.00  0.00     0.088 A 
ATOM     14  C   UNL A   1      30.271  29.438  22.380  1.00  0.00     0.103 A 
ATOM     15  Br  UNL A   1      33.012  28.858  22.720  1.00  0.00    -0.048 Br
ATOM     16  C   UNL A   1      28.895  29.229  22.487  1.00  0.00     0.270 A 
BRANCH  16  17
ATOM     17  N   UNL A   1      27.972  30.221  21.934  1.00  0.00     0.062 N 
ATOM     18  O   UNL A   1      27.290  30.880  22.731  1.00  0.00    -0.258 OA
ATOM     19  O   UNL A   1      27.924  30.332  20.701  1.00  0.00    -0.258 OA
ENDBRANCH  16  17
ENDBRANCH   6  10
ENDBRANCH   5   6
ENDBRANCH   3   5
ENDBRANCH   2   3
ENDBRANCH   1   2
BRANCH   1  20
ATOM     20  C   UNL A   1      33.738  29.452  27.236  1.00  0.00     0.275 C 
BRANCH  20  21
ATOM     21  O   UNL A   1      34.179  30.822  27.270  1.00  0.00    -0.458 OA
BRANCH  21  22
ATOM     22  C   UNL A   1      34.835  31.185  28.392  1.00  0.00     0.338 C 
ATOM     23  O   UNL A   1      34.521  32.062  29.185  1.00  0.00    -0.246 OA
BRANCH  22  24
ATOM     24  C   UNL A   1      36.061  30.388  28.555  1.00  0.00     0.060 A 
ATOM     25  C   UNL A   1      36.338  29.728  29.755  1.00  0.00     0.016 A 
ATOM     26  C   UNL A   1      37.011  30.425  27.532  1.00  0.00     0.016 A 
ATOM     27  C   UNL A   1      37.602  29.172  29.962  1.00  0.00     0.010 A 
ATOM     28  C   UNL A   1      38.253  29.818  27.719  1.00  0.00     0.010 A 
ATOM     29  C   UNL A   1      38.575  29.230  28.952  1.00  0.00    -0.014 A 
BRANCH  29  30
ATOM     30  C   UNL A   1      39.956  28.744  29.196  1.00  0.00     0.031 A 
ATOM     31  C   UNL A   1      40.947  29.630  29.904  1.00  0.00     0.074 A 
ATOM     32  C   UNL A   1      40.326  27.519  28.784  1.00  0.00     0.049 A 
ATOM     33  N   UNL A   1      42.220  29.427  30.134  1.00  0.00    -0.248 NA
ATOM     34  C   UNL A   1      40.440  30.913  30.415  1.00  0.00     0.031 C 
ATOM     35  C   UNL A   1      39.456  26.550  28.119  1.00  0.00     0.029 A 
ATOM     36  N   UNL A   1      41.538  26.880  28.872  1.00  0.00    -0.354 N 
ATOM     37  C   UNL A   1      42.671  30.565  30.792  1.00  0.00     0.074 A 
ATOM     38  C   UNL A   1      41.540  31.460  30.915  1.00  0.00     0.031 C 
ATOM     39  C   UNL A   1      40.154  25.427  27.884  1.00  0.00     0.029 A 
ATOM     40  C   UNL A   1      41.529  25.617  28.335  1.00  0.00     0.049 A 
ATOM     41  H   UNL A   1      42.334  27.288  29.280  1.00  0.00     0.167 HD
ATOM     42  C   UNL A   1      43.915  30.842  31.251  1.00  0.00     0.031 A 
ATOM     43  C   UNL A   1      42.522  24.718  28.207  1.00  0.00     0.031 A 
ATOM     44  C   UNL A   1      45.043  29.957  31.136  1.00  0.00     0.049 A 
ATOM     45  C   UNL A   1      43.900  25.062  28.689  1.00  0.00     0.074 A 
ATOM     46  C   UNL A   1      46.345  30.154  31.563  1.00  0.00     0.029 A 
ATOM     47  N   UNL A   1      44.998  28.700  30.556  1.00  0.00    -0.354 N 
ATOM     48  N   UNL A   1      44.319  26.156  29.278  1.00  0.00    -0.248 NA
ATOM     49  C   UNL A   1      44.945  24.049  28.482  1.00  0.00     0.031 C 
ATOM     50  C   UNL A   1      47.095  29.025  31.216  1.00  0.00     0.029 A 
ATOM     51  C   UNL A   1      46.250  28.111  30.606  1.00  0.00     0.049 A 
ATOM     52  H   UNL A   1      44.195  28.286  30.165  1.00  0.00     0.167 HD
ATOM     53  C   UNL A   1      45.670  25.958  29.525  1.00  0.00     0.074 A 
ATOM     54  C   UNL A   1      45.999  24.635  29.034  1.00  0.00     0.031 C 
ATOM     55  C   UNL A   1      46.559  26.798  30.108  1.00  0.00     0.031 A 
BRANCH  42  56
ATOM     56  C   UNL A   1      44.124  32.182  31.896  1.00  0.00    -0.014 A 
ATOM     57  C   UNL A   1      44.477  33.308  31.136  1.00  0.00     0.009 A 
ATOM     58  C   UNL A   1      43.944  32.324  33.281  1.00  0.00     0.009 A 
ATOM     59  C   UNL A   1      44.674  34.544  31.757  1.00  0.00     0.001 A 
ATOM     60  C   UNL A   1      44.122  33.565  33.894  1.00  0.00     0.001 A 
ATOM     61  C   UNL A   1      44.493  34.673  33.133  1.00  0.00     0.000 A 
ENDBRANCH  42  56
BRANCH  43  62
ATOM     62  C   UNL A   1      42.240  23.397  27.592  1.00  0.00    -0.014 A 
ATOM     63  C   UNL A   1      41.700  22.359  28.364  1.00  0.00     0.009 A 
ATOM     64  C   UNL A   1      42.485  23.178  26.228  1.00  0.00     0.009 A 
ATOM     65  C   UNL A   1      41.415  21.123  27.782  1.00  0.00     0.001 A 
ATOM     66  C   UNL A   1      42.180  21.947  25.645  1.00  0.00     0.001 A 
ATOM     67  C   UNL A   1      41.648  20.919  26.423  1.00  0.00     0.000 A 
ENDBRANCH  43  62
BRANCH  55  68
ATOM     68  C   UNL A   1      47.963  26.293  30.265  1.00  0.00    -0.014 A 
ATOM     69  C   UNL A   1      48.387  25.695  31.461  1.00  0.00     0.009 A 
ATOM     70  C   UNL A   1      48.866  26.406  29.196  1.00  0.00     0.009 A 
ATOM     71  C   UNL A   1      49.703  25.249  31.595  1.00  0.00     0.001 A 
ATOM     72  C   UNL A   1      50.175  25.942  29.328  1.00  0.00     0.001 A 
ATOM     73  C   UNL A   1      50.595  25.371  30.530  1.00  0.00     0.000 A 
ENDBRANCH  55  68
ENDBRANCH  29  30
ENDBRANCH  22  24
ENDBRANCH  21  22
ENDBRANCH  20  21
ENDBRANCH   1  20
TORSDOF 16
ENDMDL
