MODEL 1
REMARK VINA RESULT:     -10.0      0.000      0.000
REMARK SMILES CC(C)c1cc(=O)[nH]c(SCC(=O)OCCOC(=O)c2ccc(-c3c4nc(c(-c5ccccc5)c5ccc([nH]5)c(-c5ccccc5)c5nc(c(-c6ccccc6)c6ccc3[nH]6)C=C5)C=C4)cc2)n1
REMARK SMILES IDX 15 1 14 2 12 3 13 4 11 5 10 6 9 7 4 8 5 9 68 10 6 11 7 12
REMARK SMILES IDX 8 13 2 15 1 16 3 17 16 18 17 19 18 20 19 21 20 22 21 23
REMARK SMILES IDX 67 24 22 25 66 26 23 27 24 28 25 29 60 30 26 31 65 32 59 33
REMARK SMILES IDX 61 34 27 35 64 36 58 37 57 38 28 40 50 41 35 42 49 43 36 44
REMARK SMILES IDX 39 45 48 46 62 47 37 48 38 49 47 51 63 52 40 53 29 54 30 55
REMARK SMILES IDX 34 56 31 57 33 58 32 59 51 60 52 61 56 62 53 63 55 64 54 65
REMARK SMILES IDX 41 66 42 67 46 68 43 69 45 70 44 71
REMARK H PARENT 8 14 61 39 39 50
REMARK Flexibility Score: inf
ROOT
ATOM      1  C   UNL A   1      42.229  19.645  26.223  1.00  0.00     0.274 C 
ENDROOT
BRANCH   1   2
ATOM      2  O   UNL A   1      40.865  19.388  25.829  1.00  0.00    -0.461 OA
BRANCH   2   3
ATOM      3  C   UNL A   1      39.948  20.303  26.236  1.00  0.00     0.316 C 
ATOM      4  O   UNL A   1      40.137  21.099  27.153  1.00  0.00    -0.251 OA
BRANCH   3   5
ATOM      5  C   UNL A   1      38.660  20.331  25.444  1.00  0.00     0.200 C 
BRANCH   5   6
ATOM      6  S   UNL A   1      37.793  21.907  25.392  1.00  0.00    -0.076 SA
BRANCH   6   7
ATOM      7  C   UNL A   1      36.137  21.432  25.608  1.00  0.00     0.168 A 
ATOM      8  C   UNL A   1      34.200  20.285  25.231  1.00  0.00     0.051 A 
ATOM      9  C   UNL A   1      33.584  20.851  26.279  1.00  0.00     0.095 A 
ATOM     10  N   UNL A   1      35.494  20.611  24.849  1.00  0.00    -0.229 NA
ATOM     11  C   UNL A   1      34.316  21.843  27.074  1.00  0.00     0.251 A 
ATOM     12  O   UNL A   1      33.790  22.423  28.015  1.00  0.00    -0.269 OA
ATOM     13  N   UNL A   1      35.602  22.048  26.692  1.00  0.00    -0.301 N 
ATOM     14  H   UNL A   1      36.163  22.663  27.218  1.00  0.00     0.172 HD
BRANCH   8  15
ATOM     15  C   UNL A   1      33.532  19.180  24.421  1.00  0.00     0.032 C 
ATOM     16  C   UNL A   1      33.023  17.970  25.210  1.00  0.00     0.014 C 
ATOM     17  C   UNL A   1      32.419  19.744  23.555  1.00  0.00     0.014 C 
ENDBRANCH   8  15
ENDBRANCH   6   7
ENDBRANCH   5   6
ENDBRANCH   3   5
ENDBRANCH   2   3
ENDBRANCH   1   2
BRANCH   1  18
ATOM     18  C   UNL A   1      43.216  18.704  25.530  1.00  0.00     0.275 C 
BRANCH  18  19
ATOM     19  O   UNL A   1      43.581  19.197  24.223  1.00  0.00    -0.458 OA
BRANCH  19  20
ATOM     20  C   UNL A   1      44.888  19.529  24.133  1.00  0.00     0.338 C 
ATOM     21  O   UNL A   1      45.787  18.765  23.817  1.00  0.00    -0.246 OA
BRANCH  20  22
ATOM     22  C   UNL A   1      45.144  20.934  24.501  1.00  0.00     0.060 A 
ATOM     23  C   UNL A   1      45.733  21.262  25.725  1.00  0.00     0.016 A 
ATOM     24  C   UNL A   1      44.623  21.944  23.688  1.00  0.00     0.016 A 
ATOM     25  C   UNL A   1      45.779  22.596  26.148  1.00  0.00     0.010 A 
ATOM     26  C   UNL A   1      44.699  23.282  24.098  1.00  0.00     0.010 A 
ATOM     27  C   UNL A   1      45.266  23.619  25.338  1.00  0.00    -0.014 A 
BRANCH  27  28
ATOM     28  C   UNL A   1      45.409  25.045  25.730  1.00  0.00     0.031 A 
ATOM     29  C   UNL A   1      46.720  25.772  25.637  1.00  0.00     0.074 A 
ATOM     30  C   UNL A   1      44.333  25.694  26.204  1.00  0.00     0.049 A 
ATOM     31  N   UNL A   1      47.097  26.904  26.175  1.00  0.00    -0.248 NA
ATOM     32  C   UNL A   1      47.750  25.131  24.823  1.00  0.00     0.031 C 
ATOM     33  C   UNL A   1      42.983  25.140  26.283  1.00  0.00     0.029 A 
ATOM     34  N   UNL A   1      44.215  26.961  26.709  1.00  0.00    -0.354 N 
ATOM     35  C   UNL A   1      48.434  27.066  25.819  1.00  0.00     0.074 A 
ATOM     36  C   UNL A   1      48.799  25.917  25.020  1.00  0.00     0.031 C 
ATOM     37  C   UNL A   1      42.166  26.066  26.808  1.00  0.00     0.029 A 
ATOM     38  C   UNL A   1      42.950  27.247  27.152  1.00  0.00     0.049 A 
ATOM     39  H   UNL A   1      44.962  27.600  26.749  1.00  0.00     0.167 HD
ATOM     40  C   UNL A   1      49.272  28.089  26.117  1.00  0.00     0.031 A 
ATOM     41  C   UNL A   1      42.483  28.330  27.799  1.00  0.00     0.031 A 
ATOM     42  C   UNL A   1      48.869  29.278  26.820  1.00  0.00     0.049 A 
ATOM     43  C   UNL A   1      43.420  29.454  28.126  1.00  0.00     0.074 A 
ATOM     44  C   UNL A   1      49.625  30.388  27.153  1.00  0.00     0.029 A 
ATOM     45  N   UNL A   1      47.578  29.526  27.257  1.00  0.00    -0.354 N 
ATOM     46  N   UNL A   1      44.705  29.554  27.881  1.00  0.00    -0.248 NA
ATOM     47  C   UNL A   1      42.842  30.612  28.819  1.00  0.00     0.031 C 
ATOM     48  C   UNL A   1      48.791  31.305  27.803  1.00  0.00     0.029 A 
ATOM     49  C   UNL A   1      47.511  30.777  27.846  1.00  0.00     0.049 A 
ATOM     50  H   UNL A   1      46.820  28.905  27.164  1.00  0.00     0.167 HD
ATOM     51  C   UNL A   1      45.087  30.792  28.377  1.00  0.00     0.074 A 
ATOM     52  C   UNL A   1      43.895  31.411  28.924  1.00  0.00     0.031 C 
ATOM     53  C   UNL A   1      46.314  31.367  28.381  1.00  0.00     0.031 A 
BRANCH  40  54
ATOM     54  C   UNL A   1      50.713  27.965  25.698  1.00  0.00    -0.014 A 
ATOM     55  C   UNL A   1      51.687  27.424  26.552  1.00  0.00     0.009 A 
ATOM     56  C   UNL A   1      51.091  28.355  24.402  1.00  0.00     0.009 A 
ATOM     57  C   UNL A   1      53.015  27.309  26.128  1.00  0.00     0.001 A 
ATOM     58  C   UNL A   1      52.411  28.213  23.972  1.00  0.00     0.001 A 
ATOM     59  C   UNL A   1      53.375  27.700  24.838  1.00  0.00     0.000 A 
ENDBRANCH  40  54
BRANCH  41  60
ATOM     60  C   UNL A   1      41.054  28.372  28.190  1.00  0.00    -0.014 A 
ATOM     61  C   UNL A   1      40.640  27.843  29.420  1.00  0.00     0.009 A 
ATOM     62  C   UNL A   1      40.111  28.999  27.360  1.00  0.00     0.009 A 
ATOM     63  C   UNL A   1      39.303  27.936  29.810  1.00  0.00     0.001 A 
ATOM     64  C   UNL A   1      38.780  29.112  27.764  1.00  0.00     0.001 A 
ATOM     65  C   UNL A   1      38.377  28.578  28.986  1.00  0.00     0.000 A 
ENDBRANCH  41  60
BRANCH  53  66
ATOM     66  C   UNL A   1      46.413  32.744  28.967  1.00  0.00    -0.014 A 
ATOM     67  C   UNL A   1      46.205  33.882  28.174  1.00  0.00     0.009 A 
ATOM     68  C   UNL A   1      46.696  32.901  30.332  1.00  0.00     0.009 A 
ATOM     69  C   UNL A   1      46.309  35.156  28.733  1.00  0.00     0.001 A 
ATOM     70  C   UNL A   1      46.780  34.175  30.892  1.00  0.00     0.001 A 
ATOM     71  C   UNL A   1      46.595  35.302  30.091  1.00  0.00     0.000 A 
ENDBRANCH  53  66
ENDBRANCH  27  28
ENDBRANCH  20  22
ENDBRANCH  19  20
ENDBRANCH  18  19
ENDBRANCH   1  18
TORSDOF 14
ENDMDL
MODEL 2
REMARK VINA RESULT:     -10.0      5.733     10.620
REMARK SMILES CC(C)c1cc(=O)[nH]c(SCC(=O)OCCOC(=O)c2ccc(-c3c4nc(c(-c5ccccc5)c5ccc([nH]5)c(-c5ccccc5)c5nc(c(-c6ccccc6)c6ccc3[nH]6)C=C5)C=C4)cc2)n1
REMARK SMILES IDX 15 1 14 2 12 3 13 4 11 5 10 6 9 7 4 8 5 9 68 10 6 11 7 12
REMARK SMILES IDX 8 13 2 15 1 16 3 17 16 18 17 19 18 20 19 21 20 22 21 23
REMARK SMILES IDX 67 24 22 25 66 26 23 27 24 28 25 29 60 30 26 31 65 32 59 33
REMARK SMILES IDX 61 34 27 35 64 36 58 37 57 38 28 40 50 41 35 42 49 43 36 44
REMARK SMILES IDX 39 45 48 46 62 47 37 48 38 49 47 51 63 52 40 53 29 54 30 55
REMARK SMILES IDX 34 56 31 57 33 58 32 59 51 60 52 61 56 62 53 63 55 64 54 65
REMARK SMILES IDX 41 66 42 67 46 68 43 69 45 70 44 71
REMARK H PARENT 8 14 61 39 39 50
REMARK Flexibility Score: inf
ROOT
ATOM      1  C   UNL A   1      34.315  35.115  33.039  1.00  0.00     0.274 C 
ENDROOT
BRANCH   1   2
ATOM      2  O   UNL A   1      34.386  36.195  32.085  1.00  0.00    -0.461 OA
BRANCH   2   3
ATOM      3  C   UNL A   1      33.373  36.257  31.183  1.00  0.00     0.316 C 
ATOM      4  O   UNL A   1      32.624  37.223  31.061  1.00  0.00    -0.251 OA
BRANCH   3   5
ATOM      5  C   UNL A   1      33.241  35.059  30.270  1.00  0.00     0.200 C 
BRANCH   5   6
ATOM      6  S   UNL A   1      34.528  34.863  29.026  1.00  0.00    -0.076 SA
BRANCH   6   7
ATOM      7  C   UNL A   1      34.078  33.375  28.251  1.00  0.00     0.168 A 
ATOM      8  C   UNL A   1      34.290  31.223  27.523  1.00  0.00     0.051 A 
ATOM      9  C   UNL A   1      33.028  31.183  27.068  1.00  0.00     0.095 A 
ATOM     10  N   UNL A   1      34.853  32.358  28.089  1.00  0.00    -0.229 NA
ATOM     11  C   UNL A   1      32.197  32.386  27.195  1.00  0.00     0.251 A 
ATOM     12  O   UNL A   1      31.053  32.422  26.760  1.00  0.00    -0.269 OA
ATOM     13  N   UNL A   1      32.788  33.427  27.832  1.00  0.00    -0.301 N 
ATOM     14  H   UNL A   1      32.265  34.245  27.996  1.00  0.00     0.172 HD
BRANCH   8  15
ATOM     15  C   UNL A   1      35.176  29.982  27.508  1.00  0.00     0.032 C 
ATOM     16  C   UNL A   1      35.819  29.590  28.842  1.00  0.00     0.014 C 
ATOM     17  C   UNL A   1      34.434  28.797  26.918  1.00  0.00     0.014 C 
ENDBRANCH   8  15
ENDBRANCH   6   7
ENDBRANCH   5   6
ENDBRANCH   3   5
ENDBRANCH   2   3
ENDBRANCH   1   2
BRANCH   1  18
ATOM     18  C   UNL A   1      35.694  34.530  33.349  1.00  0.00     0.275 C 
BRANCH  18  19
ATOM     19  O   UNL A   1      35.631  33.096  33.509  1.00  0.00    -0.458 OA
BRANCH  19  20
ATOM     20  C   UNL A   1      35.486  32.443  32.335  1.00  0.00     0.338 C 
ATOM     21  O   UNL A   1      34.419  32.197  31.793  1.00  0.00    -0.246 OA
BRANCH  20  22
ATOM     22  C   UNL A   1      36.774  32.004  31.766  1.00  0.00     0.060 A 
ATOM     23  C   UNL A   1      37.205  32.465  30.520  1.00  0.00     0.016 A 
ATOM     24  C   UNL A   1      37.474  30.978  32.407  1.00  0.00     0.016 A 
ATOM     25  C   UNL A   1      38.321  31.886  29.902  1.00  0.00     0.010 A 
ATOM     26  C   UNL A   1      38.608  30.421  31.803  1.00  0.00     0.010 A 
ATOM     27  C   UNL A   1      39.035  30.861  30.539  1.00  0.00    -0.014 A 
BRANCH  27  28
ATOM     28  C   UNL A   1      40.281  30.316  29.940  1.00  0.00     0.031 A 
ATOM     29  C   UNL A   1      41.544  31.123  29.851  1.00  0.00     0.074 A 
ATOM     30  C   UNL A   1      40.265  29.068  29.445  1.00  0.00     0.049 A 
ATOM     31  N   UNL A   1      42.623  30.926  29.136  1.00  0.00    -0.248 NA
ATOM     32  C   UNL A   1      41.597  32.322  30.685  1.00  0.00     0.031 C 
ATOM     33  C   UNL A   1      39.136  28.143  29.526  1.00  0.00     0.029 A 
ATOM     34  N   UNL A   1      41.233  28.370  28.773  1.00  0.00    -0.354 N 
ATOM     35  C   UNL A   1      43.447  32.021  29.385  1.00  0.00     0.074 A 
ATOM     36  C   UNL A   1      42.743  32.875  30.316  1.00  0.00     0.031 C 
ATOM     37  C   UNL A   1      39.476  26.993  28.924  1.00  0.00     0.029 A 
ATOM     38  C   UNL A   1      40.819  27.128  28.369  1.00  0.00     0.049 A 
ATOM     39  H   UNL A   1      42.134  28.725  28.597  1.00  0.00     0.167 HD
ATOM     40  C   UNL A   1      44.685  32.278  28.896  1.00  0.00     0.031 A 
ATOM     41  C   UNL A   1      41.440  26.213  27.605  1.00  0.00     0.031 A 
ATOM     42  C   UNL A   1      45.420  31.370  28.057  1.00  0.00     0.049 A 
ATOM     43  C   UNL A   1      42.808  26.509  27.067  1.00  0.00     0.074 A 
ATOM     44  C   UNL A   1      46.690  31.513  27.524  1.00  0.00     0.029 A 
ATOM     45  N   UNL A   1      44.961  30.122  27.666  1.00  0.00    -0.354 N 
ATOM     46  N   UNL A   1      43.537  27.589  27.217  1.00  0.00    -0.248 NA
ATOM     47  C   UNL A   1      43.436  25.461  26.252  1.00  0.00     0.031 C 
ATOM     48  C   UNL A   1      46.995  30.354  26.802  1.00  0.00     0.029 A 
ATOM     49  C   UNL A   1      45.926  29.478  26.911  1.00  0.00     0.049 A 
ATOM     50  H   UNL A   1      44.079  29.748  27.892  1.00  0.00     0.167 HD
ATOM     51  C   UNL A   1      44.717  27.346  26.529  1.00  0.00     0.074 A 
ATOM     52  C   UNL A   1      44.610  26.012  25.972  1.00  0.00     0.031 C 
ATOM     53  C   UNL A   1      45.793  28.153  26.370  1.00  0.00     0.031 A 
BRANCH  40  54
ATOM     54  C   UNL A   1      45.319  33.599  29.241  1.00  0.00    -0.014 A 
ATOM     55  C   UNL A   1      46.095  33.767  30.398  1.00  0.00     0.009 A 
ATOM     56  C   UNL A   1      45.175  34.684  28.360  1.00  0.00     0.009 A 
ATOM     57  C   UNL A   1      46.684  35.004  30.683  1.00  0.00     0.001 A 
ATOM     58  C   UNL A   1      45.785  35.910  28.633  1.00  0.00     0.001 A 
ATOM     59  C   UNL A   1      46.531  36.072  29.798  1.00  0.00     0.000 A 
ENDBRANCH  40  54
BRANCH  41  60
ATOM     60  C   UNL A   1      40.745  24.941  27.298  1.00  0.00    -0.014 A 
ATOM     61  C   UNL A   1      41.181  23.738  27.870  1.00  0.00     0.009 A 
ATOM     62  C   UNL A   1      39.603  24.937  26.481  1.00  0.00     0.009 A 
ATOM     63  C   UNL A   1      40.489  22.551  27.625  1.00  0.00     0.001 A 
ATOM     64  C   UNL A   1      38.899  23.753  26.258  1.00  0.00     0.001 A 
ATOM     65  C   UNL A   1      39.345  22.561  26.827  1.00  0.00     0.000 A 
ENDBRANCH  41  60
BRANCH  53  66
ATOM     66  C   UNL A   1      46.947  27.596  25.590  1.00  0.00    -0.014 A 
ATOM     67  C   UNL A   1      47.060  27.819  24.210  1.00  0.00     0.009 A 
ATOM     68  C   UNL A   1      47.942  26.859  26.250  1.00  0.00     0.009 A 
ATOM     69  C   UNL A   1      48.135  27.288  23.498  1.00  0.00     0.001 A 
ATOM     70  C   UNL A   1      49.026  26.345  25.539  1.00  0.00     0.001 A 
ATOM     71  C   UNL A   1      49.118  26.552  24.163  1.00  0.00     0.000 A 
ENDBRANCH  53  66
ENDBRANCH  27  28
ENDBRANCH  20  22
ENDBRANCH  19  20
ENDBRANCH  18  19
ENDBRANCH   1  18
TORSDOF 14
ENDMDL
MODEL 3
REMARK VINA RESULT:      -9.7      5.991      9.563
REMARK SMILES CC(C)c1cc(=O)[nH]c(SCC(=O)OCCOC(=O)c2ccc(-c3c4nc(c(-c5ccccc5)c5ccc([nH]5)c(-c5ccccc5)c5nc(c(-c6ccccc6)c6ccc3[nH]6)C=C5)C=C4)cc2)n1
REMARK SMILES IDX 15 1 14 2 12 3 13 4 11 5 10 6 9 7 4 8 5 9 68 10 6 11 7 12
REMARK SMILES IDX 8 13 2 15 1 16 3 17 16 18 17 19 18 20 19 21 20 22 21 23
REMARK SMILES IDX 67 24 22 25 66 26 23 27 24 28 25 29 60 30 26 31 65 32 59 33
REMARK SMILES IDX 61 34 27 35 64 36 58 37 57 38 28 40 50 41 35 42 49 43 36 44
REMARK SMILES IDX 39 45 48 46 62 47 37 48 38 49 47 51 63 52 40 53 29 54 30 55
REMARK SMILES IDX 34 56 31 57 33 58 32 59 51 60 52 61 56 62 53 63 55 64 54 65
REMARK SMILES IDX 41 66 42 67 46 68 43 69 45 70 44 71
REMARK H PARENT 8 14 61 39 39 50
REMARK Flexibility Score: inf
ROOT
ATOM      1  C   UNL A   1      31.414  28.158  25.101  1.00  0.00     0.274 C 
ENDROOT
BRANCH   1   2
ATOM      2  O   UNL A   1      30.319  27.706  24.277  1.00  0.00    -0.461 OA
BRANCH   2   3
ATOM      3  C   UNL A   1      30.636  27.380  22.998  1.00  0.00     0.316 C 
ATOM      4  O   UNL A   1      30.344  28.071  22.024  1.00  0.00    -0.251 OA
BRANCH   3   5
ATOM      5  C   UNL A   1      31.440  26.110  22.830  1.00  0.00     0.200 C 
BRANCH   5   6
ATOM      6  S   UNL A   1      30.560  24.568  23.126  1.00  0.00    -0.076 SA
BRANCH   6   7
ATOM      7  C   UNL A   1      31.253  24.022  24.622  1.00  0.00     0.168 A 
ATOM      8  C   UNL A   1      32.886  23.496  26.127  1.00  0.00     0.051 A 
ATOM      9  C   UNL A   1      31.998  23.231  27.097  1.00  0.00     0.095 A 
ATOM     10  N   UNL A   1      32.514  23.857  24.840  1.00  0.00    -0.229 NA
ATOM     11  C   UNL A   1      30.568  23.350  26.792  1.00  0.00     0.251 A 
ATOM     12  O   UNL A   1      29.711  23.080  27.624  1.00  0.00    -0.269 OA
ATOM     13  N   UNL A   1      30.282  23.787  25.539  1.00  0.00    -0.301 N 
ATOM     14  H   UNL A   1      29.342  23.938  25.290  1.00  0.00     0.172 HD
BRANCH   8  15
ATOM     15  C   UNL A   1      34.385  23.483  26.402  1.00  0.00     0.032 C 
ATOM     16  C   UNL A   1      35.047  22.106  26.502  1.00  0.00     0.014 C 
ATOM     17  C   UNL A   1      35.125  24.346  25.396  1.00  0.00     0.014 C 
ENDBRANCH   8  15
ENDBRANCH   6   7
ENDBRANCH   5   6
ENDBRANCH   3   5
ENDBRANCH   2   3
ENDBRANCH   1   2
BRANCH   1  18
ATOM     18  C   UNL A   1      31.548  29.682  25.097  1.00  0.00     0.275 C 
BRANCH  18  19
ATOM     19  O   UNL A   1      32.899  30.090  25.400  1.00  0.00    -0.458 OA
BRANCH  19  20
ATOM     20  C   UNL A   1      33.007  30.697  26.603  1.00  0.00     0.338 C 
ATOM     21  O   UNL A   1      32.150  31.399  27.116  1.00  0.00    -0.246 OA
BRANCH  20  22
ATOM     22  C   UNL A   1      34.313  30.456  27.246  1.00  0.00     0.060 A 
ATOM     23  C   UNL A   1      34.698  29.170  27.634  1.00  0.00     0.016 A 
ATOM     24  C   UNL A   1      35.084  31.558  27.627  1.00  0.00     0.016 A 
ATOM     25  C   UNL A   1      35.840  28.987  28.424  1.00  0.00     0.010 A 
ATOM     26  C   UNL A   1      36.243  31.370  28.391  1.00  0.00     0.010 A 
ATOM     27  C   UNL A   1      36.625  30.084  28.807  1.00  0.00    -0.014 A 
BRANCH  27  28
ATOM     28  C   UNL A   1      37.895  29.887  29.553  1.00  0.00     0.031 A 
ATOM     29  C   UNL A   1      39.039  29.094  28.988  1.00  0.00     0.074 A 
ATOM     30  C   UNL A   1      38.010  30.419  30.780  1.00  0.00     0.049 A 
ATOM     31  N   UNL A   1      40.092  28.593  29.582  1.00  0.00    -0.248 NA
ATOM     32  C   UNL A   1      38.985  28.828  27.553  1.00  0.00     0.031 C 
ATOM     33  C   UNL A   1      37.014  31.272  31.426  1.00  0.00     0.029 A 
ATOM     34  N   UNL A   1      39.020  30.315  31.699  1.00  0.00    -0.354 N 
ATOM     35  C   UNL A   1      40.784  27.892  28.597  1.00  0.00     0.074 A 
ATOM     36  C   UNL A   1      40.030  28.034  27.371  1.00  0.00     0.031 C 
ATOM     37  C   UNL A   1      37.463  31.615  32.643  1.00  0.00     0.029 A 
ATOM     38  C   UNL A   1      38.745  30.959  32.877  1.00  0.00     0.049 A 
ATOM     39  H   UNL A   1      39.858  29.826  31.531  1.00  0.00     0.167 HD
ATOM     40  C   UNL A   1      41.950  27.209  28.704  1.00  0.00     0.031 A 
ATOM     41  C   UNL A   1      39.434  30.987  34.031  1.00  0.00     0.031 A 
ATOM     42  C   UNL A   1      42.747  27.166  29.901  1.00  0.00     0.049 A 
ATOM     43  C   UNL A   1      40.722  30.226  34.139  1.00  0.00     0.074 A 
ATOM     44  C   UNL A   1      43.957  26.529  30.116  1.00  0.00     0.029 A 
ATOM     45  N   UNL A   1      42.430  27.828  31.075  1.00  0.00    -0.354 N 
ATOM     46  N   UNL A   1      41.315  29.479  33.239  1.00  0.00    -0.248 NA
ATOM     47  C   UNL A   1      41.432  30.312  35.421  1.00  0.00     0.031 C 
ATOM     48  C   UNL A   1      44.366  26.799  31.428  1.00  0.00     0.029 A 
ATOM     49  C   UNL A   1      43.425  27.628  32.016  1.00  0.00     0.049 A 
ATOM     50  H   UNL A   1      41.615  28.363  31.220  1.00  0.00     0.167 HD
ATOM     51  C   UNL A   1      42.477  29.016  33.841  1.00  0.00     0.074 A 
ATOM     52  C   UNL A   1      42.509  29.578  35.177  1.00  0.00     0.031 C 
ATOM     53  C   UNL A   1      43.432  28.198  33.336  1.00  0.00     0.031 A 
BRANCH  40  54
ATOM     54  C   UNL A   1      42.430  26.440  27.502  1.00  0.00    -0.014 A 
ATOM     55  C   UNL A   1      42.033  25.116  27.264  1.00  0.00     0.009 A 
ATOM     56  C   UNL A   1      43.262  27.076  26.564  1.00  0.00     0.009 A 
ATOM     57  C   UNL A   1      42.485  24.434  26.130  1.00  0.00     0.001 A 
ATOM     58  C   UNL A   1      43.690  26.402  25.419  1.00  0.00     0.001 A 
ATOM     59  C   UNL A   1      43.309  25.078  25.207  1.00  0.00     0.000 A 
ENDBRANCH  40  54
BRANCH  41  60
ATOM     60  C   UNL A   1      38.890  31.756  35.174  1.00  0.00    -0.014 A 
ATOM     61  C   UNL A   1      39.047  33.148  35.232  1.00  0.00     0.009 A 
ATOM     62  C   UNL A   1      38.157  31.107  36.180  1.00  0.00     0.009 A 
ATOM     63  C   UNL A   1      38.483  33.876  36.280  1.00  0.00     0.001 A 
ATOM     64  C   UNL A   1      37.574  31.841  37.214  1.00  0.00     0.001 A 
ATOM     65  C   UNL A   1      37.740  33.223  37.265  1.00  0.00     0.000 A 
ENDBRANCH  41  60
BRANCH  53  66
ATOM     66  C   UNL A   1      44.601  27.895  34.224  1.00  0.00    -0.014 A 
ATOM     67  C   UNL A   1      44.529  26.882  35.192  1.00  0.00     0.009 A 
ATOM     68  C   UNL A   1      45.795  28.618  34.073  1.00  0.00     0.009 A 
ATOM     69  C   UNL A   1      45.624  26.619  36.014  1.00  0.00     0.001 A 
ATOM     70  C   UNL A   1      46.894  28.338  34.885  1.00  0.00     0.001 A 
ATOM     71  C   UNL A   1      46.806  27.346  35.860  1.00  0.00     0.000 A 
ENDBRANCH  53  66
ENDBRANCH  27  28
ENDBRANCH  20  22
ENDBRANCH  19  20
ENDBRANCH  18  19
ENDBRANCH   1  18
TORSDOF 14
ENDMDL
