MODEL 1
REMARK VINA RESULT:     -11.1      0.000      0.000
REMARK SMILES C[C@H]1[C@H](C(=O)OCCOC(=O)c2ccc(-c3c4nc(c(-c5ccccc5)c5ccc([nH]5)c(-c5ccccc5)c5nc(c(-c6ccccc6)c6ccc3[nH]6)C=C5)C=C4)cc2)CC[N@@H+]1[C@@H](c1ccccc1)c1ccco1
REMARK SMILES IDX 7 1 6 2 4 3 5 4 3 5 1 6 2 7 62 8 60 9 61 10 63 12 64 13
REMARK SMILES IDX 65 14 69 15 66 16 68 17 67 18 70 19 71 20 74 21 72 22 73 23
REMARK SMILES IDX 8 24 9 25 10 26 11 27 12 28 13 29 59 30 14 31 58 32 15 33
REMARK SMILES IDX 16 34 17 35 52 36 18 37 57 38 51 39 53 40 19 41 56 42 50 43
REMARK SMILES IDX 49 44 20 46 42 47 27 48 41 49 28 50 31 51 40 52 54 53 29 54
REMARK SMILES IDX 30 55 39 57 55 58 32 59 21 60 22 61 26 62 23 63 25 64 24 65
REMARK SMILES IDX 43 66 44 67 48 68 45 69 47 70 46 71 33 72 34 73 38 74 35 75
REMARK SMILES IDX 37 76 36 77
REMARK H PARENT 62 11 53 45 31 56
REMARK Flexibility Score: inf
ROOT
ATOM      1  C   UNL A   1      34.569  21.217  25.191  1.00  0.00     0.274 C 
ENDROOT
BRANCH   1   2
ATOM      2  O   UNL A   1      34.587  22.625  25.494  1.00  0.00    -0.462 OA
BRANCH   2   3
ATOM      3  C   UNL A   1      33.953  23.458  24.638  1.00  0.00     0.315 C 
ATOM      4  O   UNL A   1      34.524  24.232  23.874  1.00  0.00    -0.252 OA
BRANCH   3   5
ATOM      5  C   UNL A   1      32.442  23.320  24.644  1.00  0.00     0.162 C 
ATOM      6  C   UNL A   1      30.773  23.709  26.496  1.00  0.00     0.076 C 
ATOM      7  C   UNL A   1      31.636  24.376  25.412  1.00  0.00     0.196 C 
ATOM      8  N   UNL A   1      30.722  24.990  24.438  1.00  0.00    -0.319 N 
ATOM      9  C   UNL A   1      31.904  23.312  23.222  1.00  0.00     0.083 C 
ATOM     10  C   UNL A   1      30.615  24.100  23.287  1.00  0.00     0.264 C 
ATOM     11  H   UNL A   1      29.788  25.064  24.842  1.00  0.00     0.349 HD
BRANCH   8  12
ATOM     12  C   UNL A   1      30.966  26.425  24.168  1.00  0.00     0.283 C 
BRANCH  12  13
ATOM     13  C   UNL A   1      29.754  27.260  23.741  1.00  0.00     0.017 A 
ATOM     14  C   UNL A   1      29.954  28.496  23.098  1.00  0.00     0.010 A 
ATOM     15  C   UNL A   1      28.430  26.853  23.975  1.00  0.00     0.010 A 
ATOM     16  C   UNL A   1      28.873  29.283  22.692  1.00  0.00     0.001 A 
ATOM     17  C   UNL A   1      27.349  27.626  23.546  1.00  0.00     0.001 A 
ATOM     18  C   UNL A   1      27.571  28.842  22.906  1.00  0.00     0.000 A 
ENDBRANCH  12  13
BRANCH  12  19
ATOM     19  C   UNL A   1      31.812  27.038  25.262  1.00  0.00     0.165 A 
ATOM     20  C   UNL A   1      33.178  27.221  25.377  1.00  0.00     0.052 A 
ATOM     21  O   UNL A   1      31.197  27.495  26.394  1.00  0.00    -0.463 OA
ATOM     22  C   UNL A   1      33.403  27.812  26.642  1.00  0.00     0.042 A 
ATOM     23  C   UNL A   1      32.165  27.961  27.219  1.00  0.00     0.195 A 
ENDBRANCH  12  19
ENDBRANCH   8  12
ENDBRANCH   3   5
ENDBRANCH   2   3
ENDBRANCH   1   2
BRANCH   1  24
ATOM     24  C   UNL A   1      35.999  20.690  25.071  1.00  0.00     0.275 C 
BRANCH  24  25
ATOM     25  O   UNL A   1      36.946  21.740  25.333  1.00  0.00    -0.458 OA
BRANCH  25  26
ATOM     26  C   UNL A   1      38.189  21.316  25.658  1.00  0.00     0.338 C 
ATOM     27  O   UNL A   1      38.699  20.234  25.430  1.00  0.00    -0.246 OA
BRANCH  26  28
ATOM     28  C   UNL A   1      38.924  22.437  26.248  1.00  0.00     0.060 A 
ATOM     29  C   UNL A   1      38.451  23.731  26.023  1.00  0.00     0.016 A 
ATOM     30  C   UNL A   1      40.108  22.219  26.945  1.00  0.00     0.016 A 
ATOM     31  C   UNL A   1      39.180  24.829  26.458  1.00  0.00     0.010 A 
ATOM     32  C   UNL A   1      40.822  23.320  27.417  1.00  0.00     0.010 A 
ATOM     33  C   UNL A   1      40.370  24.629  27.161  1.00  0.00    -0.014 A 
BRANCH  33  34
ATOM     34  C   UNL A   1      41.180  25.781  27.604  1.00  0.00     0.031 A 
ATOM     35  C   UNL A   1      40.569  26.794  28.523  1.00  0.00     0.074 A 
ATOM     36  C   UNL A   1      42.439  25.930  27.154  1.00  0.00     0.049 A 
ATOM     37  N   UNL A   1      40.991  27.992  28.829  1.00  0.00    -0.248 NA
ATOM     38  C   UNL A   1      39.305  26.409  29.172  1.00  0.00     0.031 C 
ATOM     39  C   UNL A   1      43.165  24.967  26.323  1.00  0.00     0.029 A 
ATOM     40  N   UNL A   1      43.321  26.967  27.316  1.00  0.00    -0.354 N 
ATOM     41  C   UNL A   1      40.020  28.525  29.666  1.00  0.00     0.074 A 
ATOM     42  C   UNL A   1      38.991  27.520  29.824  1.00  0.00     0.031 C 
ATOM     43  C   UNL A   1      44.379  25.465  26.037  1.00  0.00     0.029 A 
ATOM     44  C   UNL A   1      44.481  26.807  26.600  1.00  0.00     0.049 A 
ATOM     45  H   UNL A   1      43.141  27.747  27.889  1.00  0.00     0.167 HD
ATOM     46  C   UNL A   1      39.991  29.751  30.235  1.00  0.00     0.031 A 
ATOM     47  C   UNL A   1      45.488  27.672  26.373  1.00  0.00     0.031 A 
ATOM     48  C   UNL A   1      41.030  30.732  30.075  1.00  0.00     0.049 A 
ATOM     49  C   UNL A   1      45.400  29.053  26.956  1.00  0.00     0.074 A 
ATOM     50  C   UNL A   1      41.104  32.008  30.603  1.00  0.00     0.029 A 
ATOM     51  N   UNL A   1      42.185  30.535  29.331  1.00  0.00    -0.354 N 
ATOM     52  N   UNL A   1      44.458  29.573  27.706  1.00  0.00    -0.248 NA
ATOM     53  C   UNL A   1      46.505  29.971  26.649  1.00  0.00     0.031 C 
ATOM     54  C   UNL A   1      42.287  32.598  30.146  1.00  0.00     0.029 A 
ATOM     55  C   UNL A   1      42.971  31.672  29.374  1.00  0.00     0.049 A 
ATOM     56  H   UNL A   1      42.409  29.709  28.844  1.00  0.00     0.167 HD
ATOM     57  C   UNL A   1      44.868  30.870  27.984  1.00  0.00     0.074 A 
ATOM     58  C   UNL A   1      46.145  31.056  27.325  1.00  0.00     0.031 C 
ATOM     59  C   UNL A   1      44.245  31.821  28.720  1.00  0.00     0.031 A 
BRANCH  46  60
ATOM     60  C   UNL A   1      38.773  30.115  31.035  1.00  0.00    -0.014 A 
ATOM     61  C   UNL A   1      38.719  29.917  32.423  1.00  0.00     0.009 A 
ATOM     62  C   UNL A   1      37.667  30.685  30.385  1.00  0.00     0.009 A 
ATOM     63  C   UNL A   1      37.569  30.255  33.139  1.00  0.00     0.001 A 
ATOM     64  C   UNL A   1      36.528  31.045  31.107  1.00  0.00     0.001 A 
ATOM     65  C   UNL A   1      36.476  30.822  32.482  1.00  0.00     0.000 A 
ENDBRANCH  46  60
BRANCH  47  66
ATOM     66  C   UNL A   1      46.628  27.270  25.512  1.00  0.00    -0.014 A 
ATOM     67  C   UNL A   1      46.729  27.745  24.196  1.00  0.00     0.009 A 
ATOM     68  C   UNL A   1      47.632  26.422  26.006  1.00  0.00     0.009 A 
ATOM     69  C   UNL A   1      47.805  27.367  23.389  1.00  0.00     0.001 A 
ATOM     70  C   UNL A   1      48.720  26.067  25.207  1.00  0.00     0.001 A 
ATOM     71  C   UNL A   1      48.802  26.534  23.897  1.00  0.00     0.000 A 
ENDBRANCH  47  66
BRANCH  59  72
ATOM     72  C   UNL A   1      44.960  33.127  28.898  1.00  0.00    -0.014 A 
ATOM     73  C   UNL A   1      44.738  34.202  28.027  1.00  0.00     0.009 A 
ATOM     74  C   UNL A   1      45.816  33.299  29.998  1.00  0.00     0.009 A 
ATOM     75  C   UNL A   1      45.375  35.425  28.246  1.00  0.00     0.001 A 
ATOM     76  C   UNL A   1      46.433  34.528  30.226  1.00  0.00     0.001 A 
ATOM     77  C   UNL A   1      46.216  35.588  29.347  1.00  0.00     0.000 A 
ENDBRANCH  59  72
ENDBRANCH  33  34
ENDBRANCH  26  28
ENDBRANCH  25  26
ENDBRANCH  24  25
ENDBRANCH   1  24
TORSDOF 14
ENDMDL
MODEL 2
REMARK VINA RESULT:     -11.1      2.611      6.839
REMARK SMILES C[C@H]1[C@H](C(=O)OCCOC(=O)c2ccc(-c3c4nc(c(-c5ccccc5)c5ccc([nH]5)c(-c5ccccc5)c5nc(c(-c6ccccc6)c6ccc3[nH]6)C=C5)C=C4)cc2)CC[N@@H+]1[C@@H](c1ccccc1)c1ccco1
REMARK SMILES IDX 7 1 6 2 4 3 5 4 3 5 1 6 2 7 62 8 60 9 61 10 63 12 64 13
REMARK SMILES IDX 65 14 69 15 66 16 68 17 67 18 70 19 71 20 74 21 72 22 73 23
REMARK SMILES IDX 8 24 9 25 10 26 11 27 12 28 13 29 59 30 14 31 58 32 15 33
REMARK SMILES IDX 16 34 17 35 52 36 18 37 57 38 51 39 53 40 19 41 56 42 50 43
REMARK SMILES IDX 49 44 20 46 42 47 27 48 41 49 28 50 31 51 40 52 54 53 29 54
REMARK SMILES IDX 30 55 39 57 55 58 32 59 21 60 22 61 26 62 23 63 25 64 24 65
REMARK SMILES IDX 43 66 44 67 48 68 45 69 47 70 46 71 33 72 34 73 38 74 35 75
REMARK SMILES IDX 37 76 36 77
REMARK H PARENT 62 11 53 45 31 56
REMARK Flexibility Score: inf
ROOT
ATOM      1  C   UNL A   1      32.723  27.622  26.598  1.00  0.00     0.274 C 
ENDROOT
BRANCH   1   2
ATOM      2  O   UNL A   1      33.109  26.244  26.434  1.00  0.00    -0.462 OA
BRANCH   2   3
ATOM      3  C   UNL A   1      32.961  25.694  25.208  1.00  0.00     0.315 C 
ATOM      4  O   UNL A   1      33.682  25.942  24.245  1.00  0.00    -0.252 OA
BRANCH   3   5
ATOM      5  C   UNL A   1      31.845  24.669  25.119  1.00  0.00     0.162 C 
ATOM      6  C   UNL A   1      30.993  23.347  23.146  1.00  0.00     0.076 C 
ATOM      7  C   UNL A   1      32.080  23.440  24.230  1.00  0.00     0.196 C 
ATOM      8  N   UNL A   1      31.934  22.265  25.101  1.00  0.00    -0.319 N 
ATOM      9  C   UNL A   1      31.496  24.144  26.502  1.00  0.00     0.083 C 
ATOM     10  C   UNL A   1      31.216  22.672  26.303  1.00  0.00     0.264 C 
ATOM     11  H   UNL A   1      31.358  21.562  24.636  1.00  0.00     0.349 HD
BRANCH   8  12
ATOM     12  C   UNL A   1      33.165  21.462  25.283  1.00  0.00     0.283 C 
BRANCH  12  13
ATOM     13  C   UNL A   1      33.226  20.120  24.545  1.00  0.00     0.017 A 
ATOM     14  C   UNL A   1      34.221  19.185  24.888  1.00  0.00     0.010 A 
ATOM     15  C   UNL A   1      32.333  19.776  23.518  1.00  0.00     0.010 A 
ATOM     16  C   UNL A   1      34.306  17.950  24.240  1.00  0.00     0.001 A 
ATOM     17  C   UNL A   1      32.401  18.532  22.888  1.00  0.00     0.001 A 
ATOM     18  C   UNL A   1      33.388  17.620  23.247  1.00  0.00     0.000 A 
ENDBRANCH  12  13
BRANCH  12  19
ATOM     19  C   UNL A   1      34.395  22.331  25.134  1.00  0.00     0.165 A 
ATOM     20  C   UNL A   1      35.139  23.040  26.061  1.00  0.00     0.052 A 
ATOM     21  O   UNL A   1      34.916  22.529  23.887  1.00  0.00    -0.463 OA
ATOM     22  C   UNL A   1      36.157  23.704  25.339  1.00  0.00     0.042 A 
ATOM     23  C   UNL A   1      35.980  23.358  24.021  1.00  0.00     0.195 A 
ENDBRANCH  12  19
ENDBRANCH   8  12
ENDBRANCH   3   5
ENDBRANCH   2   3
ENDBRANCH   1   2
BRANCH   1  24
ATOM     24  C   UNL A   1      33.967  28.505  26.693  1.00  0.00     0.275 C 
BRANCH  24  25
ATOM     25  O   UNL A   1      34.007  29.184  27.960  1.00  0.00    -0.458 OA
BRANCH  25  26
ATOM     26  C   UNL A   1      34.754  30.311  27.976  1.00  0.00     0.338 C 
ATOM     27  O   UNL A   1      34.384  31.464  27.839  1.00  0.00    -0.246 OA
BRANCH  26  28
ATOM     28  C   UNL A   1      36.132  29.951  28.321  1.00  0.00     0.060 A 
ATOM     29  C   UNL A   1      37.126  30.134  27.358  1.00  0.00     0.016 A 
ATOM     30  C   UNL A   1      36.424  29.365  29.548  1.00  0.00     0.016 A 
ATOM     31  C   UNL A   1      38.420  29.695  27.595  1.00  0.00     0.010 A 
ATOM     32  C   UNL A   1      37.734  28.959  29.803  1.00  0.00     0.010 A 
ATOM     33  C   UNL A   1      38.733  29.107  28.822  1.00  0.00    -0.014 A 
BRANCH  33  34
ATOM     34  C   UNL A   1      40.095  28.600  29.085  1.00  0.00     0.031 A 
ATOM     35  C   UNL A   1      41.132  29.538  29.622  1.00  0.00     0.074 A 
ATOM     36  C   UNL A   1      40.401  27.320  28.808  1.00  0.00     0.049 A 
ATOM     37  N   UNL A   1      42.428  29.388  29.684  1.00  0.00    -0.248 NA
ATOM     38  C   UNL A   1      40.642  30.823  30.147  1.00  0.00     0.031 C 
ATOM     39  C   UNL A   1      39.454  26.296  28.360  1.00  0.00     0.029 A 
ATOM     40  N   UNL A   1      41.607  26.671  28.841  1.00  0.00    -0.354 N 
ATOM     41  C   UNL A   1      42.915  30.579  30.206  1.00  0.00     0.074 A 
ATOM     42  C   UNL A   1      41.777  31.438  30.450  1.00  0.00     0.031 C 
ATOM     43  C   UNL A   1      40.119  25.150  28.147  1.00  0.00     0.029 A 
ATOM     44  C   UNL A   1      41.542  25.382  28.371  1.00  0.00     0.049 A 
ATOM     45  H   UNL A   1      42.437  27.085  29.170  1.00  0.00     0.167 HD
ATOM     46  C   UNL A   1      44.201  30.921  30.444  1.00  0.00     0.031 A 
ATOM     47  C   UNL A   1      42.527  24.508  28.093  1.00  0.00     0.031 A 
ATOM     48  C   UNL A   1      45.318  30.046  30.207  1.00  0.00     0.049 A 
ATOM     49  C   UNL A   1      43.953  24.936  28.297  1.00  0.00     0.074 A 
ATOM     50  C   UNL A   1      46.665  30.290  30.409  1.00  0.00     0.029 A 
ATOM     51  N   UNL A   1      45.210  28.753  29.718  1.00  0.00    -0.354 N 
ATOM     52  N   UNL A   1      44.414  26.078  28.744  1.00  0.00    -0.248 NA
ATOM     53  C   UNL A   1      44.992  23.959  27.944  1.00  0.00     0.031 C 
ATOM     54  C   UNL A   1      47.375  29.154  30.005  1.00  0.00     0.029 A 
ATOM     55  C   UNL A   1      46.467  28.189  29.598  1.00  0.00     0.049 A 
ATOM     56  H   UNL A   1      44.364  28.304  29.490  1.00  0.00     0.167 HD
ATOM     57  C   UNL A   1      45.796  25.951  28.752  1.00  0.00     0.074 A 
ATOM     58  C   UNL A   1      46.097  24.618  28.269  1.00  0.00     0.031 C 
ATOM     59  C   UNL A   1      46.733  26.854  29.129  1.00  0.00     0.031 A 
BRANCH  46  60
ATOM     60  C   UNL A   1      44.467  32.314  30.936  1.00  0.00    -0.014 A 
ATOM     61  C   UNL A   1      44.478  32.621  32.305  1.00  0.00     0.009 A 
ATOM     62  C   UNL A   1      44.733  33.333  30.008  1.00  0.00     0.009 A 
ATOM     63  C   UNL A   1      44.719  33.929  32.733  1.00  0.00     0.001 A 
ATOM     64  C   UNL A   1      44.997  34.634  30.439  1.00  0.00     0.001 A 
ATOM     65  C   UNL A   1      44.981  34.933  31.800  1.00  0.00     0.000 A 
ENDBRANCH  46  60
BRANCH  47  66
ATOM     66  C   UNL A   1      42.195  23.171  27.540  1.00  0.00    -0.014 A 
ATOM     67  C   UNL A   1      41.815  22.122  28.391  1.00  0.00     0.009 A 
ATOM     68  C   UNL A   1      42.241  22.939  26.156  1.00  0.00     0.009 A 
ATOM     69  C   UNL A   1      41.502  20.866  27.867  1.00  0.00     0.001 A 
ATOM     70  C   UNL A   1      41.901  21.691  25.633  1.00  0.00     0.001 A 
ATOM     71  C   UNL A   1      41.539  20.653  26.489  1.00  0.00     0.000 A 
ENDBRANCH  47  66
BRANCH  59  72
ATOM     72  C   UNL A   1      48.166  26.414  29.085  1.00  0.00    -0.014 A 
ATOM     73  C   UNL A   1      48.960  26.633  27.951  1.00  0.00     0.009 A 
ATOM     74  C   UNL A   1      48.742  25.833  30.226  1.00  0.00     0.009 A 
ATOM     75  C   UNL A   1      50.305  26.262  27.955  1.00  0.00     0.001 A 
ATOM     76  C   UNL A   1      50.092  25.485  30.234  1.00  0.00     0.001 A 
ATOM     77  C   UNL A   1      50.871  25.695  29.098  1.00  0.00     0.000 A 
ENDBRANCH  59  72
ENDBRANCH  33  34
ENDBRANCH  26  28
ENDBRANCH  25  26
ENDBRANCH  24  25
ENDBRANCH   1  24
TORSDOF 14
ENDMDL
MODEL 3
REMARK VINA RESULT:     -11.0      3.512      8.701
REMARK SMILES C[C@H]1[C@H](C(=O)OCCOC(=O)c2ccc(-c3c4nc(c(-c5ccccc5)c5ccc([nH]5)c(-c5ccccc5)c5nc(c(-c6ccccc6)c6ccc3[nH]6)C=C5)C=C4)cc2)CC[N@@H+]1[C@@H](c1ccccc1)c1ccco1
REMARK SMILES IDX 7 1 6 2 4 3 5 4 3 5 1 6 2 7 62 8 60 9 61 10 63 12 64 13
REMARK SMILES IDX 65 14 69 15 66 16 68 17 67 18 70 19 71 20 74 21 72 22 73 23
REMARK SMILES IDX 8 24 9 25 10 26 11 27 12 28 13 29 59 30 14 31 58 32 15 33
REMARK SMILES IDX 16 34 17 35 52 36 18 37 57 38 51 39 53 40 19 41 56 42 50 43
REMARK SMILES IDX 49 44 20 46 42 47 27 48 41 49 28 50 31 51 40 52 54 53 29 54
REMARK SMILES IDX 30 55 39 57 55 58 32 59 21 60 22 61 26 62 23 63 25 64 24 65
REMARK SMILES IDX 43 66 44 67 48 68 45 69 47 70 46 71 33 72 34 73 38 74 35 75
REMARK SMILES IDX 37 76 36 77
REMARK H PARENT 62 11 53 45 31 56
REMARK Flexibility Score: inf
ROOT
ATOM      1  C   UNL A   1      32.672  28.504  24.764  1.00  0.00     0.274 C 
ENDROOT
BRANCH   1   2
ATOM      2  O   UNL A   1      32.954  27.436  25.689  1.00  0.00    -0.462 OA
BRANCH   2   3
ATOM      3  C   UNL A   1      32.029  26.458  25.818  1.00  0.00     0.315 C 
ATOM      4  O   UNL A   1      31.409  26.222  26.852  1.00  0.00    -0.252 OA
BRANCH   3   5
ATOM      5  C   UNL A   1      31.758  25.689  24.538  1.00  0.00     0.162 C 
ATOM      6  C   UNL A   1      33.193  25.372  22.486  1.00  0.00     0.076 C 
ATOM      7  C   UNL A   1      32.922  24.900  23.925  1.00  0.00     0.196 C 
ATOM      8  N   UNL A   1      32.480  23.499  23.851  1.00  0.00    -0.319 N 
ATOM      9  C   UNL A   1      30.623  24.699  24.744  1.00  0.00     0.083 C 
ATOM     10  C   UNL A   1      31.026  23.471  23.960  1.00  0.00     0.264 C 
ATOM     11  H   UNL A   1      32.717  23.112  22.937  1.00  0.00     0.349 HD
BRANCH   8  12
ATOM     12  C   UNL A   1      33.244  22.556  24.700  1.00  0.00     0.283 C 
BRANCH  12  13
ATOM     13  C   UNL A   1      32.973  21.063  24.484  1.00  0.00     0.017 A 
ATOM     14  C   UNL A   1      33.182  20.160  25.544  1.00  0.00     0.010 A 
ATOM     15  C   UNL A   1      32.533  20.540  23.258  1.00  0.00     0.010 A 
ATOM     16  C   UNL A   1      32.944  18.792  25.385  1.00  0.00     0.001 A 
ATOM     17  C   UNL A   1      32.269  19.177  23.106  1.00  0.00     0.001 A 
ATOM     18  C   UNL A   1      32.476  18.303  24.169  1.00  0.00     0.000 A 
ENDBRANCH  12  13
BRANCH  12  19
ATOM     19  C   UNL A   1      34.706  22.942  24.745  1.00  0.00     0.165 A 
ATOM     20  C   UNL A   1      35.716  22.834  23.805  1.00  0.00     0.052 A 
ATOM     21  O   UNL A   1      35.213  23.477  25.895  1.00  0.00    -0.463 OA
ATOM     22  C   UNL A   1      36.894  23.321  24.419  1.00  0.00     0.042 A 
ATOM     23  C   UNL A   1      36.533  23.703  25.688  1.00  0.00     0.195 A 
ENDBRANCH  12  19
ENDBRANCH   8  12
ENDBRANCH   3   5
ENDBRANCH   2   3
ENDBRANCH   1   2
BRANCH   1  24
ATOM     24  C   UNL A   1      31.882  29.608  25.467  1.00  0.00     0.275 C 
BRANCH  24  25
ATOM     25  O   UNL A   1      32.379  29.811  26.801  1.00  0.00    -0.458 OA
BRANCH  25  26
ATOM     26  C   UNL A   1      32.906  31.035  27.030  1.00  0.00     0.338 C 
ATOM     27  O   UNL A   1      32.377  32.123  26.888  1.00  0.00    -0.246 OA
BRANCH  26  28
ATOM     28  C   UNL A   1      34.236  30.866  27.621  1.00  0.00     0.060 A 
ATOM     29  C   UNL A   1      34.716  29.569  27.812  1.00  0.00     0.016 A 
ATOM     30  C   UNL A   1      34.964  31.969  28.055  1.00  0.00     0.016 A 
ATOM     31  C   UNL A   1      35.914  29.357  28.477  1.00  0.00     0.010 A 
ATOM     32  C   UNL A   1      36.188  31.759  28.689  1.00  0.00     0.010 A 
ATOM     33  C   UNL A   1      36.660  30.452  28.918  1.00  0.00    -0.014 A 
BRANCH  33  34
ATOM     34  C   UNL A   1      37.921  30.251  29.659  1.00  0.00     0.031 A 
ATOM     35  C   UNL A   1      39.005  29.421  29.043  1.00  0.00     0.074 A 
ATOM     36  C   UNL A   1      38.072  30.780  30.886  1.00  0.00     0.049 A 
ATOM     37  N   UNL A   1      40.068  28.905  29.601  1.00  0.00    -0.248 NA
ATOM     38  C   UNL A   1      38.865  29.121  27.609  1.00  0.00     0.031 C 
ATOM     39  C   UNL A   1      37.118  31.671  31.552  1.00  0.00     0.029 A 
ATOM     40  N   UNL A   1      39.078  30.620  31.803  1.00  0.00    -0.354 N 
ATOM     41  C   UNL A   1      40.696  28.176  28.600  1.00  0.00     0.074 A 
ATOM     42  C   UNL A   1      39.901  28.321  27.401  1.00  0.00     0.031 C 
ATOM     43  C   UNL A   1      37.581  31.969  32.776  1.00  0.00     0.029 A 
ATOM     44  C   UNL A   1      38.818  31.231  33.005  1.00  0.00     0.049 A 
ATOM     45  H   UNL A   1      39.905  30.118  31.618  1.00  0.00     0.167 HD
ATOM     46  C   UNL A   1      41.829  27.443  28.688  1.00  0.00     0.031 A 
ATOM     47  C   UNL A   1      39.473  31.153  34.178  1.00  0.00     0.031 A 
ATOM     48  C   UNL A   1      42.612  27.322  29.888  1.00  0.00     0.049 A 
ATOM     49  C   UNL A   1      40.688  30.274  34.272  1.00  0.00     0.074 A 
ATOM     50  C   UNL A   1      43.776  26.603  30.092  1.00  0.00     0.029 A 
ATOM     51  N   UNL A   1      42.308  27.947  31.089  1.00  0.00    -0.354 N 
ATOM     52  N   UNL A   1      41.253  29.548  33.338  1.00  0.00    -0.248 NA
ATOM     53  C   UNL A   1      41.346  30.194  35.582  1.00  0.00     0.031 C 
ATOM     54  C   UNL A   1      44.155  26.763  31.429  1.00  0.00     0.029 A 
ATOM     55  C   UNL A   1      43.254  27.619  32.042  1.00  0.00     0.049 A 
ATOM     56  H   UNL A   1      41.533  28.536  31.238  1.00  0.00     0.167 HD
ATOM     57  C   UNL A   1      42.348  28.944  33.940  1.00  0.00     0.074 A 
ATOM     58  C   UNL A   1      42.370  29.393  35.317  1.00  0.00     0.031 C 
ATOM     59  C   UNL A   1      43.257  28.096  33.401  1.00  0.00     0.031 A 
BRANCH  46  60
ATOM     60  C   UNL A   1      42.253  26.675  27.470  1.00  0.00    -0.014 A 
ATOM     61  C   UNL A   1      43.108  27.234  26.508  1.00  0.00     0.009 A 
ATOM     62  C   UNL A   1      41.800  25.357  27.294  1.00  0.00     0.009 A 
ATOM     63  C   UNL A   1      43.477  26.499  25.379  1.00  0.00     0.001 A 
ATOM     64  C   UNL A   1      42.190  24.616  26.177  1.00  0.00     0.001 A 
ATOM     65  C   UNL A   1      43.021  25.190  25.216  1.00  0.00     0.000 A 
ENDBRANCH  46  60
BRANCH  47  66
ATOM     66  C   UNL A   1      38.957  31.883  35.363  1.00  0.00    -0.014 A 
ATOM     67  C   UNL A   1      38.155  31.228  36.310  1.00  0.00     0.009 A 
ATOM     68  C   UNL A   1      39.276  33.235  35.564  1.00  0.00     0.009 A 
ATOM     69  C   UNL A   1      37.673  31.917  37.425  1.00  0.00     0.001 A 
ATOM     70  C   UNL A   1      38.815  33.914  36.693  1.00  0.00     0.001 A 
ATOM     71  C   UNL A   1      38.008  33.257  37.619  1.00  0.00     0.000 A 
ENDBRANCH  47  66
BRANCH  59  72
ATOM     72  C   UNL A   1      44.380  27.642  34.285  1.00  0.00    -0.014 A 
ATOM     73  C   UNL A   1      45.557  28.392  34.410  1.00  0.00     0.009 A 
ATOM     74  C   UNL A   1      44.221  26.479  35.056  1.00  0.00     0.009 A 
ATOM     75  C   UNL A   1      46.565  27.976  35.281  1.00  0.00     0.001 A 
ATOM     76  C   UNL A   1      45.221  26.078  35.942  1.00  0.00     0.001 A 
ATOM     77  C   UNL A   1      46.393  26.824  36.050  1.00  0.00     0.000 A 
ENDBRANCH  59  72
ENDBRANCH  33  34
ENDBRANCH  26  28
ENDBRANCH  25  26
ENDBRANCH  24  25
ENDBRANCH   1  24
TORSDOF 14
ENDMDL
