MODEL 1
REMARK VINA RESULT:      -9.2      0.000      0.000
REMARK SMILES O=C(CSc1ccc2ccccc2c1)OCCOC(=O)c1ccc(-c2c3nc(c(-c4ccccc4)c4ccc([nH]4)c(-c4ccccc4)c4nc(c(-c5ccccc5)c5ccc2[nH]5)C=C4)C=C3)cc1
REMARK SMILES IDX 16 1 15 2 2 3 1 4 3 5 4 6 5 7 6 8 14 9 7 10 13 11 8 12 12 13
REMARK SMILES IDX 9 14 11 15 10 16 17 17 18 18 19 19 20 20 21 21 22 22 68 23
REMARK SMILES IDX 23 24 67 25 24 26 25 27 26 28 61 29 27 30 66 31 60 32 62 33
REMARK SMILES IDX 28 34 65 35 59 36 58 37 29 39 51 40 36 41 50 42 37 43 40 44
REMARK SMILES IDX 49 45 63 46 38 47 39 48 48 50 64 51 41 52 30 53 31 54 35 55
REMARK SMILES IDX 32 56 34 57 33 58 52 59 53 60 57 61 54 62 56 63 55 64 42 65
REMARK SMILES IDX 43 66 47 67 44 68 46 69 45 70
REMARK H PARENT 62 38 40 49
REMARK Flexibility Score: inf
ROOT
ATOM      1  C   UNL A   1      44.665  19.382  25.078  1.00  0.00     0.274 C 
ENDROOT
BRANCH   1   2
ATOM      2  O   UNL A   1      44.889  20.747  25.483  1.00  0.00    -0.461 OA
BRANCH   2   3
ATOM      3  C   UNL A   1      45.760  21.581  24.867  1.00  0.00     0.316 C 
ATOM      4  O   UNL A   1      46.844  21.148  24.477  1.00  0.00    -0.251 OA
BRANCH   3   5
ATOM      5  C   UNL A   1      45.378  23.033  24.661  1.00  0.00     0.197 C 
BRANCH   5   6
ATOM      6  S   UNL A   1      46.671  24.184  25.210  1.00  0.00    -0.114 SA
BRANCH   6   7
ATOM      7  C   UNL A   1      45.787  25.704  25.542  1.00  0.00     0.008 A 
ATOM      8  C   UNL A   1      46.477  26.687  26.260  1.00  0.00     0.016 A 
ATOM      9  C   UNL A   1      44.457  25.948  25.196  1.00  0.00     0.023 A 
ATOM     10  C   UNL A   1      45.842  27.871  26.648  1.00  0.00     0.010 A 
ATOM     11  C   UNL A   1      43.793  27.118  25.598  1.00  0.00    -0.017 A 
ATOM     12  C   UNL A   1      44.491  28.091  26.340  1.00  0.00    -0.018 A 
ATOM     13  C   UNL A   1      42.437  27.319  25.294  1.00  0.00     0.009 A 
ATOM     14  C   UNL A   1      43.811  29.243  26.768  1.00  0.00     0.009 A 
ATOM     15  C   UNL A   1      41.772  28.462  25.734  1.00  0.00     0.001 A 
ATOM     16  C   UNL A   1      42.457  29.422  26.471  1.00  0.00     0.001 A 
ENDBRANCH   6   7
ENDBRANCH   5   6
ENDBRANCH   3   5
ENDBRANCH   2   3
ENDBRANCH   1   2
BRANCH   1  17
ATOM     17  C   UNL A   1      43.386  18.828  25.711  1.00  0.00     0.275 C 
BRANCH  17  18
ATOM     18  O   UNL A   1      42.234  19.362  25.030  1.00  0.00    -0.458 OA
BRANCH  18  19
ATOM     19  C   UNL A   1      41.162  19.669  25.804  1.00  0.00     0.338 C 
ATOM     20  O   UNL A   1      40.213  18.950  26.060  1.00  0.00    -0.246 OA
BRANCH  19  21
ATOM     21  C   UNL A   1      41.408  20.976  26.456  1.00  0.00     0.060 A 
ATOM     22  C   UNL A   1      41.800  22.058  25.657  1.00  0.00     0.016 A 
ATOM     23  C   UNL A   1      41.237  21.148  27.834  1.00  0.00     0.016 A 
ATOM     24  C   UNL A   1      42.048  23.306  26.238  1.00  0.00     0.010 A 
ATOM     25  C   UNL A   1      41.491  22.395  28.413  1.00  0.00     0.010 A 
ATOM     26  C   UNL A   1      41.922  23.474  27.624  1.00  0.00    -0.014 A 
BRANCH  26  27
ATOM     27  C   UNL A   1      42.367  24.730  28.276  1.00  0.00     0.031 A 
ATOM     28  C   UNL A   1      41.379  25.851  28.447  1.00  0.00     0.074 A 
ATOM     29  C   UNL A   1      43.634  24.887  28.701  1.00  0.00     0.049 A 
ATOM     30  N   UNL A   1      41.557  27.042  28.958  1.00  0.00    -0.248 NA
ATOM     31  C   UNL A   1      40.009  25.594  27.976  1.00  0.00     0.031 C 
ATOM     32  C   UNL A   1      44.688  23.879  28.624  1.00  0.00     0.029 A 
ATOM     33  N   UNL A   1      44.245  25.975  29.277  1.00  0.00    -0.354 N 
ATOM     34  C   UNL A   1      40.323  27.674  28.877  1.00  0.00     0.074 A 
ATOM     35  C   UNL A   1      39.414  26.749  28.234  1.00  0.00     0.031 C 
ATOM     36  C   UNL A   1      45.822  24.399  29.129  1.00  0.00     0.029 A 
ATOM     37  C   UNL A   1      45.578  25.781  29.540  1.00  0.00     0.049 A 
ATOM     38  H   UNL A   1      43.772  26.813  29.481  1.00  0.00     0.167 HD
ATOM     39  C   UNL A   1      39.969  28.908  29.307  1.00  0.00     0.031 A 
ATOM     40  C   UNL A   1      46.500  26.626  30.041  1.00  0.00     0.031 A 
ATOM     41  C   UNL A   1      40.866  29.848  29.923  1.00  0.00     0.049 A 
ATOM     42  C   UNL A   1      46.104  28.028  30.425  1.00  0.00     0.074 A 
ATOM     43  C   UNL A   1      40.588  31.117  30.403  1.00  0.00     0.029 A 
ATOM     44  N   UNL A   1      42.216  29.627  30.132  1.00  0.00    -0.354 N 
ATOM     45  N   UNL A   1      44.925  28.597  30.383  1.00  0.00    -0.248 NA
ATOM     46  C   UNL A   1      47.174  28.903  30.932  1.00  0.00     0.031 C 
ATOM     47  C   UNL A   1      41.784  31.684  30.856  1.00  0.00     0.029 A 
ATOM     48  C   UNL A   1      42.793  30.747  30.708  1.00  0.00     0.049 A 
ATOM     49  H   UNL A   1      42.695  28.797  29.908  1.00  0.00     0.167 HD
ATOM     50  C   UNL A   1      45.103  29.880  30.888  1.00  0.00     0.074 A 
ATOM     51  C   UNL A   1      46.502  30.006  31.236  1.00  0.00     0.031 C 
ATOM     52  C   UNL A   1      44.185  30.864  31.053  1.00  0.00     0.031 A 
BRANCH  39  53
ATOM     53  C   UNL A   1      38.542  29.322  29.097  1.00  0.00    -0.014 A 
ATOM     54  C   UNL A   1      38.100  29.788  27.848  1.00  0.00     0.009 A 
ATOM     55  C   UNL A   1      37.622  29.222  30.152  1.00  0.00     0.009 A 
ATOM     56  C   UNL A   1      36.771  30.174  27.669  1.00  0.00     0.001 A 
ATOM     57  C   UNL A   1      36.288  29.585  29.962  1.00  0.00     0.001 A 
ATOM     58  C   UNL A   1      35.865  30.070  28.725  1.00  0.00     0.000 A 
ENDBRANCH  39  53
BRANCH  40  59
ATOM     59  C   UNL A   1      47.909  26.182  30.206  1.00  0.00    -0.014 A 
ATOM     60  C   UNL A   1      48.366  25.704  31.444  1.00  0.00     0.009 A 
ATOM     61  C   UNL A   1      48.815  26.276  29.138  1.00  0.00     0.009 A 
ATOM     62  C   UNL A   1      49.706  25.353  31.615  1.00  0.00     0.001 A 
ATOM     63  C   UNL A   1      50.149  25.900  29.306  1.00  0.00     0.001 A 
ATOM     64  C   UNL A   1      50.595  25.448  30.546  1.00  0.00     0.000 A 
ENDBRANCH  40  59
BRANCH  52  65
ATOM     65  C   UNL A   1      44.651  32.153  31.670  1.00  0.00    -0.014 A 
ATOM     66  C   UNL A   1      44.657  32.336  33.061  1.00  0.00     0.009 A 
ATOM     67  C   UNL A   1      45.140  33.180  30.847  1.00  0.00     0.009 A 
ATOM     68  C   UNL A   1      45.121  33.532  33.614  1.00  0.00     0.001 A 
ATOM     69  C   UNL A   1      45.627  34.364  31.404  1.00  0.00     0.001 A 
ATOM     70  C   UNL A   1      45.610  34.542  32.787  1.00  0.00     0.000 A 
ENDBRANCH  52  65
ENDBRANCH  26  27
ENDBRANCH  19  21
ENDBRANCH  18  19
ENDBRANCH  17  18
ENDBRANCH   1  17
TORSDOF 13
ENDMDL
MODEL 2
REMARK VINA RESULT:      -8.9      0.426      6.246
REMARK SMILES O=C(CSc1ccc2ccccc2c1)OCCOC(=O)c1ccc(-c2c3nc(c(-c4ccccc4)c4ccc([nH]4)c(-c4ccccc4)c4nc(c(-c5ccccc5)c5ccc2[nH]5)C=C4)C=C3)cc1
REMARK SMILES IDX 16 1 15 2 2 3 1 4 3 5 4 6 5 7 6 8 14 9 7 10 13 11 8 12 12 13
REMARK SMILES IDX 9 14 11 15 10 16 17 17 18 18 19 19 20 20 21 21 22 22 68 23
REMARK SMILES IDX 23 24 67 25 24 26 25 27 26 28 61 29 27 30 66 31 60 32 62 33
REMARK SMILES IDX 28 34 65 35 59 36 58 37 29 39 51 40 36 41 50 42 37 43 40 44
REMARK SMILES IDX 49 45 63 46 38 47 39 48 48 50 64 51 41 52 30 53 31 54 35 55
REMARK SMILES IDX 32 56 34 57 33 58 52 59 53 60 57 61 54 62 56 63 55 64 42 65
REMARK SMILES IDX 43 66 47 67 44 68 46 69 45 70
REMARK H PARENT 62 38 40 49
REMARK Flexibility Score: inf
ROOT
ATOM      1  C   UNL A   1      44.365  19.260  25.070  1.00  0.00     0.274 C 
ENDROOT
BRANCH   1   2
ATOM      2  O   UNL A   1      44.726  20.594  25.483  1.00  0.00    -0.461 OA
BRANCH   2   3
ATOM      3  C   UNL A   1      45.683  21.335  24.877  1.00  0.00     0.316 C 
ATOM      4  O   UNL A   1      46.778  20.830  24.630  1.00  0.00    -0.251 OA
BRANCH   3   5
ATOM      5  C   UNL A   1      45.384  22.773  24.505  1.00  0.00     0.197 C 
BRANCH   5   6
ATOM      6  S   UNL A   1      46.688  23.920  25.034  1.00  0.00    -0.114 SA
BRANCH   6   7
ATOM      7  C   UNL A   1      45.811  25.436  25.403  1.00  0.00     0.008 A 
ATOM      8  C   UNL A   1      46.500  26.393  26.155  1.00  0.00     0.016 A 
ATOM      9  C   UNL A   1      44.485  25.698  25.054  1.00  0.00     0.023 A 
ATOM     10  C   UNL A   1      45.869  27.570  26.573  1.00  0.00     0.010 A 
ATOM     11  C   UNL A   1      43.825  26.860  25.485  1.00  0.00    -0.017 A 
ATOM     12  C   UNL A   1      44.523  27.807  26.261  1.00  0.00    -0.018 A 
ATOM     13  C   UNL A   1      42.472  27.077  25.177  1.00  0.00     0.009 A 
ATOM     14  C   UNL A   1      43.845  28.949  26.717  1.00  0.00     0.009 A 
ATOM     15  C   UNL A   1      41.810  28.211  25.645  1.00  0.00     0.001 A 
ATOM     16  C   UNL A   1      42.495  29.145  26.415  1.00  0.00     0.001 A 
ENDBRANCH   6   7
ENDBRANCH   5   6
ENDBRANCH   3   5
ENDBRANCH   2   3
ENDBRANCH   1   2
BRANCH   1  17
ATOM     17  C   UNL A   1      43.087  18.799  25.775  1.00  0.00     0.275 C 
BRANCH  17  18
ATOM     18  O   UNL A   1      41.937  19.387  25.136  1.00  0.00    -0.458 OA
BRANCH  18  19
ATOM     19  C   UNL A   1      40.959  19.849  25.955  1.00  0.00     0.338 C 
ATOM     20  O   UNL A   1      39.942  19.266  26.284  1.00  0.00    -0.246 OA
BRANCH  19  21
ATOM     21  C   UNL A   1      41.407  21.130  26.550  1.00  0.00     0.060 A 
ATOM     22  C   UNL A   1      41.375  21.267  27.944  1.00  0.00     0.016 A 
ATOM     23  C   UNL A   1      41.873  22.181  25.754  1.00  0.00     0.016 A 
ATOM     24  C   UNL A   1      41.783  22.464  28.541  1.00  0.00     0.010 A 
ATOM     25  C   UNL A   1      42.276  23.378  26.352  1.00  0.00     0.010 A 
ATOM     26  C   UNL A   1      42.210  23.536  27.747  1.00  0.00    -0.014 A 
BRANCH  26  27
ATOM     27  C   UNL A   1      42.458  24.870  28.348  1.00  0.00     0.031 A 
ATOM     28  C   UNL A   1      43.830  25.185  28.877  1.00  0.00     0.074 A 
ATOM     29  C   UNL A   1      41.481  25.789  28.440  1.00  0.00     0.049 A 
ATOM     30  N   UNL A   1      44.263  26.270  29.468  1.00  0.00    -0.248 NA
ATOM     31  C   UNL A   1      44.850  24.136  28.719  1.00  0.00     0.031 C 
ATOM     32  C   UNL A   1      40.114  25.632  27.948  1.00  0.00     0.029 A 
ATOM     33  N   UNL A   1      41.497  27.046  28.998  1.00  0.00    -0.354 N 
ATOM     34  C   UNL A   1      45.603  26.038  29.747  1.00  0.00     0.074 A 
ATOM     35  C   UNL A   1      45.904  24.696  29.295  1.00  0.00     0.031 C 
ATOM     36  C   UNL A   1      39.419  26.748  28.232  1.00  0.00     0.029 A 
ATOM     37  C   UNL A   1      40.284  27.686  28.946  1.00  0.00     0.049 A 
ATOM     38  H   UNL A   1      42.302  27.447  29.396  1.00  0.00     0.167 HD
ATOM     39  C   UNL A   1      46.509  26.865  30.318  1.00  0.00     0.031 A 
ATOM     40  C   UNL A   1      39.910  28.886  29.432  1.00  0.00     0.031 A 
ATOM     41  C   UNL A   1      46.219  28.190  30.796  1.00  0.00     0.049 A 
ATOM     42  C   UNL A   1      40.914  29.752  30.149  1.00  0.00     0.074 A 
ATOM     43  C   UNL A   1      47.082  29.105  31.375  1.00  0.00     0.029 A 
ATOM     44  N   UNL A   1      44.969  28.783  30.762  1.00  0.00    -0.354 N 
ATOM     45  N   UNL A   1      42.188  29.537  30.367  1.00  0.00    -0.248 NA
ATOM     46  C   UNL A   1      40.422  31.032  30.683  1.00  0.00     0.031 C 
ATOM     47  C   UNL A   1      46.341  30.234  31.740  1.00  0.00     0.029 A 
ATOM     48  C   UNL A   1      45.029  30.042  31.337  1.00  0.00     0.049 A 
ATOM     49  H   UNL A   1      44.158  28.373  30.384  1.00  0.00     0.167 HD
ATOM     50  C   UNL A   1      42.655  30.666  31.031  1.00  0.00     0.074 A 
ATOM     51  C   UNL A   1      41.532  31.566  31.175  1.00  0.00     0.031 C 
ATOM     52  C   UNL A   1      43.908  30.933  31.476  1.00  0.00     0.031 A 
BRANCH  39  53
ATOM     53  C   UNL A   1      47.906  26.342  30.480  1.00  0.00    -0.014 A 
ATOM     54  C   UNL A   1      48.850  26.468  29.447  1.00  0.00     0.009 A 
ATOM     55  C   UNL A   1      48.293  25.741  31.687  1.00  0.00     0.009 A 
ATOM     56  C   UNL A   1      50.144  25.971  29.611  1.00  0.00     0.001 A 
ATOM     57  C   UNL A   1      49.595  25.269  31.856  1.00  0.00     0.001 A 
ATOM     58  C   UNL A   1      50.517  25.376  30.816  1.00  0.00     0.000 A 
ENDBRANCH  39  53
BRANCH  40  59
ATOM     59  C   UNL A   1      38.508  29.352  29.274  1.00  0.00    -0.014 A 
ATOM     60  C   UNL A   1      38.089  29.957  28.079  1.00  0.00     0.009 A 
ATOM     61  C   UNL A   1      37.594  29.233  30.332  1.00  0.00     0.009 A 
ATOM     62  C   UNL A   1      36.792  30.457  27.956  1.00  0.00     0.001 A 
ATOM     63  C   UNL A   1      36.289  29.711  30.197  1.00  0.00     0.001 A 
ATOM     64  C   UNL A   1      35.892  30.330  29.014  1.00  0.00     0.000 A 
ENDBRANCH  40  59
BRANCH  52  65
ATOM     65  C   UNL A   1      44.145  32.266  32.128  1.00  0.00    -0.014 A 
ATOM     66  C   UNL A   1      44.492  33.397  31.373  1.00  0.00     0.009 A 
ATOM     67  C   UNL A   1      43.966  32.403  33.514  1.00  0.00     0.009 A 
ATOM     68  C   UNL A   1      44.679  34.632  31.997  1.00  0.00     0.001 A 
ATOM     69  C   UNL A   1      44.129  33.645  34.131  1.00  0.00     0.001 A 
ATOM     70  C   UNL A   1      44.493  34.756  33.373  1.00  0.00     0.000 A 
ENDBRANCH  52  65
ENDBRANCH  26  27
ENDBRANCH  19  21
ENDBRANCH  18  19
ENDBRANCH  17  18
ENDBRANCH   1  17
TORSDOF 13
ENDMDL
MODEL 3
REMARK VINA RESULT:      -8.0      3.708      8.127
REMARK SMILES O=C(CSc1ccc2ccccc2c1)OCCOC(=O)c1ccc(-c2c3nc(c(-c4ccccc4)c4ccc([nH]4)c(-c4ccccc4)c4nc(c(-c5ccccc5)c5ccc2[nH]5)C=C4)C=C3)cc1
REMARK SMILES IDX 16 1 15 2 2 3 1 4 3 5 4 6 5 7 6 8 14 9 7 10 13 11 8 12 12 13
REMARK SMILES IDX 9 14 11 15 10 16 17 17 18 18 19 19 20 20 21 21 22 22 68 23
REMARK SMILES IDX 23 24 67 25 24 26 25 27 26 28 61 29 27 30 66 31 60 32 62 33
REMARK SMILES IDX 28 34 65 35 59 36 58 37 29 39 51 40 36 41 50 42 37 43 40 44
REMARK SMILES IDX 49 45 63 46 38 47 39 48 48 50 64 51 41 52 30 53 31 54 35 55
REMARK SMILES IDX 32 56 34 57 33 58 52 59 53 60 57 61 54 62 56 63 55 64 42 65
REMARK SMILES IDX 43 66 47 67 44 68 46 69 45 70
REMARK H PARENT 62 38 40 49
REMARK Flexibility Score: inf
ROOT
ATOM      1  C   UNL A   1      44.982  21.240  24.664  1.00  0.00     0.274 C 
ENDROOT
BRANCH   1   2
ATOM      2  O   UNL A   1      44.168  20.068  24.452  1.00  0.00    -0.461 OA
BRANCH   2   3
ATOM      3  C   UNL A   1      43.291  19.587  25.363  1.00  0.00     0.316 C 
ATOM      4  O   UNL A   1      43.042  18.382  25.391  1.00  0.00    -0.251 OA
BRANCH   3   5
ATOM      5  C   UNL A   1      42.637  20.543  26.340  1.00  0.00     0.197 C 
BRANCH   5   6
ATOM      6  S   UNL A   1      41.062  19.915  26.990  1.00  0.00    -0.114 SA
BRANCH   6   7
ATOM      7  C   UNL A   1      39.855  21.119  26.445  1.00  0.00     0.008 A 
ATOM      8  C   UNL A   1      40.023  22.429  26.905  1.00  0.00     0.016 A 
ATOM      9  C   UNL A   1      38.739  20.832  25.658  1.00  0.00     0.023 A 
ATOM     10  C   UNL A   1      39.082  23.421  26.610  1.00  0.00     0.010 A 
ATOM     11  C   UNL A   1      37.768  21.806  25.371  1.00  0.00    -0.017 A 
ATOM     12  C   UNL A   1      37.937  23.117  25.859  1.00  0.00    -0.018 A 
ATOM     13  C   UNL A   1      36.620  21.484  24.629  1.00  0.00     0.009 A 
ATOM     14  C   UNL A   1      36.945  24.076  25.598  1.00  0.00     0.009 A 
ATOM     15  C   UNL A   1      35.639  22.444  24.387  1.00  0.00     0.001 A 
ATOM     16  C   UNL A   1      35.800  23.738  24.871  1.00  0.00     0.001 A 
ENDBRANCH   6   7
ENDBRANCH   5   6
ENDBRANCH   3   5
ENDBRANCH   2   3
ENDBRANCH   1   2
BRANCH   1  17
ATOM     17  C   UNL A   1      44.559  22.375  23.729  1.00  0.00     0.275 C 
BRANCH  17  18
ATOM     18  O   UNL A   1      43.934  23.427  24.490  1.00  0.00    -0.458 OA
BRANCH  18  19
ATOM     19  C   UNL A   1      44.757  24.383  24.990  1.00  0.00     0.338 C 
ATOM     20  O   UNL A   1      45.877  24.663  24.601  1.00  0.00    -0.246 OA
BRANCH  19  21
ATOM     21  C   UNL A   1      44.007  25.178  25.989  1.00  0.00     0.060 A 
ATOM     22  C   UNL A   1      44.261  26.553  26.077  1.00  0.00     0.016 A 
ATOM     23  C   UNL A   1      43.046  24.589  26.818  1.00  0.00     0.016 A 
ATOM     24  C   UNL A   1      43.577  27.335  27.013  1.00  0.00     0.010 A 
ATOM     25  C   UNL A   1      42.367  25.371  27.756  1.00  0.00     0.010 A 
ATOM     26  C   UNL A   1      42.646  26.743  27.877  1.00  0.00    -0.014 A 
BRANCH  26  27
ATOM     27  C   UNL A   1      42.059  27.516  29.000  1.00  0.00     0.031 A 
ATOM     28  C   UNL A   1      42.723  27.458  30.348  1.00  0.00     0.074 A 
ATOM     29  C   UNL A   1      40.943  28.249  28.837  1.00  0.00     0.049 A 
ATOM     30  N   UNL A   1      42.368  28.025  31.473  1.00  0.00    -0.248 NA
ATOM     31  C   UNL A   1      43.950  26.652  30.440  1.00  0.00     0.031 C 
ATOM     32  C   UNL A   1      40.210  28.417  27.585  1.00  0.00     0.029 A 
ATOM     33  N   UNL A   1      40.227  28.986  29.751  1.00  0.00    -0.354 N 
ATOM     34  C   UNL A   1      43.328  27.651  32.403  1.00  0.00     0.074 A 
ATOM     35  C   UNL A   1      44.261  26.778  31.721  1.00  0.00     0.031 C 
ATOM     36  C   UNL A   1      39.142  29.203  27.810  1.00  0.00     0.029 A 
ATOM     37  C   UNL A   1      39.103  29.571  29.224  1.00  0.00     0.049 A 
ATOM     38  H   UNL A   1      40.496  29.083  30.692  1.00  0.00     0.167 HD
ATOM     39  C   UNL A   1      43.436  28.006  33.705  1.00  0.00     0.031 A 
ATOM     40  C   UNL A   1      38.144  30.308  29.819  1.00  0.00     0.031 A 
ATOM     41  C   UNL A   1      42.504  28.850  34.402  1.00  0.00     0.049 A 
ATOM     42  C   UNL A   1      38.235  30.612  31.291  1.00  0.00     0.074 A 
ATOM     43  C   UNL A   1      42.544  29.273  35.719  1.00  0.00     0.029 A 
ATOM     44  N   UNL A   1      41.358  29.387  33.843  1.00  0.00    -0.354 N 
ATOM     45  N   UNL A   1      39.172  30.288  32.148  1.00  0.00    -0.248 NA
ATOM     46  C   UNL A   1      37.132  31.392  31.877  1.00  0.00     0.031 C 
ATOM     47  C   UNL A   1      41.392  30.026  35.972  1.00  0.00     0.029 A 
ATOM     48  C   UNL A   1      40.665  30.115  34.796  1.00  0.00     0.049 A 
ATOM     49  H   UNL A   1      41.076  29.271  32.906  1.00  0.00     0.167 HD
ATOM     50  C   UNL A   1      38.790  30.851  33.361  1.00  0.00     0.074 A 
ATOM     51  C   UNL A   1      37.540  31.543  33.130  1.00  0.00     0.031 C 
ATOM     52  C   UNL A   1      39.423  30.802  34.558  1.00  0.00     0.031 A 
BRANCH  39  53
ATOM     53  C   UNL A   1      44.603  27.453  34.470  1.00  0.00    -0.014 A 
ATOM     54  C   UNL A   1      44.479  26.279  35.229  1.00  0.00     0.009 A 
ATOM     55  C   UNL A   1      45.847  28.099  34.411  1.00  0.00     0.009 A 
ATOM     56  C   UNL A   1      45.571  25.780  35.940  1.00  0.00     0.001 A 
ATOM     57  C   UNL A   1      46.944  27.583  35.102  1.00  0.00     0.001 A 
ATOM     58  C   UNL A   1      46.803  26.430  35.874  1.00  0.00     0.000 A 
ENDBRANCH  39  53
BRANCH  40  59
ATOM     59  C   UNL A   1      36.991  30.812  29.028  1.00  0.00    -0.014 A 
ATOM     60  C   UNL A   1      36.901  32.170  28.685  1.00  0.00     0.009 A 
ATOM     61  C   UNL A   1      35.954  29.945  28.649  1.00  0.00     0.009 A 
ATOM     62  C   UNL A   1      35.784  32.654  28.002  1.00  0.00     0.001 A 
ATOM     63  C   UNL A   1      34.850  30.428  27.944  1.00  0.00     0.001 A 
ATOM     64  C   UNL A   1      34.761  31.782  27.629  1.00  0.00     0.000 A 
ENDBRANCH  40  59
BRANCH  52  65
ATOM     65  C   UNL A   1      38.800  31.546  35.706  1.00  0.00    -0.014 A 
ATOM     66  C   UNL A   1      38.918  32.940  35.823  1.00  0.00     0.009 A 
ATOM     67  C   UNL A   1      38.038  30.847  36.655  1.00  0.00     0.009 A 
ATOM     68  C   UNL A   1      38.307  33.614  36.882  1.00  0.00     0.001 A 
ATOM     69  C   UNL A   1      37.407  31.527  37.699  1.00  0.00     0.001 A 
ATOM     70  C   UNL A   1      37.548  32.909  37.815  1.00  0.00     0.000 A 
ENDBRANCH  52  65
ENDBRANCH  26  27
ENDBRANCH  19  21
ENDBRANCH  18  19
ENDBRANCH  17  18
ENDBRANCH   1  17
TORSDOF 13
ENDMDL
