MODEL 1
REMARK VINA RESULT:     -11.4      0.000      0.000
REMARK SMILES O=C(OCCOC(=O)c1c(-c2ccc(Cl)cc2)noc1CO[C@@H]1CCCCO1)c1ccc(-c2c3nc(c(-c4ccccc4)c4ccc([nH]4)c(-c4ccccc4)c4nc(c(-c5ccccc5)c5ccc2[nH]5)C=C4)C=C3)cc1
REMARK SMILES IDX 5 1 4 2 3 3 2 4 1 5 29 6 30 7 76 8 31 9 75 10 32 11 33 12
REMARK SMILES IDX 34 13 69 14 35 15 74 16 68 17 70 18 36 19 73 20 67 21 66 22
REMARK SMILES IDX 37 24 59 25 44 26 58 27 45 28 48 29 57 30 71 31 46 32 47 33
REMARK SMILES IDX 56 35 72 36 49 37 38 38 39 39 43 40 40 41 42 42 41 43 60 44
REMARK SMILES IDX 61 45 65 46 62 47 64 48 63 49 50 50 51 51 55 52 52 53 54 54
REMARK SMILES IDX 53 55 6 56 7 57 8 58 9 59 10 60 20 61 18 62 19 63 11 64
REMARK SMILES IDX 12 65 17 66 13 67 16 68 14 69 15 70 21 71 22 72 23 73 24 74
REMARK SMILES IDX 28 75 25 76 27 77 26 78
REMARK H PARENT 70 23 48 34
REMARK Flexibility Score: inf
ROOT
ATOM      1  C   UNL A   1      35.676  23.131  24.036  1.00  0.00     0.275 C 
ENDROOT
BRANCH   1   2
ATOM      2  C   UNL A   1      36.255  21.814  24.571  1.00  0.00     0.275 C 
BRANCH   2   3
ATOM      3  O   UNL A   1      36.967  21.804  25.827  1.00  0.00    -0.458 OA
BRANCH   3   4
ATOM      4  C   UNL A   1      38.305  21.636  25.831  1.00  0.00     0.338 C 
ATOM      5  O   UNL A   1      38.877  20.633  25.444  1.00  0.00    -0.246 OA
BRANCH   4   6
ATOM      6  C   UNL A   1      38.998  22.832  26.389  1.00  0.00     0.060 A 
ATOM      7  C   UNL A   1      38.502  24.125  26.175  1.00  0.00     0.016 A 
ATOM      8  C   UNL A   1      40.113  22.651  27.218  1.00  0.00     0.016 A 
ATOM      9  C   UNL A   1      39.120  25.218  26.772  1.00  0.00     0.010 A 
ATOM     10  C   UNL A   1      40.715  23.745  27.845  1.00  0.00     0.010 A 
ATOM     11  C   UNL A   1      40.237  25.036  27.599  1.00  0.00    -0.014 A 
BRANCH  11  12
ATOM     12  C   UNL A   1      40.988  26.239  28.021  1.00  0.00     0.031 A 
ATOM     13  C   UNL A   1      42.301  26.513  27.363  1.00  0.00     0.074 A 
ATOM     14  C   UNL A   1      40.448  27.117  28.885  1.00  0.00     0.049 A 
ATOM     15  N   UNL A   1      43.063  27.568  27.461  1.00  0.00    -0.248 NA
ATOM     16  C   UNL A   1      42.842  25.449  26.500  1.00  0.00     0.031 C 
ATOM     17  C   UNL A   1      39.221  26.890  29.628  1.00  0.00     0.029 A 
ATOM     18  N   UNL A   1      40.825  28.378  29.259  1.00  0.00    -0.354 N 
ATOM     19  C   UNL A   1      44.194  27.275  26.713  1.00  0.00     0.074 A 
ATOM     20  C   UNL A   1      44.021  25.949  26.166  1.00  0.00     0.031 C 
ATOM     21  C   UNL A   1      38.871  28.005  30.286  1.00  0.00     0.029 A 
ATOM     22  C   UNL A   1      39.902  29.009  30.065  1.00  0.00     0.049 A 
ATOM     23  H   UNL A   1      41.673  28.794  28.981  1.00  0.00     0.167 HD
ATOM     24  C   UNL A   1      45.284  28.048  26.518  1.00  0.00     0.031 A 
ATOM     25  C   UNL A   1      39.900  30.258  30.567  1.00  0.00     0.031 A 
ATOM     26  C   UNL A   1      45.430  29.362  27.075  1.00  0.00     0.049 A 
ATOM     27  C   UNL A   1      41.084  31.128  30.259  1.00  0.00     0.074 A 
ATOM     28  C   UNL A   1      46.484  30.246  26.946  1.00  0.00     0.029 A 
ATOM     29  N   UNL A   1      44.476  29.981  27.873  1.00  0.00    -0.354 N 
ATOM     30  N   UNL A   1      42.131  30.857  29.515  1.00  0.00    -0.248 NA
ATOM     31  C   UNL A   1      41.106  32.463  30.872  1.00  0.00     0.031 C 
ATOM     32  C   UNL A   1      46.179  31.392  27.690  1.00  0.00     0.029 A 
ATOM     33  C   UNL A   1      44.919  31.234  28.251  1.00  0.00     0.049 A 
ATOM     34  H   UNL A   1      43.612  29.586  28.130  1.00  0.00     0.167 HD
ATOM     35  C   UNL A   1      42.951  31.970  29.593  1.00  0.00     0.074 A 
ATOM     36  C   UNL A   1      42.251  32.946  30.408  1.00  0.00     0.031 C 
ATOM     37  C   UNL A   1      44.186  32.164  29.070  1.00  0.00     0.031 A 
BRANCH  24  38
ATOM     38  C   UNL A   1      46.404  27.444  25.725  1.00  0.00    -0.014 A 
ATOM     39  C   UNL A   1      47.306  26.537  26.304  1.00  0.00     0.009 A 
ATOM     40  C   UNL A   1      46.588  27.829  24.389  1.00  0.00     0.009 A 
ATOM     41  C   UNL A   1      48.395  26.059  25.571  1.00  0.00     0.001 A 
ATOM     42  C   UNL A   1      47.664  27.332  23.651  1.00  0.00     0.001 A 
ATOM     43  C   UNL A   1      48.572  26.457  24.246  1.00  0.00     0.000 A 
ENDBRANCH  24  38
BRANCH  25  44
ATOM     44  C   UNL A   1      38.781  30.740  31.422  1.00  0.00    -0.014 A 
ATOM     45  C   UNL A   1      38.778  30.509  32.807  1.00  0.00     0.009 A 
ATOM     46  C   UNL A   1      37.697  31.434  30.859  1.00  0.00     0.009 A 
ATOM     47  C   UNL A   1      37.710  30.938  33.601  1.00  0.00     0.001 A 
ATOM     48  C   UNL A   1      36.646  31.891  31.658  1.00  0.00     0.001 A 
ATOM     49  C   UNL A   1      36.647  31.635  33.027  1.00  0.00     0.000 A 
ENDBRANCH  25  44
BRANCH  37  50
ATOM     50  C   UNL A   1      44.844  33.470  29.390  1.00  0.00    -0.014 A 
ATOM     51  C   UNL A   1      45.698  33.584  30.497  1.00  0.00     0.009 A 
ATOM     52  C   UNL A   1      44.640  34.578  28.556  1.00  0.00     0.009 A 
ATOM     53  C   UNL A   1      46.319  34.800  30.779  1.00  0.00     0.001 A 
ATOM     54  C   UNL A   1      45.280  35.786  28.829  1.00  0.00     0.001 A 
ATOM     55  C   UNL A   1      46.113  35.897  29.943  1.00  0.00     0.000 A 
ENDBRANCH  37  50
ENDBRANCH  11  12
ENDBRANCH   4   6
ENDBRANCH   3   4
ENDBRANCH   2   3
ENDBRANCH   1   2
BRANCH   1  56
ATOM     56  O   UNL A   1      34.873  22.941  22.859  1.00  0.00    -0.458 OA
BRANCH  56  57
ATOM     57  C   UNL A   1      33.679  23.616  22.842  1.00  0.00     0.344 C 
ATOM     58  O   UNL A   1      33.378  24.461  22.014  1.00  0.00    -0.246 OA
BRANCH  57  59
ATOM     59  C   UNL A   1      32.809  23.239  23.930  1.00  0.00     0.133 A 
ATOM     60  C   UNL A   1      32.324  24.033  25.013  1.00  0.00     0.128 A 
ATOM     61  C   UNL A   1      32.296  21.980  24.176  1.00  0.00     0.177 A 
ATOM     62  N   UNL A   1      31.607  23.276  25.860  1.00  0.00    -0.079 NA
ATOM     63  O   UNL A   1      31.591  22.005  25.335  1.00  0.00    -0.357 OA
BRANCH  60  64
ATOM     64  C   UNL A   1      32.465  25.470  25.248  1.00  0.00     0.005 A 
ATOM     65  C   UNL A   1      33.676  26.005  25.706  1.00  0.00     0.012 A 
ATOM     66  C   UNL A   1      31.407  26.345  24.971  1.00  0.00     0.012 A 
ATOM     67  C   UNL A   1      33.843  27.383  25.862  1.00  0.00     0.021 A 
ATOM     68  C   UNL A   1      31.561  27.724  25.149  1.00  0.00     0.021 A 
ATOM     69  C   UNL A   1      32.782  28.238  25.585  1.00  0.00     0.041 A 
ATOM     70  Cl  UNL A   1      32.982  29.935  25.779  1.00  0.00    -0.084 Cl
ENDBRANCH  60  64
BRANCH  61  71
ATOM     71  C   UNL A   1      32.384  20.687  23.461  1.00  0.00     0.242 C 
BRANCH  71  72
ATOM     72  O   UNL A   1      32.119  19.591  24.316  1.00  0.00    -0.345 OA
BRANCH  72  73
ATOM     73  C   UNL A   1      33.163  19.057  25.120  1.00  0.00     0.250 C 
ATOM     74  C   UNL A   1      34.437  18.515  24.454  1.00  0.00     0.062 C 
ATOM     75  O   UNL A   1      32.614  18.022  25.948  1.00  0.00    -0.353 OA
ATOM     76  C   UNL A   1      34.210  17.211  23.693  1.00  0.00     0.008 C 
ATOM     77  C   UNL A   1      32.221  16.875  25.196  1.00  0.00     0.163 C 
ATOM     78  C   UNL A   1      33.429  16.218  24.541  1.00  0.00     0.029 C 
ENDBRANCH  72  73
ENDBRANCH  71  72
ENDBRANCH  61  71
ENDBRANCH  57  59
ENDBRANCH  56  57
ENDBRANCH   1  56
TORSDOF 15
ENDMDL
MODEL 2
REMARK VINA RESULT:     -11.3      4.237      9.222
REMARK SMILES O=C(OCCOC(=O)c1c(-c2ccc(Cl)cc2)noc1CO[C@@H]1CCCCO1)c1ccc(-c2c3nc(c(-c4ccccc4)c4ccc([nH]4)c(-c4ccccc4)c4nc(c(-c5ccccc5)c5ccc2[nH]5)C=C4)C=C3)cc1
REMARK SMILES IDX 5 1 4 2 3 3 2 4 1 5 29 6 30 7 76 8 31 9 75 10 32 11 33 12
REMARK SMILES IDX 34 13 69 14 35 15 74 16 68 17 70 18 36 19 73 20 67 21 66 22
REMARK SMILES IDX 37 24 59 25 44 26 58 27 45 28 48 29 57 30 71 31 46 32 47 33
REMARK SMILES IDX 56 35 72 36 49 37 38 38 39 39 43 40 40 41 42 42 41 43 60 44
REMARK SMILES IDX 61 45 65 46 62 47 64 48 63 49 50 50 51 51 55 52 52 53 54 54
REMARK SMILES IDX 53 55 6 56 7 57 8 58 9 59 10 60 20 61 18 62 19 63 11 64
REMARK SMILES IDX 12 65 17 66 13 67 16 68 14 69 15 70 21 71 22 72 23 73 24 74
REMARK SMILES IDX 28 75 25 76 27 77 26 78
REMARK H PARENT 70 23 48 34
REMARK Flexibility Score: inf
ROOT
ATOM      1  C   UNL A   1      31.767  28.368  27.196  1.00  0.00     0.275 C 
ENDROOT
BRANCH   1   2
ATOM      2  C   UNL A   1      31.778  29.794  26.629  1.00  0.00     0.275 C 
BRANCH   2   3
ATOM      3  O   UNL A   1      33.038  30.447  26.362  1.00  0.00    -0.458 OA
BRANCH   3   4
ATOM      4  C   UNL A   1      33.480  31.406  27.201  1.00  0.00     0.338 C 
ATOM      5  O   UNL A   1      32.888  32.444  27.437  1.00  0.00    -0.246 OA
BRANCH   4   6
ATOM      6  C   UNL A   1      34.799  31.042  27.790  1.00  0.00     0.060 A 
ATOM      7  C   UNL A   1      35.144  29.707  28.032  1.00  0.00     0.016 A 
ATOM      8  C   UNL A   1      35.745  32.050  28.023  1.00  0.00     0.016 A 
ATOM      9  C   UNL A   1      36.411  29.386  28.508  1.00  0.00     0.010 A 
ATOM     10  C   UNL A   1      37.029  31.728  28.469  1.00  0.00     0.010 A 
ATOM     11  C   UNL A   1      37.355  30.395  28.742  1.00  0.00    -0.014 A 
BRANCH  11  12
ATOM     12  C   UNL A   1      38.597  30.027  29.457  1.00  0.00     0.031 A 
ATOM     13  C   UNL A   1      38.690  30.352  30.912  1.00  0.00     0.074 A 
ATOM     14  C   UNL A   1      39.560  29.318  28.841  1.00  0.00     0.049 A 
ATOM     15  N   UNL A   1      39.607  30.004  31.774  1.00  0.00    -0.248 NA
ATOM     16  C   UNL A   1      37.626  31.206  31.468  1.00  0.00     0.031 C 
ATOM     17  C   UNL A   1      39.586  29.031  27.417  1.00  0.00     0.029 A 
ATOM     18  N   UNL A   1      40.671  28.680  29.321  1.00  0.00    -0.354 N 
ATOM     19  C   UNL A   1      39.256  30.633  32.959  1.00  0.00     0.074 A 
ATOM     20  C   UNL A   1      38.046  31.383  32.711  1.00  0.00     0.031 C 
ATOM     21  C   UNL A   1      40.587  28.185  27.139  1.00  0.00     0.029 A 
ATOM     22  C   UNL A   1      41.323  27.927  28.368  1.00  0.00     0.049 A 
ATOM     23  H   UNL A   1      40.976  28.753  30.255  1.00  0.00     0.167 HD
ATOM     24  C   UNL A   1      39.905  30.595  34.143  1.00  0.00     0.031 A 
ATOM     25  C   UNL A   1      42.398  27.125  28.485  1.00  0.00     0.031 A 
ATOM     26  C   UNL A   1      41.106  29.842  34.361  1.00  0.00     0.049 A 
ATOM     27  C   UNL A   1      43.045  27.030  29.837  1.00  0.00     0.074 A 
ATOM     28  C   UNL A   1      41.854  29.719  35.517  1.00  0.00     0.029 A 
ATOM     29  N   UNL A   1      41.736  29.078  33.387  1.00  0.00    -0.354 N 
ATOM     30  N   UNL A   1      42.681  27.596  30.963  1.00  0.00    -0.248 NA
ATOM     31  C   UNL A   1      44.260  26.210  29.936  1.00  0.00     0.031 C 
ATOM     32  C   UNL A   1      42.953  28.899  35.233  1.00  0.00     0.029 A 
ATOM     33  C   UNL A   1      42.868  28.485  33.911  1.00  0.00     0.049 A 
ATOM     34  H   UNL A   1      41.421  28.974  32.459  1.00  0.00     0.167 HD
ATOM     35  C   UNL A   1      43.634  27.229  31.898  1.00  0.00     0.074 A 
ATOM     36  C   UNL A   1      44.560  26.340  31.221  1.00  0.00     0.031 C 
ATOM     37  C   UNL A   1      43.760  27.614  33.191  1.00  0.00     0.031 A 
BRANCH  24  38
ATOM     38  C   UNL A   1      39.342  31.442  35.245  1.00  0.00    -0.014 A 
ATOM     39  C   UNL A   1      38.380  30.939  36.136  1.00  0.00     0.009 A 
ATOM     40  C   UNL A   1      39.745  32.780  35.361  1.00  0.00     0.009 A 
ATOM     41  C   UNL A   1      37.805  31.774  37.097  1.00  0.00     0.001 A 
ATOM     42  C   UNL A   1      39.184  33.606  36.337  1.00  0.00     0.001 A 
ATOM     43  C   UNL A   1      38.207  33.106  37.195  1.00  0.00     0.000 A 
ENDBRANCH  24  38
BRANCH  25  44
ATOM     44  C   UNL A   1      42.939  26.390  27.309  1.00  0.00    -0.014 A 
ATOM     45  C   UNL A   1      43.928  26.962  26.492  1.00  0.00     0.009 A 
ATOM     46  C   UNL A   1      42.467  25.107  26.987  1.00  0.00     0.009 A 
ATOM     47  C   UNL A   1      44.411  26.280  25.372  1.00  0.00     0.001 A 
ATOM     48  C   UNL A   1      42.974  24.413  25.886  1.00  0.00     0.001 A 
ATOM     49  C   UNL A   1      43.939  25.003  25.072  1.00  0.00     0.000 A 
ENDBRANCH  25  44
BRANCH  37  50
ATOM     50  C   UNL A   1      44.950  27.083  33.929  1.00  0.00    -0.014 A 
ATOM     51  C   UNL A   1      46.114  27.856  34.052  1.00  0.00     0.009 A 
ATOM     52  C   UNL A   1      44.890  25.822  34.536  1.00  0.00     0.009 A 
ATOM     53  C   UNL A   1      47.213  27.361  34.754  1.00  0.00     0.001 A 
ATOM     54  C   UNL A   1      45.983  25.339  35.255  1.00  0.00     0.001 A 
ATOM     55  C   UNL A   1      47.144  26.106  35.357  1.00  0.00     0.000 A 
ENDBRANCH  37  50
ENDBRANCH  11  12
ENDBRANCH   4   6
ENDBRANCH   3   4
ENDBRANCH   2   3
ENDBRANCH   1   2
BRANCH   1  56
ATOM     56  O   UNL A   1      32.292  27.403  26.269  1.00  0.00    -0.458 OA
BRANCH  56  57
ATOM     57  C   UNL A   1      31.367  26.563  25.703  1.00  0.00     0.344 C 
ATOM     58  O   UNL A   1      30.612  25.842  26.337  1.00  0.00    -0.246 OA
BRANCH  57  59
ATOM     59  C   UNL A   1      31.389  26.598  24.260  1.00  0.00     0.133 A 
ATOM     60  C   UNL A   1      32.299  25.969  23.358  1.00  0.00     0.128 A 
ATOM     61  C   UNL A   1      30.536  27.311  23.441  1.00  0.00     0.177 A 
ATOM     62  N   UNL A   1      32.021  26.327  22.093  1.00  0.00    -0.079 NA
ATOM     63  O   UNL A   1      30.925  27.157  22.151  1.00  0.00    -0.357 OA
BRANCH  60  64
ATOM     64  C   UNL A   1      33.374  25.017  23.634  1.00  0.00     0.005 A 
ATOM     65  C   UNL A   1      33.537  23.872  22.842  1.00  0.00     0.012 A 
ATOM     66  C   UNL A   1      34.294  25.259  24.662  1.00  0.00     0.012 A 
ATOM     67  C   UNL A   1      34.606  22.997  23.052  1.00  0.00     0.021 A 
ATOM     68  C   UNL A   1      35.352  24.372  24.891  1.00  0.00     0.021 A 
ATOM     69  C   UNL A   1      35.509  23.250  24.079  1.00  0.00     0.041 A 
ATOM     70  Cl  UNL A   1      36.823  22.174  24.343  1.00  0.00    -0.084 Cl
ENDBRANCH  60  64
BRANCH  61  71
ATOM     71  C   UNL A   1      29.360  28.172  23.699  1.00  0.00     0.242 C 
BRANCH  71  72
ATOM     72  O   UNL A   1      29.299  29.266  22.803  1.00  0.00    -0.345 OA
BRANCH  72  73
ATOM     73  C   UNL A   1      28.041  29.701  22.304  1.00  0.00     0.250 C 
ATOM     74  C   UNL A   1      27.976  30.494  20.990  1.00  0.00     0.062 C 
ATOM     75  O   UNL A   1      27.387  30.468  23.324  1.00  0.00    -0.353 OA
ATOM     76  C   UNL A   1      28.536  31.908  21.112  1.00  0.00     0.008 C 
ATOM     77  C   UNL A   1      28.039  31.713  23.571  1.00  0.00     0.163 C 
ATOM     78  C   UNL A   1      27.975  32.609  22.340  1.00  0.00     0.029 C 
ENDBRANCH  72  73
ENDBRANCH  71  72
ENDBRANCH  61  71
ENDBRANCH  57  59
ENDBRANCH  56  57
ENDBRANCH   1  56
TORSDOF 15
ENDMDL
MODEL 3
REMARK VINA RESULT:     -11.2      3.749      8.154
REMARK SMILES O=C(OCCOC(=O)c1c(-c2ccc(Cl)cc2)noc1CO[C@@H]1CCCCO1)c1ccc(-c2c3nc(c(-c4ccccc4)c4ccc([nH]4)c(-c4ccccc4)c4nc(c(-c5ccccc5)c5ccc2[nH]5)C=C4)C=C3)cc1
REMARK SMILES IDX 5 1 4 2 3 3 2 4 1 5 29 6 30 7 76 8 31 9 75 10 32 11 33 12
REMARK SMILES IDX 34 13 69 14 35 15 74 16 68 17 70 18 36 19 73 20 67 21 66 22
REMARK SMILES IDX 37 24 59 25 44 26 58 27 45 28 48 29 57 30 71 31 46 32 47 33
REMARK SMILES IDX 56 35 72 36 49 37 38 38 39 39 43 40 40 41 42 42 41 43 60 44
REMARK SMILES IDX 61 45 65 46 62 47 64 48 63 49 50 50 51 51 55 52 52 53 54 54
REMARK SMILES IDX 53 55 6 56 7 57 8 58 9 59 10 60 20 61 18 62 19 63 11 64
REMARK SMILES IDX 12 65 17 66 13 67 16 68 14 69 15 70 21 71 22 72 23 73 24 74
REMARK SMILES IDX 28 75 25 76 27 77 26 78
REMARK H PARENT 70 23 48 34
REMARK Flexibility Score: inf
ROOT
ATOM      1  C   UNL A   1      31.601  28.679  27.601  1.00  0.00     0.275 C 
ENDROOT
BRANCH   1   2
ATOM      2  C   UNL A   1      31.773  29.702  26.469  1.00  0.00     0.275 C 
BRANCH   2   3
ATOM      3  O   UNL A   1      33.051  30.347  26.277  1.00  0.00    -0.458 OA
BRANCH   3   4
ATOM      4  C   UNL A   1      33.457  31.290  27.152  1.00  0.00     0.338 C 
ATOM      5  O   UNL A   1      32.834  32.303  27.414  1.00  0.00    -0.246 OA
BRANCH   4   6
ATOM      6  C   UNL A   1      34.779  30.943  27.744  1.00  0.00     0.060 A 
ATOM      7  C   UNL A   1      35.149  29.611  27.968  1.00  0.00     0.016 A 
ATOM      8  C   UNL A   1      35.704  31.966  27.998  1.00  0.00     0.016 A 
ATOM      9  C   UNL A   1      36.419  29.309  28.447  1.00  0.00     0.010 A 
ATOM     10  C   UNL A   1      36.991  31.662  28.448  1.00  0.00     0.010 A 
ATOM     11  C   UNL A   1      37.342  30.332  28.702  1.00  0.00    -0.014 A 
BRANCH  11  12
ATOM     12  C   UNL A   1      38.586  29.978  29.420  1.00  0.00     0.031 A 
ATOM     13  C   UNL A   1      38.680  30.321  30.871  1.00  0.00     0.074 A 
ATOM     14  C   UNL A   1      39.551  29.266  28.811  1.00  0.00     0.049 A 
ATOM     15  N   UNL A   1      39.600  29.986  31.735  1.00  0.00    -0.248 NA
ATOM     16  C   UNL A   1      37.613  31.176  31.419  1.00  0.00     0.031 C 
ATOM     17  C   UNL A   1      39.576  28.963  27.390  1.00  0.00     0.029 A 
ATOM     18  N   UNL A   1      40.666  28.638  29.296  1.00  0.00    -0.354 N 
ATOM     19  C   UNL A   1      39.249  30.627  32.913  1.00  0.00     0.074 A 
ATOM     20  C   UNL A   1      38.034  31.369  32.658  1.00  0.00     0.031 C 
ATOM     21  C   UNL A   1      40.580  28.117  27.121  1.00  0.00     0.029 A 
ATOM     22  C   UNL A   1      41.320  27.877  28.352  1.00  0.00     0.049 A 
ATOM     23  H   UNL A   1      40.972  28.723  30.229  1.00  0.00     0.167 HD
ATOM     24  C   UNL A   1      39.899  30.606  34.097  1.00  0.00     0.031 A 
ATOM     25  C   UNL A   1      42.398  27.081  28.476  1.00  0.00     0.031 A 
ATOM     26  C   UNL A   1      41.104  29.861  34.321  1.00  0.00     0.049 A 
ATOM     27  C   UNL A   1      43.048  27.004  29.828  1.00  0.00     0.074 A 
ATOM     28  C   UNL A   1      41.854  29.755  35.478  1.00  0.00     0.029 A 
ATOM     29  N   UNL A   1      41.735  29.088  33.355  1.00  0.00    -0.354 N 
ATOM     30  N   UNL A   1      42.683  27.582  30.948  1.00  0.00    -0.248 NA
ATOM     31  C   UNL A   1      44.266  26.190  29.934  1.00  0.00     0.031 C 
ATOM     32  C   UNL A   1      42.956  28.936  35.202  1.00  0.00     0.029 A 
ATOM     33  C   UNL A   1      42.870  28.506  33.885  1.00  0.00     0.049 A 
ATOM     34  H   UNL A   1      41.420  28.972  32.430  1.00  0.00     0.167 HD
ATOM     35  C   UNL A   1      43.639  27.230  31.885  1.00  0.00     0.074 A 
ATOM     36  C   UNL A   1      44.568  26.337  31.217  1.00  0.00     0.031 C 
ATOM     37  C   UNL A   1      43.765  27.631  33.174  1.00  0.00     0.031 A 
BRANCH  24  38
ATOM     38  C   UNL A   1      39.335  31.463  35.190  1.00  0.00    -0.014 A 
ATOM     39  C   UNL A   1      38.423  30.950  36.126  1.00  0.00     0.009 A 
ATOM     40  C   UNL A   1      39.682  32.821  35.252  1.00  0.00     0.009 A 
ATOM     41  C   UNL A   1      37.841  31.790  37.078  1.00  0.00     0.001 A 
ATOM     42  C   UNL A   1      39.117  33.653  36.219  1.00  0.00     0.001 A 
ATOM     43  C   UNL A   1      38.188  33.140  37.123  1.00  0.00     0.000 A 
ENDBRANCH  24  38
BRANCH  25  44
ATOM     44  C   UNL A   1      42.941  26.334  27.308  1.00  0.00    -0.014 A 
ATOM     45  C   UNL A   1      43.853  26.937  26.427  1.00  0.00     0.009 A 
ATOM     46  C   UNL A   1      42.545  25.010  27.058  1.00  0.00     0.009 A 
ATOM     47  C   UNL A   1      44.337  26.241  25.314  1.00  0.00     0.001 A 
ATOM     48  C   UNL A   1      43.055  24.305  25.964  1.00  0.00     0.001 A 
ATOM     49  C   UNL A   1      43.942  24.923  25.087  1.00  0.00     0.000 A 
ENDBRANCH  25  44
BRANCH  37  50
ATOM     50  C   UNL A   1      44.959  27.113  33.916  1.00  0.00    -0.014 A 
ATOM     51  C   UNL A   1      46.123  27.889  34.019  1.00  0.00     0.009 A 
ATOM     52  C   UNL A   1      44.901  25.864  34.547  1.00  0.00     0.009 A 
ATOM     53  C   UNL A   1      47.225  27.406  34.725  1.00  0.00     0.001 A 
ATOM     54  C   UNL A   1      45.997  25.394  35.270  1.00  0.00     0.001 A 
ATOM     55  C   UNL A   1      47.159  26.162  35.352  1.00  0.00     0.000 A 
ENDBRANCH  37  50
ENDBRANCH  11  12
ENDBRANCH   4   6
ENDBRANCH   3   4
ENDBRANCH   2   3
ENDBRANCH   1   2
BRANCH   1  56
ATOM     56  O   UNL A   1      31.166  27.396  27.120  1.00  0.00    -0.458 OA
BRANCH  56  57
ATOM     57  C   UNL A   1      32.109  26.669  26.439  1.00  0.00     0.344 C 
ATOM     58  O   UNL A   1      33.314  26.854  26.522  1.00  0.00    -0.246 OA
BRANCH  57  59
ATOM     59  C   UNL A   1      31.528  25.661  25.584  1.00  0.00     0.133 A 
ATOM     60  C   UNL A   1      30.679  25.824  24.449  1.00  0.00     0.128 A 
ATOM     61  C   UNL A   1      31.641  24.293  25.731  1.00  0.00     0.177 A 
ATOM     62  N   UNL A   1      30.287  24.625  23.986  1.00  0.00    -0.079 NA
ATOM     63  O   UNL A   1      30.889  23.679  24.784  1.00  0.00    -0.357 OA
BRANCH  60  64
ATOM     64  C   UNL A   1      30.270  27.048  23.761  1.00  0.00     0.005 A 
ATOM     65  C   UNL A   1      31.226  27.929  23.238  1.00  0.00     0.012 A 
ATOM     66  C   UNL A   1      28.914  27.337  23.565  1.00  0.00     0.012 A 
ATOM     67  C   UNL A   1      30.844  29.061  22.515  1.00  0.00     0.021 A 
ATOM     68  C   UNL A   1      28.526  28.483  22.862  1.00  0.00     0.021 A 
ATOM     69  C   UNL A   1      29.493  29.335  22.332  1.00  0.00     0.041 A 
ATOM     70  Cl  UNL A   1      29.018  30.729  21.445  1.00  0.00    -0.084 Cl
ENDBRANCH  60  64
BRANCH  61  71
ATOM     71  C   UNL A   1      32.374  23.427  26.683  1.00  0.00     0.242 C 
BRANCH  71  72
ATOM     72  O   UNL A   1      32.901  22.276  26.052  1.00  0.00    -0.345 OA
BRANCH  72  73
ATOM     73  C   UNL A   1      34.308  22.075  26.010  1.00  0.00     0.250 C 
ATOM     74  C   UNL A   1      35.254  23.253  26.292  1.00  0.00     0.062 C 
ATOM     75  O   UNL A   1      34.651  21.520  24.733  1.00  0.00    -0.353 OA
ATOM     76  C   UNL A   1      35.262  24.298  25.180  1.00  0.00     0.008 C 
ATOM     77  C   UNL A   1      34.466  22.452  23.668  1.00  0.00     0.163 C 
ATOM     78  C   UNL A   1      35.410  23.637  23.817  1.00  0.00     0.029 C 
ENDBRANCH  72  73
ENDBRANCH  71  72
ENDBRANCH  61  71
ENDBRANCH  57  59
ENDBRANCH  56  57
ENDBRANCH   1  56
TORSDOF 15
ENDMDL
