MODEL 1
REMARK VINA RESULT:     -13.1      0.000      0.000
REMARK SMILES Cc1ccccc1-n1c(S[C@@H](C)C(=O)OCCOC(=O)c2ccc(-c3c4nc(c(-c5ccccc5)c5ccc([nH]5)c(-c5ccccc5)c5nc(c(-c6ccccc6)c6ccc3[nH]6)C=C5)C=C4)cc2)nc2sc3c(c2c1=O)C[C@@H](C(C)C)OC3
REMARK SMILES IDX 16 1 15 2 13 3 14 4 11 5 12 6 10 7 9 8 8 9 75 10 69 11 74 12
REMARK SMILES IDX 76 13 70 14 73 15 71 16 72 17 77 18 83 19 78 20 82 21 7 22
REMARK SMILES IDX 1 23 2 24 3 25 4 26 6 27 5 28 79 29 80 30 81 31 17 32 18 33
REMARK SMILES IDX 19 34 20 35 21 36 22 37 68 38 23 39 67 40 24 41 25 42 26 43
REMARK SMILES IDX 61 44 27 45 66 46 60 47 62 48 28 49 65 50 59 51 58 52 29 54
REMARK SMILES IDX 51 55 36 56 50 57 37 58 40 59 49 60 63 61 38 62 39 63 48 65
REMARK SMILES IDX 64 66 41 67 30 68 31 69 35 70 32 71 34 72 33 73 52 74 53 75
REMARK SMILES IDX 57 76 54 77 56 78 55 79 42 80 43 81 47 82 44 83 46 84 45 85
REMARK H PARENT 62 53 40 64
REMARK Flexibility Score: inf
ROOT
ATOM      1  C   UNL A   1      35.665  30.666  27.655  1.00  0.00     0.274 C 
ENDROOT
BRANCH   1   2
ATOM      2  O   UNL A   1      34.789  29.500  27.463  1.00  0.00    -0.461 OA
BRANCH   2   3
ATOM      3  C   UNL A   1      33.460  29.383  27.247  1.00  0.00     0.319 C 
ATOM      4  O   UNL A   1      32.675  30.318  27.282  1.00  0.00    -0.251 OA
BRANCH   3   5
ATOM      5  C   UNL A   1      32.970  27.994  26.848  1.00  0.00     0.161 C 
ATOM      6  C   UNL A   1      33.592  27.394  25.569  1.00  0.00     0.032 C 
BRANCH   5   7
ATOM      7  S   UNL A   1      31.227  27.689  26.620  1.00  0.00    -0.072 SA
BRANCH   7   8
ATOM      8  C   UNL A   1      31.015  26.096  25.983  1.00  0.00     0.177 A 
ATOM      9  N   UNL A   1      30.791  25.745  24.600  1.00  0.00    -0.255 N 
ATOM     10  C   UNL A   1      31.114  24.413  24.262  1.00  0.00     0.267 A 
ATOM     11  N   UNL A   1      31.290  25.288  26.965  1.00  0.00    -0.212 NA
ATOM     12  C   UNL A   1      31.718  23.602  25.335  1.00  0.00     0.081 A 
ATOM     13  O   UNL A   1      30.980  23.929  23.142  1.00  0.00    -0.268 OA
ATOM     14  C   UNL A   1      31.677  24.061  26.619  1.00  0.00     0.132 A 
ATOM     15  C   UNL A   1      32.518  22.421  25.278  1.00  0.00    -0.014 A 
ATOM     16  S   UNL A   1      32.430  23.029  27.758  1.00  0.00    -0.117 S 
ATOM     17  C   UNL A   1      32.988  22.015  26.517  1.00  0.00     0.037 A 
ATOM     18  C   UNL A   1      32.963  21.702  24.059  1.00  0.00     0.070 C 
ATOM     19  C   UNL A   1      33.969  20.906  26.755  1.00  0.00     0.207 C 
ATOM     20  C   UNL A   1      34.305  20.995  24.335  1.00  0.00     0.125 C 
ATOM     21  O   UNL A   1      34.171  20.176  25.525  1.00  0.00    -0.372 OA
BRANCH   9  22
ATOM     22  C   UNL A   1      30.090  26.631  23.485  1.00  0.00     0.054 A 
ATOM     23  C   UNL A   1      32.218  27.057  21.959  1.00  0.00     0.046 C 
ATOM     24  C   UNL A   1      31.104  27.815  22.681  1.00  0.00    -0.027 A 
ATOM     25  C   UNL A   1      30.457  29.482  22.256  1.00  0.00     0.005 A 
ATOM     26  C   UNL A   1      28.490  29.830  22.583  1.00  0.00     0.000 A 
ATOM     27  C   UNL A   1      28.340  26.922  23.652  1.00  0.00     0.027 A 
ATOM     28  C   UNL A   1      27.522  28.457  23.255  1.00  0.00     0.002 A 
ENDBRANCH   9  22
BRANCH  20  29
ATOM     29  C   UNL A   1      35.553  21.921  24.417  1.00  0.00     0.012 C 
ATOM     30  C   UNL A   1      36.820  21.060  24.465  1.00  0.00     0.010 C 
ATOM     31  C   UNL A   1      35.644  22.920  23.264  1.00  0.00     0.010 C 
ENDBRANCH  20  29
ENDBRANCH   7   8
ENDBRANCH   5   7
ENDBRANCH   3   5
ENDBRANCH   2   3
ENDBRANCH   1   2
BRANCH   1  32
ATOM     32  C   UNL A   1      36.702  30.703  28.778  1.00  0.00     0.275 C 
BRANCH  32  33
ATOM     33  O   UNL A   1      36.506  29.560  29.629  1.00  0.00    -0.458 OA
BRANCH  33  34
ATOM     34  C   UNL A   1      36.742  29.708  30.961  1.00  0.00     0.338 C 
ATOM     35  O   UNL A   1      35.963  30.177  31.768  1.00  0.00    -0.246 OA
BRANCH  34  36
ATOM     36  C   UNL A   1      38.171  29.300  31.207  1.00  0.00     0.060 A 
ATOM     37  C   UNL A   1      39.411  30.494  31.340  1.00  0.00     0.016 A 
ATOM     38  C   UNL A   1      38.640  27.677  30.651  1.00  0.00     0.016 A 
ATOM     39  C   UNL A   1      41.092  30.246  30.827  1.00  0.00     0.010 A 
ATOM     40  C   UNL A   1      40.533  27.314  30.032  1.00  0.00     0.010 A 
ATOM     41  C   UNL A   1      41.719  28.756  30.105  1.00  0.00    -0.014 A 
BRANCH  41  42
ATOM     42  C   UNL A   1      43.319  28.864  29.777  1.00  0.00     0.031 A 
ATOM     43  C   UNL A   1      43.822  28.305  31.089  1.00  0.00     0.074 A 
ATOM     44  C   UNL A   1      44.276  28.630  28.702  1.00  0.00     0.049 A 
ATOM     45  N   UNL A   1      43.735  27.024  31.097  1.00  0.00    -0.248 NA
ATOM     46  C   UNL A   1      43.855  28.761  32.480  1.00  0.00     0.031 C 
ATOM     47  C   UNL A   1      45.666  29.214  28.671  1.00  0.00     0.029 A 
ATOM     48  N   UNL A   1      44.428  27.904  27.430  1.00  0.00    -0.354 N 
ATOM     49  C   UNL A   1      44.090  26.461  32.275  1.00  0.00     0.074 A 
ATOM     50  C   UNL A   1      43.998  27.591  33.171  1.00  0.00     0.031 C 
ATOM     51  C   UNL A   1      46.505  28.553  27.820  1.00  0.00     0.029 A 
ATOM     52  C   UNL A   1      45.806  27.465  27.148  1.00  0.00     0.049 A 
ATOM     53  H   UNL A   1      43.675  27.729  26.821  1.00  0.00     0.167 HD
ATOM     54  C   UNL A   1      44.449  25.144  32.166  1.00  0.00     0.031 A 
ATOM     55  C   UNL A   1      46.447  26.358  26.548  1.00  0.00     0.031 A 
ATOM     56  C   UNL A   1      44.445  24.724  30.758  1.00  0.00     0.049 A 
ATOM     57  C   UNL A   1      45.550  25.211  26.152  1.00  0.00     0.074 A 
ATOM     58  C   UNL A   1      45.016  25.448  29.726  1.00  0.00     0.029 A 
ATOM     59  N   UNL A   1      43.638  23.767  30.127  1.00  0.00    -0.354 N 
ATOM     60  N   UNL A   1      45.219  24.301  27.014  1.00  0.00    -0.248 NA
ATOM     61  C   UNL A   1      44.991  24.900  24.837  1.00  0.00     0.031 C 
ATOM     62  C   UNL A   1      43.866  25.512  28.942  1.00  0.00     0.029 A 
ATOM     63  C   UNL A   1      43.485  24.210  28.823  1.00  0.00     0.049 A 
ATOM     64  H   UNL A   1      43.260  22.950  30.527  1.00  0.00     0.167 HD
ATOM     65  C   UNL A   1      43.994  23.827  26.610  1.00  0.00     0.074 A 
ATOM     66  C   UNL A   1      44.032  24.010  25.173  1.00  0.00     0.031 C 
ATOM     67  C   UNL A   1      43.013  23.669  27.567  1.00  0.00     0.031 A 
BRANCH  54  68
ATOM     68  C   UNL A   1      45.151  24.267  33.117  1.00  0.00    -0.014 A 
ATOM     69  C   UNL A   1      44.427  23.106  33.489  1.00  0.00     0.009 A 
ATOM     70  C   UNL A   1      46.368  24.518  33.736  1.00  0.00     0.009 A 
ATOM     71  C   UNL A   1      44.847  22.263  34.499  1.00  0.00     0.001 A 
ATOM     72  C   UNL A   1      46.812  23.642  34.739  1.00  0.00     0.001 A 
ATOM     73  C   UNL A   1      46.045  22.535  35.130  1.00  0.00     0.000 A 
ENDBRANCH  54  68
BRANCH  55  74
ATOM     74  C   UNL A   1      47.899  25.812  26.857  1.00  0.00    -0.014 A 
ATOM     75  C   UNL A   1      48.393  25.236  28.045  1.00  0.00     0.009 A 
ATOM     76  C   UNL A   1      48.913  26.097  25.898  1.00  0.00     0.009 A 
ATOM     77  C   UNL A   1      49.774  24.882  28.193  1.00  0.00     0.001 A 
ATOM     78  C   UNL A   1      50.277  25.779  26.048  1.00  0.00     0.001 A 
ATOM     79  C   UNL A   1      50.709  25.132  27.188  1.00  0.00     0.000 A 
ENDBRANCH  55  74
BRANCH  67  80
ATOM     80  C   UNL A   1      41.550  23.560  27.308  1.00  0.00    -0.014 A 
ATOM     81  C   UNL A   1      40.645  24.616  27.418  1.00  0.00     0.009 A 
ATOM     82  C   UNL A   1      41.033  22.317  26.903  1.00  0.00     0.009 A 
ATOM     83  C   UNL A   1      39.302  24.460  27.061  1.00  0.00     0.001 A 
ATOM     84  C   UNL A   1      39.713  22.176  26.478  1.00  0.00     0.001 A 
ATOM     85  C   UNL A   1      38.844  23.248  26.562  1.00  0.00     0.000 A 
ENDBRANCH  67  80
ENDBRANCH  41  42
ENDBRANCH  34  36
ENDBRANCH  33  34
ENDBRANCH  32  33
ENDBRANCH   1  32
TORSDOF 15
ENDMDL
MODEL 2
REMARK VINA RESULT:     -12.6      4.171      9.779
REMARK SMILES Cc1ccccc1-n1c(S[C@@H](C)C(=O)OCCOC(=O)c2ccc(-c3c4nc(c(-c5ccccc5)c5ccc([nH]5)c(-c5ccccc5)c5nc(c(-c6ccccc6)c6ccc3[nH]6)C=C5)C=C4)cc2)nc2sc3c(c2c1=O)C[C@@H](C(C)C)OC3
REMARK SMILES IDX 16 1 15 2 13 3 14 4 11 5 12 6 10 7 9 8 8 9 75 10 69 11 74 12
REMARK SMILES IDX 76 13 70 14 73 15 71 16 72 17 77 18 83 19 78 20 82 21 7 22
REMARK SMILES IDX 1 23 2 24 3 25 4 26 6 27 5 28 79 29 80 30 81 31 17 32 18 33
REMARK SMILES IDX 19 34 20 35 21 36 22 37 68 38 23 39 67 40 24 41 25 42 26 43
REMARK SMILES IDX 61 44 27 45 66 46 60 47 62 48 28 49 65 50 59 51 58 52 29 54
REMARK SMILES IDX 51 55 36 56 50 57 37 58 40 59 49 60 63 61 38 62 39 63 48 65
REMARK SMILES IDX 64 66 41 67 30 68 31 69 35 70 32 71 34 72 33 73 52 74 53 75
REMARK SMILES IDX 57 76 54 77 56 78 55 79 42 80 43 81 47 82 44 83 46 84 45 85
REMARK H PARENT 62 53 40 64
REMARK Flexibility Score: inf
ROOT
ATOM      1  C   UNL A   1      39.534  23.136  26.866  1.00  0.00     0.274 C 
ENDROOT
BRANCH   1   2
ATOM      2  O   UNL A   1      38.309  23.450  26.115  1.00  0.00    -0.461 OA
BRANCH   2   3
ATOM      3  C   UNL A   1      37.478  22.690  25.369  1.00  0.00     0.319 C 
ATOM      4  O   UNL A   1      37.575  21.478  25.252  1.00  0.00    -0.251 OA
BRANCH   3   5
ATOM      5  C   UNL A   1      36.305  23.424  24.723  1.00  0.00     0.161 C 
ATOM      6  C   UNL A   1      35.126  23.774  25.656  1.00  0.00     0.032 C 
BRANCH   5   7
ATOM      7  S   UNL A   1      35.488  22.730  23.298  1.00  0.00    -0.072 SA
BRANCH   7   8
ATOM      8  C   UNL A   1      34.010  23.584  23.027  1.00  0.00     0.177 A 
ATOM      9  N   UNL A   1      32.701  23.214  23.512  1.00  0.00    -0.255 N 
ATOM     10  C   UNL A   1      31.766  24.269  23.572  1.00  0.00     0.267 A 
ATOM     11  N   UNL A   1      34.353  24.709  22.470  1.00  0.00    -0.212 NA
ATOM     12  C   UNL A   1      32.277  25.608  23.221  1.00  0.00     0.081 A 
ATOM     13  O   UNL A   1      30.603  24.146  23.945  1.00  0.00    -0.268 OA
ATOM     14  C   UNL A   1      33.494  25.716  22.614  1.00  0.00     0.132 A 
ATOM     15  C   UNL A   1      31.788  26.910  23.543  1.00  0.00    -0.014 A 
ATOM     16  S   UNL A   1      33.971  27.325  22.281  1.00  0.00    -0.117 S 
ATOM     17  C   UNL A   1      32.621  27.930  23.112  1.00  0.00     0.037 A 
ATOM     18  C   UNL A   1      30.593  27.239  24.357  1.00  0.00     0.070 C 
ATOM     19  C   UNL A   1      32.450  29.386  23.434  1.00  0.00     0.207 C 
ATOM     20  C   UNL A   1      30.801  28.598  25.056  1.00  0.00     0.125 C 
ATOM     21  O   UNL A   1      31.165  29.588  24.061  1.00  0.00    -0.372 OA
BRANCH   9  22
ATOM     22  C   UNL A   1      32.171  21.752  23.831  1.00  0.00     0.054 A 
ATOM     23  C   UNL A   1      31.889  22.023  26.454  1.00  0.00     0.046 C 
ATOM     24  C   UNL A   1      32.553  21.115  25.419  1.00  0.00    -0.027 A 
ATOM     25  C   UNL A   1      33.018  19.351  25.645  1.00  0.00     0.005 A 
ATOM     26  C   UNL A   1      32.895  18.140  24.028  1.00  0.00     0.000 A 
ATOM     27  C   UNL A   1      31.957  20.641  22.453  1.00  0.00     0.027 A 
ATOM     28  C   UNL A   1      32.317  18.895  22.489  1.00  0.00     0.002 A 
ENDBRANCH   9  22
BRANCH  20  29
ATOM     29  C   UNL A   1      31.794  28.598  26.254  1.00  0.00     0.012 C 
ATOM     30  C   UNL A   1      31.799  29.985  26.906  1.00  0.00     0.010 C 
ATOM     31  C   UNL A   1      31.480  27.531  27.303  1.00  0.00     0.010 C 
ENDBRANCH  20  29
ENDBRANCH   7   8
ENDBRANCH   5   7
ENDBRANCH   3   5
ENDBRANCH   2   3
ENDBRANCH   1   2
BRANCH   1  32
ATOM     32  C   UNL A   1      40.435  24.245  27.414  1.00  0.00     0.275 C 
BRANCH  32  33
ATOM     33  O   UNL A   1      40.137  25.469  26.721  1.00  0.00    -0.458 OA
BRANCH  33  34
ATOM     34  C   UNL A   1      41.141  26.071  26.026  1.00  0.00     0.338 C 
ATOM     35  O   UNL A   1      41.659  25.636  25.016  1.00  0.00    -0.246 OA
BRANCH  34  36
ATOM     36  C   UNL A   1      41.557  27.288  26.811  1.00  0.00     0.060 A 
ATOM     37  C   UNL A   1      42.748  27.162  28.054  1.00  0.00     0.016 A 
ATOM     38  C   UNL A   1      40.359  28.595  26.941  1.00  0.00     0.016 A 
ATOM     39  C   UNL A   1      42.770  28.164  29.519  1.00  0.00     0.010 A 
ATOM     40  C   UNL A   1      40.303  29.773  28.586  1.00  0.00     0.010 A 
ATOM     41  C   UNL A   1      41.574  29.412  29.907  1.00  0.00    -0.014 A 
BRANCH  41  42
ATOM     42  C   UNL A   1      41.913  30.161  31.322  1.00  0.00     0.031 A 
ATOM     43  C   UNL A   1      42.739  31.291  30.750  1.00  0.00     0.074 A 
ATOM     44  C   UNL A   1      41.284  30.550  32.580  1.00  0.00     0.049 A 
ATOM     45  N   UNL A   1      41.979  32.199  30.253  1.00  0.00    -0.248 NA
ATOM     46  C   UNL A   1      44.055  31.413  30.121  1.00  0.00     0.031 C 
ATOM     47  C   UNL A   1      42.050  30.915  33.826  1.00  0.00     0.029 A 
ATOM     48  N   UNL A   1      39.962  30.775  33.188  1.00  0.00    -0.354 N 
ATOM     49  C   UNL A   1      42.654  33.202  29.648  1.00  0.00     0.074 A 
ATOM     50  C   UNL A   1      43.947  32.592  29.437  1.00  0.00     0.031 C 
ATOM     51  C   UNL A   1      41.305  31.627  34.723  1.00  0.00     0.029 A 
ATOM     52  C   UNL A   1      39.947  31.817  34.229  1.00  0.00     0.049 A 
ATOM     53  H   UNL A   1      39.158  30.272  32.922  1.00  0.00     0.167 HD
ATOM     54  C   UNL A   1      41.931  34.360  29.539  1.00  0.00     0.031 A 
ATOM     55  C   UNL A   1      39.069  32.826  34.684  1.00  0.00     0.031 A 
ATOM     56  C   UNL A   1      40.633  34.222  30.211  1.00  0.00     0.049 A 
ATOM     57  C   UNL A   1      37.819  33.032  33.864  1.00  0.00     0.074 A 
ATOM     58  C   UNL A   1      40.461  33.686  31.475  1.00  0.00     0.029 A 
ATOM     59  N   UNL A   1      39.345  34.265  29.658  1.00  0.00    -0.354 N 
ATOM     60  N   UNL A   1      37.834  33.794  32.815  1.00  0.00    -0.248 NA
ATOM     61  C   UNL A   1      36.472  32.518  34.107  1.00  0.00     0.031 C 
ATOM     62  C   UNL A   1      39.535  32.716  31.095  1.00  0.00     0.029 A 
ATOM     63  C   UNL A   1      38.572  33.428  30.447  1.00  0.00     0.049 A 
ATOM     64  H   UNL A   1      39.052  34.781  28.872  1.00  0.00     0.167 HD
ATOM     65  C   UNL A   1      36.858  33.304  31.980  1.00  0.00     0.074 A 
ATOM     66  C   UNL A   1      35.899  32.731  32.902  1.00  0.00     0.031 C 
ATOM     67  C   UNL A   1      37.165  33.155  30.643  1.00  0.00     0.031 A 
BRANCH  54  68
ATOM     68  C   UNL A   1      42.368  35.729  29.217  1.00  0.00    -0.014 A 
ATOM     69  C   UNL A   1      41.815  36.256  28.023  1.00  0.00     0.009 A 
ATOM     70  C   UNL A   1      43.316  36.480  29.899  1.00  0.00     0.009 A 
ATOM     71  C   UNL A   1      42.243  37.448  27.471  1.00  0.00     0.001 A 
ATOM     72  C   UNL A   1      43.726  37.707  29.357  1.00  0.00     0.001 A 
ATOM     73  C   UNL A   1      43.207  38.176  28.141  1.00  0.00     0.000 A 
ENDBRANCH  54  68
BRANCH  55  74
ATOM     74  C   UNL A   1      39.459  34.179  35.403  1.00  0.00    -0.014 A 
ATOM     75  C   UNL A   1      40.253  35.240  34.920  1.00  0.00     0.009 A 
ATOM     76  C   UNL A   1      39.143  34.289  36.788  1.00  0.00     0.009 A 
ATOM     77  C   UNL A   1      40.595  36.362  35.745  1.00  0.00     0.001 A 
ATOM     78  C   UNL A   1      39.501  35.374  37.613  1.00  0.00     0.001 A 
ATOM     79  C   UNL A   1      40.200  36.438  37.082  1.00  0.00     0.000 A 
ENDBRANCH  55  74
BRANCH  67  80
ATOM     80  C   UNL A   1      36.432  32.300  29.669  1.00  0.00    -0.014 A 
ATOM     81  C   UNL A   1      35.511  32.773  28.734  1.00  0.00     0.009 A 
ATOM     82  C   UNL A   1      36.692  30.918  29.664  1.00  0.00     0.009 A 
ATOM     83  C   UNL A   1      34.938  31.921  27.785  1.00  0.00     0.001 A 
ATOM     84  C   UNL A   1      36.179  30.079  28.676  1.00  0.00     0.001 A 
ATOM     85  C   UNL A   1      35.297  30.580  27.736  1.00  0.00     0.000 A 
ENDBRANCH  67  80
ENDBRANCH  41  42
ENDBRANCH  34  36
ENDBRANCH  33  34
ENDBRANCH  32  33
ENDBRANCH   1  32
TORSDOF 15
ENDMDL
MODEL 3
REMARK VINA RESULT:     -11.1      3.197      8.054
REMARK SMILES Cc1ccccc1-n1c(S[C@@H](C)C(=O)OCCOC(=O)c2ccc(-c3c4nc(c(-c5ccccc5)c5ccc([nH]5)c(-c5ccccc5)c5nc(c(-c6ccccc6)c6ccc3[nH]6)C=C5)C=C4)cc2)nc2sc3c(c2c1=O)C[C@@H](C(C)C)OC3
REMARK SMILES IDX 16 1 15 2 13 3 14 4 11 5 12 6 10 7 9 8 8 9 75 10 69 11 74 12
REMARK SMILES IDX 76 13 70 14 73 15 71 16 72 17 77 18 83 19 78 20 82 21 7 22
REMARK SMILES IDX 1 23 2 24 3 25 4 26 6 27 5 28 79 29 80 30 81 31 17 32 18 33
REMARK SMILES IDX 19 34 20 35 21 36 22 37 68 38 23 39 67 40 24 41 25 42 26 43
REMARK SMILES IDX 61 44 27 45 66 46 60 47 62 48 28 49 65 50 59 51 58 52 29 54
REMARK SMILES IDX 51 55 36 56 50 57 37 58 40 59 49 60 63 61 38 62 39 63 48 65
REMARK SMILES IDX 64 66 41 67 30 68 31 69 35 70 32 71 34 72 33 73 52 74 53 75
REMARK SMILES IDX 57 76 54 77 56 78 55 79 42 80 43 81 47 82 44 83 46 84 45 85
REMARK H PARENT 62 53 40 64
REMARK Flexibility Score: inf
ROOT
ATOM      1  C   UNL A   1      39.014  21.002  25.744  1.00  0.00     0.274 C 
ENDROOT
BRANCH   1   2
ATOM      2  O   UNL A   1      38.140  21.990  25.092  1.00  0.00    -0.461 OA
BRANCH   2   3
ATOM      3  C   UNL A   1      37.755  23.237  25.441  1.00  0.00     0.319 C 
ATOM      4  O   UNL A   1      38.435  24.005  26.104  1.00  0.00    -0.251 OA
BRANCH   3   5
ATOM      5  C   UNL A   1      36.417  23.704  24.872  1.00  0.00     0.161 C 
ATOM      6  C   UNL A   1      35.289  23.943  25.898  1.00  0.00     0.032 C 
BRANCH   5   7
ATOM      7  S   UNL A   1      35.602  22.753  23.603  1.00  0.00    -0.072 SA
BRANCH   7   8
ATOM      8  C   UNL A   1      34.099  23.512  23.212  1.00  0.00     0.177 A 
ATOM      9  N   UNL A   1      32.795  23.150  23.716  1.00  0.00    -0.255 N 
ATOM     10  C   UNL A   1      31.821  24.168  23.638  1.00  0.00     0.267 A 
ATOM     11  N   UNL A   1      34.412  24.579  22.534  1.00  0.00    -0.212 NA
ATOM     12  C   UNL A   1      32.289  25.476  23.143  1.00  0.00     0.081 A 
ATOM     13  O   UNL A   1      30.656  24.043  24.005  1.00  0.00    -0.268 OA
ATOM     14  C   UNL A   1      33.513  25.561  22.546  1.00  0.00     0.132 A 
ATOM     15  C   UNL A   1      31.746  26.786  23.304  1.00  0.00    -0.014 A 
ATOM     16  S   UNL A   1      33.937  27.139  22.038  1.00  0.00    -0.117 S 
ATOM     17  C   UNL A   1      32.549  27.782  22.772  1.00  0.00     0.037 A 
ATOM     18  C   UNL A   1      30.524  27.160  24.056  1.00  0.00     0.070 C 
ATOM     19  C   UNL A   1      32.318  29.257  22.920  1.00  0.00     0.207 C 
ATOM     20  C   UNL A   1      30.667  28.597  24.596  1.00  0.00     0.125 C 
ATOM     21  O   UNL A   1      31.014  29.480  23.499  1.00  0.00    -0.372 OA
BRANCH   9  22
ATOM     22  C   UNL A   1      32.313  21.714  24.193  1.00  0.00     0.054 A 
ATOM     23  C   UNL A   1      32.115  22.233  26.787  1.00  0.00     0.046 C 
ATOM     24  C   UNL A   1      32.766  21.243  25.821  1.00  0.00    -0.027 A 
ATOM     25  C   UNL A   1      33.282  19.521  26.198  1.00  0.00     0.005 A 
ATOM     26  C   UNL A   1      33.133  18.155  24.711  1.00  0.00     0.000 A 
ATOM     27  C   UNL A   1      32.079  20.471  22.937  1.00  0.00     0.027 A 
ATOM     28  C   UNL A   1      32.484  18.745  23.129  1.00  0.00     0.002 A 
ENDBRANCH   9  22
BRANCH  20  29
ATOM     29  C   UNL A   1      31.635  28.774  25.801  1.00  0.00     0.012 C 
ATOM     30  C   UNL A   1      31.526  30.208  26.331  1.00  0.00     0.010 C 
ATOM     31  C   UNL A   1      31.382  27.780  26.934  1.00  0.00     0.010 C 
ENDBRANCH  20  29
ENDBRANCH   7   8
ENDBRANCH   5   7
ENDBRANCH   3   5
ENDBRANCH   2   3
ENDBRANCH   1   2
BRANCH   1  32
ATOM     32  C   UNL A   1      40.241  21.437  26.547  1.00  0.00     0.275 C 
BRANCH  32  33
ATOM     33  O   UNL A   1      41.424  21.138  25.787  1.00  0.00    -0.458 OA
BRANCH  33  34
ATOM     34  C   UNL A   1      42.566  21.813  26.090  1.00  0.00     0.338 C 
ATOM     35  O   UNL A   1      43.677  21.325  26.160  1.00  0.00    -0.246 OA
BRANCH  34  36
ATOM     36  C   UNL A   1      42.170  23.225  26.437  1.00  0.00     0.060 A 
ATOM     37  C   UNL A   1      42.339  24.491  25.276  1.00  0.00     0.016 A 
ATOM     38  C   UNL A   1      42.233  23.666  28.158  1.00  0.00     0.016 A 
ATOM     39  C   UNL A   1      42.707  26.178  25.687  1.00  0.00     0.010 A 
ATOM     40  C   UNL A   1      42.664  25.564  28.714  1.00  0.00     0.010 A 
ATOM     41  C   UNL A   1      42.961  26.785  27.331  1.00  0.00    -0.014 A 
BRANCH  41  42
ATOM     42  C   UNL A   1      43.254  28.395  27.348  1.00  0.00     0.031 A 
ATOM     43  C   UNL A   1      41.814  28.852  27.423  1.00  0.00     0.074 A 
ATOM     44  C   UNL A   1      44.152  29.380  27.940  1.00  0.00     0.049 A 
ATOM     45  N   UNL A   1      41.369  28.747  28.623  1.00  0.00    -0.248 NA
ATOM     46  C   UNL A   1      40.665  28.851  26.516  1.00  0.00     0.031 C 
ATOM     47  C   UNL A   1      44.338  30.777  27.407  1.00  0.00     0.029 A 
ATOM     48  N   UNL A   1      45.092  29.558  29.059  1.00  0.00    -0.354 N 
ATOM     49  C   UNL A   1      40.060  29.059  28.747  1.00  0.00     0.074 A 
ATOM     50  C   UNL A   1      39.609  28.958  27.378  1.00  0.00     0.031 C 
ATOM     51  C   UNL A   1      44.882  31.632  28.323  1.00  0.00     0.029 A 
ATOM     52  C   UNL A   1      45.161  30.937  29.573  1.00  0.00     0.049 A 
ATOM     53  H   UNL A   1      45.627  28.820  29.431  1.00  0.00     0.167 HD
ATOM     54  C   UNL A   1      39.698  29.403  30.022  1.00  0.00     0.031 A 
ATOM     55  C   UNL A   1      45.323  31.580  30.821  1.00  0.00     0.031 A 
ATOM     56  C   UNL A   1      40.874  29.434  30.901  1.00  0.00     0.049 A 
ATOM     57  C   UNL A   1      45.329  30.678  32.032  1.00  0.00     0.074 A 
ATOM     58  C   UNL A   1      42.074  30.045  30.579  1.00  0.00     0.029 A 
ATOM     59  N   UNL A   1      41.163  28.632  32.014  1.00  0.00    -0.354 N 
ATOM     60  N   UNL A   1      44.218  30.310  32.588  1.00  0.00    -0.248 NA
ATOM     61  C   UNL A   1      46.475  30.153  32.774  1.00  0.00     0.031 C 
ATOM     62  C   UNL A   1      42.868  28.919  30.784  1.00  0.00     0.029 A 
ATOM     63  C   UNL A   1      42.544  28.523  32.046  1.00  0.00     0.049 A 
ATOM     64  H   UNL A   1      40.519  28.231  32.642  1.00  0.00     0.167 HD
ATOM     65  C   UNL A   1      44.474  29.090  33.169  1.00  0.00     0.074 A 
ATOM     66  C   UNL A   1      45.884  29.173  33.491  1.00  0.00     0.031 C 
ATOM     67  C   UNL A   1      43.553  28.080  32.985  1.00  0.00     0.031 A 
BRANCH  54  68
ATOM     68  C   UNL A   1      38.481  30.064  30.522  1.00  0.00    -0.014 A 
ATOM     69  C   UNL A   1      38.564  31.477  30.584  1.00  0.00     0.009 A 
ATOM     70  C   UNL A   1      37.341  29.443  31.014  1.00  0.00     0.009 A 
ATOM     71  C   UNL A   1      37.593  32.251  31.189  1.00  0.00     0.001 A 
ATOM     72  C   UNL A   1      36.338  30.232  31.597  1.00  0.00     0.001 A 
ATOM     73  C   UNL A   1      36.475  31.623  31.702  1.00  0.00     0.000 A 
ENDBRANCH  54  68
BRANCH  55  74
ATOM     74  C   UNL A   1      44.799  33.014  31.233  1.00  0.00    -0.014 A 
ATOM     75  C   UNL A   1      43.719  33.747  30.700  1.00  0.00     0.009 A 
ATOM     76  C   UNL A   1      45.617  33.769  32.122  1.00  0.00     0.009 A 
ATOM     77  C   UNL A   1      43.438  35.088  31.122  1.00  0.00     0.001 A 
ATOM     78  C   UNL A   1      45.363  35.097  32.519  1.00  0.00     0.001 A 
ATOM     79  C   UNL A   1      44.245  35.752  32.046  1.00  0.00     0.000 A 
ENDBRANCH  55  74
BRANCH  67  80
ATOM     80  C   UNL A   1      43.805  26.623  33.171  1.00  0.00    -0.014 A 
ATOM     81  C   UNL A   1      43.454  25.897  34.308  1.00  0.00     0.009 A 
ATOM     82  C   UNL A   1      44.421  25.913  32.125  1.00  0.00     0.009 A 
ATOM     83  C   UNL A   1      43.633  24.512  34.368  1.00  0.00     0.001 A 
ATOM     84  C   UNL A   1      44.535  24.524  32.151  1.00  0.00     0.001 A 
ATOM     85  C   UNL A   1      44.144  23.821  33.277  1.00  0.00     0.000 A 
ENDBRANCH  67  80
ENDBRANCH  41  42
ENDBRANCH  34  36
ENDBRANCH  33  34
ENDBRANCH  32  33
ENDBRANCH   1  32
TORSDOF 15
ENDMDL
