MODEL 1
REMARK VINA RESULT:     -10.1      0.000      0.000
REMARK SMILES C[C@@H](NC(=O)N1CC[N@@H+]2CCCC[C@H]2C1)C(=O)OCCOC(=O)c1ccc(-c2c3nc(c(-c4ccccc4)c4ccc([nH]4)c(-c4ccccc4)c4nc(c(-c5ccccc5)c5ccc2[nH]5)C=C4)C=C3)cc1
REMARK SMILES IDX 19 1 18 2 16 3 17 4 2 5 1 6 3 7 4 8 5 10 6 11 7 12 15 13
REMARK SMILES IDX 8 14 14 15 9 16 13 17 10 18 12 20 11 21 20 22 21 23 22 24
REMARK SMILES IDX 23 25 24 26 25 27 71 28 26 29 70 30 27 31 28 32 29 33 64 34
REMARK SMILES IDX 30 35 69 36 63 37 65 38 31 39 68 40 62 41 61 42 32 44 54 45
REMARK SMILES IDX 39 46 53 47 40 48 43 49 52 50 66 51 41 52 42 53 51 55 67 56
REMARK SMILES IDX 44 57 33 58 34 59 38 60 35 61 37 62 36 63 55 64 56 65 60 66
REMARK SMILES IDX 57 67 59 68 58 69 45 70 46 71 50 72 47 73 49 74 48 75
REMARK H PARENT 3 9 9 19 65 43 43 54
REMARK Flexibility Score: inf
ROOT
ATOM      1  C   UNL A   1      33.904  34.580  28.425  1.00  0.00     0.274 C 
ENDROOT
BRANCH   1   2
ATOM      2  O   UNL A   1      32.811  35.342  28.974  1.00  0.00    -0.461 OA
BRANCH   2   3
ATOM      3  C   UNL A   1      33.162  36.454  29.678  1.00  0.00     0.328 C 
ATOM      4  O   UNL A   1      33.166  37.590  29.212  1.00  0.00    -0.250 OA
BRANCH   3   5
ATOM      5  C   UNL A   1      33.590  36.173  31.124  1.00  0.00     0.190 C 
ATOM      6  C   UNL A   1      33.132  37.278  32.076  1.00  0.00     0.043 C 
BRANCH   5   7
ATOM      7  N   UNL A   1      33.301  34.859  31.718  1.00  0.00    -0.325 N 
ATOM      8  C   UNL A   1      34.030  34.061  32.541  1.00  0.00     0.318 C 
ATOM      9  H   UNL A   1      32.420  34.492  31.477  1.00  0.00     0.166 HD
ATOM     10  O   UNL A   1      33.455  33.218  33.224  1.00  0.00    -0.249 OA
BRANCH   8  11
ATOM     11  N   UNL A   1      35.388  34.096  32.397  1.00  0.00    -0.313 N 
ATOM     12  C   UNL A   1      36.240  33.778  33.540  1.00  0.00     0.183 C 
ATOM     13  C   UNL A   1      35.914  33.518  31.167  1.00  0.00     0.186 C 
ATOM     14  C   UNL A   1      37.713  34.200  33.304  1.00  0.00     0.284 C 
ATOM     15  C   UNL A   1      37.296  34.118  30.877  1.00  0.00     0.203 C 
ATOM     16  N   UNL A   1      38.273  33.876  31.966  1.00  0.00    -0.330 N 
ATOM     17  C   UNL A   1      37.875  33.591  29.563  1.00  0.00     0.067 C 
ATOM     18  C   UNL A   1      39.514  34.633  31.726  1.00  0.00     0.262 C 
ATOM     19  H   UNL A   1      38.488  32.879  31.962  1.00  0.00     0.348 HD
ATOM     20  C   UNL A   1      39.128  34.390  29.215  1.00  0.00     0.012 C 
ATOM     21  C   UNL A   1      40.139  34.339  30.357  1.00  0.00     0.062 C 
ENDBRANCH   8  11
ENDBRANCH   5   7
ENDBRANCH   3   5
ENDBRANCH   2   3
ENDBRANCH   1   2
BRANCH   1  22
ATOM     22  C   UNL A   1      33.670  33.077  28.254  1.00  0.00     0.275 C 
BRANCH  22  23
ATOM     23  O   UNL A   1      34.889  32.352  28.035  1.00  0.00    -0.458 OA
BRANCH  23  24
ATOM     24  C   UNL A   1      34.714  31.027  27.840  1.00  0.00     0.338 C 
ATOM     25  O   UNL A   1      33.721  30.481  27.370  1.00  0.00    -0.246 OA
BRANCH  24  26
ATOM     26  C   UNL A   1      35.955  30.290  28.123  1.00  0.00     0.060 A 
ATOM     27  C   UNL A   1      36.073  29.701  29.389  1.00  0.00     0.016 A 
ATOM     28  C   UNL A   1      37.008  30.232  27.208  1.00  0.00     0.016 A 
ATOM     29  C   UNL A   1      37.260  29.087  29.767  1.00  0.00     0.010 A 
ATOM     30  C   UNL A   1      38.209  29.632  27.595  1.00  0.00     0.010 A 
ATOM     31  C   UNL A   1      38.345  29.091  28.887  1.00  0.00    -0.014 A 
BRANCH  31  32
ATOM     32  C   UNL A   1      39.678  28.679  29.371  1.00  0.00     0.031 A 
ATOM     33  C   UNL A   1      40.244  27.379  28.879  1.00  0.00     0.074 A 
ATOM     34  C   UNL A   1      40.357  29.449  30.238  1.00  0.00     0.049 A 
ATOM     35  N   UNL A   1      41.321  26.747  29.262  1.00  0.00    -0.248 NA
ATOM     36  C   UNL A   1      39.488  26.694  27.814  1.00  0.00     0.031 C 
ATOM     37  C   UNL A   1      39.921  30.755  30.731  1.00  0.00     0.029 A 
ATOM     38  N   UNL A   1      41.549  29.226  30.876  1.00  0.00    -0.354 N 
ATOM     39  C   UNL A   1      41.357  25.580  28.509  1.00  0.00     0.074 A 
ATOM     40  C   UNL A   1      40.197  25.588  27.647  1.00  0.00     0.031 C 
ATOM     41  C   UNL A   1      40.819  31.204  31.624  1.00  0.00     0.029 A 
ATOM     42  C   UNL A   1      41.864  30.198  31.794  1.00  0.00     0.049 A 
ATOM     43  H   UNL A   1      42.122  28.447  30.694  1.00  0.00     0.167 HD
ATOM     44  C   UNL A   1      42.274  24.587  28.547  1.00  0.00     0.031 A 
ATOM     45  C   UNL A   1      42.857  30.238  32.702  1.00  0.00     0.031 A 
ATOM     46  C   UNL A   1      43.421  24.593  29.412  1.00  0.00     0.049 A 
ATOM     47  C   UNL A   1      43.824  29.086  32.772  1.00  0.00     0.074 A 
ATOM     48  C   UNL A   1      44.434  23.656  29.509  1.00  0.00     0.029 A 
ATOM     49  N   UNL A   1      43.698  25.587  30.338  1.00  0.00    -0.354 N 
ATOM     50  N   UNL A   1      43.869  27.999  32.038  1.00  0.00    -0.248 NA
ATOM     51  C   UNL A   1      44.870  29.161  33.801  1.00  0.00     0.031 C 
ATOM     52  C   UNL A   1      45.296  24.057  30.535  1.00  0.00     0.029 A 
ATOM     53  C   UNL A   1      44.846  25.266  31.040  1.00  0.00     0.049 A 
ATOM     54  H   UNL A   1      43.159  26.398  30.476  1.00  0.00     0.167 HD
ATOM     55  C   UNL A   1      44.953  27.269  32.507  1.00  0.00     0.074 A 
ATOM     56  C   UNL A   1      45.551  28.045  33.573  1.00  0.00     0.031 C 
ATOM     57  C   UNL A   1      45.413  26.062  32.097  1.00  0.00     0.031 A 
BRANCH  44  58
ATOM     58  C   UNL A   1      42.047  23.392  27.670  1.00  0.00    -0.014 A 
ATOM     59  C   UNL A   1      42.565  23.327  26.367  1.00  0.00     0.009 A 
ATOM     60  C   UNL A   1      41.337  22.290  28.175  1.00  0.00     0.009 A 
ATOM     61  C   UNL A   1      42.358  22.191  25.581  1.00  0.00     0.001 A 
ATOM     62  C   UNL A   1      41.149  21.148  27.395  1.00  0.00     0.001 A 
ATOM     63  C   UNL A   1      41.655  21.101  26.097  1.00  0.00     0.000 A 
ENDBRANCH  44  58
BRANCH  45  64
ATOM     64  C   UNL A   1      42.948  31.367  33.663  1.00  0.00    -0.014 A 
ATOM     65  C   UNL A   1      42.344  31.291  34.927  1.00  0.00     0.009 A 
ATOM     66  C   UNL A   1      43.624  32.546  33.308  1.00  0.00     0.009 A 
ATOM     67  C   UNL A   1      42.394  32.378  35.802  1.00  0.00     0.001 A 
ATOM     68  C   UNL A   1      43.698  33.621  34.195  1.00  0.00     0.001 A 
ATOM     69  C   UNL A   1      43.073  33.541  35.438  1.00  0.00     0.000 A 
ENDBRANCH  45  64
BRANCH  57  70
ATOM     70  C   UNL A   1      46.626  25.520  32.794  1.00  0.00    -0.014 A 
ATOM     71  C   UNL A   1      47.916  25.856  32.360  1.00  0.00     0.009 A 
ATOM     72  C   UNL A   1      46.474  24.713  33.933  1.00  0.00     0.009 A 
ATOM     73  C   UNL A   1      49.035  25.374  33.041  1.00  0.00     0.001 A 
ATOM     74  C   UNL A   1      47.593  24.254  34.626  1.00  0.00     0.001 A 
ATOM     75  C   UNL A   1      48.872  24.579  34.176  1.00  0.00     0.000 A 
ENDBRANCH  57  70
ENDBRANCH  31  32
ENDBRANCH  24  26
ENDBRANCH  23  24
ENDBRANCH  22  23
ENDBRANCH   1  22
TORSDOF 13
ENDMDL
MODEL 2
REMARK VINA RESULT:     -10.0      1.018      6.208
REMARK SMILES C[C@@H](NC(=O)N1CC[N@@H+]2CCCC[C@H]2C1)C(=O)OCCOC(=O)c1ccc(-c2c3nc(c(-c4ccccc4)c4ccc([nH]4)c(-c4ccccc4)c4nc(c(-c5ccccc5)c5ccc2[nH]5)C=C4)C=C3)cc1
REMARK SMILES IDX 19 1 18 2 16 3 17 4 2 5 1 6 3 7 4 8 5 10 6 11 7 12 15 13
REMARK SMILES IDX 8 14 14 15 9 16 13 17 10 18 12 20 11 21 20 22 21 23 22 24
REMARK SMILES IDX 23 25 24 26 25 27 71 28 26 29 70 30 27 31 28 32 29 33 64 34
REMARK SMILES IDX 30 35 69 36 63 37 65 38 31 39 68 40 62 41 61 42 32 44 54 45
REMARK SMILES IDX 39 46 53 47 40 48 43 49 52 50 66 51 41 52 42 53 51 55 67 56
REMARK SMILES IDX 44 57 33 58 34 59 38 60 35 61 37 62 36 63 55 64 56 65 60 66
REMARK SMILES IDX 57 67 59 68 58 69 45 70 46 71 50 72 47 73 49 74 48 75
REMARK H PARENT 3 9 9 19 65 43 43 54
REMARK Flexibility Score: inf
ROOT
ATOM      1  C   UNL A   1      33.908  34.493  28.393  1.00  0.00     0.274 C 
ENDROOT
BRANCH   1   2
ATOM      2  O   UNL A   1      32.842  35.274  28.968  1.00  0.00    -0.461 OA
BRANCH   2   3
ATOM      3  C   UNL A   1      33.230  36.379  29.664  1.00  0.00     0.328 C 
ATOM      4  O   UNL A   1      33.250  37.514  29.198  1.00  0.00    -0.250 OA
BRANCH   3   5
ATOM      5  C   UNL A   1      33.678  36.089  31.102  1.00  0.00     0.190 C 
ATOM      6  C   UNL A   1      33.294  37.221  32.056  1.00  0.00     0.043 C 
BRANCH   5   7
ATOM      7  N   UNL A   1      33.344  34.794  31.714  1.00  0.00    -0.325 N 
ATOM      8  C   UNL A   1      34.014  34.017  32.605  1.00  0.00     0.318 C 
ATOM      9  H   UNL A   1      32.477  34.424  31.428  1.00  0.00     0.166 HD
ATOM     10  O   UNL A   1      33.391  33.196  33.273  1.00  0.00    -0.249 OA
BRANCH   8  11
ATOM     11  N   UNL A   1      35.378  34.041  32.546  1.00  0.00    -0.313 N 
ATOM     12  C   UNL A   1      36.154  33.589  33.698  1.00  0.00     0.183 C 
ATOM     13  C   UNL A   1      35.972  33.585  31.296  1.00  0.00     0.186 C 
ATOM     14  C   UNL A   1      37.645  34.006  33.596  1.00  0.00     0.284 C 
ATOM     15  C   UNL A   1      37.376  34.186  31.153  1.00  0.00     0.203 C 
ATOM     16  N   UNL A   1      38.282  33.813  32.267  1.00  0.00    -0.330 N 
ATOM     17  C   UNL A   1      38.028  33.789  29.828  1.00  0.00     0.067 C 
ATOM     18  C   UNL A   1      39.544  34.568  32.182  1.00  0.00     0.262 C 
ATOM     19  H   UNL A   1      38.484  32.818  32.171  1.00  0.00     0.348 HD
ATOM     20  C   UNL A   1      39.309  34.596  29.641  1.00  0.00     0.012 C 
ATOM     21  C   UNL A   1      40.248  34.407  30.830  1.00  0.00     0.062 C 
ENDBRANCH   8  11
ENDBRANCH   5   7
ENDBRANCH   3   5
ENDBRANCH   2   3
ENDBRANCH   1   2
BRANCH   1  22
ATOM     22  C   UNL A   1      33.837  32.979  28.608  1.00  0.00     0.275 C 
BRANCH  22  23
ATOM     23  O   UNL A   1      34.983  32.295  28.082  1.00  0.00    -0.458 OA
BRANCH  23  24
ATOM     24  C   UNL A   1      34.776  30.983  27.835  1.00  0.00     0.338 C 
ATOM     25  O   UNL A   1      33.771  30.481  27.344  1.00  0.00    -0.246 OA
BRANCH  24  26
ATOM     26  C   UNL A   1      35.998  30.205  28.088  1.00  0.00     0.060 A 
ATOM     27  C   UNL A   1      36.139  29.633  29.359  1.00  0.00     0.016 A 
ATOM     28  C   UNL A   1      37.016  30.093  27.139  1.00  0.00     0.016 A 
ATOM     29  C   UNL A   1      37.315  28.981  29.707  1.00  0.00     0.010 A 
ATOM     30  C   UNL A   1      38.207  29.455  27.494  1.00  0.00     0.010 A 
ATOM     31  C   UNL A   1      38.368  28.931  28.790  1.00  0.00    -0.014 A 
BRANCH  31  32
ATOM     32  C   UNL A   1      39.701  28.478  29.235  1.00  0.00     0.031 A 
ATOM     33  C   UNL A   1      40.528  29.412  30.069  1.00  0.00     0.074 A 
ATOM     34  C   UNL A   1      40.160  27.263  28.889  1.00  0.00     0.049 A 
ATOM     35  N   UNL A   1      41.770  29.294  30.459  1.00  0.00    -0.248 NA
ATOM     36  C   UNL A   1      39.868  30.651  30.519  1.00  0.00     0.031 C 
ATOM     37  C   UNL A   1      39.412  26.260  28.132  1.00  0.00     0.029 A 
ATOM     38  N   UNL A   1      41.380  26.680  29.112  1.00  0.00    -0.354 N 
ATOM     39  C   UNL A   1      42.048  30.453  31.173  1.00  0.00     0.074 A 
ATOM     40  C   UNL A   1      40.850  31.262  31.166  1.00  0.00     0.031 C 
ATOM     41  C   UNL A   1      40.204  25.194  27.922  1.00  0.00     0.029 A 
ATOM     42  C   UNL A   1      41.522  25.463  28.493  1.00  0.00     0.049 A 
ATOM     43  H   UNL A   1      42.084  27.092  29.663  1.00  0.00     0.167 HD
ATOM     44  C   UNL A   1      43.207  30.811  31.772  1.00  0.00     0.031 A 
ATOM     45  C   UNL A   1      42.611  24.683  28.361  1.00  0.00     0.031 A 
ATOM     46  C   UNL A   1      44.390  29.996  31.769  1.00  0.00     0.049 A 
ATOM     47  C   UNL A   1      43.908  25.138  28.976  1.00  0.00     0.074 A 
ATOM     48  C   UNL A   1      45.610  30.243  32.373  1.00  0.00     0.029 A 
ATOM     49  N   UNL A   1      44.500  28.777  31.118  1.00  0.00    -0.354 N 
ATOM     50  N   UNL A   1      44.157  26.221  29.674  1.00  0.00    -0.248 NA
ATOM     51  C   UNL A   1      45.077  24.269  28.776  1.00  0.00     0.031 C 
ATOM     52  C   UNL A   1      46.476  29.197  32.040  1.00  0.00     0.029 A 
ATOM     53  C   UNL A   1      45.780  28.277  31.272  1.00  0.00     0.049 A 
ATOM     54  H   UNL A   1      43.776  28.333  30.621  1.00  0.00     0.167 HD
ATOM     55  C   UNL A   1      45.503  26.156  30.008  1.00  0.00     0.074 A 
ATOM     56  C   UNL A   1      46.013  24.919  29.454  1.00  0.00     0.031 C 
ATOM     57  C   UNL A   1      46.255  27.042  30.705  1.00  0.00     0.031 A 
BRANCH  44  58
ATOM     58  C   UNL A   1      43.268  32.157  32.429  1.00  0.00    -0.014 A 
ATOM     59  C   UNL A   1      42.955  32.326  33.787  1.00  0.00     0.009 A 
ATOM     60  C   UNL A   1      43.689  33.270  31.684  1.00  0.00     0.009 A 
ATOM     61  C   UNL A   1      43.045  33.588  34.379  1.00  0.00     0.001 A 
ATOM     62  C   UNL A   1      43.797  34.526  32.284  1.00  0.00     0.001 A 
ATOM     63  C   UNL A   1      43.470  34.686  33.629  1.00  0.00     0.000 A 
ENDBRANCH  44  58
BRANCH  45  64
ATOM     64  C   UNL A   1      42.546  23.434  27.559  1.00  0.00    -0.014 A 
ATOM     65  C   UNL A   1      42.181  22.214  28.149  1.00  0.00     0.009 A 
ATOM     66  C   UNL A   1      42.875  23.452  26.194  1.00  0.00     0.009 A 
ATOM     67  C   UNL A   1      42.171  21.038  27.395  1.00  0.00     0.001 A 
ATOM     68  C   UNL A   1      42.837  22.281  25.436  1.00  0.00     0.001 A 
ATOM     69  C   UNL A   1      42.496  21.072  26.039  1.00  0.00     0.000 A 
ENDBRANCH  45  64
BRANCH  57  70
ATOM     70  C   UNL A   1      47.698  26.694  30.919  1.00  0.00    -0.014 A 
ATOM     71  C   UNL A   1      48.096  25.914  32.015  1.00  0.00     0.009 A 
ATOM     72  C   UNL A   1      48.660  27.101  29.982  1.00  0.00     0.009 A 
ATOM     73  C   UNL A   1      49.438  25.568  32.181  1.00  0.00     0.001 A 
ATOM     74  C   UNL A   1      49.996  26.733  30.137  1.00  0.00     0.001 A 
ATOM     75  C   UNL A   1      50.384  25.972  31.239  1.00  0.00     0.000 A 
ENDBRANCH  57  70
ENDBRANCH  31  32
ENDBRANCH  24  26
ENDBRANCH  23  24
ENDBRANCH  22  23
ENDBRANCH   1  22
TORSDOF 13
ENDMDL
MODEL 3
REMARK VINA RESULT:     -10.0      0.879      6.112
REMARK SMILES C[C@@H](NC(=O)N1CC[N@@H+]2CCCC[C@H]2C1)C(=O)OCCOC(=O)c1ccc(-c2c3nc(c(-c4ccccc4)c4ccc([nH]4)c(-c4ccccc4)c4nc(c(-c5ccccc5)c5ccc2[nH]5)C=C4)C=C3)cc1
REMARK SMILES IDX 19 1 18 2 16 3 17 4 2 5 1 6 3 7 4 8 5 10 6 11 7 12 15 13
REMARK SMILES IDX 8 14 14 15 9 16 13 17 10 18 12 20 11 21 20 22 21 23 22 24
REMARK SMILES IDX 23 25 24 26 25 27 71 28 26 29 70 30 27 31 28 32 29 33 64 34
REMARK SMILES IDX 30 35 69 36 63 37 65 38 31 39 68 40 62 41 61 42 32 44 54 45
REMARK SMILES IDX 39 46 53 47 40 48 43 49 52 50 66 51 41 52 42 53 51 55 67 56
REMARK SMILES IDX 44 57 33 58 34 59 38 60 35 61 37 62 36 63 55 64 56 65 60 66
REMARK SMILES IDX 57 67 59 68 58 69 45 70 46 71 50 72 47 73 49 74 48 75
REMARK H PARENT 3 9 9 19 65 43 43 54
REMARK Flexibility Score: inf
ROOT
ATOM      1  C   UNL A   1      33.751  34.230  28.162  1.00  0.00     0.274 C 
ENDROOT
BRANCH   1   2
ATOM      2  O   UNL A   1      32.722  34.956  28.861  1.00  0.00    -0.461 OA
BRANCH   2   3
ATOM      3  C   UNL A   1      33.130  36.085  29.505  1.00  0.00     0.328 C 
ATOM      4  O   UNL A   1      33.167  37.197  28.988  1.00  0.00    -0.250 OA
BRANCH   3   5
ATOM      5  C   UNL A   1      33.579  35.853  30.953  1.00  0.00     0.190 C 
ATOM      6  C   UNL A   1      33.215  37.032  31.856  1.00  0.00     0.043 C 
BRANCH   5   7
ATOM      7  N   UNL A   1      33.228  34.592  31.624  1.00  0.00    -0.325 N 
ATOM      8  C   UNL A   1      33.843  33.895  32.615  1.00  0.00     0.318 C 
ATOM      9  H   UNL A   1      32.397  34.179  31.295  1.00  0.00     0.166 HD
ATOM     10  O   UNL A   1      33.188  33.103  33.286  1.00  0.00    -0.249 OA
BRANCH   8  11
ATOM     11  N   UNL A   1      35.206  33.956  32.663  1.00  0.00    -0.313 N 
ATOM     12  C   UNL A   1      35.893  33.702  33.927  1.00  0.00     0.183 C 
ATOM     13  C   UNL A   1      35.912  33.343  31.545  1.00  0.00     0.186 C 
ATOM     14  C   UNL A   1      37.377  34.149  33.884  1.00  0.00     0.284 C 
ATOM     15  C   UNL A   1      37.310  33.963  31.427  1.00  0.00     0.203 C 
ATOM     16  N   UNL A   1      38.127  33.786  32.653  1.00  0.00    -0.330 N 
ATOM     17  C   UNL A   1      38.080  33.399  30.232  1.00  0.00     0.067 C 
ATOM     18  C   UNL A   1      39.376  34.562  32.559  1.00  0.00     0.262 C 
ATOM     19  H   UNL A   1      38.358  32.795  32.721  1.00  0.00     0.348 HD
ATOM     20  C   UNL A   1      39.355  34.212  30.031  1.00  0.00     0.012 C 
ATOM     21  C   UNL A   1      40.194  34.229  31.306  1.00  0.00     0.062 C 
ENDBRANCH   8  11
ENDBRANCH   5   7
ENDBRANCH   3   5
ENDBRANCH   2   3
ENDBRANCH   1   2
BRANCH   1  22
ATOM     22  C   UNL A   1      33.646  32.703  28.187  1.00  0.00     0.275 C 
BRANCH  22  23
ATOM     23  O   UNL A   1      34.696  32.067  27.444  1.00  0.00    -0.458 OA
BRANCH  23  24
ATOM     24  C   UNL A   1      34.770  30.731  27.631  1.00  0.00     0.338 C 
ATOM     25  O   UNL A   1      34.030  29.882  27.148  1.00  0.00    -0.246 OA
BRANCH  24  26
ATOM     26  C   UNL A   1      35.982  30.377  28.387  1.00  0.00     0.060 A 
ATOM     27  C   UNL A   1      37.214  30.728  27.819  1.00  0.00     0.016 A 
ATOM     28  C   UNL A   1      35.927  29.659  29.583  1.00  0.00     0.016 A 
ATOM     29  C   UNL A   1      38.401  30.327  28.419  1.00  0.00     0.010 A 
ATOM     30  C   UNL A   1      37.119  29.238  30.176  1.00  0.00     0.010 A 
ATOM     31  C   UNL A   1      38.354  29.543  29.575  1.00  0.00    -0.014 A 
BRANCH  31  32
ATOM     32  C   UNL A   1      39.588  28.898  30.067  1.00  0.00     0.031 A 
ATOM     33  C   UNL A   1      40.248  29.464  31.291  1.00  0.00     0.074 A 
ATOM     34  C   UNL A   1      40.105  27.837  29.425  1.00  0.00     0.049 A 
ATOM     35  N   UNL A   1      41.399  29.158  31.827  1.00  0.00    -0.248 NA
ATOM     36  C   UNL A   1      39.512  30.525  32.003  1.00  0.00     0.031 C 
ATOM     37  C   UNL A   1      39.510  27.177  28.265  1.00  0.00     0.029 A 
ATOM     38  N   UNL A   1      41.268  27.146  29.650  1.00  0.00    -0.354 N 
ATOM     39  C   UNL A   1      41.540  30.006  32.918  1.00  0.00     0.074 A 
ATOM     40  C   UNL A   1      40.360  30.838  32.972  1.00  0.00     0.031 C 
ATOM     41  C   UNL A   1      40.331  26.194  27.855  1.00  0.00     0.029 A 
ATOM     42  C   UNL A   1      41.524  26.190  28.698  1.00  0.00     0.049 A 
ATOM     43  H   UNL A   1      41.860  27.319  30.417  1.00  0.00     0.167 HD
ATOM     44  C   UNL A   1      42.571  30.086  33.789  1.00  0.00     0.031 A 
ATOM     45  C   UNL A   1      42.622  25.436  28.506  1.00  0.00     0.031 A 
ATOM     46  C   UNL A   1      43.739  29.251  33.721  1.00  0.00     0.049 A 
ATOM     47  C   UNL A   1      43.786  25.595  29.449  1.00  0.00     0.074 A 
ATOM     48  C   UNL A   1      44.829  29.222  34.572  1.00  0.00     0.029 A 
ATOM     49  N   UNL A   1      43.968  28.305  32.735  1.00  0.00    -0.354 N 
ATOM     50  N   UNL A   1      43.900  26.377  30.495  1.00  0.00    -0.248 NA
ATOM     51  C   UNL A   1      44.975  24.774  29.177  1.00  0.00     0.031 C 
ATOM     52  C   UNL A   1      45.745  28.294  34.068  1.00  0.00     0.029 A 
ATOM     53  C   UNL A   1      45.202  27.712  32.933  1.00  0.00     0.049 A 
ATOM     54  H   UNL A   1      43.347  28.087  32.004  1.00  0.00     0.167 HD
ATOM     55  C   UNL A   1      45.165  26.134  31.014  1.00  0.00     0.074 A 
ATOM     56  C   UNL A   1      45.771  25.116  30.181  1.00  0.00     0.031 C 
ATOM     57  C   UNL A   1      45.776  26.703  32.082  1.00  0.00     0.031 A 
BRANCH  44  58
ATOM     58  C   UNL A   1      42.507  31.141  34.853  1.00  0.00    -0.014 A 
ATOM     59  C   UNL A   1      41.976  30.872  36.124  1.00  0.00     0.009 A 
ATOM     60  C   UNL A   1      43.031  32.418  34.591  1.00  0.00     0.009 A 
ATOM     61  C   UNL A   1      41.952  31.868  37.104  1.00  0.00     0.001 A 
ATOM     62  C   UNL A   1      43.024  33.404  35.578  1.00  0.00     0.001 A 
ATOM     63  C   UNL A   1      42.480  33.131  36.832  1.00  0.00     0.000 A 
ENDBRANCH  44  58
BRANCH  45  64
ATOM     64  C   UNL A   1      42.707  24.519  27.340  1.00  0.00    -0.014 A 
ATOM     65  C   UNL A   1      42.289  23.183  27.438  1.00  0.00     0.009 A 
ATOM     66  C   UNL A   1      43.234  24.974  26.120  1.00  0.00     0.009 A 
ATOM     67  C   UNL A   1      42.420  22.319  26.349  1.00  0.00     0.001 A 
ATOM     68  C   UNL A   1      43.337  24.116  25.024  1.00  0.00     0.001 A 
ATOM     69  C   UNL A   1      42.940  22.786  25.142  1.00  0.00     0.000 A 
ENDBRANCH  45  64
BRANCH  57  70
ATOM     70  C   UNL A   1      47.159  26.225  32.413  1.00  0.00    -0.014 A 
ATOM     71  C   UNL A   1      48.288  26.854  31.869  1.00  0.00     0.009 A 
ATOM     72  C   UNL A   1      47.333  25.174  33.327  1.00  0.00     0.009 A 
ATOM     73  C   UNL A   1      49.569  26.422  32.215  1.00  0.00     0.001 A 
ATOM     74  C   UNL A   1      48.614  24.761  33.690  1.00  0.00     0.001 A 
ATOM     75  C   UNL A   1      49.730  25.381  33.130  1.00  0.00     0.000 A 
ENDBRANCH  57  70
ENDBRANCH  31  32
ENDBRANCH  24  26
ENDBRANCH  23  24
ENDBRANCH  22  23
ENDBRANCH   1  22
TORSDOF 13
ENDMDL
