MODEL 1
REMARK VINA RESULT:     -13.8      0.000      0.000
REMARK SMILES Cc1ccc([C@@]23C[C@@H]4C[C@@H](C[C@@](C(=O)N5CCC(C(=O)OCCOC(=O)c6ccc(-c7c8nc(c(-c9ccccc9)c9ccc([nH]9)c(-c9ccccc9)c9nc(c(-c%10ccccc%10)c%10ccc7[nH]%10)C=C9)C=C8)cc6)CC5)(C4)C2)C3)cc1
REMARK SMILES IDX 22 1 21 2 19 3 20 4 18 5 13 6 14 7 15 8 16 9 76 10 17 11
REMARK SMILES IDX 75 12 12 13 6 14 7 15 78 16 79 17 8 18 10 19 9 20 77 21
REMARK SMILES IDX 11 22 5 23 1 24 2 25 3 26 81 27 4 28 80 29 23 30 24 31 25 32
REMARK SMILES IDX 26 33 27 34 28 35 74 36 29 37 73 38 30 39 31 40 32 41 67 42
REMARK SMILES IDX 33 43 72 44 66 45 68 46 34 47 71 48 65 49 64 50 35 52 57 53
REMARK SMILES IDX 42 54 56 55 43 56 46 57 55 58 69 59 44 60 45 61 54 63 70 64
REMARK SMILES IDX 47 65 36 66 37 67 41 68 38 69 40 70 39 71 58 72 59 73 63 74
REMARK SMILES IDX 60 75 62 76 61 77 48 78 49 79 53 80 50 81 52 82 51 83
REMARK H PARENT 68 51 46 62
REMARK Flexibility Score: inf
ROOT
ATOM      1  C   UNL A   1      31.685  30.758  26.265  1.00  0.00     0.274 C 
ENDROOT
BRANCH   1   2
ATOM      2  O   UNL A   1      32.214  29.823  27.199  1.00  0.00    -0.462 OA
BRANCH   2   3
ATOM      3  C   UNL A   1      31.790  28.547  27.005  1.00  0.00     0.309 C 
ATOM      4  O   UNL A   1      31.382  27.814  27.897  1.00  0.00    -0.252 OA
BRANCH   3   5
ATOM      5  C   UNL A   1      31.928  28.180  25.546  1.00  0.00     0.103 C 
ATOM      6  C   UNL A   1      32.379  24.602  24.624  1.00  0.00     0.228 C 
ATOM      7  O   UNL A   1      31.315  24.053  24.926  1.00  0.00    -0.274 OA
ATOM      8  N   UNL A   1      32.389  25.871  24.033  1.00  0.00    -0.342 N 
ATOM      9  C   UNL A   1      31.106  26.506  23.809  1.00  0.00     0.120 C 
ATOM     10  C   UNL A   1      33.474  26.848  24.079  1.00  0.00     0.120 C 
ATOM     11  C   UNL A   1      30.766  27.279  25.071  1.00  0.00     0.037 C 
ATOM     12  C   UNL A   1      33.337  27.625  25.372  1.00  0.00     0.037 C 
BRANCH   6  13
ATOM     13  C   UNL A   1      33.709  23.862  24.830  1.00  0.00     0.051 C 
ATOM     14  C   UNL A   1      34.591  21.464  25.011  1.00  0.00    -0.003 C 
ATOM     15  C   UNL A   1      35.583  21.843  23.868  1.00  0.00     0.015 C 
ATOM     16  C   UNL A   1      33.360  22.373  24.885  1.00  0.00     0.028 C 
ATOM     17  C   UNL A   1      35.253  21.818  26.367  1.00  0.00     0.015 C 
ATOM     18  C   UNL A   1      36.014  23.321  23.956  1.00  0.00    -0.009 C 
ATOM     19  C   UNL A   1      35.613  23.322  26.426  1.00  0.00    -0.009 C 
ATOM     20  C   UNL A   1      36.634  23.624  25.320  1.00  0.00     0.007 C 
ATOM     21  C   UNL A   1      34.778  24.198  23.772  1.00  0.00     0.020 C 
ATOM     22  C   UNL A   1      34.352  24.192  26.206  1.00  0.00     0.020 C 
BRANCH  14  23
ATOM     23  C   UNL A   1      34.165  19.989  24.909  1.00  0.00    -0.042 A 
ATOM     24  C   UNL A   1      33.036  15.798  24.872  1.00  0.00     0.044 C 
ATOM     25  C   UNL A   1      33.405  17.249  24.875  1.00  0.00    -0.051 A 
ATOM     26  C   UNL A   1      34.699  17.622  24.529  1.00  0.00     0.004 A 
ATOM     27  C   UNL A   1      32.487  18.246  25.223  1.00  0.00     0.004 A 
ATOM     28  C   UNL A   1      35.065  18.967  24.535  1.00  0.00     0.004 A 
ATOM     29  C   UNL A   1      32.861  19.596  25.236  1.00  0.00     0.004 A 
ENDBRANCH  14  23
ENDBRANCH   6  13
ENDBRANCH   3   5
ENDBRANCH   2   3
ENDBRANCH   1   2
BRANCH   1  30
ATOM     30  C   UNL A   1      31.389  32.101  26.939  1.00  0.00     0.275 C 
BRANCH  30  31
ATOM     31  O   UNL A   1      32.464  33.083  27.078  1.00  0.00    -0.458 OA
BRANCH  31  32
ATOM     32  C   UNL A   1      33.205  33.477  28.144  1.00  0.00     0.338 C 
ATOM     33  O   UNL A   1      32.760  34.250  28.984  1.00  0.00    -0.246 OA
BRANCH  32  34
ATOM     34  C   UNL A   1      34.550  32.902  28.333  1.00  0.00     0.060 A 
ATOM     35  C   UNL A   1      35.680  33.669  28.008  1.00  0.00     0.016 A 
ATOM     36  C   UNL A   1      34.696  31.661  28.933  1.00  0.00     0.016 A 
ATOM     37  C   UNL A   1      36.941  33.281  28.469  1.00  0.00     0.010 A 
ATOM     38  C   UNL A   1      35.916  31.330  29.479  1.00  0.00     0.010 A 
ATOM     39  C   UNL A   1      37.039  32.143  29.272  1.00  0.00    -0.014 A 
BRANCH  39  40
ATOM     40  C   UNL A   1      38.300  31.527  29.661  1.00  0.00     0.031 A 
ATOM     41  C   UNL A   1      38.810  30.243  29.141  1.00  0.00     0.074 A 
ATOM     42  C   UNL A   1      39.010  32.301  30.505  1.00  0.00     0.049 A 
ATOM     43  N   UNL A   1      39.488  29.392  29.839  1.00  0.00    -0.248 NA
ATOM     44  C   UNL A   1      38.566  29.786  27.777  1.00  0.00     0.031 C 
ATOM     45  C   UNL A   1      40.385  32.183  30.941  1.00  0.00     0.029 A 
ATOM     46  N   UNL A   1      38.484  33.326  31.301  1.00  0.00    -0.354 N 
ATOM     47  C   UNL A   1      40.008  28.471  28.944  1.00  0.00     0.074 A 
ATOM     48  C   UNL A   1      39.261  28.644  27.725  1.00  0.00     0.031 C 
ATOM     49  C   UNL A   1      40.507  32.849  32.106  1.00  0.00     0.029 A 
ATOM     50  C   UNL A   1      39.164  33.260  32.510  1.00  0.00     0.049 A 
ATOM     51  H   UNL A   1      37.775  33.963  31.054  1.00  0.00     0.167 HD
ATOM     52  C   UNL A   1      41.185  27.834  29.202  1.00  0.00     0.031 A 
ATOM     53  C   UNL A   1      38.524  32.911  33.665  1.00  0.00     0.031 A 
ATOM     54  C   UNL A   1      41.780  28.347  30.424  1.00  0.00     0.049 A 
ATOM     55  C   UNL A   1      39.187  31.700  34.266  1.00  0.00     0.074 A 
ATOM     56  C   UNL A   1      42.704  29.361  30.618  1.00  0.00     0.029 A 
ATOM     57  N   UNL A   1      41.183  28.097  31.647  1.00  0.00    -0.354 N 
ATOM     58  N   UNL A   1      39.700  30.727  33.564  1.00  0.00    -0.248 NA
ATOM     59  C   UNL A   1      39.374  31.533  35.701  1.00  0.00     0.031 C 
ATOM     60  C   UNL A   1      42.606  29.778  31.964  1.00  0.00     0.029 A 
ATOM     61  C   UNL A   1      41.645  28.998  32.584  1.00  0.00     0.049 A 
ATOM     62  H   UNL A   1      40.527  27.384  31.822  1.00  0.00     0.167 HD
ATOM     63  C   UNL A   1      40.399  29.903  34.409  1.00  0.00     0.074 A 
ATOM     64  C   UNL A   1      40.116  30.414  35.739  1.00  0.00     0.031 C 
ATOM     65  C   UNL A   1      41.217  28.906  33.964  1.00  0.00     0.031 A 
BRANCH  52  66
ATOM     66  C   UNL A   1      41.977  27.060  28.175  1.00  0.00    -0.014 A 
ATOM     67  C   UNL A   1      41.507  25.803  27.741  1.00  0.00     0.009 A 
ATOM     68  C   UNL A   1      43.178  27.506  27.602  1.00  0.00     0.009 A 
ATOM     69  C   UNL A   1      42.231  24.997  26.854  1.00  0.00     0.001 A 
ATOM     70  C   UNL A   1      43.919  26.695  26.725  1.00  0.00     0.001 A 
ATOM     71  C   UNL A   1      43.451  25.436  26.361  1.00  0.00     0.000 A 
ENDBRANCH  52  66
BRANCH  53  72
ATOM     72  C   UNL A   1      37.048  33.174  33.703  1.00  0.00    -0.014 A 
ATOM     73  C   UNL A   1      36.596  34.463  34.060  1.00  0.00     0.009 A 
ATOM     74  C   UNL A   1      36.123  32.297  33.118  1.00  0.00     0.009 A 
ATOM     75  C   UNL A   1      35.296  34.890  33.760  1.00  0.00     0.001 A 
ATOM     76  C   UNL A   1      34.812  32.719  32.839  1.00  0.00     0.001 A 
ATOM     77  C   UNL A   1      34.408  34.022  33.135  1.00  0.00     0.000 A 
ENDBRANCH  53  72
BRANCH  65  78
ATOM     78  C   UNL A   1      41.809  27.796  34.789  1.00  0.00    -0.014 A 
ATOM     79  C   UNL A   1      41.244  26.523  34.904  1.00  0.00     0.009 A 
ATOM     80  C   UNL A   1      43.099  27.972  35.348  1.00  0.00     0.009 A 
ATOM     81  C   UNL A   1      41.916  25.490  35.568  1.00  0.00     0.001 A 
ATOM     82  C   UNL A   1      43.795  26.933  35.962  1.00  0.00     0.001 A 
ATOM     83  C   UNL A   1      43.195  25.690  36.081  1.00  0.00     0.000 A 
ENDBRANCH  65  78
ENDBRANCH  39  40
ENDBRANCH  32  34
ENDBRANCH  31  32
ENDBRANCH  30  31
ENDBRANCH   1  30
TORSDOF 13
ENDMDL
MODEL 2
REMARK VINA RESULT:     -13.7      1.440      2.416
REMARK SMILES Cc1ccc([C@@]23C[C@@H]4C[C@@H](C[C@@](C(=O)N5CCC(C(=O)OCCOC(=O)c6ccc(-c7c8nc(c(-c9ccccc9)c9ccc([nH]9)c(-c9ccccc9)c9nc(c(-c%10ccccc%10)c%10ccc7[nH]%10)C=C9)C=C8)cc6)CC5)(C4)C2)C3)cc1
REMARK SMILES IDX 22 1 21 2 19 3 20 4 18 5 13 6 14 7 15 8 16 9 76 10 17 11
REMARK SMILES IDX 75 12 12 13 6 14 7 15 78 16 79 17 8 18 10 19 9 20 77 21
REMARK SMILES IDX 11 22 5 23 1 24 2 25 3 26 81 27 4 28 80 29 23 30 24 31 25 32
REMARK SMILES IDX 26 33 27 34 28 35 74 36 29 37 73 38 30 39 31 40 32 41 67 42
REMARK SMILES IDX 33 43 72 44 66 45 68 46 34 47 71 48 65 49 64 50 35 52 57 53
REMARK SMILES IDX 42 54 56 55 43 56 46 57 55 58 69 59 44 60 45 61 54 63 70 64
REMARK SMILES IDX 47 65 36 66 37 67 41 68 38 69 40 70 39 71 58 72 59 73 63 74
REMARK SMILES IDX 60 75 62 76 61 77 48 78 49 79 53 80 50 81 52 82 51 83
REMARK H PARENT 68 51 46 62
REMARK Flexibility Score: inf
ROOT
ATOM      1  C   UNL A   1      32.308  30.981  26.494  1.00  0.00     0.274 C 
ENDROOT
BRANCH   1   2
ATOM      2  O   UNL A   1      31.440  29.901  26.166  1.00  0.00    -0.462 OA
BRANCH   2   3
ATOM      3  C   UNL A   1      31.333  29.664  24.832  1.00  0.00     0.309 C 
ATOM      4  O   UNL A   1      30.310  29.839  24.182  1.00  0.00    -0.252 OA
BRANCH   3   5
ATOM      5  C   UNL A   1      32.644  29.132  24.302  1.00  0.00     0.103 C 
ATOM      6  C   UNL A   1      32.756  25.684  22.904  1.00  0.00     0.228 C 
ATOM      7  O   UNL A   1      32.065  25.726  21.881  1.00  0.00    -0.274 OA
ATOM      8  N   UNL A   1      33.619  26.737  23.232  1.00  0.00    -0.342 N 
ATOM      9  C   UNL A   1      33.650  27.871  22.330  1.00  0.00     0.120 C 
ATOM     10  C   UNL A   1      34.093  27.095  24.566  1.00  0.00     0.120 C 
ATOM     11  C   UNL A   1      32.570  28.833  22.789  1.00  0.00     0.037 C 
ATOM     12  C   UNL A   1      33.036  27.970  25.208  1.00  0.00     0.037 C 
BRANCH   6  13
ATOM     13  C   UNL A   1      32.728  24.434  23.797  1.00  0.00     0.051 C 
ATOM     14  C   UNL A   1      34.360  22.830  24.947  1.00  0.00    -0.003 C 
ATOM     15  C   UNL A   1      33.596  23.149  26.269  1.00  0.00     0.015 C 
ATOM     16  C   UNL A   1      34.189  24.029  24.004  1.00  0.00     0.028 C 
ATOM     17  C   UNL A   1      33.659  21.633  24.256  1.00  0.00     0.015 C 
ATOM     18  C   UNL A   1      32.097  23.401  26.011  1.00  0.00    -0.009 C 
ATOM     19  C   UNL A   1      32.174  21.959  23.969  1.00  0.00    -0.009 C 
ATOM     20  C   UNL A   1      31.459  22.205  25.305  1.00  0.00     0.007 C 
ATOM     21  C   UNL A   1      31.959  24.632  25.118  1.00  0.00     0.020 C 
ATOM     22  C   UNL A   1      32.055  23.226  23.088  1.00  0.00     0.020 C 
BRANCH  14  23
ATOM     23  C   UNL A   1      35.855  22.586  25.216  1.00  0.00    -0.042 A 
ATOM     24  C   UNL A   1      40.007  21.805  26.213  1.00  0.00     0.044 C 
ATOM     25  C   UNL A   1      38.578  22.063  25.850  1.00  0.00    -0.051 A 
ATOM     26  C   UNL A   1      38.013  23.298  26.148  1.00  0.00     0.004 A 
ATOM     27  C   UNL A   1      37.788  21.095  25.221  1.00  0.00     0.004 A 
ATOM     28  C   UNL A   1      36.682  23.555  25.825  1.00  0.00     0.004 A 
ATOM     29  C   UNL A   1      36.447  21.355  24.906  1.00  0.00     0.004 A 
ENDBRANCH  14  23
ENDBRANCH   6  13
ENDBRANCH   3   5
ENDBRANCH   2   3
ENDBRANCH   1   2
BRANCH   1  30
ATOM     30  C   UNL A   1      31.512  32.210  26.943  1.00  0.00     0.275 C 
BRANCH  30  31
ATOM     31  O   UNL A   1      32.229  33.429  27.314  1.00  0.00    -0.458 OA
BRANCH  31  32
ATOM     32  C   UNL A   1      33.028  33.732  28.368  1.00  0.00     0.338 C 
ATOM     33  O   UNL A   1      32.650  34.472  29.268  1.00  0.00    -0.246 OA
BRANCH  32  34
ATOM     34  C   UNL A   1      34.354  33.093  28.468  1.00  0.00     0.060 A 
ATOM     35  C   UNL A   1      35.484  33.771  27.984  1.00  0.00     0.016 A 
ATOM     36  C   UNL A   1      34.495  31.887  29.136  1.00  0.00     0.016 A 
ATOM     37  C   UNL A   1      36.763  33.341  28.348  1.00  0.00     0.010 A 
ATOM     38  C   UNL A   1      35.744  31.521  29.585  1.00  0.00     0.010 A 
ATOM     39  C   UNL A   1      36.881  32.254  29.215  1.00  0.00    -0.014 A 
BRANCH  39  40
ATOM     40  C   UNL A   1      38.141  31.592  29.524  1.00  0.00     0.031 A 
ATOM     41  C   UNL A   1      38.582  30.304  28.954  1.00  0.00     0.074 A 
ATOM     42  C   UNL A   1      38.920  32.328  30.342  1.00  0.00     0.049 A 
ATOM     43  N   UNL A   1      39.271  29.419  29.599  1.00  0.00    -0.248 NA
ATOM     44  C   UNL A   1      38.251  29.881  27.597  1.00  0.00     0.031 C 
ATOM     45  C   UNL A   1      40.312  32.159  30.700  1.00  0.00     0.029 A 
ATOM     46  N   UNL A   1      38.470  33.352  31.184  1.00  0.00    -0.354 N 
ATOM     47  C   UNL A   1      39.712  28.501  28.661  1.00  0.00     0.074 A 
ATOM     48  C   UNL A   1      38.907  28.720  27.487  1.00  0.00     0.031 C 
ATOM     49  C   UNL A   1      40.517  32.798  31.869  1.00  0.00     0.029 A 
ATOM     50  C   UNL A   1      39.211  33.242  32.353  1.00  0.00     0.049 A 
ATOM     51  H   UNL A   1      37.768  34.015  30.987  1.00  0.00     0.167 HD
ATOM     52  C   UNL A   1      40.881  27.823  28.843  1.00  0.00     0.031 A 
ATOM     53  C   UNL A   1      38.624  32.890  33.534  1.00  0.00     0.031 A 
ATOM     54  C   UNL A   1      41.556  28.294  30.039  1.00  0.00     0.049 A 
ATOM     55  C   UNL A   1      39.280  31.648  34.077  1.00  0.00     0.074 A 
ATOM     56  C   UNL A   1      42.521  29.276  30.201  1.00  0.00     0.029 A 
ATOM     57  N   UNL A   1      41.018  28.038  31.289  1.00  0.00    -0.354 N 
ATOM     58  N   UNL A   1      39.723  30.673  33.330  1.00  0.00    -0.248 NA
ATOM     59  C   UNL A   1      39.538  31.447  35.496  1.00  0.00     0.031 C 
ATOM     60  C   UNL A   1      42.509  29.669  31.558  1.00  0.00     0.029 A 
ATOM     61  C   UNL A   1      41.558  28.906  32.215  1.00  0.00     0.049 A 
ATOM     62  H   UNL A   1      40.351  27.342  31.486  1.00  0.00     0.167 HD
ATOM     63  C   UNL A   1      40.440  29.812  34.121  1.00  0.00     0.074 A 
ATOM     64  C   UNL A   1      40.246  30.305  35.474  1.00  0.00     0.031 C 
ATOM     65  C   UNL A   1      41.202  28.800  33.614  1.00  0.00     0.031 A 
BRANCH  52  66
ATOM     66  C   UNL A   1      41.592  27.046  27.760  1.00  0.00    -0.014 A 
ATOM     67  C   UNL A   1      41.023  25.848  27.280  1.00  0.00     0.009 A 
ATOM     68  C   UNL A   1      42.809  27.433  27.178  1.00  0.00     0.009 A 
ATOM     69  C   UNL A   1      41.667  25.037  26.338  1.00  0.00     0.001 A 
ATOM     70  C   UNL A   1      43.470  26.615  26.245  1.00  0.00     0.001 A 
ATOM     71  C   UNL A   1      42.904  25.412  25.834  1.00  0.00     0.000 A 
ENDBRANCH  52  66
BRANCH  53  72
ATOM     72  C   UNL A   1      37.161  33.196  33.657  1.00  0.00    -0.014 A 
ATOM     73  C   UNL A   1      36.767  34.509  34.000  1.00  0.00     0.009 A 
ATOM     74  C   UNL A   1      36.176  32.329  33.160  1.00  0.00     0.009 A 
ATOM     75  C   UNL A   1      35.463  34.963  33.769  1.00  0.00     0.001 A 
ATOM     76  C   UNL A   1      34.863  32.780  32.952  1.00  0.00     0.001 A 
ATOM     77  C   UNL A   1      34.513  34.103  33.230  1.00  0.00     0.000 A 
ENDBRANCH  53  72
BRANCH  65  78
ATOM     78  C   UNL A   1      41.803  27.656  34.386  1.00  0.00    -0.014 A 
ATOM     79  C   UNL A   1      41.074  26.552  34.837  1.00  0.00     0.009 A 
ATOM     80  C   UNL A   1      43.211  27.588  34.523  1.00  0.00     0.009 A 
ATOM     81  C   UNL A   1      41.714  25.453  35.423  1.00  0.00     0.001 A 
ATOM     82  C   UNL A   1      43.856  26.475  35.056  1.00  0.00     0.001 A 
ATOM     83  C   UNL A   1      43.103  25.407  35.516  1.00  0.00     0.000 A 
ENDBRANCH  65  78
ENDBRANCH  39  40
ENDBRANCH  32  34
ENDBRANCH  31  32
ENDBRANCH  30  31
ENDBRANCH   1  30
TORSDOF 13
ENDMDL
MODEL 3
REMARK VINA RESULT:     -13.7      3.658      9.860
REMARK SMILES Cc1ccc([C@@]23C[C@@H]4C[C@@H](C[C@@](C(=O)N5CCC(C(=O)OCCOC(=O)c6ccc(-c7c8nc(c(-c9ccccc9)c9ccc([nH]9)c(-c9ccccc9)c9nc(c(-c%10ccccc%10)c%10ccc7[nH]%10)C=C9)C=C8)cc6)CC5)(C4)C2)C3)cc1
REMARK SMILES IDX 22 1 21 2 19 3 20 4 18 5 13 6 14 7 15 8 16 9 76 10 17 11
REMARK SMILES IDX 75 12 12 13 6 14 7 15 78 16 79 17 8 18 10 19 9 20 77 21
REMARK SMILES IDX 11 22 5 23 1 24 2 25 3 26 81 27 4 28 80 29 23 30 24 31 25 32
REMARK SMILES IDX 26 33 27 34 28 35 74 36 29 37 73 38 30 39 31 40 32 41 67 42
REMARK SMILES IDX 33 43 72 44 66 45 68 46 34 47 71 48 65 49 64 50 35 52 57 53
REMARK SMILES IDX 42 54 56 55 43 56 46 57 55 58 69 59 44 60 45 61 54 63 70 64
REMARK SMILES IDX 47 65 36 66 37 67 41 68 38 69 40 70 39 71 58 72 59 73 63 74
REMARK SMILES IDX 60 75 62 76 61 77 48 78 49 79 53 80 50 81 52 82 51 83
REMARK H PARENT 68 51 46 62
REMARK Flexibility Score: inf
ROOT
ATOM      1  C   UNL A   1      37.652  19.679  24.824  1.00  0.00     0.274 C 
ENDROOT
BRANCH   1   2
ATOM      2  O   UNL A   1      36.710  20.724  24.609  1.00  0.00    -0.462 OA
BRANCH   2   3
ATOM      3  C   UNL A   1      35.458  20.440  25.056  1.00  0.00     0.309 C 
ATOM      4  O   UNL A   1      34.762  19.531  24.622  1.00  0.00    -0.252 OA
BRANCH   3   5
ATOM      5  C   UNL A   1      35.065  21.427  26.131  1.00  0.00     0.103 C 
ATOM      6  C   UNL A   1      32.070  23.573  25.596  1.00  0.00     0.228 C 
ATOM      7  O   UNL A   1      31.110  22.796  25.598  1.00  0.00    -0.274 OA
ATOM      8  N   UNL A   1      33.126  23.411  26.501  1.00  0.00    -0.342 N 
ATOM      9  C   UNL A   1      33.044  22.293  27.419  1.00  0.00     0.120 C 
ATOM     10  C   UNL A   1      34.502  23.868  26.329  1.00  0.00     0.120 C 
ATOM     11  C   UNL A   1      33.677  21.100  26.725  1.00  0.00     0.037 C 
ATOM     12  C   UNL A   1      35.238  22.815  25.526  1.00  0.00     0.037 C 
BRANCH   6  13
ATOM     13  C   UNL A   1      32.082  24.775  24.640  1.00  0.00     0.051 C 
ATOM     14  C   UNL A   1      32.439  27.310  24.710  1.00  0.00    -0.003 C 
ATOM     15  C   UNL A   1      33.524  27.093  23.611  1.00  0.00     0.015 C 
ATOM     16  C   UNL A   1      32.318  26.008  25.515  1.00  0.00     0.028 C 
ATOM     17  C   UNL A   1      31.071  27.515  24.011  1.00  0.00     0.015 C 
ATOM     18  C   UNL A   1      33.153  25.930  22.669  1.00  0.00    -0.009 C 
ATOM     19  C   UNL A   1      30.721  26.296  23.125  1.00  0.00    -0.009 C 
ATOM     20  C   UNL A   1      31.786  26.167  22.027  1.00  0.00     0.007 C 
ATOM     21  C   UNL A   1      33.097  24.643  23.487  1.00  0.00     0.020 C 
ATOM     22  C   UNL A   1      30.699  24.998  23.968  1.00  0.00     0.020 C 
BRANCH  14  23
ATOM     23  C   UNL A   1      32.823  28.470  25.646  1.00  0.00    -0.042 A 
ATOM     24  C   UNL A   1      34.027  31.854  28.084  1.00  0.00     0.044 C 
ATOM     25  C   UNL A   1      33.590  30.689  27.251  1.00  0.00    -0.051 A 
ATOM     26  C   UNL A   1      34.418  29.577  27.149  1.00  0.00     0.004 A 
ATOM     27  C   UNL A   1      32.371  30.686  26.564  1.00  0.00     0.004 A 
ATOM     28  C   UNL A   1      34.034  28.486  26.371  1.00  0.00     0.004 A 
ATOM     29  C   UNL A   1      31.992  29.590  25.776  1.00  0.00     0.004 A 
ENDBRANCH  14  23
ENDBRANCH   6  13
ENDBRANCH   3   5
ENDBRANCH   2   3
ENDBRANCH   1   2
BRANCH   1  30
ATOM     30  C   UNL A   1      38.851  20.180  25.636  1.00  0.00     0.275 C 
BRANCH  30  31
ATOM     31  O   UNL A   1      40.040  19.335  25.749  1.00  0.00    -0.458 OA
BRANCH  31  32
ATOM     32  C   UNL A   1      41.312  19.601  26.137  1.00  0.00     0.338 C 
ATOM     33  O   UNL A   1      42.207  18.772  26.014  1.00  0.00    -0.246 OA
BRANCH  32  34
ATOM     34  C   UNL A   1      41.640  20.945  26.648  1.00  0.00     0.060 A 
ATOM     35  C   UNL A   1      42.055  21.941  25.750  1.00  0.00     0.016 A 
ATOM     36  C   UNL A   1      41.430  21.251  27.983  1.00  0.00     0.016 A 
ATOM     37  C   UNL A   1      42.061  23.280  26.150  1.00  0.00     0.010 A 
ATOM     38  C   UNL A   1      41.331  22.574  28.352  1.00  0.00     0.010 A 
ATOM     39  C   UNL A   1      41.623  23.596  27.437  1.00  0.00    -0.014 A 
BRANCH  39  40
ATOM     40  C   UNL A   1      41.752  24.915  28.041  1.00  0.00     0.031 A 
ATOM     41  C   UNL A   1      40.689  25.938  28.074  1.00  0.00     0.074 A 
ATOM     42  C   UNL A   1      42.941  25.084  28.654  1.00  0.00     0.049 A 
ATOM     43  N   UNL A   1      40.900  27.211  27.985  1.00  0.00    -0.248 NA
ATOM     44  C   UNL A   1      39.272  25.607  28.177  1.00  0.00     0.031 C 
ATOM     45  C   UNL A   1      43.381  26.125  29.557  1.00  0.00     0.029 A 
ATOM     46  N   UNL A   1      44.100  24.344  28.390  1.00  0.00    -0.354 N 
ATOM     47  C   UNL A   1      39.711  27.833  28.327  1.00  0.00     0.074 A 
ATOM     48  C   UNL A   1      38.697  26.814  28.250  1.00  0.00     0.031 C 
ATOM     49  C   UNL A   1      44.728  26.158  29.522  1.00  0.00     0.029 A 
ATOM     50  C   UNL A   1      45.155  25.244  28.465  1.00  0.00     0.049 A 
ATOM     51  H   UNL A   1      44.156  23.382  28.190  1.00  0.00     0.167 HD
ATOM     52  C   UNL A   1      39.710  29.069  28.903  1.00  0.00     0.031 A 
ATOM     53  C   UNL A   1      45.887  25.572  27.360  1.00  0.00     0.031 A 
ATOM     54  C   UNL A   1      41.070  29.506  29.164  1.00  0.00     0.049 A 
ATOM     55  C   UNL A   1      45.826  27.060  27.133  1.00  0.00     0.074 A 
ATOM     56  C   UNL A   1      41.855  29.375  30.298  1.00  0.00     0.029 A 
ATOM     57  N   UNL A   1      41.917  29.812  28.113  1.00  0.00    -0.354 N 
ATOM     58  N   UNL A   1      44.772  27.790  27.374  1.00  0.00    -0.248 NA
ATOM     59  C   UNL A   1      46.972  27.836  26.678  1.00  0.00     0.031 C 
ATOM     60  C   UNL A   1      43.204  29.533  29.906  1.00  0.00     0.029 A 
ATOM     61  C   UNL A   1      43.226  29.783  28.545  1.00  0.00     0.049 A 
ATOM     62  H   UNL A   1      41.627  30.020  27.195  1.00  0.00     0.167 HD
ATOM     63  C   UNL A   1      45.123  29.111  27.259  1.00  0.00     0.074 A 
ATOM     64  C   UNL A   1      46.489  29.088  26.766  1.00  0.00     0.031 C 
ATOM     65  C   UNL A   1      44.304  30.132  27.644  1.00  0.00     0.031 A 
BRANCH  52  66
ATOM     66  C   UNL A   1      38.512  29.691  29.581  1.00  0.00    -0.014 A 
ATOM     67  C   UNL A   1      38.149  31.017  29.267  1.00  0.00     0.009 A 
ATOM     68  C   UNL A   1      37.709  29.034  30.527  1.00  0.00     0.009 A 
ATOM     69  C   UNL A   1      37.102  31.682  29.917  1.00  0.00     0.001 A 
ATOM     70  C   UNL A   1      36.668  29.701  31.196  1.00  0.00     0.001 A 
ATOM     71  C   UNL A   1      36.373  31.028  30.899  1.00  0.00     0.000 A 
ENDBRANCH  52  66
BRANCH  53  72
ATOM     72  C   UNL A   1      45.914  24.550  26.263  1.00  0.00    -0.014 A 
ATOM     73  C   UNL A   1      46.328  23.234  26.569  1.00  0.00     0.009 A 
ATOM     74  C   UNL A   1      45.269  24.762  25.035  1.00  0.00     0.009 A 
ATOM     75  C   UNL A   1      46.027  22.159  25.723  1.00  0.00     0.001 A 
ATOM     76  C   UNL A   1      44.990  23.685  24.177  1.00  0.00     0.001 A 
ATOM     77  C   UNL A   1      45.344  22.383  24.532  1.00  0.00     0.000 A 
ENDBRANCH  53  72
BRANCH  65  78
ATOM     78  C   UNL A   1      44.479  31.592  27.321  1.00  0.00    -0.014 A 
ATOM     79  C   UNL A   1      44.156  32.161  26.086  1.00  0.00     0.009 A 
ATOM     80  C   UNL A   1      44.821  32.486  28.366  1.00  0.00     0.009 A 
ATOM     81  C   UNL A   1      44.205  33.547  25.895  1.00  0.00     0.001 A 
ATOM     82  C   UNL A   1      44.819  33.869  28.194  1.00  0.00     0.001 A 
ATOM     83  C   UNL A   1      44.518  34.400  26.951  1.00  0.00     0.000 A 
ENDBRANCH  65  78
ENDBRANCH  39  40
ENDBRANCH  32  34
ENDBRANCH  31  32
ENDBRANCH  30  31
ENDBRANCH   1  30
TORSDOF 13
ENDMDL
