MODEL 1
REMARK VINA RESULT:     -12.0      0.000      0.000
REMARK SMILES CCN1C(=O)C[C@@H](C(=O)Nc2cccc(C(=O)OCCOC(=O)c3ccc(-c4c5nc(c(-c6ccccc6)c6ccc([nH]6)c(-c6ccccc6)c6nc(c(-c7ccccc7)c7ccc4[nH]7)C=C6)C=C5)cc3)c2)S/C1=[NH+]/c1ccccc1
REMARK SMILES IDX 19 1 18 2 16 3 17 4 15 5 11 6 12 7 72 8 13 9 14 10 10 11
REMARK SMILES IDX 8 12 9 13 7 15 3 16 4 17 74 18 5 19 6 20 73 21 75 22 2 24
REMARK SMILES IDX 1 25 76 26 77 27 81 28 78 29 80 30 79 31 20 32 21 33 22 34
REMARK SMILES IDX 23 35 24 36 25 37 71 38 26 39 70 40 27 41 28 42 29 43 64 44
REMARK SMILES IDX 30 45 69 46 63 47 65 48 31 49 68 50 62 51 61 52 32 54 54 55
REMARK SMILES IDX 39 56 53 57 40 58 43 59 52 60 66 61 41 62 42 63 51 65 67 66
REMARK SMILES IDX 44 67 33 68 34 69 38 70 35 71 37 72 36 73 55 74 56 75 60 76
REMARK SMILES IDX 57 77 59 78 58 79 45 80 46 81 50 82 47 83 49 84 48 85
REMARK H PARENT 10 14 75 23 65 53 43 64
REMARK Flexibility Score: inf
ROOT
ATOM      1  C   UNL A   1      41.532  19.510  26.097  1.00  0.00     0.275 C 
ENDROOT
BRANCH   1   2
ATOM      2  O   UNL A   1      41.544  20.952  26.129  1.00  0.00    -0.458 OA
BRANCH   2   3
ATOM      3  C   UNL A   1      40.739  21.496  27.067  1.00  0.00     0.338 C 
ATOM      4  O   UNL A   1      40.861  21.362  28.276  1.00  0.00    -0.246 OA
BRANCH   3   5
ATOM      5  C   UNL A   1      39.610  22.251  26.483  1.00  0.00     0.062 A 
ATOM      6  C   UNL A   1      37.497  22.100  25.357  1.00  0.00     0.042 A 
ATOM      7  C   UNL A   1      37.163  23.394  25.755  1.00  0.00     0.026 A 
ATOM      8  C   UNL A   1      38.770  21.597  25.594  1.00  0.00     0.041 A 
ATOM      9  C   UNL A   1      38.036  24.097  26.583  1.00  0.00     0.003 A 
ATOM     10  C   UNL A   1      39.225  23.495  26.996  1.00  0.00     0.016 A 
BRANCH   6  11
ATOM     11  N   UNL A   1      36.494  21.274  24.845  1.00  0.00    -0.325 N 
ATOM     12  C   UNL A   1      35.127  21.407  24.951  1.00  0.00     0.238 C 
ATOM     13  O   UNL A   1      34.443  20.463  24.533  1.00  0.00    -0.273 OA
ATOM     14  H   UNL A   1      36.806  20.490  24.338  1.00  0.00     0.169 HD
BRANCH  12  15
ATOM     15  C   UNL A   1      34.422  22.707  25.423  1.00  0.00     0.160 C 
ATOM     16  N   UNL A   1      32.086  24.544  25.251  1.00  0.00    -0.191 N 
ATOM     17  C   UNL A   1      32.306  23.709  26.332  1.00  0.00     0.311 C 
ATOM     18  C   UNL A   1      33.144  25.047  24.505  1.00  0.00     0.319 C 
ATOM     19  O   UNL A   1      31.809  23.897  27.442  1.00  0.00    -0.247 OA
ATOM     20  C   UNL A   1      33.070  22.457  26.037  1.00  0.00     0.153 C 
ATOM     21  S   UNL A   1      34.520  24.004  24.187  1.00  0.00    -0.024 SA
ATOM     22  N   UNL A   1      33.291  26.214  23.962  1.00  0.00    -0.235 N 
ATOM     23  H   UNL A   1      34.000  26.311  23.286  1.00  0.00     0.313 HD
BRANCH  16  24
ATOM     24  C   UNL A   1      30.731  25.107  25.155  1.00  0.00     0.243 C 
ATOM     25  C   UNL A   1      30.069  24.879  23.792  1.00  0.00     0.054 C 
ENDBRANCH  16  24
BRANCH  22  26
ATOM     26  C   UNL A   1      32.527  27.346  24.256  1.00  0.00     0.125 A 
ATOM     27  C   UNL A   1      31.788  27.964  23.244  1.00  0.00     0.051 A 
ATOM     28  C   UNL A   1      32.600  27.966  25.508  1.00  0.00     0.051 A 
ATOM     29  C   UNL A   1      31.086  29.147  23.494  1.00  0.00     0.004 A 
ATOM     30  C   UNL A   1      31.890  29.139  25.767  1.00  0.00     0.004 A 
ATOM     31  C   UNL A   1      31.130  29.728  24.760  1.00  0.00     0.000 A 
ENDBRANCH  22  26
ENDBRANCH  12  15
ENDBRANCH   6  11
ENDBRANCH   3   5
ENDBRANCH   2   3
ENDBRANCH   1   2
BRANCH   1  32
ATOM     32  C   UNL A   1      42.937  18.946  25.883  1.00  0.00     0.275 C 
BRANCH  32  33
ATOM     33  O   UNL A   1      43.394  19.169  24.533  1.00  0.00    -0.458 OA
BRANCH  33  34
ATOM     34  C   UNL A   1      44.721  19.398  24.411  1.00  0.00     0.338 C 
ATOM     35  O   UNL A   1      45.591  18.595  24.125  1.00  0.00    -0.246 OA
BRANCH  34  36
ATOM     36  C   UNL A   1      45.023  20.826  24.601  1.00  0.00     0.060 A 
ATOM     37  C   UNL A   1      45.635  21.232  25.781  1.00  0.00     0.016 A 
ATOM     38  C   UNL A   1      44.519  21.778  23.723  1.00  0.00     0.016 A 
ATOM     39  C   UNL A   1      45.635  22.565  26.162  1.00  0.00     0.010 A 
ATOM     40  C   UNL A   1      44.654  23.136  24.037  1.00  0.00     0.010 A 
ATOM     41  C   UNL A   1      45.187  23.543  25.275  1.00  0.00    -0.014 A 
BRANCH  41  42
ATOM     42  C   UNL A   1      45.290  24.979  25.642  1.00  0.00     0.031 A 
ATOM     43  C   UNL A   1      46.612  25.688  25.538  1.00  0.00     0.074 A 
ATOM     44  C   UNL A   1      44.201  25.642  26.084  1.00  0.00     0.049 A 
ATOM     45  N   UNL A   1      46.967  26.843  26.036  1.00  0.00    -0.248 NA
ATOM     46  C   UNL A   1      47.679  25.003  24.789  1.00  0.00     0.031 C 
ATOM     47  C   UNL A   1      42.839  25.100  26.161  1.00  0.00     0.029 A 
ATOM     48  N   UNL A   1      44.067  26.921  26.566  1.00  0.00    -0.354 N 
ATOM     49  C   UNL A   1      48.314  26.990  25.726  1.00  0.00     0.074 A 
ATOM     50  C   UNL A   1      48.710  25.814  24.984  1.00  0.00     0.031 C 
ATOM     51  C   UNL A   1      42.012  26.041  26.635  1.00  0.00     0.029 A 
ATOM     52  C   UNL A   1      42.796  27.205  27.012  1.00  0.00     0.049 A 
ATOM     53  H   UNL A   1      44.806  27.570  26.591  1.00  0.00     0.167 HD
ATOM     54  C   UNL A   1      49.141  28.011  26.052  1.00  0.00     0.031 A 
ATOM     55  C   UNL A   1      42.325  28.250  27.717  1.00  0.00     0.031 A 
ATOM     56  C   UNL A   1      48.719  29.191  26.757  1.00  0.00     0.049 A 
ATOM     57  C   UNL A   1      43.286  29.324  28.140  1.00  0.00     0.074 A 
ATOM     58  C   UNL A   1      49.470  30.302  27.101  1.00  0.00     0.029 A 
ATOM     59  N   UNL A   1      47.434  29.415  27.224  1.00  0.00    -0.354 N 
ATOM     60  N   UNL A   1      44.561  29.446  27.859  1.00  0.00    -0.248 NA
ATOM     61  C   UNL A   1      42.750  30.389  28.995  1.00  0.00     0.031 C 
ATOM     62  C   UNL A   1      48.655  31.166  27.837  1.00  0.00     0.029 A 
ATOM     63  C   UNL A   1      47.381  30.626  27.893  1.00  0.00     0.049 A 
ATOM     64  H   UNL A   1      46.672  28.805  27.098  1.00  0.00     0.167 HD
ATOM     65  C   UNL A   1      44.974  30.612  28.488  1.00  0.00     0.074 A 
ATOM     66  C   UNL A   1      43.809  31.171  29.143  1.00  0.00     0.031 C 
ATOM     67  C   UNL A   1      46.209  31.166  28.528  1.00  0.00     0.031 A 
BRANCH  54  68
ATOM     68  C   UNL A   1      50.600  27.877  25.714  1.00  0.00    -0.014 A 
ATOM     69  C   UNL A   1      51.128  28.332  24.498  1.00  0.00     0.009 A 
ATOM     70  C   UNL A   1      51.476  27.346  26.677  1.00  0.00     0.009 A 
ATOM     71  C   UNL A   1      52.500  28.237  24.245  1.00  0.00     0.001 A 
ATOM     72  C   UNL A   1      52.847  27.278  26.433  1.00  0.00     0.001 A 
ATOM     73  C   UNL A   1      53.358  27.719  25.214  1.00  0.00     0.000 A 
ENDBRANCH  54  68
BRANCH  55  74
ATOM     74  C   UNL A   1      40.904  28.284  28.157  1.00  0.00    -0.014 A 
ATOM     75  C   UNL A   1      40.484  27.557  29.281  1.00  0.00     0.009 A 
ATOM     76  C   UNL A   1      39.950  29.023  27.435  1.00  0.00     0.009 A 
ATOM     77  C   UNL A   1      39.136  27.544  29.650  1.00  0.00     0.001 A 
ATOM     78  C   UNL A   1      38.612  29.039  27.831  1.00  0.00     0.001 A 
ATOM     79  C   UNL A   1      38.203  28.288  28.930  1.00  0.00     0.000 A 
ENDBRANCH  55  74
BRANCH  67  80
ATOM     80  C   UNL A   1      46.353  32.461  29.273  1.00  0.00    -0.014 A 
ATOM     81  C   UNL A   1      46.676  32.483  30.637  1.00  0.00     0.009 A 
ATOM     82  C   UNL A   1      46.211  33.676  28.583  1.00  0.00     0.009 A 
ATOM     83  C   UNL A   1      46.832  33.700  31.303  1.00  0.00     0.001 A 
ATOM     84  C   UNL A   1      46.400  34.889  29.244  1.00  0.00     0.001 A 
ATOM     85  C   UNL A   1      46.703  34.900  30.605  1.00  0.00     0.000 A 
ENDBRANCH  67  80
ENDBRANCH  41  42
ENDBRANCH  34  36
ENDBRANCH  33  34
ENDBRANCH  32  33
ENDBRANCH   1  32
TORSDOF 15
ENDMDL
MODEL 2
REMARK VINA RESULT:     -12.0      6.366     11.847
REMARK SMILES CCN1C(=O)C[C@@H](C(=O)Nc2cccc(C(=O)OCCOC(=O)c3ccc(-c4c5nc(c(-c6ccccc6)c6ccc([nH]6)c(-c6ccccc6)c6nc(c(-c7ccccc7)c7ccc4[nH]7)C=C6)C=C5)cc3)c2)S/C1=[NH+]/c1ccccc1
REMARK SMILES IDX 19 1 18 2 16 3 17 4 15 5 11 6 12 7 72 8 13 9 14 10 10 11
REMARK SMILES IDX 8 12 9 13 7 15 3 16 4 17 74 18 5 19 6 20 73 21 75 22 2 24
REMARK SMILES IDX 1 25 76 26 77 27 81 28 78 29 80 30 79 31 20 32 21 33 22 34
REMARK SMILES IDX 23 35 24 36 25 37 71 38 26 39 70 40 27 41 28 42 29 43 64 44
REMARK SMILES IDX 30 45 69 46 63 47 65 48 31 49 68 50 62 51 61 52 32 54 54 55
REMARK SMILES IDX 39 56 53 57 40 58 43 59 52 60 66 61 41 62 42 63 51 65 67 66
REMARK SMILES IDX 44 67 33 68 34 69 38 70 35 71 37 72 36 73 55 74 56 75 60 76
REMARK SMILES IDX 57 77 59 78 58 79 45 80 46 81 50 82 47 83 49 84 48 85
REMARK H PARENT 10 14 75 23 65 53 43 64
REMARK Flexibility Score: inf
ROOT
ATOM      1  C   UNL A   1      34.113  35.426  28.440  1.00  0.00     0.275 C 
ENDROOT
BRANCH   1   2
ATOM      2  O   UNL A   1      33.897  34.030  28.148  1.00  0.00    -0.458 OA
BRANCH   2   3
ATOM      3  C   UNL A   1      34.980  33.246  28.341  1.00  0.00     0.338 C 
ATOM      4  O   UNL A   1      36.079  33.628  28.717  1.00  0.00    -0.246 OA
BRANCH   3   5
ATOM      5  C   UNL A   1      34.733  31.833  27.986  1.00  0.00     0.062 A 
ATOM      6  C   UNL A   1      33.238  30.291  26.917  1.00  0.00     0.042 A 
ATOM      7  C   UNL A   1      34.262  29.352  26.782  1.00  0.00     0.026 A 
ATOM      8  C   UNL A   1      33.443  31.455  27.647  1.00  0.00     0.041 A 
ATOM      9  C   UNL A   1      35.549  29.688  27.193  1.00  0.00     0.003 A 
ATOM     10  C   UNL A   1      35.792  30.951  27.733  1.00  0.00     0.016 A 
BRANCH   6  11
ATOM     11  N   UNL A   1      32.058  30.108  26.193  1.00  0.00    -0.325 N 
ATOM     12  C   UNL A   1      31.812  29.252  25.143  1.00  0.00     0.238 C 
ATOM     13  O   UNL A   1      30.721  29.376  24.569  1.00  0.00    -0.273 OA
ATOM     14  H   UNL A   1      31.297  30.666  26.474  1.00  0.00     0.169 HD
BRANCH  12  15
ATOM     15  C   UNL A   1      32.751  28.080  24.749  1.00  0.00     0.160 C 
ATOM     16  N   UNL A   1      33.064  25.294  23.746  1.00  0.00    -0.191 N 
ATOM     17  C   UNL A   1      33.351  26.405  22.975  1.00  0.00     0.311 C 
ATOM     18  C   UNL A   1      33.205  25.322  25.128  1.00  0.00     0.319 C 
ATOM     19  O   UNL A   1      34.086  26.371  21.989  1.00  0.00    -0.247 OA
ATOM     20  C   UNL A   1      32.585  27.645  23.316  1.00  0.00     0.153 C 
ATOM     21  S   UNL A   1      32.753  26.783  25.990  1.00  0.00    -0.024 SA
ATOM     22  N   UNL A   1      33.623  24.399  25.935  1.00  0.00    -0.235 N 
ATOM     23  H   UNL A   1      33.440  24.522  26.894  1.00  0.00     0.313 HD
BRANCH  16  24
ATOM     24  C   UNL A   1      32.925  24.032  23.005  1.00  0.00     0.243 C 
ATOM     25  C   UNL A   1      31.542  23.387  23.148  1.00  0.00     0.054 C 
ENDBRANCH  16  24
BRANCH  22  26
ATOM     26  C   UNL A   1      34.310  23.243  25.556  1.00  0.00     0.125 A 
ATOM     27  C   UNL A   1      33.721  21.991  25.755  1.00  0.00     0.051 A 
ATOM     28  C   UNL A   1      35.637  23.298  25.118  1.00  0.00     0.051 A 
ATOM     29  C   UNL A   1      34.425  20.818  25.466  1.00  0.00     0.004 A 
ATOM     30  C   UNL A   1      36.338  22.131  24.813  1.00  0.00     0.004 A 
ATOM     31  C   UNL A   1      35.731  20.890  24.985  1.00  0.00     0.000 A 
ENDBRANCH  22  26
ENDBRANCH  12  15
ENDBRANCH   6  11
ENDBRANCH   3   5
ENDBRANCH   2   3
ENDBRANCH   1   2
BRANCH   1  32
ATOM     32  C   UNL A   1      32.910  36.036  29.160  1.00  0.00     0.275 C 
BRANCH  32  33
ATOM     33  O   UNL A   1      32.497  35.221  30.277  1.00  0.00    -0.458 OA
BRANCH  33  34
ATOM     34  C   UNL A   1      32.777  35.739  31.495  1.00  0.00     0.338 C 
ATOM     35  O   UNL A   1      32.209  36.657  32.060  1.00  0.00    -0.246 OA
BRANCH  34  36
ATOM     36  C   UNL A   1      33.863  34.987  32.143  1.00  0.00     0.060 A 
ATOM     37  C   UNL A   1      35.178  35.371  31.911  1.00  0.00     0.016 A 
ATOM     38  C   UNL A   1      33.600  33.791  32.802  1.00  0.00     0.016 A 
ATOM     39  C   UNL A   1      36.232  34.520  32.205  1.00  0.00     0.010 A 
ATOM     40  C   UNL A   1      34.672  33.000  33.235  1.00  0.00     0.010 A 
ATOM     41  C   UNL A   1      35.999  33.342  32.914  1.00  0.00    -0.014 A 
BRANCH  41  42
ATOM     42  C   UNL A   1      37.142  32.486  33.324  1.00  0.00     0.031 A 
ATOM     43  C   UNL A   1      37.828  32.729  34.640  1.00  0.00     0.074 A 
ATOM     44  C   UNL A   1      37.575  31.503  32.508  1.00  0.00     0.049 A 
ATOM     45  N   UNL A   1      38.976  32.272  35.066  1.00  0.00    -0.248 NA
ATOM     46  C   UNL A   1      37.140  33.611  35.598  1.00  0.00     0.031 C 
ATOM     47  C   UNL A   1      36.955  31.106  31.238  1.00  0.00     0.029 A 
ATOM     48  N   UNL A   1      38.652  30.657  32.619  1.00  0.00    -0.354 N 
ATOM     49  C   UNL A   1      39.184  32.868  36.305  1.00  0.00     0.074 A 
ATOM     50  C   UNL A   1      38.037  33.707  36.571  1.00  0.00     0.031 C 
ATOM     51  C   UNL A   1      37.644  30.088  30.706  1.00  0.00     0.029 A 
ATOM     52  C   UNL A   1      38.820  29.841  31.525  1.00  0.00     0.049 A 
ATOM     53  H   UNL A   1      39.246  30.638  33.404  1.00  0.00     0.167 HD
ATOM     54  C   UNL A   1      40.248  32.733  37.130  1.00  0.00     0.031 A 
ATOM     55  C   UNL A   1      39.842  29.040  31.173  1.00  0.00     0.031 A 
ATOM     56  C   UNL A   1      41.363  31.862  36.866  1.00  0.00     0.049 A 
ATOM     57  C   UNL A   1      41.047  28.980  32.067  1.00  0.00     0.074 A 
ATOM     58  C   UNL A   1      42.473  31.623  37.657  1.00  0.00     0.029 A 
ATOM     59  N   UNL A   1      41.507  31.088  35.727  1.00  0.00    -0.354 N 
ATOM     60  N   UNL A   1      41.244  29.560  33.226  1.00  0.00    -0.248 NA
ATOM     61  C   UNL A   1      42.180  28.175  31.593  1.00  0.00     0.031 C 
ATOM     62  C   UNL A   1      43.322  30.757  36.964  1.00  0.00     0.029 A 
ATOM     63  C   UNL A   1      42.710  30.404  35.772  1.00  0.00     0.049 A 
ATOM     64  H   UNL A   1      40.852  31.032  34.994  1.00  0.00     0.167 HD
ATOM     65  C   UNL A   1      42.515  29.174  33.628  1.00  0.00     0.074 A 
ATOM     66  C   UNL A   1      43.031  28.292  32.602  1.00  0.00     0.031 C 
ATOM     67  C   UNL A   1      43.198  29.525  34.743  1.00  0.00     0.031 A 
BRANCH  54  68
ATOM     68  C   UNL A   1      40.301  33.590  38.365  1.00  0.00    -0.014 A 
ATOM     69  C   UNL A   1      39.773  33.163  39.591  1.00  0.00     0.009 A 
ATOM     70  C   UNL A   1      40.967  34.827  38.307  1.00  0.00     0.009 A 
ATOM     71  C   UNL A   1      39.891  33.968  40.728  1.00  0.00     0.001 A 
ATOM     72  C   UNL A   1      41.108  35.615  39.448  1.00  0.00     0.001 A 
ATOM     73  C   UNL A   1      40.564  35.188  40.658  1.00  0.00     0.000 A 
ENDBRANCH  54  68
BRANCH  55  74
ATOM     74  C   UNL A   1      39.820  28.312  29.875  1.00  0.00    -0.014 A 
ATOM     75  C   UNL A   1      39.405  26.974  29.810  1.00  0.00     0.009 A 
ATOM     76  C   UNL A   1      40.244  28.946  28.694  1.00  0.00     0.009 A 
ATOM     77  C   UNL A   1      39.446  26.279  28.599  1.00  0.00     0.001 A 
ATOM     78  C   UNL A   1      40.247  28.261  27.479  1.00  0.00     0.001 A 
ATOM     79  C   UNL A   1      39.862  26.922  27.434  1.00  0.00     0.000 A 
ENDBRANCH  55  74
BRANCH  67  80
ATOM     80  C   UNL A   1      44.561  28.924  34.928  1.00  0.00    -0.014 A 
ATOM     81  C   UNL A   1      44.728  27.681  35.554  1.00  0.00     0.009 A 
ATOM     82  C   UNL A   1      45.687  29.592  34.420  1.00  0.00     0.009 A 
ATOM     83  C   UNL A   1      46.002  27.128  35.691  1.00  0.00     0.001 A 
ATOM     84  C   UNL A   1      46.955  29.021  34.529  1.00  0.00     0.001 A 
ATOM     85  C   UNL A   1      47.112  27.794  35.171  1.00  0.00     0.000 A 
ENDBRANCH  67  80
ENDBRANCH  41  42
ENDBRANCH  34  36
ENDBRANCH  33  34
ENDBRANCH  32  33
ENDBRANCH   1  32
TORSDOF 15
ENDMDL
MODEL 3
REMARK VINA RESULT:     -11.8      4.354      6.446
REMARK SMILES CCN1C(=O)C[C@@H](C(=O)Nc2cccc(C(=O)OCCOC(=O)c3ccc(-c4c5nc(c(-c6ccccc6)c6ccc([nH]6)c(-c6ccccc6)c6nc(c(-c7ccccc7)c7ccc4[nH]7)C=C6)C=C5)cc3)c2)S/C1=[NH+]/c1ccccc1
REMARK SMILES IDX 19 1 18 2 16 3 17 4 15 5 11 6 12 7 72 8 13 9 14 10 10 11
REMARK SMILES IDX 8 12 9 13 7 15 3 16 4 17 74 18 5 19 6 20 73 21 75 22 2 24
REMARK SMILES IDX 1 25 76 26 77 27 81 28 78 29 80 30 79 31 20 32 21 33 22 34
REMARK SMILES IDX 23 35 24 36 25 37 71 38 26 39 70 40 27 41 28 42 29 43 64 44
REMARK SMILES IDX 30 45 69 46 63 47 65 48 31 49 68 50 62 51 61 52 32 54 54 55
REMARK SMILES IDX 39 56 53 57 40 58 43 59 52 60 66 61 41 62 42 63 51 65 67 66
REMARK SMILES IDX 44 67 33 68 34 69 38 70 35 71 37 72 36 73 55 74 56 75 60 76
REMARK SMILES IDX 57 77 59 78 58 79 45 80 46 81 50 82 47 83 49 84 48 85
REMARK H PARENT 10 14 75 23 65 53 43 64
REMARK Flexibility Score: inf
ROOT
ATOM      1  C   UNL A   1      42.238  20.136  26.668  1.00  0.00     0.275 C 
ENDROOT
BRANCH   1   2
ATOM      2  O   UNL A   1      40.901  20.661  26.801  1.00  0.00    -0.458 OA
BRANCH   2   3
ATOM      3  C   UNL A   1      39.967  19.996  26.087  1.00  0.00     0.338 C 
ATOM      4  O   UNL A   1      40.028  18.822  25.752  1.00  0.00    -0.246 OA
BRANCH   3   5
ATOM      5  C   UNL A   1      38.841  20.860  25.674  1.00  0.00     0.062 A 
ATOM      6  C   UNL A   1      36.525  20.934  25.052  1.00  0.00     0.042 A 
ATOM      7  C   UNL A   1      36.461  22.294  25.358  1.00  0.00     0.026 A 
ATOM      8  C   UNL A   1      37.743  20.267  25.069  1.00  0.00     0.041 A 
ATOM      9  C   UNL A   1      37.582  22.925  25.891  1.00  0.00     0.003 A 
ATOM     10  C   UNL A   1      38.747  22.188  26.108  1.00  0.00     0.016 A 
BRANCH   6  11
ATOM     11  N   UNL A   1      35.334  20.229  24.869  1.00  0.00    -0.325 N 
ATOM     12  C   UNL A   1      34.038  20.656  25.058  1.00  0.00     0.238 C 
ATOM     13  O   UNL A   1      33.151  19.796  24.966  1.00  0.00    -0.273 OA
ATOM     14  H   UNL A   1      35.435  19.300  24.560  1.00  0.00     0.169 HD
BRANCH  12  15
ATOM     15  C   UNL A   1      33.640  22.146  25.233  1.00  0.00     0.160 C 
ATOM     16  N   UNL A   1      31.587  24.283  24.948  1.00  0.00    -0.191 N 
ATOM     17  C   UNL A   1      31.945  23.746  26.171  1.00  0.00     0.311 C 
ATOM     18  C   UNL A   1      32.496  24.352  23.900  1.00  0.00     0.319 C 
ATOM     19  O   UNL A   1      31.752  24.318  27.243  1.00  0.00    -0.247 OA
ATOM     20  C   UNL A   1      32.449  22.337  26.136  1.00  0.00     0.153 C 
ATOM     21  S   UNL A   1      33.610  23.016  23.664  1.00  0.00    -0.024 SA
ATOM     22  N   UNL A   1      32.661  25.277  23.009  1.00  0.00    -0.235 N 
ATOM     23  H   UNL A   1      33.197  25.049  22.215  1.00  0.00     0.313 HD
BRANCH  16  24
ATOM     24  C   UNL A   1      30.332  25.050  24.941  1.00  0.00     0.243 C 
ATOM     25  C   UNL A   1      30.247  26.097  26.056  1.00  0.00     0.054 C 
ENDBRANCH  16  24
BRANCH  22  26
ATOM     26  C   UNL A   1      32.141  26.572  23.080  1.00  0.00     0.125 A 
ATOM     27  C   UNL A   1      32.709  27.500  23.957  1.00  0.00     0.051 A 
ATOM     28  C   UNL A   1      30.968  26.921  22.401  1.00  0.00     0.051 A 
ATOM     29  C   UNL A   1      32.151  28.773  24.108  1.00  0.00     0.004 A 
ATOM     30  C   UNL A   1      30.416  28.195  22.537  1.00  0.00     0.004 A 
ATOM     31  C   UNL A   1      31.010  29.122  23.390  1.00  0.00     0.000 A 
ENDBRANCH  22  26
ENDBRANCH  12  15
ENDBRANCH   6  11
ENDBRANCH   3   5
ENDBRANCH   2   3
ENDBRANCH   1   2
BRANCH   1  32
ATOM     32  C   UNL A   1      43.093  21.016  25.755  1.00  0.00     0.275 C 
BRANCH  32  33
ATOM     33  O   UNL A   1      42.358  22.171  25.299  1.00  0.00    -0.458 OA
BRANCH  33  34
ATOM     34  C   UNL A   1      43.088  23.305  25.190  1.00  0.00     0.338 C 
ATOM     35  O   UNL A   1      44.017  23.520  24.433  1.00  0.00    -0.246 OA
BRANCH  34  36
ATOM     36  C   UNL A   1      42.567  24.347  26.089  1.00  0.00     0.060 A 
ATOM     37  C   UNL A   1      43.113  25.623  26.025  1.00  0.00     0.016 A 
ATOM     38  C   UNL A   1      41.701  24.019  27.125  1.00  0.00     0.016 A 
ATOM     39  C   UNL A   1      42.915  26.536  27.049  1.00  0.00     0.010 A 
ATOM     40  C   UNL A   1      41.380  24.991  28.081  1.00  0.00     0.010 A 
ATOM     41  C   UNL A   1      42.008  26.251  28.070  1.00  0.00    -0.014 A 
BRANCH  41  42
ATOM     42  C   UNL A   1      41.714  27.274  29.106  1.00  0.00     0.031 A 
ATOM     43  C   UNL A   1      42.523  27.313  30.373  1.00  0.00     0.074 A 
ATOM     44  C   UNL A   1      40.712  28.158  28.917  1.00  0.00     0.049 A 
ATOM     45  N   UNL A   1      42.274  27.948  31.489  1.00  0.00    -0.248 NA
ATOM     46  C   UNL A   1      43.767  26.525  30.396  1.00  0.00     0.031 C 
ATOM     47  C   UNL A   1      39.898  28.285  27.703  1.00  0.00     0.029 A 
ATOM     48  N   UNL A   1      40.196  29.117  29.754  1.00  0.00    -0.354 N 
ATOM     49  C   UNL A   1      43.285  27.578  32.368  1.00  0.00     0.074 A 
ATOM     50  C   UNL A   1      44.161  26.676  31.653  1.00  0.00     0.031 C 
ATOM     51  C   UNL A   1      39.008  29.273  27.865  1.00  0.00     0.029 A 
ATOM     52  C   UNL A   1      39.101  29.765  29.230  1.00  0.00     0.049 A 
ATOM     53  H   UNL A   1      40.571  29.320  30.641  1.00  0.00     0.167 HD
ATOM     54  C   UNL A   1      43.450  27.949  33.659  1.00  0.00     0.031 A 
ATOM     55  C   UNL A   1      38.217  30.603  29.802  1.00  0.00     0.031 A 
ATOM     56  C   UNL A   1      42.590  28.879  34.342  1.00  0.00     0.049 A 
ATOM     57  C   UNL A   1      38.376  30.927  31.260  1.00  0.00     0.074 A 
ATOM     58  C   UNL A   1      42.692  29.353  35.638  1.00  0.00     0.029 A 
ATOM     59  N   UNL A   1      41.471  29.476  33.783  1.00  0.00    -0.354 N 
ATOM     60  N   UNL A   1      39.323  30.559  32.089  1.00  0.00    -0.248 NA
ATOM     61  C   UNL A   1      37.331  31.761  31.868  1.00  0.00     0.031 C 
ATOM     62  C   UNL A   1      41.596  30.183  35.886  1.00  0.00     0.029 A 
ATOM     63  C   UNL A   1      40.849  30.279  34.723  1.00  0.00     0.049 A 
ATOM     64  H   UNL A   1      41.165  29.349  32.856  1.00  0.00     0.167 HD
ATOM     65  C   UNL A   1      38.998  31.132  33.309  1.00  0.00     0.074 A 
ATOM     66  C   UNL A   1      37.781  31.892  33.107  1.00  0.00     0.031 C 
ATOM     67  C   UNL A   1      39.644  31.033  34.495  1.00  0.00     0.031 A 
BRANCH  54  68
ATOM     68  C   UNL A   1      44.558  27.307  34.447  1.00  0.00    -0.014 A 
ATOM     69  C   UNL A   1      45.828  27.888  34.557  1.00  0.00     0.009 A 
ATOM     70  C   UNL A   1      44.289  26.123  35.157  1.00  0.00     0.009 A 
ATOM     71  C   UNL A   1      46.814  27.285  35.343  1.00  0.00     0.001 A 
ATOM     72  C   UNL A   1      45.265  25.538  35.963  1.00  0.00     0.001 A 
ATOM     73  C   UNL A   1      46.530  26.117  36.051  1.00  0.00     0.000 A 
ENDBRANCH  54  68
BRANCH  55  74
ATOM     74  C   UNL A   1      37.051  31.112  29.032  1.00  0.00    -0.014 A 
ATOM     75  C   UNL A   1      36.971  32.462  28.661  1.00  0.00     0.009 A 
ATOM     76  C   UNL A   1      35.992  30.254  28.689  1.00  0.00     0.009 A 
ATOM     77  C   UNL A   1      35.843  32.947  27.993  1.00  0.00     0.001 A 
ATOM     78  C   UNL A   1      34.885  30.732  27.987  1.00  0.00     0.001 A 
ATOM     79  C   UNL A   1      34.804  32.082  27.652  1.00  0.00     0.000 A 
ENDBRANCH  55  74
BRANCH  67  80
ATOM     80  C   UNL A   1      39.068  31.794  35.654  1.00  0.00    -0.014 A 
ATOM     81  C   UNL A   1      39.366  33.149  35.854  1.00  0.00     0.009 A 
ATOM     82  C   UNL A   1      38.174  31.153  36.527  1.00  0.00     0.009 A 
ATOM     83  C   UNL A   1      38.796  33.844  36.922  1.00  0.00     0.001 A 
ATOM     84  C   UNL A   1      37.582  31.859  37.574  1.00  0.00     0.001 A 
ATOM     85  C   UNL A   1      37.899  33.201  37.775  1.00  0.00     0.000 A 
ENDBRANCH  67  80
ENDBRANCH  41  42
ENDBRANCH  34  36
ENDBRANCH  33  34
ENDBRANCH  32  33
ENDBRANCH   1  32
TORSDOF 15
ENDMDL
