MODEL 1
REMARK VINA RESULT:     -10.3      0.000      0.000
REMARK SMILES CC(C)[NH2+][C@]1(C(=O)OCCOC(=O)c2ccc(-c3c4nc(c(-c5ccccc5)c5ccc([nH]5)c(-c5ccccc5)c5nc(c(-c6ccccc6)c6ccc3[nH]6)C=C5)C=C4)cc2)CC[C@H]([NH+]2CCC(C)(C)CC2)C1
REMARK SMILES IDX 9 1 8 2 6 3 7 4 5 5 62 6 73 7 63 8 64 9 4 10 2 13 1 14 3 15
REMARK SMILES IDX 65 16 66 17 72 18 67 20 71 21 68 22 69 23 70 24 10 25 11 26
REMARK SMILES IDX 12 27 13 28 14 29 15 30 61 31 16 32 60 33 17 34 18 35 19 36
REMARK SMILES IDX 54 37 20 38 59 39 53 40 55 41 21 42 58 43 52 44 51 45 22 47
REMARK SMILES IDX 44 48 29 49 43 50 30 51 33 52 42 53 56 54 31 55 32 56 41 58
REMARK SMILES IDX 57 59 34 60 23 61 24 62 28 63 25 64 27 65 26 66 45 67 46 68
REMARK SMILES IDX 50 69 47 70 49 71 48 72 35 73 36 74 40 75 37 76 39 77 38 78
REMARK H PARENT 4 11 4 12 65 19 55 46 33 57
REMARK Flexibility Score: inf
ROOT
ATOM      1  C   UNL A   1      32.545  29.463  26.000  1.00  0.00     0.274 C 
ENDROOT
BRANCH   1   2
ATOM      2  O   UNL A   1      32.939  28.135  26.404  1.00  0.00    -0.457 OA
BRANCH   2   3
ATOM      3  C   UNL A   1      31.991  27.156  26.319  1.00  0.00     0.368 C 
ATOM      4  O   UNL A   1      30.962  27.123  26.985  1.00  0.00    -0.245 OA
BRANCH   3   5
ATOM      5  C   UNL A   1      32.452  25.986  25.398  1.00  0.00     0.200 C 
ATOM      6  C   UNL A   1      32.853  26.549  24.024  1.00  0.00     0.087 C 
ATOM      7  C   UNL A   1      33.823  25.428  25.874  1.00  0.00     0.146 C 
ATOM      8  C   UNL A   1      33.843  25.564  23.430  1.00  0.00     0.072 C 
ATOM      9  C   UNL A   1      34.631  24.981  24.622  1.00  0.00     0.191 C 
BRANCH   5  10
ATOM     10  N   UNL A   1      31.379  24.965  25.489  1.00  0.00    -0.330 N 
ATOM     11  H   UNL A   1      30.749  25.282  26.226  1.00  0.00     0.347 HD
ATOM     12  H   UNL A   1      31.046  24.925  24.526  1.00  0.00     0.347 HD
BRANCH  10  13
ATOM     13  C   UNL A   1      31.653  23.560  25.768  1.00  0.00     0.176 C 
ATOM     14  C   UNL A   1      30.573  23.110  26.764  1.00  0.00     0.075 C 
ATOM     15  C   UNL A   1      31.600  22.645  24.547  1.00  0.00     0.075 C 
ENDBRANCH  10  13
ENDBRANCH   5  10
BRANCH   9  16
ATOM     16  N   UNL A   1      35.041  23.556  24.507  1.00  0.00    -0.332 N 
ATOM     17  C   UNL A   1      35.083  22.862  25.805  1.00  0.00     0.263 C 
ATOM     18  C   UNL A   1      36.187  23.347  23.625  1.00  0.00     0.263 C 
ATOM     19  H   UNL A   1      34.290  23.075  24.012  1.00  0.00     0.348 HD
ATOM     20  C   UNL A   1      35.789  21.498  25.819  1.00  0.00     0.068 C 
ATOM     21  C   UNL A   1      36.877  21.988  23.682  1.00  0.00     0.068 C 
ATOM     22  C   UNL A   1      37.160  21.541  25.120  1.00  0.00    -0.025 C 
ATOM     23  C   UNL A   1      37.797  20.143  25.101  1.00  0.00     0.011 C 
ATOM     24  C   UNL A   1      38.141  22.493  25.834  1.00  0.00     0.011 C 
ENDBRANCH   9  16
ENDBRANCH   3   5
ENDBRANCH   2   3
ENDBRANCH   1   2
BRANCH   1  25
ATOM     25  C   UNL A   1      32.883  30.477  27.090  1.00  0.00     0.275 C 
BRANCH  25  26
ATOM     26  O   UNL A   1      33.877  29.902  27.952  1.00  0.00    -0.458 OA
BRANCH  26  27
ATOM     27  C   UNL A   1      34.802  30.749  28.451  1.00  0.00     0.338 C 
ATOM     28  O   UNL A   1      34.627  31.892  28.849  1.00  0.00    -0.246 OA
BRANCH  27  29
ATOM     29  C   UNL A   1      36.106  30.064  28.487  1.00  0.00     0.060 A 
ATOM     30  C   UNL A   1      36.524  29.437  29.659  1.00  0.00     0.016 A 
ATOM     31  C   UNL A   1      36.963  30.119  27.391  1.00  0.00     0.016 A 
ATOM     32  C   UNL A   1      37.816  28.931  29.776  1.00  0.00     0.010 A 
ATOM     33  C   UNL A   1      38.224  29.518  27.473  1.00  0.00     0.010 A 
ATOM     34  C   UNL A   1      38.679  28.944  28.676  1.00  0.00    -0.014 A 
BRANCH  34  35
ATOM     35  C   UNL A   1      40.067  28.413  28.785  1.00  0.00     0.031 A 
ATOM     36  C   UNL A   1      41.182  29.331  29.208  1.00  0.00     0.074 A 
ATOM     37  C   UNL A   1      40.348  27.123  28.507  1.00  0.00     0.049 A 
ATOM     38  N   UNL A   1      42.476  29.167  29.103  1.00  0.00    -0.248 NA
ATOM     39  C   UNL A   1      40.786  30.613  29.814  1.00  0.00     0.031 C 
ATOM     40  C   UNL A   1      39.373  26.086  28.164  1.00  0.00     0.029 A 
ATOM     41  N   UNL A   1      41.554  26.465  28.472  1.00  0.00    -0.354 N 
ATOM     42  C   UNL A   1      43.043  30.354  29.552  1.00  0.00     0.074 A 
ATOM     43  C   UNL A   1      41.955  31.222  29.945  1.00  0.00     0.031 C 
ATOM     44  C   UNL A   1      40.014  24.920  27.988  1.00  0.00     0.029 A 
ATOM     45  C   UNL A   1      41.450  25.147  28.101  1.00  0.00     0.049 A 
ATOM     46  H   UNL A   1      42.412  26.897  28.692  1.00  0.00     0.167 HD
ATOM     47  C   UNL A   1      44.353  30.690  29.618  1.00  0.00     0.031 A 
ATOM     48  C   UNL A   1      42.399  24.234  27.818  1.00  0.00     0.031 A 
ATOM     49  C   UNL A   1      45.435  29.806  29.280  1.00  0.00     0.049 A 
ATOM     50  C   UNL A   1      43.843  24.640  27.856  1.00  0.00     0.074 A 
ATOM     51  C   UNL A   1      46.797  30.054  29.311  1.00  0.00     0.029 A 
ATOM     52  N   UNL A   1      45.277  28.490  28.875  1.00  0.00    -0.354 N 
ATOM     53  N   UNL A   1      44.368  25.795  28.183  1.00  0.00    -0.248 NA
ATOM     54  C   UNL A   1      44.826  23.623  27.454  1.00  0.00     0.031 C 
ATOM     55  C   UNL A   1      47.462  28.896  28.894  1.00  0.00     0.029 A 
ATOM     56  C   UNL A   1      46.515  27.916  28.645  1.00  0.00     0.049 A 
ATOM     57  H   UNL A   1      44.412  28.032  28.766  1.00  0.00     0.167 HD
ATOM     58  C   UNL A   1      45.740  25.643  28.035  1.00  0.00     0.074 A 
ATOM     59  C   UNL A   1      45.968  24.277  27.610  1.00  0.00     0.031 C 
ATOM     60  C   UNL A   1      46.723  26.555  28.225  1.00  0.00     0.031 A 
BRANCH  47  61
ATOM     61  C   UNL A   1      44.685  32.100  30.021  1.00  0.00    -0.014 A 
ATOM     62  C   UNL A   1      44.974  32.439  31.351  1.00  0.00     0.009 A 
ATOM     63  C   UNL A   1      44.731  33.100  29.037  1.00  0.00     0.009 A 
ATOM     64  C   UNL A   1      45.272  33.760  31.692  1.00  0.00     0.001 A 
ATOM     65  C   UNL A   1      45.055  34.415  29.378  1.00  0.00     0.001 A 
ATOM     66  C   UNL A   1      45.316  34.745  30.705  1.00  0.00     0.000 A 
ENDBRANCH  47  61
BRANCH  48  67
ATOM     67  C   UNL A   1      42.008  22.863  27.399  1.00  0.00    -0.014 A 
ATOM     68  C   UNL A   1      41.662  21.895  28.355  1.00  0.00     0.009 A 
ATOM     69  C   UNL A   1      41.980  22.514  26.039  1.00  0.00     0.009 A 
ATOM     70  C   UNL A   1      41.308  20.604  27.955  1.00  0.00     0.001 A 
ATOM     71  C   UNL A   1      41.595  21.231  25.643  1.00  0.00     0.001 A 
ATOM     72  C   UNL A   1      41.268  20.275  26.602  1.00  0.00     0.000 A 
ENDBRANCH  48  67
BRANCH  60  73
ATOM     73  C   UNL A   1      48.134  26.094  28.009  1.00  0.00    -0.014 A 
ATOM     74  C   UNL A   1      48.737  26.175  26.745  1.00  0.00     0.009 A 
ATOM     75  C   UNL A   1      48.878  25.602  29.091  1.00  0.00     0.009 A 
ATOM     76  C   UNL A   1      50.053  25.747  26.564  1.00  0.00     0.001 A 
ATOM     77  C   UNL A   1      50.200  25.196  28.912  1.00  0.00     0.001 A 
ATOM     78  C   UNL A   1      50.784  25.261  27.648  1.00  0.00     0.000 A 
ENDBRANCH  60  73
ENDBRANCH  34  35
ENDBRANCH  27  29
ENDBRANCH  26  27
ENDBRANCH  25  26
ENDBRANCH   1  25
TORSDOF 14
ENDMDL
MODEL 2
REMARK VINA RESULT:     -10.2      1.026      1.726
REMARK SMILES CC(C)[NH2+][C@]1(C(=O)OCCOC(=O)c2ccc(-c3c4nc(c(-c5ccccc5)c5ccc([nH]5)c(-c5ccccc5)c5nc(c(-c6ccccc6)c6ccc3[nH]6)C=C5)C=C4)cc2)CC[C@H]([NH+]2CCC(C)(C)CC2)C1
REMARK SMILES IDX 9 1 8 2 6 3 7 4 5 5 62 6 73 7 63 8 64 9 4 10 2 13 1 14 3 15
REMARK SMILES IDX 65 16 66 17 72 18 67 20 71 21 68 22 69 23 70 24 10 25 11 26
REMARK SMILES IDX 12 27 13 28 14 29 15 30 61 31 16 32 60 33 17 34 18 35 19 36
REMARK SMILES IDX 54 37 20 38 59 39 53 40 55 41 21 42 58 43 52 44 51 45 22 47
REMARK SMILES IDX 44 48 29 49 43 50 30 51 33 52 42 53 56 54 31 55 32 56 41 58
REMARK SMILES IDX 57 59 34 60 23 61 24 62 28 63 25 64 27 65 26 66 45 67 46 68
REMARK SMILES IDX 50 69 47 70 49 71 48 72 35 73 36 74 40 75 37 76 39 77 38 78
REMARK H PARENT 4 11 4 12 65 19 55 46 33 57
REMARK Flexibility Score: inf
ROOT
ATOM      1  C   UNL A   1      31.961  30.322  26.776  1.00  0.00     0.274 C 
ENDROOT
BRANCH   1   2
ATOM      2  O   UNL A   1      31.773  29.142  25.968  1.00  0.00    -0.457 OA
BRANCH   2   3
ATOM      3  C   UNL A   1      31.557  27.967  26.630  1.00  0.00     0.368 C 
ATOM      4  O   UNL A   1      31.160  27.883  27.788  1.00  0.00    -0.245 OA
BRANCH   3   5
ATOM      5  C   UNL A   1      32.041  26.740  25.800  1.00  0.00     0.200 C 
ATOM      6  C   UNL A   1      33.533  26.907  25.468  1.00  0.00     0.087 C 
ATOM      7  C   UNL A   1      32.102  25.469  26.695  1.00  0.00     0.146 C 
ATOM      8  C   UNL A   1      34.086  25.509  25.262  1.00  0.00     0.072 C 
ATOM      9  C   UNL A   1      33.296  24.592  26.220  1.00  0.00     0.191 C 
BRANCH   5  10
ATOM     10  N   UNL A   1      31.056  26.593  24.700  1.00  0.00    -0.330 N 
ATOM     11  H   UNL A   1      30.796  25.607  24.683  1.00  0.00     0.347 HD
ATOM     12  H   UNL A   1      30.358  27.293  24.950  1.00  0.00     0.347 HD
BRANCH  10  13
ATOM     13  C   UNL A   1      31.360  26.955  23.320  1.00  0.00     0.176 C 
ATOM     14  C   UNL A   1      31.509  25.628  22.560  1.00  0.00     0.075 C 
ATOM     15  C   UNL A   1      30.286  27.793  22.629  1.00  0.00     0.075 C 
ENDBRANCH  10  13
ENDBRANCH   5  10
BRANCH   9  16
ATOM     16  N   UNL A   1      33.021  23.213  25.736  1.00  0.00    -0.332 N 
ATOM     17  C   UNL A   1      33.295  22.181  26.750  1.00  0.00     0.263 C 
ATOM     18  C   UNL A   1      33.536  22.951  24.393  1.00  0.00     0.263 C 
ATOM     19  H   UNL A   1      32.012  23.146  25.603  1.00  0.00     0.348 HD
ATOM     20  C   UNL A   1      33.341  20.732  26.244  1.00  0.00     0.068 C 
ATOM     21  C   UNL A   1      33.588  21.499  23.933  1.00  0.00     0.068 C 
ATOM     22  C   UNL A   1      34.214  20.578  24.986  1.00  0.00    -0.025 C 
ATOM     23  C   UNL A   1      34.177  19.129  24.480  1.00  0.00     0.011 C 
ATOM     24  C   UNL A   1      35.688  20.941  25.260  1.00  0.00     0.011 C 
ENDBRANCH   9  16
ENDBRANCH   3   5
ENDBRANCH   2   3
ENDBRANCH   1   2
BRANCH   1  25
ATOM     25  C   UNL A   1      33.437  30.708  26.827  1.00  0.00     0.275 C 
BRANCH  25  26
ATOM     26  O   UNL A   1      34.022  30.106  27.992  1.00  0.00    -0.458 OA
BRANCH  26  27
ATOM     27  C   UNL A   1      34.919  30.854  28.668  1.00  0.00     0.338 C 
ATOM     28  O   UNL A   1      34.725  31.920  29.235  1.00  0.00    -0.246 OA
BRANCH  27  29
ATOM     29  C   UNL A   1      36.220  30.161  28.661  1.00  0.00     0.060 A 
ATOM     30  C   UNL A   1      36.674  29.532  29.819  1.00  0.00     0.016 A 
ATOM     31  C   UNL A   1      37.039  30.208  27.535  1.00  0.00     0.016 A 
ATOM     32  C   UNL A   1      37.965  29.018  29.892  1.00  0.00     0.010 A 
ATOM     33  C   UNL A   1      38.298  29.599  27.575  1.00  0.00     0.010 A 
ATOM     34  C   UNL A   1      38.790  29.024  28.763  1.00  0.00    -0.014 A 
BRANCH  34  35
ATOM     35  C   UNL A   1      40.178  28.484  28.825  1.00  0.00     0.031 A 
ATOM     36  C   UNL A   1      41.313  29.397  29.203  1.00  0.00     0.074 A 
ATOM     37  C   UNL A   1      40.440  27.191  28.545  1.00  0.00     0.049 A 
ATOM     38  N   UNL A   1      42.602  29.223  29.052  1.00  0.00    -0.248 NA
ATOM     39  C   UNL A   1      40.947  30.684  29.815  1.00  0.00     0.031 C 
ATOM     40  C   UNL A   1      39.447  26.158  28.242  1.00  0.00     0.029 A 
ATOM     41  N   UNL A   1      41.640  26.525  28.470  1.00  0.00    -0.354 N 
ATOM     42  C   UNL A   1      43.192  30.409  29.473  1.00  0.00     0.074 A 
ATOM     43  C   UNL A   1      42.125  31.286  29.901  1.00  0.00     0.031 C 
ATOM     44  C   UNL A   1      40.074  24.987  28.050  1.00  0.00     0.029 A 
ATOM     45  C   UNL A   1      41.513  25.205  28.110  1.00  0.00     0.049 A 
ATOM     46  H   UNL A   1      42.508  26.952  28.657  1.00  0.00     0.167 HD
ATOM     47  C   UNL A   1      44.507  30.737  29.491  1.00  0.00     0.031 A 
ATOM     48  C   UNL A   1      42.446  24.284  27.799  1.00  0.00     0.031 A 
ATOM     49  C   UNL A   1      45.569  29.843  29.119  1.00  0.00     0.049 A 
ATOM     50  C   UNL A   1      43.894  24.681  27.782  1.00  0.00     0.074 A 
ATOM     51  C   UNL A   1      46.933  30.082  29.100  1.00  0.00     0.029 A 
ATOM     52  N   UNL A   1      45.389  28.526  28.727  1.00  0.00    -0.354 N 
ATOM     53  N   UNL A   1      44.437  25.834  28.085  1.00  0.00    -0.248 NA
ATOM     54  C   UNL A   1      44.854  23.654  27.352  1.00  0.00     0.031 C 
ATOM     55  C   UNL A   1      47.575  28.917  28.665  1.00  0.00     0.029 A 
ATOM     56  C   UNL A   1      46.614  27.942  28.457  1.00  0.00     0.049 A 
ATOM     57  H   UNL A   1      44.517  28.074  28.652  1.00  0.00     0.167 HD
ATOM     58  C   UNL A   1      45.801  25.672  27.887  1.00  0.00     0.074 A 
ATOM     59  C   UNL A   1      46.006  24.302  27.462  1.00  0.00     0.031 C 
ATOM     60  C   UNL A   1      46.797  26.578  28.037  1.00  0.00     0.031 A 
BRANCH  47  61
ATOM     61  C   UNL A   1      44.861  32.146  29.873  1.00  0.00    -0.014 A 
ATOM     62  C   UNL A   1      44.860  33.188  28.935  1.00  0.00     0.009 A 
ATOM     63  C   UNL A   1      45.177  32.434  31.211  1.00  0.00     0.009 A 
ATOM     64  C   UNL A   1      45.201  34.486  29.323  1.00  0.00     0.001 A 
ATOM     65  C   UNL A   1      45.492  33.737  31.600  1.00  0.00     0.001 A 
ATOM     66  C   UNL A   1      45.513  34.759  30.655  1.00  0.00     0.000 A 
ENDBRANCH  47  61
BRANCH  48  67
ATOM     67  C   UNL A   1      42.031  22.913  27.402  1.00  0.00    -0.014 A 
ATOM     68  C   UNL A   1      41.847  21.914  28.370  1.00  0.00     0.009 A 
ATOM     69  C   UNL A   1      41.819  22.596  26.051  1.00  0.00     0.009 A 
ATOM     70  C   UNL A   1      41.470  20.624  27.990  1.00  0.00     0.001 A 
ATOM     71  C   UNL A   1      41.411  21.313  25.678  1.00  0.00     0.001 A 
ATOM     72  C   UNL A   1      41.245  20.326  26.647  1.00  0.00     0.000 A 
ENDBRANCH  48  67
BRANCH  60  73
ATOM     73  C   UNL A   1      48.196  26.106  27.773  1.00  0.00    -0.014 A 
ATOM     74  C   UNL A   1      48.965  25.518  28.788  1.00  0.00     0.009 A 
ATOM     75  C   UNL A   1      48.737  26.221  26.484  1.00  0.00     0.009 A 
ATOM     76  C   UNL A   1      50.263  25.079  28.522  1.00  0.00     0.001 A 
ATOM     77  C   UNL A   1      50.027  25.761  26.216  1.00  0.00     0.001 A 
ATOM     78  C   UNL A   1      50.791  25.197  27.236  1.00  0.00     0.000 A 
ENDBRANCH  60  73
ENDBRANCH  34  35
ENDBRANCH  27  29
ENDBRANCH  26  27
ENDBRANCH  25  26
ENDBRANCH   1  25
TORSDOF 14
ENDMDL
MODEL 3
REMARK VINA RESULT:     -10.1      1.488      2.477
REMARK SMILES CC(C)[NH2+][C@]1(C(=O)OCCOC(=O)c2ccc(-c3c4nc(c(-c5ccccc5)c5ccc([nH]5)c(-c5ccccc5)c5nc(c(-c6ccccc6)c6ccc3[nH]6)C=C5)C=C4)cc2)CC[C@H]([NH+]2CCC(C)(C)CC2)C1
REMARK SMILES IDX 9 1 8 2 6 3 7 4 5 5 62 6 73 7 63 8 64 9 4 10 2 13 1 14 3 15
REMARK SMILES IDX 65 16 66 17 72 18 67 20 71 21 68 22 69 23 70 24 10 25 11 26
REMARK SMILES IDX 12 27 13 28 14 29 15 30 61 31 16 32 60 33 17 34 18 35 19 36
REMARK SMILES IDX 54 37 20 38 59 39 53 40 55 41 21 42 58 43 52 44 51 45 22 47
REMARK SMILES IDX 44 48 29 49 43 50 30 51 33 52 42 53 56 54 31 55 32 56 41 58
REMARK SMILES IDX 57 59 34 60 23 61 24 62 28 63 25 64 27 65 26 66 45 67 46 68
REMARK SMILES IDX 50 69 47 70 49 71 48 72 35 73 36 74 40 75 37 76 39 77 38 78
REMARK H PARENT 4 11 4 12 65 19 55 46 33 57
REMARK Flexibility Score: inf
ROOT
ATOM      1  C   UNL A   1      32.869  27.866  26.248  1.00  0.00     0.274 C 
ENDROOT
BRANCH   1   2
ATOM      2  O   UNL A   1      33.562  26.610  26.092  1.00  0.00    -0.457 OA
BRANCH   2   3
ATOM      3  C   UNL A   1      33.286  25.886  24.968  1.00  0.00     0.368 C 
ATOM      4  O   UNL A   1      32.595  26.284  24.036  1.00  0.00    -0.245 OA
BRANCH   3   5
ATOM      5  C   UNL A   1      33.809  24.422  25.082  1.00  0.00     0.200 C 
ATOM      6  C   UNL A   1      33.515  23.886  26.493  1.00  0.00     0.087 C 
ATOM      7  C   UNL A   1      32.924  23.463  24.236  1.00  0.00     0.146 C 
ATOM      8  C   UNL A   1      33.435  22.376  26.369  1.00  0.00     0.072 C 
ATOM      9  C   UNL A   1      32.848  22.093  24.970  1.00  0.00     0.191 C 
BRANCH   5  10
ATOM     10  N   UNL A   1      35.207  24.463  24.587  1.00  0.00    -0.330 N 
ATOM     11  H   UNL A   1      35.146  24.577  23.576  1.00  0.00     0.347 HD
ATOM     12  H   UNL A   1      35.608  25.209  25.155  1.00  0.00     0.347 HD
BRANCH  10  13
ATOM     13  C   UNL A   1      36.153  23.376  24.815  1.00  0.00     0.176 C 
ATOM     14  C   UNL A   1      36.630  22.934  23.423  1.00  0.00     0.075 C 
ATOM     15  C   UNL A   1      37.374  23.755  25.650  1.00  0.00     0.075 C 
ENDBRANCH  10  13
ENDBRANCH   5  10
BRANCH   9  16
ATOM     16  N   UNL A   1      33.355  20.880  24.275  1.00  0.00    -0.332 N 
ATOM     17  C   UNL A   1      32.281  20.055  23.697  1.00  0.00     0.263 C 
ATOM     18  C   UNL A   1      34.387  20.166  25.024  1.00  0.00     0.263 C 
ATOM     19  H   UNL A   1      33.864  21.207  23.453  1.00  0.00     0.348 HD
ATOM     20  C   UNL A   1      32.683  18.644  23.243  1.00  0.00     0.068 C 
ATOM     21  C   UNL A   1      34.745  18.759  24.557  1.00  0.00     0.068 C 
ATOM     22  C   UNL A   1      33.503  17.897  24.310  1.00  0.00    -0.025 C 
ATOM     23  C   UNL A   1      33.938  16.520  23.786  1.00  0.00     0.011 C 
ATOM     24  C   UNL A   1      32.695  17.671  25.604  1.00  0.00     0.011 C 
ENDBRANCH   9  16
ENDBRANCH   3   5
ENDBRANCH   2   3
ENDBRANCH   1   2
BRANCH   1  25
ATOM     25  C   UNL A   1      33.865  29.008  26.433  1.00  0.00     0.275 C 
BRANCH  25  26
ATOM     26  O   UNL A   1      33.981  29.285  27.837  1.00  0.00    -0.458 OA
BRANCH  26  27
ATOM     27  C   UNL A   1      34.681  30.388  28.175  1.00  0.00     0.338 C 
ATOM     28  O   UNL A   1      34.256  31.525  28.319  1.00  0.00    -0.246 OA
BRANCH  27  29
ATOM     29  C   UNL A   1      36.089  30.011  28.395  1.00  0.00     0.060 A 
ATOM     30  C   UNL A   1      37.021  30.199  27.376  1.00  0.00     0.016 A 
ATOM     31  C   UNL A   1      36.476  29.384  29.576  1.00  0.00     0.016 A 
ATOM     32  C   UNL A   1      38.315  29.700  27.491  1.00  0.00     0.010 A 
ATOM     33  C   UNL A   1      37.805  28.974  29.734  1.00  0.00     0.010 A 
ATOM     34  C   UNL A   1      38.734  29.099  28.682  1.00  0.00    -0.014 A 
BRANCH  34  35
ATOM     35  C   UNL A   1      40.113  28.553  28.822  1.00  0.00     0.031 A 
ATOM     36  C   UNL A   1      41.228  29.459  29.272  1.00  0.00     0.074 A 
ATOM     37  C   UNL A   1      40.387  27.261  28.549  1.00  0.00     0.049 A 
ATOM     38  N   UNL A   1      42.522  29.281  29.195  1.00  0.00    -0.248 NA
ATOM     39  C   UNL A   1      40.832  30.744  29.870  1.00  0.00     0.031 C 
ATOM     40  C   UNL A   1      39.410  26.234  28.182  1.00  0.00     0.029 A 
ATOM     41  N   UNL A   1      41.587  26.590  28.540  1.00  0.00    -0.354 N 
ATOM     42  C   UNL A   1      43.092  30.461  29.659  1.00  0.00     0.074 A 
ATOM     43  C   UNL A   1      42.004  31.341  30.029  1.00  0.00     0.031 C 
ATOM     44  C   UNL A   1      40.042  25.062  28.019  1.00  0.00     0.029 A 
ATOM     45  C   UNL A   1      41.477  25.274  28.164  1.00  0.00     0.049 A 
ATOM     46  H   UNL A   1      42.443  27.013  28.780  1.00  0.00     0.167 HD
ATOM     47  C   UNL A   1      44.404  30.784  29.755  1.00  0.00     0.031 A 
ATOM     48  C   UNL A   1      42.422  24.351  27.902  1.00  0.00     0.031 A 
ATOM     49  C   UNL A   1      45.483  29.889  29.440  1.00  0.00     0.049 A 
ATOM     50  C   UNL A   1      43.870  24.742  27.972  1.00  0.00     0.074 A 
ATOM     51  C   UNL A   1      46.846  30.122  29.502  1.00  0.00     0.029 A 
ATOM     52  N   UNL A   1      45.321  28.575  29.029  1.00  0.00    -0.354 N 
ATOM     53  N   UNL A   1      44.399  25.891  28.314  1.00  0.00    -0.248 NA
ATOM     54  C   UNL A   1      44.851  23.715  27.591  1.00  0.00     0.031 C 
ATOM     55  C   UNL A   1      47.508  28.958  29.098  1.00  0.00     0.029 A 
ATOM     56  C   UNL A   1      46.558  27.989  28.827  1.00  0.00     0.049 A 
ATOM     57  H   UNL A   1      44.454  28.127  28.900  1.00  0.00     0.167 HD
ATOM     58  C   UNL A   1      45.772  25.725  28.195  1.00  0.00     0.074 A 
ATOM     59  C   UNL A   1      45.996  24.357  27.774  1.00  0.00     0.031 C 
ATOM     60  C   UNL A   1      46.760  26.626  28.409  1.00  0.00     0.031 A 
BRANCH  47  61
ATOM     61  C   UNL A   1      44.740  32.189  30.167  1.00  0.00    -0.014 A 
ATOM     62  C   UNL A   1      45.057  32.513  31.495  1.00  0.00     0.009 A 
ATOM     63  C   UNL A   1      44.765  33.202  29.195  1.00  0.00     0.009 A 
ATOM     64  C   UNL A   1      45.359  33.831  31.845  1.00  0.00     0.001 A 
ATOM     65  C   UNL A   1      45.092  34.513  29.544  1.00  0.00     0.001 A 
ATOM     66  C   UNL A   1      45.381  34.828  30.869  1.00  0.00     0.000 A 
ENDBRANCH  47  61
BRANCH  48  67
ATOM     67  C   UNL A   1      42.027  22.984  27.472  1.00  0.00    -0.014 A 
ATOM     68  C   UNL A   1      41.861  21.959  28.415  1.00  0.00     0.009 A 
ATOM     69  C   UNL A   1      41.814  22.698  26.113  1.00  0.00     0.009 A 
ATOM     70  C   UNL A   1      41.502  20.673  28.004  1.00  0.00     0.001 A 
ATOM     71  C   UNL A   1      41.425  21.419  25.710  1.00  0.00     0.001 A 
ATOM     72  C   UNL A   1      41.277  20.406  26.654  1.00  0.00     0.000 A 
ENDBRANCH  48  67
BRANCH  60  73
ATOM     73  C   UNL A   1      48.171  26.150  28.224  1.00  0.00    -0.014 A 
ATOM     74  C   UNL A   1      48.905  25.628  29.299  1.00  0.00     0.009 A 
ATOM     75  C   UNL A   1      48.758  26.195  26.952  1.00  0.00     0.009 A 
ATOM     76  C   UNL A   1      50.215  25.184  29.107  1.00  0.00     0.001 A 
ATOM     77  C   UNL A   1      50.059  25.730  26.757  1.00  0.00     0.001 A 
ATOM     78  C   UNL A   1      50.789  25.232  27.836  1.00  0.00     0.000 A 
ENDBRANCH  60  73
ENDBRANCH  34  35
ENDBRANCH  27  29
ENDBRANCH  26  27
ENDBRANCH  25  26
ENDBRANCH   1  25
TORSDOF 14
ENDMDL
