MODEL 1
REMARK VINA RESULT:     -11.6      0.000      0.000
REMARK SMILES O=C(OCCOC(=O)c1ccc([S@@](=O)[C@H]2CCOC3(CCCC3)C2)cc1)c1ccc(-c2c3nc(c(-c4ccccc4)c4ccc([nH]4)c(-c4ccccc4)c4nc(c(-c5ccccc5)c5ccc2[nH]5)C=C4)C=C3)cc1
REMARK SMILES IDX 4 1 3 2 2 3 1 4 27 5 28 6 74 7 29 8 73 9 30 10 31 11 32 12
REMARK SMILES IDX 67 13 33 14 72 15 66 16 68 17 34 18 71 19 65 20 64 21 35 23
REMARK SMILES IDX 57 24 42 25 56 26 43 27 46 28 55 29 69 30 44 31 45 32 54 34
REMARK SMILES IDX 70 35 47 36 36 37 37 38 41 39 38 40 40 41 39 42 58 43 59 44
REMARK SMILES IDX 63 45 60 46 62 47 61 48 48 49 49 50 53 51 50 52 52 53 51 54
REMARK SMILES IDX 5 55 6 56 7 57 8 58 9 59 10 60 26 61 11 62 25 63 12 64 13 65
REMARK SMILES IDX 14 66 15 67 16 68 24 69 17 70 19 71 18 72 20 73 23 74 21 75
REMARK SMILES IDX 22 76
REMARK H PARENT 68 22 46 33
REMARK Flexibility Score: inf
ROOT
ATOM      1  C   UNL A   1      43.746  21.258  25.470  1.00  0.00     0.275 C 
ENDROOT
BRANCH   1   2
ATOM      2  O   UNL A   1      43.331  22.468  24.814  1.00  0.00    -0.458 OA
BRANCH   2   3
ATOM      3  C   UNL A   1      43.685  23.750  25.061  1.00  0.00     0.338 C 
ATOM      4  O   UNL A   1      44.575  24.261  24.383  1.00  0.00    -0.246 OA
BRANCH   3   5
ATOM      5  C   UNL A   1      43.175  24.543  26.225  1.00  0.00     0.060 A 
ATOM      6  C   UNL A   1      42.300  24.092  27.215  1.00  0.00     0.016 A 
ATOM      7  C   UNL A   1      43.614  25.880  26.298  1.00  0.00     0.016 A 
ATOM      8  C   UNL A   1      41.924  24.920  28.276  1.00  0.00     0.010 A 
ATOM      9  C   UNL A   1      43.255  26.708  27.365  1.00  0.00     0.010 A 
ATOM     10  C   UNL A   1      42.401  26.229  28.360  1.00  0.00    -0.014 A 
BRANCH  10  11
ATOM     11  C   UNL A   1      41.899  27.126  29.422  1.00  0.00     0.031 A 
ATOM     12  C   UNL A   1      42.608  27.149  30.741  1.00  0.00     0.074 A 
ATOM     13  C   UNL A   1      40.851  27.937  29.197  1.00  0.00     0.049 A 
ATOM     14  N   UNL A   1      42.377  27.900  31.785  1.00  0.00    -0.248 NA
ATOM     15  C   UNL A   1      43.746  26.227  30.894  1.00  0.00     0.031 C 
ATOM     16  C   UNL A   1      40.129  28.046  27.932  1.00  0.00     0.029 A 
ATOM     17  N   UNL A   1      40.202  28.812  30.027  1.00  0.00    -0.354 N 
ATOM     18  C   UNL A   1      43.367  27.574  32.700  1.00  0.00     0.074 A 
ATOM     19  C   UNL A   1      44.155  26.509  32.121  1.00  0.00     0.031 C 
ATOM     20  C   UNL A   1      39.092  28.886  28.086  1.00  0.00     0.029 A 
ATOM     21  C   UNL A   1      39.092  29.386  29.456  1.00  0.00     0.049 A 
ATOM     22  H   UNL A   1      40.502  29.010  30.944  1.00  0.00     0.167 HD
ATOM     23  C   UNL A   1      43.619  28.140  33.902  1.00  0.00     0.031 A 
ATOM     24  C   UNL A   1      38.175  30.218  29.984  1.00  0.00     0.031 A 
ATOM     25  C   UNL A   1      42.803  29.164  34.492  1.00  0.00     0.049 A 
ATOM     26  C   UNL A   1      38.383  30.718  31.387  1.00  0.00     0.074 A 
ATOM     27  C   UNL A   1      42.962  29.804  35.708  1.00  0.00     0.029 A 
ATOM     28  N   UNL A   1      41.656  29.682  33.909  1.00  0.00    -0.354 N 
ATOM     29  N   UNL A   1      39.364  30.456  32.217  1.00  0.00    -0.248 NA
ATOM     30  C   UNL A   1      37.384  31.659  31.910  1.00  0.00     0.031 C 
ATOM     31  C   UNL A   1      41.880  30.675  35.882  1.00  0.00     0.029 A 
ATOM     32  C   UNL A   1      41.077  30.613  34.753  1.00  0.00     0.049 A 
ATOM     33  H   UNL A   1      41.305  29.426  33.025  1.00  0.00     0.167 HD
ATOM     34  C   UNL A   1      39.129  31.236  33.340  1.00  0.00     0.074 A 
ATOM     35  C   UNL A   1      37.909  31.976  33.086  1.00  0.00     0.031 C 
ATOM     36  C   UNL A   1      39.866  31.342  34.473  1.00  0.00     0.031 A 
BRANCH  23  37
ATOM     37  C   UNL A   1      44.821  27.631  34.642  1.00  0.00    -0.014 A 
ATOM     38  C   UNL A   1      46.083  28.221  34.454  1.00  0.00     0.009 A 
ATOM     39  C   UNL A   1      44.703  26.532  35.504  1.00  0.00     0.009 A 
ATOM     40  C   UNL A   1      47.211  27.690  35.082  1.00  0.00     0.001 A 
ATOM     41  C   UNL A   1      45.830  26.018  36.148  1.00  0.00     0.001 A 
ATOM     42  C   UNL A   1      47.083  26.589  35.928  1.00  0.00     0.000 A 
ENDBRANCH  23  37
BRANCH  24  43
ATOM     43  C   UNL A   1      36.997  30.639  29.183  1.00  0.00    -0.014 A 
ATOM     44  C   UNL A   1      35.993  29.723  28.837  1.00  0.00     0.009 A 
ATOM     45  C   UNL A   1      36.877  31.970  28.752  1.00  0.00     0.009 A 
ATOM     46  C   UNL A   1      34.908  30.123  28.051  1.00  0.00     0.001 A 
ATOM     47  C   UNL A   1      35.782  32.373  27.983  1.00  0.00     0.001 A 
ATOM     48  C   UNL A   1      34.803  31.447  27.626  1.00  0.00     0.000 A 
ENDBRANCH  24  43
BRANCH  36  49
ATOM     49  C   UNL A   1      39.397  32.331  35.500  1.00  0.00    -0.014 A 
ATOM     50  C   UNL A   1      38.523  31.955  36.530  1.00  0.00     0.009 A 
ATOM     51  C   UNL A   1      39.879  33.649  35.457  1.00  0.00     0.009 A 
ATOM     52  C   UNL A   1      38.118  32.891  37.484  1.00  0.00     0.001 A 
ATOM     53  C   UNL A   1      39.494  34.574  36.427  1.00  0.00     0.001 A 
ATOM     54  C   UNL A   1      38.608  34.196  37.435  1.00  0.00     0.000 A 
ENDBRANCH  36  49
ENDBRANCH  10  11
ENDBRANCH   3   5
ENDBRANCH   2   3
ENDBRANCH   1   2
BRANCH   1  55
ATOM     55  C   UNL A   1      42.633  20.542  26.239  1.00  0.00     0.275 C 
BRANCH  55  56
ATOM     56  O   UNL A   1      41.319  20.859  25.760  1.00  0.00    -0.458 OA
BRANCH  56  57
ATOM     57  C   UNL A   1      40.411  21.147  26.731  1.00  0.00     0.338 C 
ATOM     58  O   UNL A   1      40.538  20.985  27.932  1.00  0.00    -0.246 OA
BRANCH  57  59
ATOM     59  C   UNL A   1      39.272  21.855  26.122  1.00  0.00     0.060 A 
ATOM     60  C   UNL A   1      38.488  21.161  25.199  1.00  0.00     0.017 A 
ATOM     61  C   UNL A   1      38.945  23.161  26.480  1.00  0.00     0.017 A 
ATOM     62  C   UNL A   1      37.315  21.742  24.708  1.00  0.00     0.018 A 
ATOM     63  C   UNL A   1      37.806  23.761  25.928  1.00  0.00     0.018 A 
ATOM     64  C   UNL A   1      36.964  23.051  25.060  1.00  0.00     0.039 A 
BRANCH  64  65
ATOM     65  S   UNL A   1      35.398  23.789  24.524  1.00  0.00     0.056 S 
ATOM     66  O   UNL A   1      35.396  23.696  23.025  1.00  0.00    -0.254 OA
BRANCH  65  67
ATOM     67  C   UNL A   1      34.147  22.599  25.130  1.00  0.00     0.089 C 
ATOM     68  C   UNL A   1      32.895  23.254  25.695  1.00  0.00     0.046 C 
ATOM     69  C   UNL A   1      33.815  21.548  24.076  1.00  0.00     0.053 C 
ATOM     70  C   UNL A   1      31.914  22.189  26.150  1.00  0.00     0.162 C 
ATOM     71  C   UNL A   1      32.748  20.558  24.563  1.00  0.00     0.069 C 
ATOM     72  O   UNL A   1      31.624  21.269  25.099  1.00  0.00    -0.375 OA
ATOM     73  C   UNL A   1      32.214  19.718  23.374  1.00  0.00     0.035 C 
ATOM     74  C   UNL A   1      33.286  19.515  25.566  1.00  0.00     0.035 C 
ATOM     75  C   UNL A   1      32.523  18.262  23.704  1.00  0.00     0.003 C 
ATOM     76  C   UNL A   1      32.542  18.233  25.218  1.00  0.00     0.003 C 
ENDBRANCH  65  67
ENDBRANCH  64  65
ENDBRANCH  57  59
ENDBRANCH  56  57
ENDBRANCH  55  56
ENDBRANCH   1  55
TORSDOF 13
ENDMDL
MODEL 2
REMARK VINA RESULT:     -11.4      4.967     10.313
REMARK SMILES O=C(OCCOC(=O)c1ccc([S@@](=O)[C@H]2CCOC3(CCCC3)C2)cc1)c1ccc(-c2c3nc(c(-c4ccccc4)c4ccc([nH]4)c(-c4ccccc4)c4nc(c(-c5ccccc5)c5ccc2[nH]5)C=C4)C=C3)cc1
REMARK SMILES IDX 4 1 3 2 2 3 1 4 27 5 28 6 74 7 29 8 73 9 30 10 31 11 32 12
REMARK SMILES IDX 67 13 33 14 72 15 66 16 68 17 34 18 71 19 65 20 64 21 35 23
REMARK SMILES IDX 57 24 42 25 56 26 43 27 46 28 55 29 69 30 44 31 45 32 54 34
REMARK SMILES IDX 70 35 47 36 36 37 37 38 41 39 38 40 40 41 39 42 58 43 59 44
REMARK SMILES IDX 63 45 60 46 62 47 61 48 48 49 49 50 53 51 50 52 52 53 51 54
REMARK SMILES IDX 5 55 6 56 7 57 8 58 9 59 10 60 26 61 11 62 25 63 12 64 13 65
REMARK SMILES IDX 14 66 15 67 16 68 24 69 17 70 19 71 18 72 20 73 23 74 21 75
REMARK SMILES IDX 22 76
REMARK H PARENT 68 22 46 33
REMARK Flexibility Score: inf
ROOT
ATOM      1  C   UNL A   1      34.158  34.097  31.065  1.00  0.00     0.275 C 
ENDROOT
BRANCH   1   2
ATOM      2  O   UNL A   1      34.511  32.748  31.418  1.00  0.00    -0.458 OA
BRANCH   2   3
ATOM      3  C   UNL A   1      35.504  32.297  32.220  1.00  0.00     0.338 C 
ATOM      4  O   UNL A   1      35.445  32.533  33.426  1.00  0.00    -0.246 OA
BRANCH   3   5
ATOM      5  C   UNL A   1      36.762  31.667  31.709  1.00  0.00     0.060 A 
ATOM      6  C   UNL A   1      37.674  30.916  32.455  1.00  0.00     0.016 A 
ATOM      7  C   UNL A   1      37.051  31.883  30.347  1.00  0.00     0.016 A 
ATOM      8  C   UNL A   1      38.800  30.346  31.853  1.00  0.00     0.010 A 
ATOM      9  C   UNL A   1      38.166  31.303  29.737  1.00  0.00     0.010 A 
ATOM     10  C   UNL A   1      39.051  30.532  30.493  1.00  0.00    -0.014 A 
BRANCH  10  11
ATOM     11  C   UNL A   1      40.306  30.023  29.902  1.00  0.00     0.031 A 
ATOM     12  C   UNL A   1      40.328  28.635  29.341  1.00  0.00     0.074 A 
ATOM     13  C   UNL A   1      41.398  30.805  29.832  1.00  0.00     0.049 A 
ATOM     14  N   UNL A   1      41.298  28.013  28.724  1.00  0.00    -0.248 NA
ATOM     15  C   UNL A   1      39.084  27.856  29.461  1.00  0.00     0.031 C 
ATOM     16  C   UNL A   1      41.470  32.191  30.286  1.00  0.00     0.029 A 
ATOM     17  N   UNL A   1      42.659  30.540  29.368  1.00  0.00    -0.354 N 
ATOM     18  C   UNL A   1      40.767  26.789  28.344  1.00  0.00     0.074 A 
ATOM     19  C   UNL A   1      39.419  26.725  28.860  1.00  0.00     0.031 C 
ATOM     20  C   UNL A   1      42.728  32.638  30.142  1.00  0.00     0.029 A 
ATOM     21  C   UNL A   1      43.543  31.573  29.569  1.00  0.00     0.049 A 
ATOM     22  H   UNL A   1      42.908  29.693  28.932  1.00  0.00     0.167 HD
ATOM     23  C   UNL A   1      41.344  25.820  27.597  1.00  0.00     0.031 A 
ATOM     24  C   UNL A   1      44.863  31.646  29.321  1.00  0.00     0.031 A 
ATOM     25  C   UNL A   1      42.700  25.871  27.128  1.00  0.00     0.049 A 
ATOM     26  C   UNL A   1      45.529  30.490  28.630  1.00  0.00     0.074 A 
ATOM     27  C   UNL A   1      43.389  24.942  26.370  1.00  0.00     0.029 A 
ATOM     28  N   UNL A   1      43.582  26.906  27.396  1.00  0.00    -0.354 N 
ATOM     29  N   UNL A   1      45.000  29.365  28.211  1.00  0.00    -0.248 NA
ATOM     30  C   UNL A   1      46.963  30.627  28.338  1.00  0.00     0.031 C 
ATOM     31  C   UNL A   1      44.705  25.394  26.222  1.00  0.00     0.029 A 
ATOM     32  C   UNL A   1      44.820  26.627  26.845  1.00  0.00     0.049 A 
ATOM     33  H   UNL A   1      43.361  27.721  27.904  1.00  0.00     0.167 HD
ATOM     34  C   UNL A   1      46.020  28.683  27.564  1.00  0.00     0.074 A 
ATOM     35  C   UNL A   1      47.201  29.519  27.650  1.00  0.00     0.031 C 
ATOM     36  C   UNL A   1      45.978  27.480  26.939  1.00  0.00     0.031 A 
BRANCH  23  37
ATOM     37  C   UNL A   1      40.491  24.630  27.272  1.00  0.00    -0.014 A 
ATOM     38  C   UNL A   1      40.861  23.343  27.697  1.00  0.00     0.009 A 
ATOM     39  C   UNL A   1      39.328  24.786  26.504  1.00  0.00     0.009 A 
ATOM     40  C   UNL A   1      40.107  22.230  27.321  1.00  0.00     0.001 A 
ATOM     41  C   UNL A   1      38.564  23.674  26.148  1.00  0.00     0.001 A 
ATOM     42  C   UNL A   1      38.959  22.397  26.547  1.00  0.00     0.000 A 
ENDBRANCH  23  37
BRANCH  24  43
ATOM     43  C   UNL A   1      45.632  32.856  29.713  1.00  0.00    -0.014 A 
ATOM     44  C   UNL A   1      46.223  32.959  30.981  1.00  0.00     0.009 A 
ATOM     45  C   UNL A   1      45.772  33.925  28.812  1.00  0.00     0.009 A 
ATOM     46  C   UNL A   1      46.911  34.118  31.350  1.00  0.00     0.001 A 
ATOM     47  C   UNL A   1      46.478  35.074  29.177  1.00  0.00     0.001 A 
ATOM     48  C   UNL A   1      47.039  35.173  30.448  1.00  0.00     0.000 A 
ENDBRANCH  24  43
BRANCH  36  49
ATOM     49  C   UNL A   1      47.235  27.023  26.258  1.00  0.00    -0.014 A 
ATOM     50  C   UNL A   1      47.486  27.324  24.911  1.00  0.00     0.009 A 
ATOM     51  C   UNL A   1      48.200  26.319  26.995  1.00  0.00     0.009 A 
ATOM     52  C   UNL A   1      48.672  26.903  24.307  1.00  0.00     0.001 A 
ATOM     53  C   UNL A   1      49.396  25.925  26.395  1.00  0.00     0.001 A 
ATOM     54  C   UNL A   1      49.628  26.210  25.051  1.00  0.00     0.000 A 
ENDBRANCH  36  49
ENDBRANCH  10  11
ENDBRANCH   3   5
ENDBRANCH   2   3
ENDBRANCH   1   2
BRANCH   1  55
ATOM     55  C   UNL A   1      34.301  34.417  29.575  1.00  0.00     0.275 C 
BRANCH  55  56
ATOM     56  O   UNL A   1      33.769  33.395  28.722  1.00  0.00    -0.458 OA
BRANCH  56  57
ATOM     57  C   UNL A   1      34.686  32.780  27.928  1.00  0.00     0.338 C 
ATOM     58  O   UNL A   1      35.767  33.216  27.574  1.00  0.00    -0.246 OA
BRANCH  57  59
ATOM     59  C   UNL A   1      34.244  31.399  27.674  1.00  0.00     0.060 A 
ATOM     60  C   UNL A   1      32.891  31.183  27.404  1.00  0.00     0.017 A 
ATOM     61  C   UNL A   1      35.143  30.334  27.652  1.00  0.00     0.017 A 
ATOM     62  C   UNL A   1      32.455  29.913  27.014  1.00  0.00     0.018 A 
ATOM     63  C   UNL A   1      34.683  29.051  27.329  1.00  0.00     0.018 A 
ATOM     64  C   UNL A   1      33.342  28.832  26.979  1.00  0.00     0.039 A 
BRANCH  64  65
ATOM     65  S   UNL A   1      32.827  27.202  26.376  1.00  0.00     0.056 S 
ATOM     66  O   UNL A   1      31.638  26.817  27.208  1.00  0.00    -0.254 OA
BRANCH  65  67
ATOM     67  C   UNL A   1      32.203  27.559  24.693  1.00  0.00     0.089 C 
ATOM     68  C   UNL A   1      32.693  26.582  23.634  1.00  0.00     0.046 C 
ATOM     69  C   UNL A   1      30.685  27.705  24.676  1.00  0.00     0.053 C 
ATOM     70  C   UNL A   1      32.107  26.948  22.282  1.00  0.00     0.162 C 
ATOM     71  C   UNL A   1      30.146  27.979  23.266  1.00  0.00     0.069 C 
ATOM     72  O   UNL A   1      30.684  27.026  22.338  1.00  0.00    -0.375 OA
ATOM     73  C   UNL A   1      28.606  27.804  23.236  1.00  0.00     0.035 C 
ATOM     74  C   UNL A   1      30.383  29.427  22.786  1.00  0.00     0.035 C 
ATOM     75  C   UNL A   1      28.029  29.152  22.817  1.00  0.00     0.003 C 
ATOM     76  C   UNL A   1      29.134  29.773  21.988  1.00  0.00     0.003 C 
ENDBRANCH  65  67
ENDBRANCH  64  65
ENDBRANCH  57  59
ENDBRANCH  56  57
ENDBRANCH  55  56
ENDBRANCH   1  55
TORSDOF 13
ENDMDL
MODEL 3
REMARK VINA RESULT:     -11.4      5.100     10.008
REMARK SMILES O=C(OCCOC(=O)c1ccc([S@@](=O)[C@H]2CCOC3(CCCC3)C2)cc1)c1ccc(-c2c3nc(c(-c4ccccc4)c4ccc([nH]4)c(-c4ccccc4)c4nc(c(-c5ccccc5)c5ccc2[nH]5)C=C4)C=C3)cc1
REMARK SMILES IDX 4 1 3 2 2 3 1 4 27 5 28 6 74 7 29 8 73 9 30 10 31 11 32 12
REMARK SMILES IDX 67 13 33 14 72 15 66 16 68 17 34 18 71 19 65 20 64 21 35 23
REMARK SMILES IDX 57 24 42 25 56 26 43 27 46 28 55 29 69 30 44 31 45 32 54 34
REMARK SMILES IDX 70 35 47 36 36 37 37 38 41 39 38 40 40 41 39 42 58 43 59 44
REMARK SMILES IDX 63 45 60 46 62 47 61 48 48 49 49 50 53 51 50 52 52 53 51 54
REMARK SMILES IDX 5 55 6 56 7 57 8 58 9 59 10 60 26 61 11 62 25 63 12 64 13 65
REMARK SMILES IDX 14 66 15 67 16 68 24 69 17 70 19 71 18 72 20 73 23 74 21 75
REMARK SMILES IDX 22 76
REMARK H PARENT 68 22 46 33
REMARK Flexibility Score: inf
ROOT
ATOM      1  C   UNL A   1      34.382  33.972  32.028  1.00  0.00     0.275 C 
ENDROOT
BRANCH   1   2
ATOM      2  O   UNL A   1      34.847  32.670  32.425  1.00  0.00    -0.458 OA
BRANCH   2   3
ATOM      3  C   UNL A   1      35.998  32.315  33.041  1.00  0.00     0.338 C 
ATOM      4  O   UNL A   1      36.166  32.641  34.216  1.00  0.00    -0.246 OA
BRANCH   3   5
ATOM      5  C   UNL A   1      37.160  31.689  32.335  1.00  0.00     0.060 A 
ATOM      6  C   UNL A   1      38.251  31.057  32.935  1.00  0.00     0.016 A 
ATOM      7  C   UNL A   1      37.147  31.778  30.929  1.00  0.00     0.016 A 
ATOM      8  C   UNL A   1      39.261  30.477  32.163  1.00  0.00     0.010 A 
ATOM      9  C   UNL A   1      38.145  31.186  30.151  1.00  0.00     0.010 A 
ATOM     10  C   UNL A   1      39.213  30.533  30.769  1.00  0.00    -0.014 A 
BRANCH  10  11
ATOM     11  C   UNL A   1      40.348  30.020  29.975  1.00  0.00     0.031 A 
ATOM     12  C   UNL A   1      41.519  30.920  29.724  1.00  0.00     0.074 A 
ATOM     13  C   UNL A   1      40.351  28.755  29.520  1.00  0.00     0.049 A 
ATOM     14  N   UNL A   1      42.641  30.657  29.109  1.00  0.00    -0.248 NA
ATOM     15  C   UNL A   1      41.426  32.287  30.263  1.00  0.00     0.031 C 
ATOM     16  C   UNL A   1      39.298  27.773  29.761  1.00  0.00     0.029 A 
ATOM     17  N   UNL A   1      41.262  28.084  28.747  1.00  0.00    -0.354 N 
ATOM     18  C   UNL A   1      43.405  31.808  29.227  1.00  0.00     0.074 A 
ATOM     19  C   UNL A   1      42.595  32.795  29.905  1.00  0.00     0.031 C 
ATOM     20  C   UNL A   1      39.585  26.643  29.093  1.00  0.00     0.029 A 
ATOM     21  C   UNL A   1      40.852  26.820  28.394  1.00  0.00     0.049 A 
ATOM     22  H   UNL A   1      42.125  28.468  28.473  1.00  0.00     0.167 HD
ATOM     23  C   UNL A   1      44.684  32.011  28.836  1.00  0.00     0.031 A 
ATOM     24  C   UNL A   1      41.435  25.912  27.591  1.00  0.00     0.031 A 
ATOM     25  C   UNL A   1      45.466  31.042  28.119  1.00  0.00     0.049 A 
ATOM     26  C   UNL A   1      42.796  26.218  27.029  1.00  0.00     0.074 A 
ATOM     27  C   UNL A   1      46.769  31.145  27.668  1.00  0.00     0.029 A 
ATOM     28  N   UNL A   1      45.001  29.795  27.731  1.00  0.00    -0.354 N 
ATOM     29  N   UNL A   1      43.539  27.283  27.207  1.00  0.00    -0.248 NA
ATOM     30  C   UNL A   1      43.417  25.182  26.193  1.00  0.00     0.031 C 
ATOM     31  C   UNL A   1      47.075  29.976  26.962  1.00  0.00     0.029 A 
ATOM     32  C   UNL A   1      45.980  29.127  27.018  1.00  0.00     0.049 A 
ATOM     33  H   UNL A   1      44.106  29.436  27.933  1.00  0.00     0.167 HD
ATOM     34  C   UNL A   1      44.733  27.028  26.548  1.00  0.00     0.074 A 
ATOM     35  C   UNL A   1      44.612  25.708  25.963  1.00  0.00     0.031 C 
ATOM     36  C   UNL A   1      45.837  27.810  26.452  1.00  0.00     0.031 A 
BRANCH  23  37
ATOM     37  C   UNL A   1      45.282  33.344  29.173  1.00  0.00    -0.014 A 
ATOM     38  C   UNL A   1      46.034  33.518  30.348  1.00  0.00     0.009 A 
ATOM     39  C   UNL A   1      45.065  34.446  28.335  1.00  0.00     0.009 A 
ATOM     40  C   UNL A   1      46.518  34.780  30.698  1.00  0.00     0.001 A 
ATOM     41  C   UNL A   1      45.569  35.702  28.676  1.00  0.00     0.001 A 
ATOM     42  C   UNL A   1      46.285  35.870  29.861  1.00  0.00     0.000 A 
ENDBRANCH  23  37
BRANCH  24  43
ATOM     43  C   UNL A   1      40.746  24.631  27.286  1.00  0.00    -0.014 A 
ATOM     44  C   UNL A   1      39.617  24.597  26.455  1.00  0.00     0.009 A 
ATOM     45  C   UNL A   1      41.218  23.428  27.837  1.00  0.00     0.009 A 
ATOM     46  C   UNL A   1      38.955  23.391  26.207  1.00  0.00     0.001 A 
ATOM     47  C   UNL A   1      40.568  22.221  27.570  1.00  0.00     0.001 A 
ATOM     48  C   UNL A   1      39.432  22.205  26.763  1.00  0.00     0.000 A 
ENDBRANCH  24  43
BRANCH  36  49
ATOM     49  C   UNL A   1      47.018  27.233  25.726  1.00  0.00    -0.014 A 
ATOM     50  C   UNL A   1      47.219  27.465  24.358  1.00  0.00     0.009 A 
ATOM     51  C   UNL A   1      47.966  26.484  26.441  1.00  0.00     0.009 A 
ATOM     52  C   UNL A   1      48.336  26.933  23.712  1.00  0.00     0.001 A 
ATOM     53  C   UNL A   1      49.095  25.977  25.798  1.00  0.00     0.001 A 
ATOM     54  C   UNL A   1      49.275  26.195  24.433  1.00  0.00     0.000 A 
ENDBRANCH  36  49
ENDBRANCH  10  11
ENDBRANCH   3   5
ENDBRANCH   2   3
ENDBRANCH   1   2
BRANCH   1  55
ATOM     55  C   UNL A   1      34.259  34.164  30.514  1.00  0.00     0.275 C 
BRANCH  55  56
ATOM     56  O   UNL A   1      34.049  32.937  29.802  1.00  0.00    -0.458 OA
BRANCH  56  57
ATOM     57  C   UNL A   1      34.568  32.910  28.546  1.00  0.00     0.338 C 
ATOM     58  O   UNL A   1      35.317  33.726  28.038  1.00  0.00    -0.246 OA
BRANCH  57  59
ATOM     59  C   UNL A   1      34.213  31.629  27.912  1.00  0.00     0.060 A 
ATOM     60  C   UNL A   1      35.126  30.578  28.003  1.00  0.00     0.017 A 
ATOM     61  C   UNL A   1      32.987  31.441  27.277  1.00  0.00     0.017 A 
ATOM     62  C   UNL A   1      34.770  29.306  27.545  1.00  0.00     0.018 A 
ATOM     63  C   UNL A   1      32.667  30.179  26.759  1.00  0.00     0.018 A 
ATOM     64  C   UNL A   1      33.541  29.093  26.911  1.00  0.00     0.039 A 
BRANCH  64  65
ATOM     65  S   UNL A   1      33.010  27.435  26.404  1.00  0.00     0.056 S 
ATOM     66  O   UNL A   1      31.859  27.085  27.302  1.00  0.00    -0.254 OA
BRANCH  65  67
ATOM     67  C   UNL A   1      32.315  27.712  24.734  1.00  0.00     0.089 C 
ATOM     68  C   UNL A   1      32.882  26.785  23.669  1.00  0.00     0.046 C 
ATOM     69  C   UNL A   1      30.790  27.698  24.752  1.00  0.00     0.053 C 
ATOM     70  C   UNL A   1      32.231  27.078  22.329  1.00  0.00     0.162 C 
ATOM     71  C   UNL A   1      30.194  27.904  23.352  1.00  0.00     0.069 C 
ATOM     72  O   UNL A   1      30.809  27.006  22.418  1.00  0.00    -0.375 OA
ATOM     73  C   UNL A   1      28.680  27.567  23.359  1.00  0.00     0.035 C 
ATOM     74  C   UNL A   1      30.266  29.365  22.861  1.00  0.00     0.035 C 
ATOM     75  C   UNL A   1      27.955  28.843  22.947  1.00  0.00     0.003 C 
ATOM     76  C   UNL A   1      28.969  29.571  22.090  1.00  0.00     0.003 C 
ENDBRANCH  65  67
ENDBRANCH  64  65
ENDBRANCH  57  59
ENDBRANCH  56  57
ENDBRANCH  55  56
ENDBRANCH   1  55
TORSDOF 13
ENDMDL
