MODEL 1
REMARK VINA RESULT:     -11.2      0.000      0.000
REMARK SMILES Cc1ccc(NC(=O)C[N@H+]2CC[C@@H](C(=O)OCCOC(=O)c3ccc(-c4c5nc(c(-c6ccccc6)c6ccc([nH]6)c(-c6ccccc6)c6nc(c(-c7ccccc7)c7ccc4[nH]7)C=C6)C=C5)cc3)[C@@H]2C)cc1
REMARK SMILES IDX 17 1 16 2 14 3 15 4 13 5 10 6 11 7 70 8 12 10 71 11 9 12
REMARK SMILES IDX 7 13 6 14 8 16 5 17 1 18 2 19 3 20 73 21 4 22 72 23 18 24
REMARK SMILES IDX 19 25 20 26 21 27 22 28 23 29 69 30 24 31 68 32 25 33 26 34
REMARK SMILES IDX 27 35 62 36 28 37 67 38 61 39 63 40 29 41 66 42 60 43 59 44
REMARK SMILES IDX 30 46 52 47 37 48 51 49 38 50 41 51 50 52 64 53 39 54 40 55
REMARK SMILES IDX 49 57 65 58 42 59 31 60 32 61 36 62 33 63 35 64 34 65 53 66
REMARK SMILES IDX 54 67 58 68 55 69 57 70 56 71 43 72 44 73 48 74 45 75 47 76
REMARK SMILES IDX 46 77
REMARK H PARENT 10 9 6 15 63 45 41 56
REMARK Flexibility Score: inf
ROOT
ATOM      1  C   UNL A   1      32.555  30.461  26.682  1.00  0.00     0.274 C 
ENDROOT
BRANCH   1   2
ATOM      2  O   UNL A   1      31.485  29.582  27.139  1.00  0.00    -0.462 OA
BRANCH   2   3
ATOM      3  C   UNL A   1      31.500  28.254  26.919  1.00  0.00     0.315 C 
ATOM      4  O   UNL A   1      31.403  27.462  27.852  1.00  0.00    -0.252 OA
BRANCH   3   5
ATOM      5  C   UNL A   1      31.531  27.713  25.422  1.00  0.00     0.162 C 
ATOM      6  N   UNL A   1      31.515  25.331  25.103  1.00  0.00    -0.324 N 
ATOM      7  C   UNL A   1      30.951  25.811  23.859  1.00  0.00     0.264 C 
ATOM      8  C   UNL A   1      32.412  26.485  25.545  1.00  0.00     0.195 C 
ATOM      9  H   UNL A   1      32.046  24.466  24.999  1.00  0.00     0.348 HD
ATOM     10  C   UNL A   1      30.712  27.303  24.117  1.00  0.00     0.083 C 
ATOM     11  C   UNL A   1      33.635  26.938  24.687  1.00  0.00     0.076 C 
BRANCH   6  12
ATOM     12  C   UNL A   1      30.443  24.871  26.144  1.00  0.00     0.364 C 
BRANCH  12  13
ATOM     13  C   UNL A   1      30.456  23.360  26.866  1.00  0.00     0.279 C 
ATOM     14  N   UNL A   1      31.379  22.267  26.671  1.00  0.00    -0.321 N 
ATOM     15  H   UNL A   1      30.973  21.374  26.760  1.00  0.00     0.170 HD
ATOM     16  O   UNL A   1      29.477  23.074  27.580  1.00  0.00    -0.268 OA
BRANCH  14  17
ATOM     17  C   UNL A   1      32.799  22.248  26.365  1.00  0.00     0.041 A 
ATOM     18  C   UNL A   1      37.799  21.491  24.947  1.00  0.00     0.044 C 
ATOM     19  C   UNL A   1      36.253  21.678  25.169  1.00  0.00    -0.051 A 
ATOM     20  C   UNL A   1      34.663  20.433  25.007  1.00  0.00     0.005 A 
ATOM     21  C   UNL A   1      35.830  23.243  26.074  1.00  0.00     0.005 A 
ATOM     22  C   UNL A   1      33.108  20.883  25.652  1.00  0.00     0.026 A 
ATOM     23  C   UNL A   1      34.080  23.481  26.577  1.00  0.00     0.026 A 
ENDBRANCH  14  17
ENDBRANCH  12  13
ENDBRANCH   6  12
ENDBRANCH   3   5
ENDBRANCH   2   3
ENDBRANCH   1   2
BRANCH   1  24
ATOM     24  C   UNL A   1      33.713  30.949  27.627  1.00  0.00     0.275 C 
BRANCH  24  25
ATOM     25  O   UNL A   1      34.352  32.241  27.455  1.00  0.00    -0.458 OA
BRANCH  25  26
ATOM     26  C   UNL A   1      35.082  33.010  28.294  1.00  0.00     0.338 C 
ATOM     27  O   UNL A   1      35.029  34.235  28.278  1.00  0.00    -0.246 OA
BRANCH  26  28
ATOM     28  C   UNL A   1      35.804  32.367  29.395  1.00  0.00     0.060 A 
ATOM     29  C   UNL A   1      37.513  31.992  29.043  1.00  0.00     0.016 A 
ATOM     30  C   UNL A   1      35.180  32.586  31.027  1.00  0.00     0.016 A 
ATOM     31  C   UNL A   1      38.737  31.873  30.276  1.00  0.00     0.010 A 
ATOM     32  C   UNL A   1      36.324  32.590  32.403  1.00  0.00     0.010 A 
ATOM     33  C   UNL A   1      38.273  32.087  32.004  1.00  0.00    -0.014 A 
BRANCH  33  34
ATOM     34  C   UNL A   1      39.349  31.044  32.583  1.00  0.00     0.031 A 
ATOM     35  C   UNL A   1      39.050  29.604  32.391  1.00  0.00     0.074 A 
ATOM     36  C   UNL A   1      40.464  31.553  33.229  1.00  0.00     0.049 A 
ATOM     37  N   UNL A   1      39.931  28.681  32.344  1.00  0.00    -0.248 NA
ATOM     38  C   UNL A   1      37.766  29.047  31.945  1.00  0.00     0.031 C 
ATOM     39  C   UNL A   1      41.886  31.681  32.789  1.00  0.00     0.029 A 
ATOM     40  N   UNL A   1      40.463  32.662  34.076  1.00  0.00    -0.354 N 
ATOM     41  C   UNL A   1      39.605  28.001  31.180  1.00  0.00     0.074 A 
ATOM     42  C   UNL A   1      38.170  28.039  31.148  1.00  0.00     0.031 C 
ATOM     43  C   UNL A   1      42.608  32.450  33.646  1.00  0.00     0.029 A 
ATOM     44  C   UNL A   1      41.694  32.929  34.664  1.00  0.00     0.049 A 
ATOM     45  H   UNL A   1      39.661  33.208  34.243  1.00  0.00     0.167 HD
ATOM     46  C   UNL A   1      40.626  27.765  30.300  1.00  0.00     0.031 A 
ATOM     47  C   UNL A   1      41.692  32.735  36.004  1.00  0.00     0.031 A 
ATOM     48  C   UNL A   1      41.890  28.293  30.865  1.00  0.00     0.049 A 
ATOM     49  C   UNL A   1      42.117  31.279  36.105  1.00  0.00     0.074 A 
ATOM     50  C   UNL A   1      42.824  29.249  30.525  1.00  0.00     0.029 A 
ATOM     51  N   UNL A   1      42.147  27.997  32.196  1.00  0.00    -0.354 N 
ATOM     52  N   UNL A   1      41.944  30.366  35.172  1.00  0.00    -0.248 NA
ATOM     53  C   UNL A   1      43.044  30.857  37.127  1.00  0.00     0.031 C 
ATOM     54  C   UNL A   1      43.630  29.498  31.707  1.00  0.00     0.029 A 
ATOM     55  C   UNL A   1      43.082  28.810  32.792  1.00  0.00     0.049 A 
ATOM     56  H   UNL A   1      41.697  27.265  32.674  1.00  0.00     0.167 HD
ATOM     57  C   UNL A   1      42.938  29.428  35.255  1.00  0.00     0.074 A 
ATOM     58  C   UNL A   1      43.482  29.705  36.591  1.00  0.00     0.031 C 
ATOM     59  C   UNL A   1      43.363  28.586  34.234  1.00  0.00     0.031 A 
BRANCH  46  60
ATOM     60  C   UNL A   1      40.568  27.212  28.890  1.00  0.00    -0.014 A 
ATOM     61  C   UNL A   1      40.187  25.858  28.753  1.00  0.00     0.009 A 
ATOM     62  C   UNL A   1      40.851  27.892  27.692  1.00  0.00     0.009 A 
ATOM     63  C   UNL A   1      40.079  25.214  27.514  1.00  0.00     0.001 A 
ATOM     64  C   UNL A   1      40.736  27.249  26.437  1.00  0.00     0.001 A 
ATOM     65  C   UNL A   1      40.349  25.913  26.349  1.00  0.00     0.000 A 
ENDBRANCH  46  60
BRANCH  47  66
ATOM     66  C   UNL A   1      40.514  33.485  36.609  1.00  0.00    -0.014 A 
ATOM     67  C   UNL A   1      39.749  32.829  37.622  1.00  0.00     0.009 A 
ATOM     68  C   UNL A   1      40.376  34.877  36.523  1.00  0.00     0.009 A 
ATOM     69  C   UNL A   1      38.959  33.538  38.546  1.00  0.00     0.001 A 
ATOM     70  C   UNL A   1      39.568  35.583  37.437  1.00  0.00     0.001 A 
ATOM     71  C   UNL A   1      38.865  34.920  38.446  1.00  0.00     0.000 A 
ENDBRANCH  47  66
BRANCH  59  72
ATOM     72  C   UNL A   1      43.919  27.216  34.578  1.00  0.00    -0.014 A 
ATOM     73  C   UNL A   1      43.194  26.221  35.216  1.00  0.00     0.009 A 
ATOM     74  C   UNL A   1      45.216  26.838  34.151  1.00  0.00     0.009 A 
ATOM     75  C   UNL A   1      43.621  24.896  35.234  1.00  0.00     0.001 A 
ATOM     76  C   UNL A   1      45.675  25.527  34.194  1.00  0.00     0.001 A 
ATOM     77  C   UNL A   1      44.852  24.545  34.701  1.00  0.00     0.000 A 
ENDBRANCH  59  72
ENDBRANCH  33  34
ENDBRANCH  26  28
ENDBRANCH  25  26
ENDBRANCH  24  25
ENDBRANCH   1  24
TORSDOF 14
ENDMDL
MODEL 2
REMARK VINA RESULT:     -11.0      4.501      9.050
REMARK SMILES Cc1ccc(NC(=O)C[N@H+]2CC[C@@H](C(=O)OCCOC(=O)c3ccc(-c4c5nc(c(-c6ccccc6)c6ccc([nH]6)c(-c6ccccc6)c6nc(c(-c7ccccc7)c7ccc4[nH]7)C=C6)C=C5)cc3)[C@@H]2C)cc1
REMARK SMILES IDX 17 1 16 2 14 3 15 4 13 5 10 6 11 7 70 8 12 10 71 11 9 12
REMARK SMILES IDX 7 13 6 14 8 16 5 17 1 18 2 19 3 20 73 21 4 22 72 23 18 24
REMARK SMILES IDX 19 25 20 26 21 27 22 28 23 29 69 30 24 31 68 32 25 33 26 34
REMARK SMILES IDX 27 35 62 36 28 37 67 38 61 39 63 40 29 41 66 42 60 43 59 44
REMARK SMILES IDX 30 46 52 47 37 48 51 49 38 50 41 51 50 52 64 53 39 54 40 55
REMARK SMILES IDX 49 57 65 58 42 59 31 60 32 61 36 62 33 63 35 64 34 65 53 66
REMARK SMILES IDX 54 67 58 68 55 69 57 70 56 71 43 72 44 73 48 74 45 75 47 76
REMARK SMILES IDX 46 77
REMARK H PARENT 10 9 6 15 63 45 41 56
REMARK Flexibility Score: inf
ROOT
ATOM      1  C   UNL A   1      37.000  22.259  25.037  1.00  0.00     0.274 C 
ENDROOT
BRANCH   1   2
ATOM      2  O   UNL A   1      36.231  21.071  25.389  1.00  0.00    -0.462 OA
BRANCH   2   3
ATOM      3  C   UNL A   1      34.887  21.082  25.476  1.00  0.00     0.315 C 
ATOM      4  O   UNL A   1      34.326  20.846  26.541  1.00  0.00    -0.252 OA
BRANCH   3   5
ATOM      5  C   UNL A   1      34.029  21.516  24.207  1.00  0.00     0.162 C 
ATOM      6  N   UNL A   1      31.772  22.246  24.593  1.00  0.00    -0.324 N 
ATOM      7  C   UNL A   1      32.100  22.907  23.347  1.00  0.00     0.264 C 
ATOM      8  C   UNL A   1      32.649  20.996  24.564  1.00  0.00     0.195 C 
ATOM      9  H   UNL A   1      30.784  22.005  24.675  1.00  0.00     0.348 HD
ATOM     10  C   UNL A   1      33.607  22.671  23.193  1.00  0.00     0.083 C 
ATOM     11  C   UNL A   1      32.473  19.905  23.461  1.00  0.00     0.076 C 
BRANCH   6  12
ATOM     12  C   UNL A   1      31.937  23.158  25.853  1.00  0.00     0.364 C 
BRANCH  12  13
ATOM     13  C   UNL A   1      30.642  23.863  26.648  1.00  0.00     0.279 C 
ATOM     14  N   UNL A   1      30.255  25.253  26.702  1.00  0.00    -0.321 N 
ATOM     15  H   UNL A   1      29.836  25.523  27.551  1.00  0.00     0.170 HD
ATOM     16  O   UNL A   1      29.982  23.124  27.402  1.00  0.00    -0.268 OA
BRANCH  14  17
ATOM     17  C   UNL A   1      30.372  26.323  25.727  1.00  0.00     0.041 A 
ATOM     18  C   UNL A   1      30.175  29.888  21.876  1.00  0.00     0.044 C 
ATOM     19  C   UNL A   1      30.032  28.873  23.068  1.00  0.00    -0.051 A 
ATOM     20  C   UNL A   1      28.881  27.233  23.369  1.00  0.00     0.005 A 
ATOM     21  C   UNL A   1      31.415  28.996  24.302  1.00  0.00     0.005 A 
ATOM     22  C   UNL A   1      29.215  26.138  24.683  1.00  0.00     0.026 A 
ATOM     23  C   UNL A   1      31.477  27.730  25.630  1.00  0.00     0.026 A 
ENDBRANCH  14  17
ENDBRANCH  12  13
ENDBRANCH   6  12
ENDBRANCH   3   5
ENDBRANCH   2   3
ENDBRANCH   1   2
BRANCH   1  24
ATOM     24  C   UNL A   1      38.315  22.673  25.796  1.00  0.00     0.275 C 
BRANCH  24  25
ATOM     25  O   UNL A   1      39.126  21.705  26.511  1.00  0.00    -0.458 OA
BRANCH  25  26
ATOM     26  C   UNL A   1      40.428  21.705  26.873  1.00  0.00     0.338 C 
ATOM     27  O   UNL A   1      41.032  20.677  27.159  1.00  0.00    -0.246 OA
BRANCH  26  28
ATOM     28  C   UNL A   1      41.203  22.940  26.726  1.00  0.00     0.060 A 
ATOM     29  C   UNL A   1      41.077  24.064  28.107  1.00  0.00     0.016 A 
ATOM     30  C   UNL A   1      42.567  22.928  25.614  1.00  0.00     0.016 A 
ATOM     31  C   UNL A   1      42.321  25.209  28.522  1.00  0.00     0.010 A 
ATOM     32  C   UNL A   1      43.977  23.976  25.952  1.00  0.00     0.010 A 
ATOM     33  C   UNL A   1      43.799  25.318  27.494  1.00  0.00    -0.014 A 
BRANCH  33  34
ATOM     34  C   UNL A   1      44.010  26.898  27.696  1.00  0.00     0.031 A 
ATOM     35  C   UNL A   1      43.085  27.792  26.956  1.00  0.00     0.074 A 
ATOM     36  C   UNL A   1      45.040  27.315  28.523  1.00  0.00     0.049 A 
ATOM     37  N   UNL A   1      42.782  28.979  27.317  1.00  0.00    -0.248 NA
ATOM     38  C   UNL A   1      42.167  27.380  25.887  1.00  0.00     0.031 C 
ATOM     39  C   UNL A   1      45.026  27.863  29.913  1.00  0.00     0.029 A 
ATOM     40  N   UNL A   1      46.296  26.715  28.604  1.00  0.00    -0.354 N 
ATOM     41  C   UNL A   1      41.396  28.969  27.280  1.00  0.00     0.074 A 
ATOM     42  C   UNL A   1      41.085  28.139  26.150  1.00  0.00     0.031 C 
ATOM     43  C   UNL A   1      46.279  27.928  30.437  1.00  0.00     0.029 A 
ATOM     44  C   UNL A   1      47.183  27.366  29.454  1.00  0.00     0.049 A 
ATOM     45  H   UNL A   1      46.534  25.901  28.104  1.00  0.00     0.167 HD
ATOM     46  C   UNL A   1      40.749  29.443  28.389  1.00  0.00     0.031 A 
ATOM     47  C   UNL A   1      48.226  27.927  28.798  1.00  0.00     0.031 A 
ATOM     48  C   UNL A   1      41.750  29.903  29.380  1.00  0.00     0.049 A 
ATOM     49  C   UNL A   1      47.694  29.322  28.511  1.00  0.00     0.074 A 
ATOM     50  C   UNL A   1      42.122  29.570  30.666  1.00  0.00     0.029 A 
ATOM     51  N   UNL A   1      42.790  30.684  28.896  1.00  0.00    -0.354 N 
ATOM     52  N   UNL A   1      46.423  29.649  28.405  1.00  0.00    -0.248 NA
ATOM     53  C   UNL A   1      48.551  30.474  28.651  1.00  0.00     0.031 C 
ATOM     54  C   UNL A   1      43.415  30.185  30.909  1.00  0.00     0.029 A 
ATOM     55  C   UNL A   1      43.887  30.751  29.722  1.00  0.00     0.049 A 
ATOM     56  H   UNL A   1      42.746  31.152  28.032  1.00  0.00     0.167 HD
ATOM     57  C   UNL A   1      46.246  30.949  28.795  1.00  0.00     0.074 A 
ATOM     58  C   UNL A   1      47.630  31.445  28.772  1.00  0.00     0.031 C 
ATOM     59  C   UNL A   1      45.061  31.523  29.238  1.00  0.00     0.031 A 
BRANCH  46  60
ATOM     60  C   UNL A   1      39.271  29.407  28.726  1.00  0.00    -0.014 A 
ATOM     61  C   UNL A   1      38.375  29.783  27.700  1.00  0.00     0.009 A 
ATOM     62  C   UNL A   1      38.681  29.040  29.949  1.00  0.00     0.009 A 
ATOM     63  C   UNL A   1      36.984  29.789  27.862  1.00  0.00     0.001 A 
ATOM     64  C   UNL A   1      37.277  29.036  30.115  1.00  0.00     0.001 A 
ATOM     65  C   UNL A   1      36.430  29.408  29.072  1.00  0.00     0.000 A 
ENDBRANCH  46  60
BRANCH  47  66
ATOM     66  C   UNL A   1      48.856  26.883  27.888  1.00  0.00    -0.014 A 
ATOM     67  C   UNL A   1      48.997  27.198  26.500  1.00  0.00     0.009 A 
ATOM     68  C   UNL A   1      49.640  25.828  28.373  1.00  0.00     0.009 A 
ATOM     69  C   UNL A   1      49.930  26.547  25.673  1.00  0.00     0.001 A 
ATOM     70  C   UNL A   1      50.560  25.164  27.536  1.00  0.00     0.001 A 
ATOM     71  C   UNL A   1      50.709  25.522  26.194  1.00  0.00     0.000 A 
ENDBRANCH  47  66
BRANCH  59  72
ATOM     72  C   UNL A   1      44.805  32.999  28.988  1.00  0.00    -0.014 A 
ATOM     73  C   UNL A   1      44.703  33.566  27.727  1.00  0.00     0.009 A 
ATOM     74  C   UNL A   1      44.540  33.876  30.068  1.00  0.00     0.009 A 
ATOM     75  C   UNL A   1      44.165  34.836  27.534  1.00  0.00     0.001 A 
ATOM     76  C   UNL A   1      44.036  35.159  29.895  1.00  0.00     0.001 A 
ATOM     77  C   UNL A   1      43.809  35.624  28.618  1.00  0.00     0.000 A 
ENDBRANCH  59  72
ENDBRANCH  33  34
ENDBRANCH  26  28
ENDBRANCH  25  26
ENDBRANCH  24  25
ENDBRANCH   1  24
TORSDOF 14
ENDMDL
MODEL 3
REMARK VINA RESULT:     -10.7      4.986      9.512
REMARK SMILES Cc1ccc(NC(=O)C[N@H+]2CC[C@@H](C(=O)OCCOC(=O)c3ccc(-c4c5nc(c(-c6ccccc6)c6ccc([nH]6)c(-c6ccccc6)c6nc(c(-c7ccccc7)c7ccc4[nH]7)C=C6)C=C5)cc3)[C@@H]2C)cc1
REMARK SMILES IDX 17 1 16 2 14 3 15 4 13 5 10 6 11 7 70 8 12 10 71 11 9 12
REMARK SMILES IDX 7 13 6 14 8 16 5 17 1 18 2 19 3 20 73 21 4 22 72 23 18 24
REMARK SMILES IDX 19 25 20 26 21 27 22 28 23 29 69 30 24 31 68 32 25 33 26 34
REMARK SMILES IDX 27 35 62 36 28 37 67 38 61 39 63 40 29 41 66 42 60 43 59 44
REMARK SMILES IDX 30 46 52 47 37 48 51 49 38 50 41 51 50 52 64 53 39 54 40 55
REMARK SMILES IDX 49 57 65 58 42 59 31 60 32 61 36 62 33 63 35 64 34 65 53 66
REMARK SMILES IDX 54 67 58 68 55 69 57 70 56 71 43 72 44 73 48 74 45 75 47 76
REMARK SMILES IDX 46 77
REMARK H PARENT 10 9 6 15 63 45 41 56
REMARK Flexibility Score: inf
ROOT
ATOM      1  C   UNL A   1      37.953  21.093  25.352  1.00  0.00     0.274 C 
ENDROOT
BRANCH   1   2
ATOM      2  O   UNL A   1      36.846  21.721  24.639  1.00  0.00    -0.462 OA
BRANCH   2   3
ATOM      3  C   UNL A   1      35.920  22.473  25.264  1.00  0.00     0.315 C 
ATOM      4  O   UNL A   1      36.048  23.692  25.336  1.00  0.00    -0.252 OA
BRANCH   3   5
ATOM      5  C   UNL A   1      34.595  21.782  25.812  1.00  0.00     0.162 C 
ATOM      6  N   UNL A   1      32.491  22.693  25.094  1.00  0.00    -0.324 N 
ATOM      7  C   UNL A   1      32.140  21.324  25.414  1.00  0.00     0.264 C 
ATOM      8  C   UNL A   1      33.676  22.971  26.016  1.00  0.00     0.195 C 
ATOM      9  H   UNL A   1      31.730  23.353  25.258  1.00  0.00     0.348 HD
ATOM     10  C   UNL A   1      33.495  20.642  25.636  1.00  0.00     0.083 C 
ATOM     11  C   UNL A   1      33.524  22.937  27.569  1.00  0.00     0.076 C 
BRANCH   6  12
ATOM     12  C   UNL A   1      32.745  22.939  23.572  1.00  0.00     0.364 C 
BRANCH  12  13
ATOM     13  C   UNL A   1      33.999  23.888  22.995  1.00  0.00     0.279 C 
ATOM     14  N   UNL A   1      34.134  25.326  23.015  1.00  0.00    -0.321 N 
ATOM     15  H   UNL A   1      34.622  25.696  22.244  1.00  0.00     0.170 HD
ATOM     16  O   UNL A   1      34.888  23.304  22.348  1.00  0.00    -0.268 OA
BRANCH  14  17
ATOM     17  C   UNL A   1      33.679  26.323  23.967  1.00  0.00     0.041 A 
ATOM     18  C   UNL A   1      31.770  30.311  26.801  1.00  0.00     0.044 C 
ATOM     19  C   UNL A   1      32.148  29.103  25.869  1.00  0.00    -0.051 A 
ATOM     20  C   UNL A   1      32.214  28.863  23.858  1.00  0.00     0.005 A 
ATOM     21  C   UNL A   1      33.020  27.732  26.768  1.00  0.00     0.005 A 
ATOM     22  C   UNL A   1      33.001  27.479  23.150  1.00  0.00     0.026 A 
ATOM     23  C   UNL A   1      33.696  26.355  25.758  1.00  0.00     0.026 A 
ENDBRANCH  14  17
ENDBRANCH  12  13
ENDBRANCH   6  12
ENDBRANCH   3   5
ENDBRANCH   2   3
ENDBRANCH   1   2
BRANCH   1  24
ATOM     24  C   UNL A   1      39.056  21.925  26.104  1.00  0.00     0.275 C 
BRANCH  24  25
ATOM     25  O   UNL A   1      39.956  21.313  27.064  1.00  0.00    -0.458 OA
BRANCH  25  26
ATOM     26  C   UNL A   1      41.278  21.473  27.296  1.00  0.00     0.338 C 
ATOM     27  O   UNL A   1      42.005  20.544  27.630  1.00  0.00    -0.246 OA
BRANCH  26  28
ATOM     28  C   UNL A   1      41.909  22.748  26.944  1.00  0.00     0.060 A 
ATOM     29  C   UNL A   1      41.956  23.944  28.267  1.00  0.00     0.016 A 
ATOM     30  C   UNL A   1      43.035  22.762  25.590  1.00  0.00     0.016 A 
ATOM     31  C   UNL A   1      43.160  25.197  28.378  1.00  0.00     0.010 A 
ATOM     32  C   UNL A   1      44.394  23.926  25.598  1.00  0.00     0.010 A 
ATOM     33  C   UNL A   1      44.403  25.345  27.080  1.00  0.00    -0.014 A 
BRANCH  33  34
ATOM     34  C   UNL A   1      44.520  26.946  27.161  1.00  0.00     0.031 A 
ATOM     35  C   UNL A   1      43.471  27.726  26.459  1.00  0.00     0.074 A 
ATOM     36  C   UNL A   1      45.589  27.484  27.858  1.00  0.00     0.049 A 
ATOM     37  N   UNL A   1      43.119  28.912  26.771  1.00  0.00    -0.248 NA
ATOM     38  C   UNL A   1      42.490  27.183  25.510  1.00  0.00     0.031 C 
ATOM     39  C   UNL A   1      45.664  28.125  29.206  1.00  0.00     0.029 A 
ATOM     40  N   UNL A   1      46.887  26.972  27.856  1.00  0.00    -0.354 N 
ATOM     41  C   UNL A   1      41.740  28.812  26.869  1.00  0.00     0.074 A 
ATOM     42  C   UNL A   1      41.386  27.888  25.827  1.00  0.00     0.031 C 
ATOM     43  C   UNL A   1      46.951  28.305  29.602  1.00  0.00     0.029 A 
ATOM     44  C   UNL A   1      47.799  27.736  28.575  1.00  0.00     0.049 A 
ATOM     45  H   UNL A   1      47.135  26.143  27.388  1.00  0.00     0.167 HD
ATOM     46  C   UNL A   1      41.165  29.319  28.002  1.00  0.00     0.031 A 
ATOM     47  C   UNL A   1      48.736  28.316  27.788  1.00  0.00     0.031 A 
ATOM     48  C   UNL A   1      42.217  29.909  28.862  1.00  0.00     0.049 A 
ATOM     49  C   UNL A   1      48.083  29.652  27.467  1.00  0.00     0.074 A 
ATOM     50  C   UNL A   1      42.727  29.690  30.125  1.00  0.00     0.029 A 
ATOM     51  N   UNL A   1      43.152  30.719  28.233  1.00  0.00    -0.354 N 
ATOM     52  N   UNL A   1      46.788  29.888  27.463  1.00  0.00    -0.248 NA
ATOM     53  C   UNL A   1      48.867  30.863  27.451  1.00  0.00     0.031 C 
ATOM     54  C   UNL A   1      43.991  30.401  30.204  1.00  0.00     0.029 A 
ATOM     55  C   UNL A   1      44.311  30.914  28.945  1.00  0.00     0.049 A 
ATOM     56  H   UNL A   1      42.996  31.123  27.349  1.00  0.00     0.167 HD
ATOM     57  C   UNL A   1      46.557  31.198  27.785  1.00  0.00     0.074 A 
ATOM     58  C   UNL A   1      47.894  31.779  27.599  1.00  0.00     0.031 C 
ATOM     59  C   UNL A   1      45.379  31.724  28.303  1.00  0.00     0.031 A 
BRANCH  46  60
ATOM     60  C   UNL A   1      39.730  29.211  28.480  1.00  0.00    -0.014 A 
ATOM     61  C   UNL A   1      38.732  29.717  27.617  1.00  0.00     0.009 A 
ATOM     62  C   UNL A   1      39.271  28.663  29.691  1.00  0.00     0.009 A 
ATOM     63  C   UNL A   1      37.366  29.678  27.920  1.00  0.00     0.001 A 
ATOM     64  C   UNL A   1      37.891  28.613  29.999  1.00  0.00     0.001 A 
ATOM     65  C   UNL A   1      36.941  29.117  29.113  1.00  0.00     0.000 A 
ENDBRANCH  46  60
BRANCH  47  66
ATOM     66  C   UNL A   1      49.352  27.254  26.889  1.00  0.00    -0.014 A 
ATOM     67  C   UNL A   1      49.371  27.495  25.480  1.00  0.00     0.009 A 
ATOM     68  C   UNL A   1      50.227  26.270  27.368  1.00  0.00     0.009 A 
ATOM     69  C   UNL A   1      50.274  26.846  24.618  1.00  0.00     0.001 A 
ATOM     70  C   UNL A   1      51.117  25.606  26.498  1.00  0.00     0.001 A 
ATOM     71  C   UNL A   1      51.144  25.893  25.131  1.00  0.00     0.000 A 
ENDBRANCH  47  66
BRANCH  59  72
ATOM     72  C   UNL A   1      44.999  33.159  27.987  1.00  0.00    -0.014 A 
ATOM     73  C   UNL A   1      44.783  33.640  26.704  1.00  0.00     0.009 A 
ATOM     74  C   UNL A   1      44.730  34.079  29.030  1.00  0.00     0.009 A 
ATOM     75  C   UNL A   1      44.141  34.854  26.473  1.00  0.00     0.001 A 
ATOM     76  C   UNL A   1      44.122  35.310  28.816  1.00  0.00     0.001 A 
ATOM     77  C   UNL A   1      43.788  35.678  27.531  1.00  0.00     0.000 A 
ENDBRANCH  59  72
ENDBRANCH  33  34
ENDBRANCH  26  28
ENDBRANCH  25  26
ENDBRANCH  24  25
ENDBRANCH   1  24
TORSDOF 14
ENDMDL
