MODEL 1
REMARK VINA RESULT:     -13.6      0.000      0.000
REMARK SMILES Cc1cc(/C=C2\C(=O)N(Cc3ccco3)C(=O)N=C2OCCOC(=O)c2ccc(-c3c4nc(c(-c5ccccc5)c5ccc([nH]5)c(-c5ccccc5)c5nc(c(-c6ccccc6)c6ccc3[nH]6)C=C5)C=C4)cc2)c(C)n1-c1ccc(Cl)c(C(=O)[O-])c1
REMARK SMILES IDX 21 1 20 2 19 3 5 4 6 5 7 6 8 7 9 8 18 9 16 10 17 11 4 12
REMARK SMILES IDX 1 13 2 14 3 15 76 16 74 17 75 18 77 19 78 20 86 21 79 22
REMARK SMILES IDX 82 23 80 24 81 25 83 26 84 27 85 28 10 29 11 30 12 31 15 32
REMARK SMILES IDX 13 33 14 34 22 35 23 36 24 37 25 38 26 39 27 40 73 41 28 42
REMARK SMILES IDX 72 43 29 44 30 45 31 46 66 47 32 48 71 49 65 50 67 51 33 52
REMARK SMILES IDX 70 53 64 54 63 55 34 57 56 58 41 59 55 60 42 61 45 62 54 63
REMARK SMILES IDX 68 64 43 65 44 66 53 68 69 69 46 70 35 71 36 72 40 73 37 74
REMARK SMILES IDX 39 75 38 76 57 77 58 78 62 79 59 80 61 81 60 82 47 83 48 84
REMARK SMILES IDX 52 85 49 86 51 87 50 88
REMARK H PARENT 67 56 45 67
REMARK Flexibility Score: inf
ROOT
ATOM      1  C   UNL A   1      37.899  22.193  25.790  1.00  0.00     0.273 C 
ENDROOT
BRANCH   1   2
ATOM      2  O   UNL A   1      37.399  22.446  24.407  1.00  0.00    -0.473 OA
BRANCH   2   3
ATOM      3  C   UNL A   1      36.118  22.061  24.230  1.00  0.00     0.231 C 
ATOM      4  C   UNL A   1      35.073  24.411  24.334  1.00  0.00     0.029 C 
ATOM      5  C   UNL A   1      35.021  23.070  24.117  1.00  0.00     0.103 C 
ATOM      6  C   UNL A   1      33.736  22.368  23.798  1.00  0.00     0.267 C 
ATOM      7  O   UNL A   1      32.901  22.824  23.024  1.00  0.00    -0.268 OA
ATOM      8  N   UNL A   1      33.631  21.165  24.460  1.00  0.00    -0.250 N 
ATOM      9  N   UNL A   1      35.925  20.800  24.257  1.00  0.00    -0.156 NA
ATOM     10  C   UNL A   1      34.713  20.326  24.625  1.00  0.00     0.354 C 
ATOM     11  O   UNL A   1      34.641  19.234  25.140  1.00  0.00    -0.245 OA
BRANCH   4  12
ATOM     12  C   UNL A   1      33.997  25.398  24.513  1.00  0.00    -0.003 A 
ATOM     13  C   UNL A   1      31.520  27.453  26.477  1.00  0.00     0.065 C 
ATOM     14  C   UNL A   1      32.422  26.762  25.504  1.00  0.00     0.020 A 
ATOM     15  C   UNL A   1      33.481  25.890  25.753  1.00  0.00     0.031 A 
ATOM     16  N   UNL A   1      32.243  26.809  24.133  1.00  0.00    -0.318 N 
ATOM     17  C   UNL A   1      33.171  25.952  23.536  1.00  0.00     0.027 A 
ATOM     18  C   UNL A   1      33.246  25.841  22.059  1.00  0.00     0.065 C 
BRANCH  16  19
ATOM     19  C   UNL A   1      31.307  27.609  23.406  1.00  0.00     0.046 A 
ATOM     20  C   UNL A   1      31.767  28.721  22.696  1.00  0.00     0.028 A 
ATOM     21  C   UNL A   1      29.929  27.418  23.587  1.00  0.00     0.038 A 
ATOM     22  C   UNL A   1      30.869  29.702  22.277  1.00  0.00     0.023 A 
ATOM     23  C   UNL A   1      29.009  28.392  23.131  1.00  0.00     0.018 A 
ATOM     24  C   UNL A   1      29.496  29.554  22.508  1.00  0.00     0.050 A 
ATOM     25  Cl  UNL A   1      28.511  30.889  22.019  1.00  0.00    -0.084 Cl
BRANCH  23  26
ATOM     26  C   UNL A   1      27.547  28.190  23.357  1.00  0.00     0.073 C 
ATOM     27  O   UNL A   1      26.635  28.957  23.122  1.00  0.00    -0.545 OA
ATOM     28  O   UNL A   1      27.273  26.977  23.875  1.00  0.00    -0.545 OA
ENDBRANCH  23  26
ENDBRANCH  16  19
ENDBRANCH   4  12
BRANCH   8  29
ATOM     29  C   UNL A   1      32.381  20.707  25.019  1.00  0.00     0.206 C 
BRANCH  29  30
ATOM     30  C   UNL A   1      31.742  21.753  25.835  1.00  0.00     0.123 A 
ATOM     31  C   UNL A   1      30.519  22.384  25.779  1.00  0.00     0.047 A 
ATOM     32  O   UNL A   1      32.463  22.212  26.891  1.00  0.00    -0.467 OA
ATOM     33  C   UNL A   1      30.512  23.319  26.834  1.00  0.00     0.042 A 
ATOM     34  C   UNL A   1      31.712  23.167  27.488  1.00  0.00     0.195 A 
ENDBRANCH  29  30
ENDBRANCH   8  29
ENDBRANCH   2   3
ENDBRANCH   1   2
BRANCH   1  35
ATOM     35  C   UNL A   1      39.287  21.406  25.888  1.00  0.00     0.274 C 
BRANCH  35  36
ATOM     36  O   UNL A   1      40.110  21.272  27.156  1.00  0.00    -0.458 OA
BRANCH  36  37
ATOM     37  C   UNL A   1      41.201  22.124  27.347  1.00  0.00     0.338 C 
ATOM     38  O   UNL A   1      42.342  21.734  27.094  1.00  0.00    -0.246 OA
BRANCH  37  39
ATOM     39  C   UNL A   1      41.014  23.626  27.881  1.00  0.00     0.060 A 
ATOM     40  C   UNL A   1      39.802  24.261  27.648  1.00  0.00     0.016 A 
ATOM     41  C   UNL A   1      41.959  24.563  28.381  1.00  0.00     0.016 A 
ATOM     42  C   UNL A   1      39.558  25.684  27.958  1.00  0.00     0.010 A 
ATOM     43  C   UNL A   1      41.695  26.069  28.661  1.00  0.00     0.010 A 
ATOM     44  C   UNL A   1      40.459  26.721  28.470  1.00  0.00    -0.014 A 
BRANCH  44  45
ATOM     45  C   UNL A   1      39.881  28.383  28.655  1.00  0.00     0.031 A 
ATOM     46  C   UNL A   1      41.161  29.100  28.841  1.00  0.00     0.074 A 
ATOM     47  C   UNL A   1      38.825  29.331  28.956  1.00  0.00     0.049 A 
ATOM     48  N   UNL A   1      41.737  28.831  29.967  1.00  0.00    -0.248 NA
ATOM     49  C   UNL A   1      42.042  29.681  27.832  1.00  0.00     0.031 C 
ATOM     50  C   UNL A   1      37.420  29.075  29.362  1.00  0.00     0.029 A 
ATOM     51  N   UNL A   1      38.758  30.820  29.061  1.00  0.00    -0.354 N 
ATOM     52  C   UNL A   1      43.022  29.287  29.917  1.00  0.00     0.074 A 
ATOM     53  C   UNL A   1      43.185  29.756  28.541  1.00  0.00     0.031 C 
ATOM     54  C   UNL A   1      36.655  30.216  29.474  1.00  0.00     0.029 A 
ATOM     55  C   UNL A   1      37.422  31.448  29.227  1.00  0.00     0.049 A 
ATOM     56  H   UNL A   1      39.575  31.368  29.022  1.00  0.00     0.167 HD
ATOM     57  C   UNL A   1      43.463  29.768  31.110  1.00  0.00     0.031 A 
ATOM     58  C   UNL A   1      36.963  32.801  29.306  1.00  0.00     0.031 A 
ATOM     59  C   UNL A   1      43.137  31.169  31.182  1.00  0.00     0.049 A 
ATOM     60  C   UNL A   1      38.016  33.506  30.039  1.00  0.00     0.074 A 
ATOM     61  C   UNL A   1      43.212  32.176  30.235  1.00  0.00     0.029 A 
ATOM     62  N   UNL A   1      42.179  31.546  32.094  1.00  0.00    -0.354 N 
ATOM     63  N   UNL A   1      38.095  33.414  31.333  1.00  0.00    -0.248 NA
ATOM     64  C   UNL A   1      38.902  34.487  29.428  1.00  0.00     0.031 C 
ATOM     65  C   UNL A   1      41.969  32.830  30.319  1.00  0.00     0.029 A 
ATOM     66  C   UNL A   1      41.393  32.535  31.547  1.00  0.00     0.049 A 
ATOM     67  H   UNL A   1      42.071  31.167  32.997  1.00  0.00     0.167 HD
ATOM     68  C   UNL A   1      39.378  33.793  31.563  1.00  0.00     0.074 A 
ATOM     69  C   UNL A   1      39.721  34.681  30.464  1.00  0.00     0.031 C 
ATOM     70  C   UNL A   1      40.146  32.863  32.182  1.00  0.00     0.031 A 
BRANCH  57  71
ATOM     71  C   UNL A   1      43.208  28.762  32.238  1.00  0.00    -0.014 A 
ATOM     72  C   UNL A   1      41.898  28.541  32.670  1.00  0.00     0.009 A 
ATOM     73  C   UNL A   1      44.253  28.204  33.018  1.00  0.00     0.009 A 
ATOM     74  C   UNL A   1      41.652  27.866  33.878  1.00  0.00     0.001 A 
ATOM     75  C   UNL A   1      44.012  27.596  34.251  1.00  0.00     0.001 A 
ATOM     76  C   UNL A   1      42.706  27.433  34.685  1.00  0.00     0.000 A 
ENDBRANCH  57  71
BRANCH  58  77
ATOM     77  C   UNL A   1      35.736  33.878  29.286  1.00  0.00    -0.014 A 
ATOM     78  C   UNL A   1      35.004  34.164  28.062  1.00  0.00     0.009 A 
ATOM     79  C   UNL A   1      35.000  34.232  30.430  1.00  0.00     0.009 A 
ATOM     80  C   UNL A   1      33.660  34.633  27.992  1.00  0.00     0.001 A 
ATOM     81  C   UNL A   1      33.653  34.738  30.361  1.00  0.00     0.001 A 
ATOM     82  C   UNL A   1      32.971  34.902  29.155  1.00  0.00     0.000 A 
ENDBRANCH  58  77
BRANCH  70  83
ATOM     83  C   UNL A   1      39.527  32.081  33.325  1.00  0.00    -0.014 A 
ATOM     84  C   UNL A   1      38.954  30.794  33.228  1.00  0.00     0.009 A 
ATOM     85  C   UNL A   1      39.484  32.705  34.579  1.00  0.00     0.009 A 
ATOM     86  C   UNL A   1      38.325  30.184  34.320  1.00  0.00     0.001 A 
ATOM     87  C   UNL A   1      38.899  32.078  35.684  1.00  0.00     0.001 A 
ATOM     88  C   UNL A   1      38.305  30.826  35.552  1.00  0.00     0.000 A 
ENDBRANCH  70  83
ENDBRANCH  44  45
ENDBRANCH  37  39
ENDBRANCH  36  37
ENDBRANCH  35  36
ENDBRANCH   1  35
TORSDOF 15
ENDMDL
MODEL 2
REMARK VINA RESULT:     -13.0      3.338      9.063
REMARK SMILES Cc1cc(/C=C2\C(=O)N(Cc3ccco3)C(=O)N=C2OCCOC(=O)c2ccc(-c3c4nc(c(-c5ccccc5)c5ccc([nH]5)c(-c5ccccc5)c5nc(c(-c6ccccc6)c6ccc3[nH]6)C=C5)C=C4)cc2)c(C)n1-c1ccc(Cl)c(C(=O)[O-])c1
REMARK SMILES IDX 21 1 20 2 19 3 5 4 6 5 7 6 8 7 9 8 18 9 16 10 17 11 4 12
REMARK SMILES IDX 1 13 2 14 3 15 76 16 74 17 75 18 77 19 78 20 86 21 79 22
REMARK SMILES IDX 82 23 80 24 81 25 83 26 84 27 85 28 10 29 11 30 12 31 15 32
REMARK SMILES IDX 13 33 14 34 22 35 23 36 24 37 25 38 26 39 27 40 73 41 28 42
REMARK SMILES IDX 72 43 29 44 30 45 31 46 66 47 32 48 71 49 65 50 67 51 33 52
REMARK SMILES IDX 70 53 64 54 63 55 34 57 56 58 41 59 55 60 42 61 45 62 54 63
REMARK SMILES IDX 68 64 43 65 44 66 53 68 69 69 46 70 35 71 36 72 40 73 37 74
REMARK SMILES IDX 39 75 38 76 57 77 58 78 62 79 59 80 61 81 60 82 47 83 48 84
REMARK SMILES IDX 52 85 49 86 51 87 50 88
REMARK H PARENT 67 56 45 67
REMARK Flexibility Score: inf
ROOT
ATOM      1  C   UNL A   1      33.390  30.479  27.430  1.00  0.00     0.273 C 
ENDROOT
BRANCH   1   2
ATOM      2  O   UNL A   1      33.670  29.827  26.118  1.00  0.00    -0.473 OA
BRANCH   2   3
ATOM      3  C   UNL A   1      32.583  29.235  25.581  1.00  0.00     0.231 C 
ATOM      4  C   UNL A   1      33.647  26.922  25.202  1.00  0.00     0.029 C 
ATOM      5  C   UNL A   1      32.595  27.783  25.224  1.00  0.00     0.103 C 
ATOM      6  C   UNL A   1      31.226  27.373  24.775  1.00  0.00     0.267 C 
ATOM      7  O   UNL A   1      30.726  26.291  25.062  1.00  0.00    -0.268 OA
ATOM      8  N   UNL A   1      30.613  28.359  24.033  1.00  0.00    -0.250 N 
ATOM      9  N   UNL A   1      31.608  30.020  25.332  1.00  0.00    -0.156 NA
ATOM     10  C   UNL A   1      30.731  29.695  24.355  1.00  0.00     0.354 C 
ATOM     11  O   UNL A   1      30.152  30.579  23.767  1.00  0.00    -0.245 OA
BRANCH   4  12
ATOM     12  C   UNL A   1      33.781  25.585  24.603  1.00  0.00    -0.003 A 
ATOM     13  C   UNL A   1      33.629  23.039  21.826  1.00  0.00     0.065 C 
ATOM     14  C   UNL A   1      33.778  23.867  23.064  1.00  0.00     0.020 A 
ATOM     15  C   UNL A   1      33.647  25.246  23.220  1.00  0.00     0.031 A 
ATOM     16  N   UNL A   1      33.967  23.327  24.322  1.00  0.00    -0.318 N 
ATOM     17  C   UNL A   1      33.929  24.364  25.259  1.00  0.00     0.027 A 
ATOM     18  C   UNL A   1      34.157  24.083  26.697  1.00  0.00     0.065 C 
BRANCH  16  19
ATOM     19  C   UNL A   1      34.201  21.956  24.654  1.00  0.00     0.046 A 
ATOM     20  C   UNL A   1      35.496  21.544  24.979  1.00  0.00     0.028 A 
ATOM     21  C   UNL A   1      33.199  20.999  24.436  1.00  0.00     0.038 A 
ATOM     22  C   UNL A   1      35.822  20.188  24.963  1.00  0.00     0.023 A 
ATOM     23  C   UNL A   1      33.514  19.620  24.456  1.00  0.00     0.018 A 
ATOM     24  C   UNL A   1      34.844  19.226  24.684  1.00  0.00     0.050 A 
ATOM     25  Cl  UNL A   1      35.409  17.593  24.606  1.00  0.00    -0.084 Cl
BRANCH  23  26
ATOM     26  C   UNL A   1      32.444  18.613  24.192  1.00  0.00     0.073 C 
ATOM     27  O   UNL A   1      31.911  17.855  24.977  1.00  0.00    -0.545 OA
ATOM     28  O   UNL A   1      32.055  18.608  22.902  1.00  0.00    -0.545 OA
ENDBRANCH  23  26
ENDBRANCH  16  19
ENDBRANCH   4  12
BRANCH   8  29
ATOM     29  C   UNL A   1      29.807  28.053  22.875  1.00  0.00     0.206 C 
BRANCH  29  30
ATOM     30  C   UNL A   1      28.383  27.930  23.227  1.00  0.00     0.123 A 
ATOM     31  C   UNL A   1      27.292  28.756  23.068  1.00  0.00     0.047 A 
ATOM     32  O   UNL A   1      28.012  26.766  23.820  1.00  0.00    -0.467 OA
ATOM     33  C   UNL A   1      26.199  28.076  23.642  1.00  0.00     0.042 A 
ATOM     34  C   UNL A   1      26.686  26.865  24.073  1.00  0.00     0.195 A 
ENDBRANCH  29  30
ENDBRANCH   8  29
ENDBRANCH   2   3
ENDBRANCH   1   2
BRANCH   1  35
ATOM     35  C   UNL A   1      33.364  32.077  27.415  1.00  0.00     0.274 C 
BRANCH  35  36
ATOM     36  O   UNL A   1      34.596  32.956  27.520  1.00  0.00    -0.458 OA
BRANCH  36  37
ATOM     37  C   UNL A   1      35.428  32.824  28.636  1.00  0.00     0.338 C 
ATOM     38  O   UNL A   1      35.200  33.474  29.657  1.00  0.00    -0.246 OA
BRANCH  37  39
ATOM     39  C   UNL A   1      36.685  31.826  28.635  1.00  0.00     0.060 A 
ATOM     40  C   UNL A   1      36.468  30.496  28.306  1.00  0.00     0.016 A 
ATOM     41  C   UNL A   1      38.005  31.988  29.138  1.00  0.00     0.016 A 
ATOM     42  C   UNL A   1      37.510  29.454  28.410  1.00  0.00     0.010 A 
ATOM     43  C   UNL A   1      39.074  30.869  29.281  1.00  0.00     0.010 A 
ATOM     44  C   UNL A   1      38.885  29.521  28.912  1.00  0.00    -0.014 A 
BRANCH  44  45
ATOM     45  C   UNL A   1      39.871  28.053  28.992  1.00  0.00     0.031 A 
ATOM     46  C   UNL A   1      40.618  28.293  30.246  1.00  0.00     0.074 A 
ATOM     47  C   UNL A   1      40.481  26.901  28.356  1.00  0.00     0.049 A 
ATOM     48  N   UNL A   1      41.477  29.254  30.151  1.00  0.00    -0.248 NA
ATOM     49  C   UNL A   1      40.252  27.937  31.614  1.00  0.00     0.031 C 
ATOM     50  C   UNL A   1      40.455  26.490  26.930  1.00  0.00     0.029 A 
ATOM     51  N   UNL A   1      41.384  25.807  28.826  1.00  0.00    -0.354 N 
ATOM     52  C   UNL A   1      41.887  29.594  31.408  1.00  0.00     0.074 A 
ATOM     53  C   UNL A   1      41.049  28.785  32.293  1.00  0.00     0.031 C 
ATOM     54  C   UNL A   1      41.063  25.278  26.687  1.00  0.00     0.029 A 
ATOM     55  C   UNL A   1      41.663  24.684  27.893  1.00  0.00     0.049 A 
ATOM     56  H   UNL A   1      41.782  25.829  29.726  1.00  0.00     0.167 HD
ATOM     57  C   UNL A   1      43.198  29.955  31.461  1.00  0.00     0.031 A 
ATOM     58  C   UNL A   1      42.409  23.468  27.997  1.00  0.00     0.031 A 
ATOM     59  C   UNL A   1      43.985  28.772  31.697  1.00  0.00     0.049 A 
ATOM     60  C   UNL A   1      43.561  23.811  28.832  1.00  0.00     0.074 A 
ATOM     61  C   UNL A   1      43.782  27.690  32.535  1.00  0.00     0.029 A 
ATOM     62  N   UNL A   1      44.792  28.339  30.670  1.00  0.00    -0.354 N 
ATOM     63  N   UNL A   1      44.579  24.440  28.325  1.00  0.00    -0.248 NA
ATOM     64  C   UNL A   1      43.743  23.322  30.191  1.00  0.00     0.031 C 
ATOM     65  C   UNL A   1      44.023  26.566  31.723  1.00  0.00     0.029 A 
ATOM     66  C   UNL A   1      44.773  26.964  30.626  1.00  0.00     0.049 A 
ATOM     67  H   UNL A   1      45.303  28.922  30.062  1.00  0.00     0.167 HD
ATOM     68  C   UNL A   1      45.175  24.948  29.434  1.00  0.00     0.074 A 
ATOM     69  C   UNL A   1      44.824  24.038  30.512  1.00  0.00     0.031 C 
ATOM     70  C   UNL A   1      45.283  26.299  29.457  1.00  0.00     0.031 A 
BRANCH  57  71
ATOM     71  C   UNL A   1      43.521  31.011  30.399  1.00  0.00    -0.014 A 
ATOM     72  C   UNL A   1      42.898  32.260  30.467  1.00  0.00     0.009 A 
ATOM     73  C   UNL A   1      44.255  30.716  29.221  1.00  0.00     0.009 A 
ATOM     74  C   UNL A   1      42.935  33.136  29.369  1.00  0.00     0.001 A 
ATOM     75  C   UNL A   1      44.233  31.553  28.106  1.00  0.00     0.001 A 
ATOM     76  C   UNL A   1      43.565  32.765  28.179  1.00  0.00     0.000 A 
ENDBRANCH  57  71
BRANCH  58  77
ATOM     77  C   UNL A   1      42.802  21.999  27.403  1.00  0.00    -0.014 A 
ATOM     78  C   UNL A   1      41.894  20.868  27.526  1.00  0.00     0.009 A 
ATOM     79  C   UNL A   1      43.739  21.808  26.373  1.00  0.00     0.009 A 
ATOM     80  C   UNL A   1      41.852  19.744  26.653  1.00  0.00     0.001 A 
ATOM     81  C   UNL A   1      43.719  20.655  25.509  1.00  0.00     0.001 A 
ATOM     82  C   UNL A   1      42.760  19.646  25.620  1.00  0.00     0.000 A 
ENDBRANCH  58  77
BRANCH  70  83
ATOM     83  C   UNL A   1      45.688  26.999  28.173  1.00  0.00    -0.014 A 
ATOM     84  C   UNL A   1      46.995  27.058  27.644  1.00  0.00     0.009 A 
ATOM     85  C   UNL A   1      44.685  27.681  27.472  1.00  0.00     0.009 A 
ATOM     86  C   UNL A   1      47.292  27.804  26.496  1.00  0.00     0.001 A 
ATOM     87  C   UNL A   1      44.969  28.388  26.299  1.00  0.00     0.001 A 
ATOM     88  C   UNL A   1      46.273  28.463  25.820  1.00  0.00     0.000 A 
ENDBRANCH  70  83
ENDBRANCH  44  45
ENDBRANCH  37  39
ENDBRANCH  36  37
ENDBRANCH  35  36
ENDBRANCH   1  35
TORSDOF 15
ENDMDL
MODEL 3
REMARK VINA RESULT:     -12.9      7.544     12.132
REMARK SMILES Cc1cc(/C=C2\C(=O)N(Cc3ccco3)C(=O)N=C2OCCOC(=O)c2ccc(-c3c4nc(c(-c5ccccc5)c5ccc([nH]5)c(-c5ccccc5)c5nc(c(-c6ccccc6)c6ccc3[nH]6)C=C5)C=C4)cc2)c(C)n1-c1ccc(Cl)c(C(=O)[O-])c1
REMARK SMILES IDX 21 1 20 2 19 3 5 4 6 5 7 6 8 7 9 8 18 9 16 10 17 11 4 12
REMARK SMILES IDX 1 13 2 14 3 15 76 16 74 17 75 18 77 19 78 20 86 21 79 22
REMARK SMILES IDX 82 23 80 24 81 25 83 26 84 27 85 28 10 29 11 30 12 31 15 32
REMARK SMILES IDX 13 33 14 34 22 35 23 36 24 37 25 38 26 39 27 40 73 41 28 42
REMARK SMILES IDX 72 43 29 44 30 45 31 46 66 47 32 48 71 49 65 50 67 51 33 52
REMARK SMILES IDX 70 53 64 54 63 55 34 57 56 58 41 59 55 60 42 61 45 62 54 63
REMARK SMILES IDX 68 64 43 65 44 66 53 68 69 69 46 70 35 71 36 72 40 73 37 74
REMARK SMILES IDX 39 75 38 76 57 77 58 78 62 79 59 80 61 81 60 82 47 83 48 84
REMARK SMILES IDX 52 85 49 86 51 87 50 88
REMARK H PARENT 67 56 45 67
REMARK Flexibility Score: inf
ROOT
ATOM      1  C   UNL A   1      39.847  35.141  34.700  1.00  0.00     0.273 C 
ENDROOT
BRANCH   1   2
ATOM      2  O   UNL A   1      39.359  34.895  33.311  1.00  0.00    -0.473 OA
BRANCH   2   3
ATOM      3  C   UNL A   1      38.207  34.195  33.274  1.00  0.00     0.231 C 
ATOM      4  C   UNL A   1      38.858  32.634  31.334  1.00  0.00     0.029 C 
ATOM      5  C   UNL A   1      38.040  33.038  32.342  1.00  0.00     0.103 C 
ATOM      6  C   UNL A   1      36.722  32.375  32.608  1.00  0.00     0.267 C 
ATOM      7  O   UNL A   1      36.569  31.160  32.575  1.00  0.00    -0.268 OA
ATOM      8  N   UNL A   1      35.739  33.292  32.906  1.00  0.00    -0.250 N 
ATOM      9  N   UNL A   1      37.274  34.649  34.017  1.00  0.00    -0.156 NA
ATOM     10  C   UNL A   1      35.987  34.402  33.687  1.00  0.00     0.354 C 
ATOM     11  O   UNL A   1      35.132  35.188  34.023  1.00  0.00    -0.245 OA
BRANCH   4  12
ATOM     12  C   UNL A   1      38.623  31.699  30.223  1.00  0.00    -0.003 A 
ATOM     13  C   UNL A   1      36.602  30.041  27.504  1.00  0.00     0.065 C 
ATOM     14  C   UNL A   1      37.589  30.563  28.501  1.00  0.00     0.020 A 
ATOM     15  C   UNL A   1      37.457  31.623  29.397  1.00  0.00     0.031 A 
ATOM     16  N   UNL A   1      38.803  29.955  28.761  1.00  0.00    -0.318 N 
ATOM     17  C   UNL A   1      39.411  30.618  29.830  1.00  0.00     0.027 A 
ATOM     18  C   UNL A   1      40.758  30.211  30.296  1.00  0.00     0.065 C 
BRANCH  16  19
ATOM     19  C   UNL A   1      39.392  28.856  28.060  1.00  0.00     0.046 A 
ATOM     20  C   UNL A   1      39.116  27.552  28.480  1.00  0.00     0.028 A 
ATOM     21  C   UNL A   1      40.404  29.085  27.117  1.00  0.00     0.038 A 
ATOM     22  C   UNL A   1      39.925  26.498  28.060  1.00  0.00     0.023 A 
ATOM     23  C   UNL A   1      41.206  28.014  26.657  1.00  0.00     0.018 A 
ATOM     24  C   UNL A   1      40.980  26.723  27.168  1.00  0.00     0.050 A 
ATOM     25  Cl  UNL A   1      41.957  25.343  26.806  1.00  0.00    -0.084 Cl
BRANCH  23  26
ATOM     26  C   UNL A   1      42.300  28.277  25.676  1.00  0.00     0.073 C 
ATOM     27  O   UNL A   1      42.340  27.993  24.496  1.00  0.00    -0.545 OA
ATOM     28  O   UNL A   1      43.339  28.928  26.234  1.00  0.00    -0.545 OA
ENDBRANCH  23  26
ENDBRANCH  16  19
ENDBRANCH   4  12
BRANCH   8  29
ATOM     29  C   UNL A   1      34.386  33.146  32.421  1.00  0.00     0.206 C 
BRANCH  29  30
ATOM     30  C   UNL A   1      34.178  33.900  31.174  1.00  0.00     0.123 A 
ATOM     31  C   UNL A   1      34.734  33.822  29.915  1.00  0.00     0.047 A 
ATOM     32  O   UNL A   1      33.235  34.876  31.215  1.00  0.00    -0.467 OA
ATOM     33  C   UNL A   1      34.129  34.845  29.157  1.00  0.00     0.042 A 
ATOM     34  C   UNL A   1      33.216  35.449  29.988  1.00  0.00     0.195 A 
ENDBRANCH  29  30
ENDBRANCH   8  29
ENDBRANCH   2   3
ENDBRANCH   1   2
BRANCH   1  35
ATOM     35  C   UNL A   1      40.588  33.910  35.399  1.00  0.00     0.274 C 
BRANCH  35  36
ATOM     36  O   UNL A   1      41.881  33.291  34.901  1.00  0.00    -0.458 OA
BRANCH  36  37
ATOM     37  C   UNL A   1      41.921  32.756  33.611  1.00  0.00     0.338 C 
ATOM     38  O   UNL A   1      41.521  31.609  33.404  1.00  0.00    -0.246 OA
BRANCH  37  39
ATOM     39  C   UNL A   1      42.470  33.605  32.364  1.00  0.00     0.060 A 
ATOM     40  C   UNL A   1      42.762  34.947  32.560  1.00  0.00     0.016 A 
ATOM     41  C   UNL A   1      42.515  33.301  30.976  1.00  0.00     0.016 A 
ATOM     42  C   UNL A   1      43.132  35.866  31.465  1.00  0.00     0.010 A 
ATOM     43  C   UNL A   1      42.865  34.293  29.832  1.00  0.00     0.010 A 
ATOM     44  C   UNL A   1      43.206  35.650  30.017  1.00  0.00    -0.014 A 
BRANCH  44  45
ATOM     45  C   UNL A   1      43.600  36.997  28.940  1.00  0.00     0.031 A 
ATOM     46  C   UNL A   1      45.038  37.176  29.238  1.00  0.00     0.074 A 
ATOM     47  C   UNL A   1      43.197  38.134  28.133  1.00  0.00     0.049 A 
ATOM     48  N   UNL A   1      45.258  37.637  30.426  1.00  0.00    -0.248 NA
ATOM     49  C   UNL A   1      46.191  36.537  28.610  1.00  0.00     0.031 C 
ATOM     50  C   UNL A   1      41.843  38.706  27.924  1.00  0.00     0.029 A 
ATOM     51  N   UNL A   1      43.934  39.156  27.329  1.00  0.00    -0.354 N 
ATOM     52  C   UNL A   1      46.584  37.482  30.711  1.00  0.00     0.074 A 
ATOM     53  C   UNL A   1      47.114  36.735  29.571  1.00  0.00     0.031 C 
ATOM     54  C   UNL A   1      41.808  39.736  27.009  1.00  0.00     0.029 A 
ATOM     55  C   UNL A   1      43.138  40.084  26.484  1.00  0.00     0.049 A 
ATOM     56  H   UNL A   1      44.916  39.213  27.359  1.00  0.00     0.167 HD
ATOM     57  C   UNL A   1      47.090  38.500  31.459  1.00  0.00     0.031 A 
ATOM     58  C   UNL A   1      43.477  41.125  25.563  1.00  0.00     0.031 A 
ATOM     59  C   UNL A   1      47.566  39.524  30.565  1.00  0.00     0.049 A 
ATOM     60  C   UNL A   1      44.662  41.760  26.142  1.00  0.00     0.074 A 
ATOM     61  C   UNL A   1      48.268  39.447  29.375  1.00  0.00     0.029 A 
ATOM     62  N   UNL A   1      46.874  40.713  30.547  1.00  0.00    -0.354 N 
ATOM     63  N   UNL A   1      44.545  42.607  27.121  1.00  0.00    -0.248 NA
ATOM     64  C   UNL A   1      45.994  41.655  25.563  1.00  0.00     0.031 C 
ATOM     65  C   UNL A   1      47.573  40.304  28.501  1.00  0.00     0.029 A 
ATOM     66  C   UNL A   1      46.807  41.182  29.255  1.00  0.00     0.049 A 
ATOM     67  H   UNL A   1      46.487  41.160  31.335  1.00  0.00     0.167 HD
ATOM     68  C   UNL A   1      45.799  42.606  27.643  1.00  0.00     0.074 A 
ATOM     69  C   UNL A   1      46.677  42.262  26.537  1.00  0.00     0.031 C 
ATOM     70  C   UNL A   1      45.876  42.232  28.944  1.00  0.00     0.031 A 
BRANCH  57  71
ATOM     71  C   UNL A   1      46.219  38.764  32.691  1.00  0.00    -0.014 A 
ATOM     72  C   UNL A   1      46.204  37.827  33.728  1.00  0.00     0.009 A 
ATOM     73  C   UNL A   1      45.256  39.804  32.742  1.00  0.00     0.009 A 
ATOM     74  C   UNL A   1      45.212  37.881  34.722  1.00  0.00     0.001 A 
ATOM     75  C   UNL A   1      44.230  39.817  33.687  1.00  0.00     0.001 A 
ATOM     76  C   UNL A   1      44.205  38.848  34.677  1.00  0.00     0.000 A 
ENDBRANCH  57  71
BRANCH  58  77
ATOM     77  C   UNL A   1      43.034  42.165  24.385  1.00  0.00    -0.014 A 
ATOM     78  C   UNL A   1      44.025  42.904  23.619  1.00  0.00     0.009 A 
ATOM     79  C   UNL A   1      41.803  42.089  23.710  1.00  0.00     0.009 A 
ATOM     80  C   UNL A   1      43.847  43.400  22.296  1.00  0.00     0.001 A 
ATOM     81  C   UNL A   1      41.610  42.619  22.385  1.00  0.00     0.001 A 
ATOM     82  C   UNL A   1      42.633  43.237  21.664  1.00  0.00     0.000 A 
ENDBRANCH  58  77
BRANCH  70  83
ATOM     83  C   UNL A   1      44.820  42.760  29.896  1.00  0.00    -0.014 A 
ATOM     84  C   UNL A   1      43.635  42.088  30.267  1.00  0.00     0.009 A 
ATOM     85  C   UNL A   1      45.017  44.044  30.424  1.00  0.00     0.009 A 
ATOM     86  C   UNL A   1      42.671  42.692  31.085  1.00  0.00     0.001 A 
ATOM     87  C   UNL A   1      44.079  44.630  31.280  1.00  0.00     0.001 A 
ATOM     88  C   UNL A   1      42.900  43.962  31.598  1.00  0.00     0.000 A 
ENDBRANCH  70  83
ENDBRANCH  44  45
ENDBRANCH  37  39
ENDBRANCH  36  37
ENDBRANCH  35  36
ENDBRANCH   1  35
TORSDOF 15
ENDMDL
