MODEL 1
REMARK VINA RESULT:     -10.4      0.000      0.000
REMARK SMILES O=C(N[C@@H](C(=O)OCCOC(=O)c1ccc(-c2c3nc(c(-c4ccccc4)c4ccc([nH]4)c(-c4ccccc4)c4nc(c(-c5ccccc5)c5ccc2[nH]5)C=C4)C=C3)cc1)c1ccccc1)c1ccc(Br)nc1
REMARK SMILES IDX 8 1 7 2 5 3 6 4 4 5 3 6 1 7 2 8 67 10 68 11 73 12 69 13
REMARK SMILES IDX 72 14 70 15 71 16 61 17 62 18 66 19 63 20 65 21 64 22 9 23
REMARK SMILES IDX 10 24 11 25 12 26 13 27 14 28 60 29 15 30 59 31 16 32 17 33
REMARK SMILES IDX 18 34 53 35 19 36 58 37 52 38 54 39 20 40 57 41 51 42 50 43
REMARK SMILES IDX 21 45 43 46 28 47 42 48 29 49 32 50 41 51 55 52 30 53 31 54
REMARK SMILES IDX 40 56 56 57 33 58 22 59 23 60 27 61 24 62 26 63 25 64 44 65
REMARK SMILES IDX 45 66 49 67 46 68 48 69 47 70 34 71 35 72 39 73 36 74 38 75
REMARK SMILES IDX 37 76
REMARK H PARENT 3 9 54 44 32 55
REMARK Flexibility Score: inf
ROOT
ATOM      1  C   UNL A   1      35.425  23.016  26.221  1.00  0.00     0.274 C 
ENDROOT
BRANCH   1   2
ATOM      2  O   UNL A   1      34.838  24.220  25.685  1.00  0.00    -0.460 OA
BRANCH   2   3
ATOM      3  C   UNL A   1      33.536  24.468  26.022  1.00  0.00     0.333 C 
ATOM      4  O   UNL A   1      32.888  23.760  26.785  1.00  0.00    -0.249 OA
BRANCH   3   5
ATOM      5  C   UNL A   1      32.946  25.672  25.232  1.00  0.00     0.223 C 
BRANCH   5   6
ATOM      6  N   UNL A   1      33.569  25.813  23.907  1.00  0.00    -0.335 N 
ATOM      7  O   UNL A   1      33.765  26.466  21.756  1.00  0.00    -0.269 OA
ATOM      8  C   UNL A   1      33.146  26.519  22.813  1.00  0.00     0.253 C 
ATOM      9  H   UNL A   1      34.417  25.327  23.789  1.00  0.00     0.165 HD
BRANCH   8  10
ATOM     10  C   UNL A   1      31.897  27.289  22.874  1.00  0.00     0.058 A 
ATOM     11  C   UNL A   1      31.961  28.680  22.818  1.00  0.00     0.018 A 
ATOM     12  C   UNL A   1      30.652  26.686  22.969  1.00  0.00     0.126 A 
ATOM     13  C   UNL A   1      30.777  29.412  22.788  1.00  0.00     0.037 A 
ATOM     14  N   UNL A   1      29.486  27.374  22.927  1.00  0.00    -0.249 NA
ATOM     15  C   UNL A   1      29.573  28.720  22.827  1.00  0.00     0.106 A 
ATOM     16  Br  UNL A   1      27.953  29.699  22.707  1.00  0.00    -0.029 Br
ENDBRANCH   8  10
ENDBRANCH   5   6
BRANCH   5  17
ATOM     17  C   UNL A   1      32.954  27.002  25.996  1.00  0.00    -0.014 A 
ATOM     18  C   UNL A   1      34.125  27.772  26.153  1.00  0.00     0.006 A 
ATOM     19  C   UNL A   1      31.765  27.516  26.546  1.00  0.00     0.006 A 
ATOM     20  C   UNL A   1      34.109  28.989  26.844  1.00  0.00     0.000 A 
ATOM     21  C   UNL A   1      31.753  28.723  27.253  1.00  0.00     0.000 A 
ATOM     22  C   UNL A   1      32.925  29.461  27.398  1.00  0.00     0.000 A 
ENDBRANCH   5  17
ENDBRANCH   3   5
ENDBRANCH   2   3
ENDBRANCH   1   2
BRANCH   1  23
ATOM     23  C   UNL A   1      36.618  22.549  25.386  1.00  0.00     0.275 C 
BRANCH  23  24
ATOM     24  O   UNL A   1      37.680  23.521  25.422  1.00  0.00    -0.458 OA
BRANCH  24  25
ATOM     25  C   UNL A   1      38.794  23.124  26.077  1.00  0.00     0.338 C 
ATOM     26  O   UNL A   1      39.348  22.040  26.016  1.00  0.00    -0.246 OA
BRANCH  25  27
ATOM     27  C   UNL A   1      39.403  24.281  26.744  1.00  0.00     0.060 A 
ATOM     28  C   UNL A   1      39.026  24.498  28.065  1.00  0.00     0.016 A 
ATOM     29  C   UNL A   1      40.215  25.203  26.083  1.00  0.00     0.016 A 
ATOM     30  C   UNL A   1      39.436  25.640  28.735  1.00  0.00     0.010 A 
ATOM     31  C   UNL A   1      40.647  26.350  26.769  1.00  0.00     0.010 A 
ATOM     32  C   UNL A   1      40.248  26.584  28.097  1.00  0.00    -0.014 A 
BRANCH  32  33
ATOM     33  C   UNL A   1      40.574  27.832  28.836  1.00  0.00     0.031 A 
ATOM     34  C   UNL A   1      39.552  28.928  28.945  1.00  0.00     0.074 A 
ATOM     35  C   UNL A   1      41.724  27.928  29.532  1.00  0.00     0.049 A 
ATOM     36  N   UNL A   1      39.647  30.090  29.542  1.00  0.00    -0.248 NA
ATOM     37  C   UNL A   1      38.245  28.679  28.317  1.00  0.00     0.031 C 
ATOM     38  C   UNL A   1      42.754  26.890  29.611  1.00  0.00     0.029 A 
ATOM     39  N   UNL A   1      42.197  28.929  30.342  1.00  0.00    -0.354 N 
ATOM     40  C   UNL A   1      38.429  30.724  29.332  1.00  0.00     0.074 A 
ATOM     41  C   UNL A   1      37.609  29.818  28.556  1.00  0.00     0.031 C 
ATOM     42  C   UNL A   1      43.712  27.289  30.463  1.00  0.00     0.029 A 
ATOM     43  C   UNL A   1      43.400  28.636  30.936  1.00  0.00     0.049 A 
ATOM     44  H   UNL A   1      41.719  29.779  30.485  1.00  0.00     0.167 HD
ATOM     45  C   UNL A   1      38.031  31.953  29.740  1.00  0.00     0.031 A 
ATOM     46  C   UNL A   1      44.179  29.373  31.751  1.00  0.00     0.031 A 
ATOM     47  C   UNL A   1      38.833  32.855  30.522  1.00  0.00     0.049 A 
ATOM     48  C   UNL A   1      43.753  30.769  32.113  1.00  0.00     0.074 A 
ATOM     49  C   UNL A   1      38.530  34.140  30.939  1.00  0.00     0.029 A 
ATOM     50  N   UNL A   1      40.095  32.563  31.012  1.00  0.00    -0.354 N 
ATOM     51  N   UNL A   1      42.633  31.390  31.837  1.00  0.00    -0.248 NA
ATOM     52  C   UNL A   1      44.713  31.574  32.883  1.00  0.00     0.031 C 
ATOM     53  C   UNL A   1      39.627  34.641  31.648  1.00  0.00     0.029 A 
ATOM     54  C   UNL A   1      40.593  33.651  31.711  1.00  0.00     0.049 A 
ATOM     55  H   UNL A   1      40.568  31.709  30.883  1.00  0.00     0.167 HD
ATOM     56  C   UNL A   1      42.753  32.655  32.396  1.00  0.00     0.074 A 
ATOM     57  C   UNL A   1      44.041  32.703  33.058  1.00  0.00     0.031 C 
ATOM     58  C   UNL A   1      41.879  33.690  32.355  1.00  0.00     0.031 A 
BRANCH  45  59
ATOM     59  C   UNL A   1      36.679  32.417  29.283  1.00  0.00    -0.014 A 
ATOM     60  C   UNL A   1      36.531  33.300  28.204  1.00  0.00     0.009 A 
ATOM     61  C   UNL A   1      35.532  31.945  29.942  1.00  0.00     0.009 A 
ATOM     62  C   UNL A   1      35.259  33.724  27.812  1.00  0.00     0.001 A 
ATOM     63  C   UNL A   1      34.262  32.353  29.534  1.00  0.00     0.001 A 
ATOM     64  C   UNL A   1      34.127  33.250  28.475  1.00  0.00     0.000 A 
ENDBRANCH  45  59
BRANCH  46  65
ATOM     65  C   UNL A   1      45.477  28.835  32.237  1.00  0.00    -0.014 A 
ATOM     66  C   UNL A   1      45.555  28.146  33.456  1.00  0.00     0.009 A 
ATOM     67  C   UNL A   1      46.651  29.037  31.494  1.00  0.00     0.009 A 
ATOM     68  C   UNL A   1      46.787  27.686  33.929  1.00  0.00     0.001 A 
ATOM     69  C   UNL A   1      47.875  28.550  31.955  1.00  0.00     0.001 A 
ATOM     70  C   UNL A   1      47.944  27.883  33.176  1.00  0.00     0.000 A 
ENDBRANCH  46  65
BRANCH  58  71
ATOM     71  C   UNL A   1      42.287  34.958  33.048  1.00  0.00    -0.014 A 
ATOM     72  C   UNL A   1      43.158  35.871  32.432  1.00  0.00     0.009 A 
ATOM     73  C   UNL A   1      41.772  35.259  34.319  1.00  0.00     0.009 A 
ATOM     74  C   UNL A   1      43.529  37.045  33.088  1.00  0.00     0.001 A 
ATOM     75  C   UNL A   1      42.126  36.447  34.962  1.00  0.00     0.001 A 
ATOM     76  C   UNL A   1      43.010  37.334  34.350  1.00  0.00     0.000 A 
ENDBRANCH  58  71
ENDBRANCH  32  33
ENDBRANCH  25  27
ENDBRANCH  24  25
ENDBRANCH  23  24
ENDBRANCH   1  23
TORSDOF 14
ENDMDL
MODEL 2
REMARK VINA RESULT:     -10.4      3.751      7.105
REMARK SMILES O=C(N[C@@H](C(=O)OCCOC(=O)c1ccc(-c2c3nc(c(-c4ccccc4)c4ccc([nH]4)c(-c4ccccc4)c4nc(c(-c5ccccc5)c5ccc2[nH]5)C=C4)C=C3)cc1)c1ccccc1)c1ccc(Br)nc1
REMARK SMILES IDX 8 1 7 2 5 3 6 4 4 5 3 6 1 7 2 8 67 10 68 11 73 12 69 13
REMARK SMILES IDX 72 14 70 15 71 16 61 17 62 18 66 19 63 20 65 21 64 22 9 23
REMARK SMILES IDX 10 24 11 25 12 26 13 27 14 28 60 29 15 30 59 31 16 32 17 33
REMARK SMILES IDX 18 34 53 35 19 36 58 37 52 38 54 39 20 40 57 41 51 42 50 43
REMARK SMILES IDX 21 45 43 46 28 47 42 48 29 49 32 50 41 51 55 52 30 53 31 54
REMARK SMILES IDX 40 56 56 57 33 58 22 59 23 60 27 61 24 62 26 63 25 64 44 65
REMARK SMILES IDX 45 66 49 67 46 68 48 69 47 70 34 71 35 72 39 73 36 74 38 75
REMARK SMILES IDX 37 76
REMARK H PARENT 3 9 54 44 32 55
REMARK Flexibility Score: inf
ROOT
ATOM      1  C   UNL A   1      36.139  20.091  25.003  1.00  0.00     0.274 C 
ENDROOT
BRANCH   1   2
ATOM      2  O   UNL A   1      35.510  21.389  25.051  1.00  0.00    -0.460 OA
BRANCH   2   3
ATOM      3  C   UNL A   1      34.529  21.558  25.990  1.00  0.00     0.333 C 
ATOM      4  O   UNL A   1      34.756  21.723  27.183  1.00  0.00    -0.249 OA
BRANCH   3   5
ATOM      5  C   UNL A   1      33.104  21.395  25.384  1.00  0.00     0.223 C 
BRANCH   5   6
ATOM      6  N   UNL A   1      32.058  21.815  26.329  1.00  0.00    -0.335 N 
ATOM      7  O   UNL A   1      30.685  23.235  27.418  1.00  0.00    -0.269 OA
ATOM      8  C   UNL A   1      31.507  23.052  26.528  1.00  0.00     0.253 C 
ATOM      9  H   UNL A   1      31.702  21.100  26.904  1.00  0.00     0.165 HD
BRANCH   8  10
ATOM     10  C   UNL A   1      31.955  24.194  25.721  1.00  0.00     0.058 A 
ATOM     11  C   UNL A   1      33.027  24.960  26.175  1.00  0.00     0.018 A 
ATOM     12  C   UNL A   1      31.364  24.532  24.513  1.00  0.00     0.126 A 
ATOM     13  C   UNL A   1      33.512  25.991  25.373  1.00  0.00     0.037 A 
ATOM     14  N   UNL A   1      31.825  25.518  23.708  1.00  0.00    -0.249 NA
ATOM     15  C   UNL A   1      32.895  26.220  24.150  1.00  0.00     0.106 A 
ATOM     16  Br  UNL A   1      33.594  27.566  23.013  1.00  0.00    -0.029 Br
ENDBRANCH   8  10
ENDBRANCH   5   6
BRANCH   5  17
ATOM     17  C   UNL A   1      32.811  20.003  24.810  1.00  0.00    -0.014 A 
ATOM     18  C   UNL A   1      32.537  19.795  23.443  1.00  0.00     0.006 A 
ATOM     19  C   UNL A   1      32.841  18.869  25.643  1.00  0.00     0.006 A 
ATOM     20  C   UNL A   1      32.284  18.515  22.938  1.00  0.00     0.000 A 
ATOM     21  C   UNL A   1      32.569  17.591  25.141  1.00  0.00     0.000 A 
ATOM     22  C   UNL A   1      32.295  17.415  23.788  1.00  0.00     0.000 A 
ENDBRANCH   5  17
ENDBRANCH   3   5
ENDBRANCH   2   3
ENDBRANCH   1   2
BRANCH   1  23
ATOM     23  C   UNL A   1      37.650  20.202  24.798  1.00  0.00     0.275 C 
BRANCH  23  24
ATOM     24  O   UNL A   1      38.190  21.296  25.563  1.00  0.00    -0.458 OA
BRANCH  24  25
ATOM     25  C   UNL A   1      39.357  21.030  26.192  1.00  0.00     0.338 C 
ATOM     26  O   UNL A   1      39.997  19.992  26.170  1.00  0.00    -0.246 OA
BRANCH  25  27
ATOM     27  C   UNL A   1      39.892  22.270  26.767  1.00  0.00     0.060 A 
ATOM     28  C   UNL A   1      39.379  23.457  26.256  1.00  0.00     0.016 A 
ATOM     29  C   UNL A   1      40.946  22.295  27.681  1.00  0.00     0.016 A 
ATOM     30  C   UNL A   1      39.919  24.677  26.632  1.00  0.00     0.010 A 
ATOM     31  C   UNL A   1      41.479  23.532  28.079  1.00  0.00     0.010 A 
ATOM     32  C   UNL A   1      40.977  24.733  27.544  1.00  0.00    -0.014 A 
BRANCH  32  33
ATOM     33  C   UNL A   1      41.575  26.062  27.834  1.00  0.00     0.031 A 
ATOM     34  C   UNL A   1      42.856  26.472  27.163  1.00  0.00     0.074 A 
ATOM     35  C   UNL A   1      40.902  26.961  28.580  1.00  0.00     0.049 A 
ATOM     36  N   UNL A   1      43.535  27.586  27.288  1.00  0.00    -0.248 NA
ATOM     37  C   UNL A   1      43.442  25.513  26.215  1.00  0.00     0.031 C 
ATOM     38  C   UNL A   1      39.592  26.739  29.194  1.00  0.00     0.029 A 
ATOM     39  N   UNL A   1      41.208  28.258  28.908  1.00  0.00    -0.354 N 
ATOM     40  C   UNL A   1      44.643  27.447  26.463  1.00  0.00     0.074 A 
ATOM     41  C   UNL A   1      44.546  26.144  25.840  1.00  0.00     0.031 C 
ATOM     42  C   UNL A   1      39.186  27.876  29.782  1.00  0.00     0.029 A 
ATOM     43  C   UNL A   1      40.234  28.885  29.646  1.00  0.00     0.049 A 
ATOM     44  H   UNL A   1      42.048  28.699  28.640  1.00  0.00     0.167 HD
ATOM     45  C   UNL A   1      45.656  28.320  26.248  1.00  0.00     0.031 A 
ATOM     46  C   UNL A   1      40.195  30.123  30.176  1.00  0.00     0.031 A 
ATOM     47  C   UNL A   1      45.756  29.621  26.853  1.00  0.00     0.049 A 
ATOM     48  C   UNL A   1      41.374  31.038  29.997  1.00  0.00     0.074 A 
ATOM     49  C   UNL A   1      46.771  30.554  26.732  1.00  0.00     0.029 A 
ATOM     50  N   UNL A   1      44.799  30.178  27.686  1.00  0.00    -0.354 N 
ATOM     51  N   UNL A   1      42.458  30.861  29.282  1.00  0.00    -0.248 NA
ATOM     52  C   UNL A   1      41.332  32.318  30.721  1.00  0.00     0.031 C 
ATOM     53  C   UNL A   1      46.448  31.660  27.526  1.00  0.00     0.029 A 
ATOM     54  C   UNL A   1      45.209  31.434  28.103  1.00  0.00     0.049 A 
ATOM     55  H   UNL A   1      43.952  29.745  27.943  1.00  0.00     0.167 HD
ATOM     56  C   UNL A   1      43.226  32.004  29.469  1.00  0.00     0.074 A 
ATOM     57  C   UNL A   1      42.469  32.882  30.338  1.00  0.00     0.031 C 
ATOM     58  C   UNL A   1      44.453  32.293  28.976  1.00  0.00     0.031 A 
BRANCH  45  59
ATOM     59  C   UNL A   1      46.779  27.859  25.366  1.00  0.00    -0.014 A 
ATOM     60  C   UNL A   1      46.800  28.145  23.993  1.00  0.00     0.009 A 
ATOM     61  C   UNL A   1      47.842  27.137  25.930  1.00  0.00     0.009 A 
ATOM     62  C   UNL A   1      47.853  27.689  23.196  1.00  0.00     0.001 A 
ATOM     63  C   UNL A   1      48.904  26.702  25.136  1.00  0.00     0.001 A 
ATOM     64  C   UNL A   1      48.904  26.970  23.768  1.00  0.00     0.000 A 
ENDBRANCH  45  59
BRANCH  46  65
ATOM     65  C   UNL A   1      39.023  30.557  30.981  1.00  0.00    -0.014 A 
ATOM     66  C   UNL A   1      38.954  30.278  32.354  1.00  0.00     0.009 A 
ATOM     67  C   UNL A   1      37.953  31.229  30.370  1.00  0.00     0.009 A 
ATOM     68  C   UNL A   1      37.828  30.648  33.094  1.00  0.00     0.001 A 
ATOM     69  C   UNL A   1      36.843  31.624  31.117  1.00  0.00     0.001 A 
ATOM     70  C   UNL A   1      36.777  31.325  32.477  1.00  0.00     0.000 A 
ENDBRANCH  46  65
BRANCH  58  71
ATOM     71  C   UNL A   1      45.051  33.615  29.360  1.00  0.00    -0.014 A 
ATOM     72  C   UNL A   1      44.815  34.767  28.590  1.00  0.00     0.009 A 
ATOM     73  C   UNL A   1      45.834  33.721  30.520  1.00  0.00     0.009 A 
ATOM     74  C   UNL A   1      45.377  35.989  28.959  1.00  0.00     0.001 A 
ATOM     75  C   UNL A   1      46.374  34.951  30.899  1.00  0.00     0.001 A 
ATOM     76  C   UNL A   1      46.153  36.082  30.115  1.00  0.00     0.000 A 
ENDBRANCH  58  71
ENDBRANCH  32  33
ENDBRANCH  25  27
ENDBRANCH  24  25
ENDBRANCH  23  24
ENDBRANCH   1  23
TORSDOF 14
ENDMDL
MODEL 3
REMARK VINA RESULT:     -10.4      3.034      7.862
REMARK SMILES O=C(N[C@@H](C(=O)OCCOC(=O)c1ccc(-c2c3nc(c(-c4ccccc4)c4ccc([nH]4)c(-c4ccccc4)c4nc(c(-c5ccccc5)c5ccc2[nH]5)C=C4)C=C3)cc1)c1ccccc1)c1ccc(Br)nc1
REMARK SMILES IDX 8 1 7 2 5 3 6 4 4 5 3 6 1 7 2 8 67 10 68 11 73 12 69 13
REMARK SMILES IDX 72 14 70 15 71 16 61 17 62 18 66 19 63 20 65 21 64 22 9 23
REMARK SMILES IDX 10 24 11 25 12 26 13 27 14 28 60 29 15 30 59 31 16 32 17 33
REMARK SMILES IDX 18 34 53 35 19 36 58 37 52 38 54 39 20 40 57 41 51 42 50 43
REMARK SMILES IDX 21 45 43 46 28 47 42 48 29 49 32 50 41 51 55 52 30 53 31 54
REMARK SMILES IDX 40 56 56 57 33 58 22 59 23 60 27 61 24 62 26 63 25 64 44 65
REMARK SMILES IDX 45 66 49 67 46 68 48 69 47 70 34 71 35 72 39 73 36 74 38 75
REMARK SMILES IDX 37 76
REMARK H PARENT 3 9 54 44 32 55
REMARK Flexibility Score: inf
ROOT
ATOM      1  C   UNL A   1      33.887  28.518  25.176  1.00  0.00     0.274 C 
ENDROOT
BRANCH   1   2
ATOM      2  O   UNL A   1      33.952  27.090  25.373  1.00  0.00    -0.460 OA
BRANCH   2   3
ATOM      3  C   UNL A   1      33.781  26.311  24.261  1.00  0.00     0.333 C 
ATOM      4  O   UNL A   1      33.625  26.766  23.134  1.00  0.00    -0.249 OA
BRANCH   3   5
ATOM      5  C   UNL A   1      33.685  24.798  24.616  1.00  0.00     0.223 C 
BRANCH   5   6
ATOM      6  N   UNL A   1      32.939  24.576  25.863  1.00  0.00    -0.335 N 
ATOM      7  O   UNL A   1      31.770  23.430  27.415  1.00  0.00    -0.269 OA
ATOM      8  C   UNL A   1      32.433  23.416  26.384  1.00  0.00     0.253 C 
ATOM      9  H   UNL A   1      32.779  25.383  26.405  1.00  0.00     0.165 HD
BRANCH   8  10
ATOM     10  C   UNL A   1      32.618  22.148  25.667  1.00  0.00     0.058 A 
ATOM     11  C   UNL A   1      33.453  21.178  26.219  1.00  0.00     0.018 A 
ATOM     12  C   UNL A   1      31.980  21.869  24.468  1.00  0.00     0.126 A 
ATOM     13  C   UNL A   1      33.564  19.941  25.589  1.00  0.00     0.037 A 
ATOM     14  N   UNL A   1      32.060  20.670  23.844  1.00  0.00    -0.249 NA
ATOM     15  C   UNL A   1      32.841  19.729  24.421  1.00  0.00     0.106 A 
ATOM     16  Br  UNL A   1      32.920  18.024  23.597  1.00  0.00    -0.029 Br
ENDBRANCH   8  10
ENDBRANCH   5   6
BRANCH   5  17
ATOM     17  C   UNL A   1      35.031  24.062  24.632  1.00  0.00    -0.014 A 
ATOM     18  C   UNL A   1      35.910  24.126  25.732  1.00  0.00     0.006 A 
ATOM     19  C   UNL A   1      35.417  23.260  23.542  1.00  0.00     0.006 A 
ATOM     20  C   UNL A   1      37.128  23.437  25.732  1.00  0.00     0.000 A 
ATOM     21  C   UNL A   1      36.643  22.586  23.535  1.00  0.00     0.000 A 
ATOM     22  C   UNL A   1      37.496  22.672  24.631  1.00  0.00     0.000 A 
ENDBRANCH   5  17
ENDBRANCH   3   5
ENDBRANCH   2   3
ENDBRANCH   1   2
BRANCH   1  23
ATOM     23  C   UNL A   1      33.134  29.211  26.312  1.00  0.00     0.275 C 
BRANCH  23  24
ATOM     24  O   UNL A   1      33.886  29.147  27.539  1.00  0.00    -0.458 OA
BRANCH  24  25
ATOM     25  C   UNL A   1      34.482  30.305  27.904  1.00  0.00     0.338 C 
ATOM     26  O   UNL A   1      33.960  31.396  28.054  1.00  0.00    -0.246 OA
BRANCH  25  27
ATOM     27  C   UNL A   1      35.863  30.031  28.316  1.00  0.00     0.060 A 
ATOM     28  C   UNL A   1      36.838  30.171  27.335  1.00  0.00     0.016 A 
ATOM     29  C   UNL A   1      36.199  29.532  29.576  1.00  0.00     0.016 A 
ATOM     30  C   UNL A   1      38.150  29.800  27.589  1.00  0.00     0.010 A 
ATOM     31  C   UNL A   1      37.532  29.177  29.839  1.00  0.00     0.010 A 
ATOM     32  C   UNL A   1      38.515  29.295  28.840  1.00  0.00    -0.014 A 
BRANCH  32  33
ATOM     33  C   UNL A   1      39.914  28.827  29.019  1.00  0.00     0.031 A 
ATOM     34  C   UNL A   1      40.892  29.663  29.797  1.00  0.00     0.074 A 
ATOM     35  C   UNL A   1      40.274  27.592  28.617  1.00  0.00     0.049 A 
ATOM     36  N   UNL A   1      42.154  29.429  30.058  1.00  0.00    -0.248 NA
ATOM     37  C   UNL A   1      40.381  30.917  30.369  1.00  0.00     0.031 C 
ATOM     38  C   UNL A   1      39.392  26.628  27.956  1.00  0.00     0.029 A 
ATOM     39  N   UNL A   1      41.464  26.920  28.747  1.00  0.00    -0.354 N 
ATOM     40  C   UNL A   1      42.596  30.521  30.795  1.00  0.00     0.074 A 
ATOM     41  C   UNL A   1      41.468  31.416  30.941  1.00  0.00     0.031 C 
ATOM     42  C   UNL A   1      40.057  25.474  27.784  1.00  0.00     0.029 A 
ATOM     43  C   UNL A   1      41.429  25.637  28.258  1.00  0.00     0.049 A 
ATOM     44  H   UNL A   1      42.267  27.321  29.153  1.00  0.00     0.167 HD
ATOM     45  C   UNL A   1      43.831  30.762  31.297  1.00  0.00     0.031 A 
ATOM     46  C   UNL A   1      42.396  24.703  28.176  1.00  0.00     0.031 A 
ATOM     47  C   UNL A   1      44.954  29.873  31.167  1.00  0.00     0.049 A 
ATOM     48  C   UNL A   1      43.781  25.033  28.660  1.00  0.00     0.074 A 
ATOM     49  C   UNL A   1      46.256  30.058  31.601  1.00  0.00     0.029 A 
ATOM     50  N   UNL A   1      44.907  28.627  30.566  1.00  0.00    -0.354 N 
ATOM     51  N   UNL A   1      44.208  26.106  29.280  1.00  0.00    -0.248 NA
ATOM     52  C   UNL A   1      44.824  24.027  28.410  1.00  0.00     0.031 C 
ATOM     53  C   UNL A   1      47.007  28.938  31.225  1.00  0.00     0.029 A 
ATOM     54  C   UNL A   1      46.161  28.038  30.598  1.00  0.00     0.049 A 
ATOM     55  H   UNL A   1      44.101  28.218  30.173  1.00  0.00     0.167 HD
ATOM     56  C   UNL A   1      45.565  25.905  29.493  1.00  0.00     0.074 A 
ATOM     57  C   UNL A   1      45.885  24.594  28.967  1.00  0.00     0.031 C 
ATOM     58  C   UNL A   1      46.469  26.739  30.062  1.00  0.00     0.031 A 
BRANCH  45  59
ATOM     59  C   UNL A   1      44.043  32.082  31.979  1.00  0.00    -0.014 A 
ATOM     60  C   UNL A   1      43.873  32.231  33.363  1.00  0.00     0.009 A 
ATOM     61  C   UNL A   1      44.439  33.192  31.215  1.00  0.00     0.009 A 
ATOM     62  C   UNL A   1      44.066  33.476  33.965  1.00  0.00     0.001 A 
ATOM     63  C   UNL A   1      44.651  34.429  31.823  1.00  0.00     0.001 A 
ATOM     64  C   UNL A   1      44.456  34.573  33.196  1.00  0.00     0.000 A 
ENDBRANCH  45  59
BRANCH  46  65
ATOM     65  C   UNL A   1      42.112  23.381  27.558  1.00  0.00    -0.014 A 
ATOM     66  C   UNL A   1      41.499  22.361  28.300  1.00  0.00     0.009 A 
ATOM     67  C   UNL A   1      42.482  23.127  26.228  1.00  0.00     0.009 A 
ATOM     68  C   UNL A   1      41.279  21.105  27.726  1.00  0.00     0.001 A 
ATOM     69  C   UNL A   1      42.234  21.882  25.649  1.00  0.00     0.001 A 
ATOM     70  C   UNL A   1      41.642  20.869  26.401  1.00  0.00     0.000 A 
ENDBRANCH  46  65
BRANCH  58  71
ATOM     71  C   UNL A   1      47.887  26.254  30.150  1.00  0.00    -0.014 A 
ATOM     72  C   UNL A   1      48.762  26.378  29.057  1.00  0.00     0.009 A 
ATOM     73  C   UNL A   1      48.365  25.695  31.345  1.00  0.00     0.009 A 
ATOM     74  C   UNL A   1      50.077  25.923  29.152  1.00  0.00     0.001 A 
ATOM     75  C   UNL A   1      49.689  25.263  31.444  1.00  0.00     0.001 A 
ATOM     76  C   UNL A   1      50.541  25.370  30.346  1.00  0.00     0.000 A 
ENDBRANCH  58  71
ENDBRANCH  32  33
ENDBRANCH  25  27
ENDBRANCH  24  25
ENDBRANCH  23  24
ENDBRANCH   1  23
TORSDOF 14
ENDMDL
