MODEL 1
REMARK VINA RESULT:     -12.8      0.000      0.000
REMARK SMILES Cc1ccccc1OC1(C(=O)OCCOC(=O)c2ccc(-c3c4nc(c(-c5ccccc5)c5ccc([nH]5)c(-c5ccccc5)c5nc(c(-c6ccccc6)c6ccc3[nH]6)C=C5)C=C4)cc2)CCN(C(=O)[C@H]2CCCCO2)CC1
REMARK SMILES IDX 13 1 12 2 10 3 11 4 9 5 66 6 78 7 67 8 77 9 68 10 69 11
REMARK SMILES IDX 70 12 8 13 7 14 1 15 2 16 3 17 4 18 6 19 5 20 71 21 72 22
REMARK SMILES IDX 76 23 73 24 75 25 74 26 14 27 15 28 16 29 17 30 18 31 19 32
REMARK SMILES IDX 65 33 20 34 64 35 21 36 22 37 23 38 58 39 24 40 63 41 57 42
REMARK SMILES IDX 59 43 25 44 62 45 56 46 55 47 26 49 48 50 33 51 47 52 34 53
REMARK SMILES IDX 37 54 46 55 60 56 35 57 36 58 45 60 61 61 38 62 27 63 28 64
REMARK SMILES IDX 32 65 29 66 31 67 30 68 49 69 50 70 54 71 51 72 53 73 52 74
REMARK SMILES IDX 39 75 40 76 44 77 41 78 43 79 42 80
REMARK H PARENT 59 48 37 59
REMARK Flexibility Score: inf
ROOT
ATOM      1  C   UNL A   1      35.947  20.088  24.992  1.00  0.00     0.274 C 
ENDROOT
BRANCH   1   2
ATOM      2  O   UNL A   1      35.171  21.293  24.873  1.00  0.00    -0.459 OA
BRANCH   2   3
ATOM      3  C   UNL A   1      34.332  21.472  25.944  1.00  0.00     0.350 C 
ATOM      4  O   UNL A   1      34.690  21.230  27.096  1.00  0.00    -0.247 OA
BRANCH   3   5
ATOM      5  C   UNL A   1      32.838  21.785  25.553  1.00  0.00     0.209 C 
ATOM      6  C   UNL A   1      32.364  22.440  26.848  1.00  0.00     0.082 C 
ATOM      7  C   UNL A   1      32.957  22.649  24.280  1.00  0.00     0.082 C 
ATOM      8  C   UNL A   1      32.356  23.953  26.839  1.00  0.00     0.124 C 
ATOM      9  C   UNL A   1      32.212  23.960  24.301  1.00  0.00     0.124 C 
ATOM     10  N   UNL A   1      32.052  24.631  25.582  1.00  0.00    -0.340 N 
ATOM     11  C   UNL A   1      31.564  25.939  25.709  1.00  0.00     0.251 C 
ATOM     12  O   UNL A   1      31.390  26.429  26.830  1.00  0.00    -0.272 OA
BRANCH   5  13
ATOM     13  O   UNL A   1      32.043  20.602  25.311  1.00  0.00    -0.475 OA
BRANCH  13  14
ATOM     14  C   UNL A   1      32.448  19.441  24.682  1.00  0.00     0.123 A 
ATOM     15  C   UNL A   1      32.102  19.792  22.093  1.00  0.00     0.048 C 
ATOM     16  C   UNL A   1      32.543  19.067  23.326  1.00  0.00    -0.009 A 
ATOM     17  C   UNL A   1      32.989  17.755  22.990  1.00  0.00     0.007 A 
ATOM     18  C   UNL A   1      33.274  16.795  23.948  1.00  0.00     0.001 A 
ATOM     19  C   UNL A   1      32.724  18.428  25.629  1.00  0.00     0.047 A 
ATOM     20  C   UNL A   1      33.125  17.130  25.278  1.00  0.00     0.004 A 
ENDBRANCH  13  14
ENDBRANCH   5  13
BRANCH  11  21
ATOM     21  C   UNL A   1      31.254  26.755  24.429  1.00  0.00     0.207 C 
ATOM     22  C   UNL A   1      29.746  26.796  24.158  1.00  0.00     0.042 C 
ATOM     23  O   UNL A   1      31.764  28.081  24.637  1.00  0.00    -0.368 OA
ATOM     24  C   UNL A   1      29.383  27.801  23.072  1.00  0.00     0.006 C 
ATOM     25  C   UNL A   1      31.517  28.970  23.559  1.00  0.00     0.161 C 
ATOM     26  C   UNL A   1      30.023  29.148  23.361  1.00  0.00     0.029 C 
ENDBRANCH  11  21
ENDBRANCH   3   5
ENDBRANCH   2   3
ENDBRANCH   1   2
BRANCH   1  27
ATOM     27  C   UNL A   1      37.452  20.272  24.761  1.00  0.00     0.275 C 
BRANCH  27  28
ATOM     28  O   UNL A   1      38.191  21.178  25.624  1.00  0.00    -0.458 OA
BRANCH  28  29
ATOM     29  C   UNL A   1      39.425  21.026  26.152  1.00  0.00     0.338 C 
ATOM     30  O   UNL A   1      40.041  19.961  26.091  1.00  0.00    -0.246 OA
BRANCH  29  31
ATOM     31  C   UNL A   1      40.050  22.197  26.771  1.00  0.00     0.060 A 
ATOM     32  C   UNL A   1      40.860  22.006  27.899  1.00  0.00     0.016 A 
ATOM     33  C   UNL A   1      39.908  23.452  26.191  1.00  0.00     0.016 A 
ATOM     34  C   UNL A   1      41.604  23.062  28.412  1.00  0.00     0.010 A 
ATOM     35  C   UNL A   1      40.712  24.479  26.634  1.00  0.00     0.010 A 
ATOM     36  C   UNL A   1      41.531  24.294  27.760  1.00  0.00    -0.014 A 
BRANCH  36  37
ATOM     37  C   UNL A   1      41.966  25.531  28.388  1.00  0.00     0.031 A 
ATOM     38  C   UNL A   1      41.056  26.658  28.658  1.00  0.00     0.074 A 
ATOM     39  C   UNL A   1      43.284  25.525  28.691  1.00  0.00     0.049 A 
ATOM     40  N   UNL A   1      41.403  27.901  28.624  1.00  0.00    -0.248 NA
ATOM     41  C   UNL A   1      39.637  26.473  28.954  1.00  0.00     0.031 C 
ATOM     42  C   UNL A   1      44.074  26.485  29.438  1.00  0.00     0.029 A 
ATOM     43  N   UNL A   1      44.244  24.648  28.155  1.00  0.00    -0.354 N 
ATOM     44  C   UNL A   1      40.375  28.625  29.199  1.00  0.00     0.074 A 
ATOM     45  C   UNL A   1      39.251  27.722  29.246  1.00  0.00     0.031 C 
ATOM     46  C   UNL A   1      45.358  26.354  29.048  1.00  0.00     0.029 A 
ATOM     47  C   UNL A   1      45.370  25.424  27.917  1.00  0.00     0.049 A 
ATOM     48  H   UNL A   1      44.140  23.684  27.985  1.00  0.00     0.167 HD
ATOM     49  C   UNL A   1      40.638  29.834  29.777  1.00  0.00     0.031 A 
ATOM     50  C   UNL A   1      45.777  25.721  26.646  1.00  0.00     0.031 A 
ATOM     51  C   UNL A   1      42.060  30.139  29.684  1.00  0.00     0.049 A 
ATOM     52  C   UNL A   1      45.826  27.216  26.460  1.00  0.00     0.074 A 
ATOM     53  C   UNL A   1      43.091  29.889  30.574  1.00  0.00     0.029 A 
ATOM     54  N   UNL A   1      42.639  30.407  28.454  1.00  0.00    -0.354 N 
ATOM     55  N   UNL A   1      44.963  28.044  26.982  1.00  0.00    -0.248 NA
ATOM     56  C   UNL A   1      46.888  27.882  25.716  1.00  0.00     0.031 C 
ATOM     57  C   UNL A   1      44.302  29.896  29.839  1.00  0.00     0.029 A 
ATOM     58  C   UNL A   1      44.001  30.191  28.520  1.00  0.00     0.049 A 
ATOM     59  H   UNL A   1      42.152  30.707  27.653  1.00  0.00     0.167 HD
ATOM     60  C   UNL A   1      45.414  29.323  26.782  1.00  0.00     0.074 A 
ATOM     61  C   UNL A   1      46.590  29.173  25.941  1.00  0.00     0.031 C 
ATOM     62  C   UNL A   1      44.845  30.418  27.361  1.00  0.00     0.031 A 
BRANCH  49  63
ATOM     63  C   UNL A   1      39.716  30.544  30.747  1.00  0.00    -0.014 A 
ATOM     64  C   UNL A   1      38.891  31.586  30.274  1.00  0.00     0.009 A 
ATOM     65  C   UNL A   1      39.635  30.275  32.123  1.00  0.00     0.009 A 
ATOM     66  C   UNL A   1      38.114  32.379  31.130  1.00  0.00     0.001 A 
ATOM     67  C   UNL A   1      38.877  31.082  32.992  1.00  0.00     0.001 A 
ATOM     68  C   UNL A   1      38.128  32.143  32.496  1.00  0.00     0.000 A 
ENDBRANCH  49  63
BRANCH  50  69
ATOM     69  C   UNL A   1      45.404  24.762  25.553  1.00  0.00    -0.014 A 
ATOM     70  C   UNL A   1      46.389  23.905  25.016  1.00  0.00     0.009 A 
ATOM     71  C   UNL A   1      44.071  24.532  25.179  1.00  0.00     0.009 A 
ATOM     72  C   UNL A   1      46.047  22.809  24.212  1.00  0.00     0.001 A 
ATOM     73  C   UNL A   1      43.731  23.447  24.353  1.00  0.00     0.001 A 
ATOM     74  C   UNL A   1      44.714  22.572  23.891  1.00  0.00     0.000 A 
ENDBRANCH  50  69
BRANCH  62  75
ATOM     75  C   UNL A   1      45.115  31.843  26.968  1.00  0.00    -0.014 A 
ATOM     76  C   UNL A   1      46.302  32.514  27.282  1.00  0.00     0.009 A 
ATOM     77  C   UNL A   1      44.219  32.497  26.092  1.00  0.00     0.009 A 
ATOM     78  C   UNL A   1      46.562  33.794  26.780  1.00  0.00     0.001 A 
ATOM     79  C   UNL A   1      44.498  33.750  25.550  1.00  0.00     0.001 A 
ATOM     80  C   UNL A   1      45.668  34.405  25.905  1.00  0.00     0.000 A 
ENDBRANCH  62  75
ENDBRANCH  36  37
ENDBRANCH  29  31
ENDBRANCH  28  29
ENDBRANCH  27  28
ENDBRANCH   1  27
TORSDOF 14
ENDMDL
MODEL 2
REMARK VINA RESULT:     -12.8      3.120      9.804
REMARK SMILES Cc1ccccc1OC1(C(=O)OCCOC(=O)c2ccc(-c3c4nc(c(-c5ccccc5)c5ccc([nH]5)c(-c5ccccc5)c5nc(c(-c6ccccc6)c6ccc3[nH]6)C=C5)C=C4)cc2)CCN(C(=O)[C@H]2CCCCO2)CC1
REMARK SMILES IDX 13 1 12 2 10 3 11 4 9 5 66 6 78 7 67 8 77 9 68 10 69 11
REMARK SMILES IDX 70 12 8 13 7 14 1 15 2 16 3 17 4 18 6 19 5 20 71 21 72 22
REMARK SMILES IDX 76 23 73 24 75 25 74 26 14 27 15 28 16 29 17 30 18 31 19 32
REMARK SMILES IDX 65 33 20 34 64 35 21 36 22 37 23 38 58 39 24 40 63 41 57 42
REMARK SMILES IDX 59 43 25 44 62 45 56 46 55 47 26 49 48 50 33 51 47 52 34 53
REMARK SMILES IDX 37 54 46 55 60 56 35 57 36 58 45 60 61 61 38 62 27 63 28 64
REMARK SMILES IDX 32 65 29 66 31 67 30 68 49 69 50 70 54 71 51 72 53 73 52 74
REMARK SMILES IDX 39 75 40 76 44 77 41 78 43 79 42 80
REMARK H PARENT 59 48 37 59
REMARK Flexibility Score: inf
ROOT
ATOM      1  C   UNL A   1      32.364  29.903  25.836  1.00  0.00     0.274 C 
ENDROOT
BRANCH   1   2
ATOM      2  O   UNL A   1      31.616  29.079  24.925  1.00  0.00    -0.459 OA
BRANCH   2   3
ATOM      3  C   UNL A   1      32.365  28.701  23.840  1.00  0.00     0.350 C 
ATOM      4  O   UNL A   1      33.319  29.372  23.445  1.00  0.00    -0.247 OA
BRANCH   3   5
ATOM      5  C   UNL A   1      31.769  27.489  23.029  1.00  0.00     0.209 C 
ATOM      6  C   UNL A   1      32.977  27.137  22.166  1.00  0.00     0.082 C 
ATOM      7  C   UNL A   1      31.315  26.496  24.118  1.00  0.00     0.082 C 
ATOM      8  C   UNL A   1      33.815  25.983  22.671  1.00  0.00     0.124 C 
ATOM      9  C   UNL A   1      31.829  25.086  23.980  1.00  0.00     0.124 C 
ATOM     10  N   UNL A   1      33.136  24.895  23.368  1.00  0.00    -0.340 N 
ATOM     11  C   UNL A   1      33.811  23.666  23.365  1.00  0.00     0.251 C 
ATOM     12  O   UNL A   1      34.889  23.553  22.771  1.00  0.00    -0.272 OA
BRANCH   5  13
ATOM     13  O   UNL A   1      30.670  27.856  22.164  1.00  0.00    -0.475 OA
BRANCH  13  14
ATOM     14  C   UNL A   1      29.621  28.705  22.464  1.00  0.00     0.123 A 
ATOM     15  C   UNL A   1      27.803  27.282  23.734  1.00  0.00     0.048 C 
ATOM     16  C   UNL A   1      28.414  28.526  23.170  1.00  0.00    -0.009 A 
ATOM     17  C   UNL A   1      27.506  29.619  23.293  1.00  0.00     0.007 A 
ATOM     18  C   UNL A   1      27.726  30.845  22.687  1.00  0.00     0.001 A 
ATOM     19  C   UNL A   1      29.799  29.961  21.841  1.00  0.00     0.047 A 
ATOM     20  C   UNL A   1      28.875  31.012  21.942  1.00  0.00     0.004 A 
ENDBRANCH  13  14
ENDBRANCH   5  13
BRANCH  11  21
ATOM     21  C   UNL A   1      33.190  22.463  24.118  1.00  0.00     0.207 C 
ATOM     22  C   UNL A   1      32.653  21.419  23.131  1.00  0.00     0.042 C 
ATOM     23  O   UNL A   1      34.222  21.896  24.938  1.00  0.00    -0.368 OA
ATOM     24  C   UNL A   1      32.280  20.113  23.821  1.00  0.00     0.006 C 
ATOM     25  C   UNL A   1      33.816  20.747  25.665  1.00  0.00     0.161 C 
ATOM     26  C   UNL A   1      33.418  19.637  24.708  1.00  0.00     0.029 C 
ENDBRANCH  11  21
ENDBRANCH   3   5
ENDBRANCH   2   3
ENDBRANCH   1   2
BRANCH   1  27
ATOM     27  C   UNL A   1      31.704  31.245  26.172  1.00  0.00     0.275 C 
BRANCH  27  28
ATOM     28  O   UNL A   1      31.986  31.868  27.454  1.00  0.00    -0.458 OA
BRANCH  28  29
ATOM     29  C   UNL A   1      32.839  32.877  27.736  1.00  0.00     0.338 C 
ATOM     30  O   UNL A   1      32.487  34.058  27.731  1.00  0.00    -0.246 OA
BRANCH  29  31
ATOM     31  C   UNL A   1      34.212  32.526  28.104  1.00  0.00     0.060 A 
ATOM     32  C   UNL A   1      35.221  33.480  27.915  1.00  0.00     0.016 A 
ATOM     33  C   UNL A   1      34.482  31.303  28.708  1.00  0.00     0.016 A 
ATOM     34  C   UNL A   1      36.501  33.252  28.406  1.00  0.00     0.010 A 
ATOM     35  C   UNL A   1      35.720  31.109  29.279  1.00  0.00     0.010 A 
ATOM     36  C   UNL A   1      36.734  32.063  29.100  1.00  0.00    -0.014 A 
BRANCH  36  37
ATOM     37  C   UNL A   1      38.076  31.557  29.343  1.00  0.00     0.031 A 
ATOM     38  C   UNL A   1      38.576  30.298  28.766  1.00  0.00     0.074 A 
ATOM     39  C   UNL A   1      38.800  32.368  30.149  1.00  0.00     0.049 A 
ATOM     40  N   UNL A   1      39.417  29.510  29.349  1.00  0.00    -0.248 NA
ATOM     41  C   UNL A   1      38.127  29.789  27.471  1.00  0.00     0.031 C 
ATOM     42  C   UNL A   1      40.200  32.306  30.520  1.00  0.00     0.029 A 
ATOM     43  N   UNL A   1      38.276  33.368  30.988  1.00  0.00    -0.354 N 
ATOM     44  C   UNL A   1      39.851  28.605  28.399  1.00  0.00     0.074 A 
ATOM     45  C   UNL A   1      38.918  28.721  27.305  1.00  0.00     0.031 C 
ATOM     46  C   UNL A   1      40.344  32.954  31.694  1.00  0.00     0.029 A 
ATOM     47  C   UNL A   1      39.000  33.284  32.169  1.00  0.00     0.049 A 
ATOM     48  H   UNL A   1      37.549  33.998  30.780  1.00  0.00     0.167 HD
ATOM     49  C   UNL A   1      41.073  28.011  28.535  1.00  0.00     0.031 A 
ATOM     50  C   UNL A   1      38.429  32.829  33.325  1.00  0.00     0.031 A 
ATOM     51  C   UNL A   1      41.738  28.499  29.737  1.00  0.00     0.049 A 
ATOM     52  C   UNL A   1      39.194  31.635  33.838  1.00  0.00     0.074 A 
ATOM     53  C   UNL A   1      42.624  29.550  29.909  1.00  0.00     0.029 A 
ATOM     54  N   UNL A   1      41.247  28.171  30.991  1.00  0.00    -0.354 N 
ATOM     55  N   UNL A   1      39.716  30.719  33.068  1.00  0.00    -0.248 NA
ATOM     56  C   UNL A   1      39.469  31.426  35.254  1.00  0.00     0.031 C 
ATOM     57  C   UNL A   1      42.576  29.932  31.272  1.00  0.00     0.029 A 
ATOM     58  C   UNL A   1      41.695  29.085  31.924  1.00  0.00     0.049 A 
ATOM     59  H   UNL A   1      40.665  27.403  31.187  1.00  0.00     0.167 HD
ATOM     60  C   UNL A   1      40.499  29.901  33.840  1.00  0.00     0.074 A 
ATOM     61  C   UNL A   1      40.271  30.348  35.205  1.00  0.00     0.031 C 
ATOM     62  C   UNL A   1      41.333  28.954  33.323  1.00  0.00     0.031 A 
BRANCH  49  63
ATOM     63  C   UNL A   1      41.822  27.311  27.420  1.00  0.00    -0.014 A 
ATOM     64  C   UNL A   1      42.265  28.064  26.312  1.00  0.00     0.009 A 
ATOM     65  C   UNL A   1      42.089  25.934  27.371  1.00  0.00     0.009 A 
ATOM     66  C   UNL A   1      42.842  27.469  25.181  1.00  0.00     0.001 A 
ATOM     67  C   UNL A   1      42.645  25.327  26.230  1.00  0.00     0.001 A 
ATOM     68  C   UNL A   1      43.008  26.094  25.129  1.00  0.00     0.000 A 
ENDBRANCH  49  63
BRANCH  50  69
ATOM     69  C   UNL A   1      36.945  32.990  33.481  1.00  0.00    -0.014 A 
ATOM     70  C   UNL A   1      36.440  34.071  34.236  1.00  0.00     0.009 A 
ATOM     71  C   UNL A   1      36.026  32.234  32.737  1.00  0.00     0.009 A 
ATOM     72  C   UNL A   1      35.088  34.435  34.180  1.00  0.00     0.001 A 
ATOM     73  C   UNL A   1      34.665  32.585  32.701  1.00  0.00     0.001 A 
ATOM     74  C   UNL A   1      34.202  33.700  33.400  1.00  0.00     0.000 A 
ENDBRANCH  50  69
BRANCH  62  75
ATOM     75  C   UNL A   1      41.996  27.860  34.112  1.00  0.00    -0.014 A 
ATOM     76  C   UNL A   1      41.286  26.848  34.767  1.00  0.00     0.009 A 
ATOM     77  C   UNL A   1      43.402  27.726  34.055  1.00  0.00     0.009 A 
ATOM     78  C   UNL A   1      41.950  25.777  35.375  1.00  0.00     0.001 A 
ATOM     79  C   UNL A   1      44.063  26.635  34.615  1.00  0.00     0.001 A 
ATOM     80  C   UNL A   1      43.335  25.664  35.287  1.00  0.00     0.000 A 
ENDBRANCH  62  75
ENDBRANCH  36  37
ENDBRANCH  29  31
ENDBRANCH  28  29
ENDBRANCH  27  28
ENDBRANCH   1  27
TORSDOF 14
ENDMDL
MODEL 3
REMARK VINA RESULT:     -12.7      2.827      8.709
REMARK SMILES Cc1ccccc1OC1(C(=O)OCCOC(=O)c2ccc(-c3c4nc(c(-c5ccccc5)c5ccc([nH]5)c(-c5ccccc5)c5nc(c(-c6ccccc6)c6ccc3[nH]6)C=C5)C=C4)cc2)CCN(C(=O)[C@H]2CCCCO2)CC1
REMARK SMILES IDX 13 1 12 2 10 3 11 4 9 5 66 6 78 7 67 8 77 9 68 10 69 11
REMARK SMILES IDX 70 12 8 13 7 14 1 15 2 16 3 17 4 18 6 19 5 20 71 21 72 22
REMARK SMILES IDX 76 23 73 24 75 25 74 26 14 27 15 28 16 29 17 30 18 31 19 32
REMARK SMILES IDX 65 33 20 34 64 35 21 36 22 37 23 38 58 39 24 40 63 41 57 42
REMARK SMILES IDX 59 43 25 44 62 45 56 46 55 47 26 49 48 50 33 51 47 52 34 53
REMARK SMILES IDX 37 54 46 55 60 56 35 57 36 58 45 60 61 61 38 62 27 63 28 64
REMARK SMILES IDX 32 65 29 66 31 67 30 68 49 69 50 70 54 71 51 72 53 73 52 74
REMARK SMILES IDX 39 75 40 76 44 77 41 78 43 79 42 80
REMARK H PARENT 59 48 37 59
REMARK Flexibility Score: inf
ROOT
ATOM      1  C   UNL A   1      33.388  27.659  26.563  1.00  0.00     0.274 C 
ENDROOT
BRANCH   1   2
ATOM      2  O   UNL A   1      33.867  26.396  26.069  1.00  0.00    -0.459 OA
BRANCH   2   3
ATOM      3  C   UNL A   1      32.840  25.570  25.686  1.00  0.00     0.350 C 
ATOM      4  O   UNL A   1      31.857  25.383  26.402  1.00  0.00    -0.247 OA
BRANCH   3   5
ATOM      5  C   UNL A   1      33.134  24.729  24.386  1.00  0.00     0.209 C 
ATOM      6  C   UNL A   1      34.635  24.510  24.554  1.00  0.00     0.082 C 
ATOM      7  C   UNL A   1      32.185  23.518  24.502  1.00  0.00     0.082 C 
ATOM      8  C   UNL A   1      35.029  23.170  25.135  1.00  0.00     0.124 C 
ATOM      9  C   UNL A   1      32.828  22.161  24.360  1.00  0.00     0.124 C 
ATOM     10  N   UNL A   1      34.204  22.010  24.808  1.00  0.00    -0.340 N 
ATOM     11  C   UNL A   1      34.844  20.768  24.919  1.00  0.00     0.251 C 
ATOM     12  O   UNL A   1      36.036  20.712  25.243  1.00  0.00    -0.272 OA
BRANCH   5  13
ATOM     13  O   UNL A   1      32.904  25.459  23.160  1.00  0.00    -0.475 OA
BRANCH  13  14
ATOM     14  C   UNL A   1      32.233  26.659  23.018  1.00  0.00     0.123 A 
ATOM     15  C   UNL A   1      34.043  28.574  23.043  1.00  0.00     0.048 C 
ATOM     16  C   UNL A   1      32.669  27.995  22.910  1.00  0.00    -0.009 A 
ATOM     17  C   UNL A   1      31.706  29.039  22.791  1.00  0.00     0.007 A 
ATOM     18  C   UNL A   1      30.341  28.806  22.846  1.00  0.00     0.001 A 
ATOM     19  C   UNL A   1      30.835  26.463  23.093  1.00  0.00     0.047 A 
ATOM     20  C   UNL A   1      29.903  27.509  23.014  1.00  0.00     0.004 A 
ENDBRANCH  13  14
ENDBRANCH   5  13
BRANCH  11  21
ATOM     21  C   UNL A   1      34.037  19.476  24.635  1.00  0.00     0.207 C 
ATOM     22  C   UNL A   1      34.975  18.297  24.349  1.00  0.00     0.042 C 
ATOM     23  O   UNL A   1      33.236  19.211  25.797  1.00  0.00    -0.368 OA
ATOM     24  C   UNL A   1      34.235  16.965  24.329  1.00  0.00     0.006 C 
ATOM     25  C   UNL A   1      32.463  18.025  25.707  1.00  0.00     0.161 C 
ATOM     26  C   UNL A   1      33.375  16.818  25.572  1.00  0.00     0.029 C 
ENDBRANCH  11  21
ENDBRANCH   3   5
ENDBRANCH   2   3
ENDBRANCH   1   2
BRANCH   1  27
ATOM     27  C   UNL A   1      34.450  28.762  26.632  1.00  0.00     0.275 C 
BRANCH  27  28
ATOM     28  O   UNL A   1      34.856  29.269  27.931  1.00  0.00    -0.458 OA
BRANCH  28  29
ATOM     29  C   UNL A   1      35.944  30.003  28.252  1.00  0.00     0.338 C 
ATOM     30  O   UNL A   1      35.872  31.202  28.528  1.00  0.00    -0.246 OA
BRANCH  29  31
ATOM     31  C   UNL A   1      37.236  29.316  28.312  1.00  0.00     0.060 A 
ATOM     32  C   UNL A   1      38.127  29.469  27.241  1.00  0.00     0.016 A 
ATOM     33  C   UNL A   1      37.595  28.603  29.451  1.00  0.00     0.016 A 
ATOM     34  C   UNL A   1      39.423  28.976  27.333  1.00  0.00     0.010 A 
ATOM     35  C   UNL A   1      38.903  28.195  29.588  1.00  0.00     0.010 A 
ATOM     36  C   UNL A   1      39.803  28.351  28.522  1.00  0.00    -0.014 A 
BRANCH  36  37
ATOM     37  C   UNL A   1      40.980  27.500  28.609  1.00  0.00     0.031 A 
ATOM     38  C   UNL A   1      40.946  26.053  28.339  1.00  0.00     0.074 A 
ATOM     39  C   UNL A   1      42.092  28.186  28.961  1.00  0.00     0.049 A 
ATOM     40  N   UNL A   1      41.690  25.181  28.934  1.00  0.00    -0.248 NA
ATOM     41  C   UNL A   1      40.020  25.449  27.384  1.00  0.00     0.031 C 
ATOM     42  C   UNL A   1      43.474  27.753  29.022  1.00  0.00     0.029 A 
ATOM     43  N   UNL A   1      42.115  29.459  29.557  1.00  0.00    -0.354 N 
ATOM     44  C   UNL A   1      41.577  23.999  28.227  1.00  0.00     0.074 A 
ATOM     45  C   UNL A   1      40.424  24.172  27.376  1.00  0.00     0.031 C 
ATOM     46  C   UNL A   1      44.120  28.557  29.890  1.00  0.00     0.029 A 
ATOM     47  C   UNL A   1      43.108  29.404  30.524  1.00  0.00     0.049 A 
ATOM     48  H   UNL A   1      41.546  30.231  29.332  1.00  0.00     0.167 HD
ATOM     49  C   UNL A   1      42.590  23.084  28.267  1.00  0.00     0.031 A 
ATOM     50  C   UNL A   1      42.808  29.424  31.857  1.00  0.00     0.031 A 
ATOM     51  C   UNL A   1      43.682  23.578  29.095  1.00  0.00     0.049 A 
ATOM     52  C   UNL A   1      43.357  28.189  32.525  1.00  0.00     0.074 A 
ATOM     53  C   UNL A   1      44.817  24.293  28.752  1.00  0.00     0.029 A 
ATOM     54  N   UNL A   1      43.516  23.711  30.465  1.00  0.00    -0.354 N 
ATOM     55  N   UNL A   1      43.375  27.008  31.969  1.00  0.00    -0.248 NA
ATOM     56  C   UNL A   1      43.975  28.216  33.845  1.00  0.00     0.031 C 
ATOM     57  C   UNL A   1      45.274  24.958  29.916  1.00  0.00     0.029 A 
ATOM     58  C   UNL A   1      44.439  24.609  30.964  1.00  0.00     0.049 A 
ATOM     59  H   UNL A   1      42.841  23.237  31.002  1.00  0.00     0.167 HD
ATOM     60  C   UNL A   1      44.114  26.169  32.762  1.00  0.00     0.074 A 
ATOM     61  C   UNL A   1      44.422  26.953  33.947  1.00  0.00     0.031 C 
ATOM     62  C   UNL A   1      44.486  24.913  32.383  1.00  0.00     0.031 A 
BRANCH  49  63
ATOM     63  C   UNL A   1      42.769  21.952  27.276  1.00  0.00    -0.014 A 
ATOM     64  C   UNL A   1      42.006  20.776  27.432  1.00  0.00     0.009 A 
ATOM     65  C   UNL A   1      43.680  21.954  26.209  1.00  0.00     0.009 A 
ATOM     66  C   UNL A   1      42.210  19.636  26.641  1.00  0.00     0.001 A 
ATOM     67  C   UNL A   1      43.909  20.806  25.427  1.00  0.00     0.001 A 
ATOM     68  C   UNL A   1      43.183  19.643  25.654  1.00  0.00     0.000 A 
ENDBRANCH  49  63
BRANCH  50  69
ATOM     69  C   UNL A   1      41.530  30.091  32.274  1.00  0.00    -0.014 A 
ATOM     70  C   UNL A   1      41.324  31.453  31.964  1.00  0.00     0.009 A 
ATOM     71  C   UNL A   1      40.436  29.370  32.778  1.00  0.00     0.009 A 
ATOM     72  C   UNL A   1      40.059  32.046  32.068  1.00  0.00     0.001 A 
ATOM     73  C   UNL A   1      39.172  29.971  32.906  1.00  0.00     0.001 A 
ATOM     74  C   UNL A   1      38.978  31.299  32.527  1.00  0.00     0.000 A 
ENDBRANCH  50  69
BRANCH  62  75
ATOM     75  C   UNL A   1      45.048  23.862  33.299  1.00  0.00    -0.014 A 
ATOM     76  C   UNL A   1      46.334  23.929  33.845  1.00  0.00     0.009 A 
ATOM     77  C   UNL A   1      44.196  22.844  33.784  1.00  0.00     0.009 A 
ATOM     78  C   UNL A   1      46.764  22.998  34.797  1.00  0.00     0.001 A 
ATOM     79  C   UNL A   1      44.603  21.947  34.769  1.00  0.00     0.001 A 
ATOM     80  C   UNL A   1      45.895  22.017  35.268  1.00  0.00     0.000 A 
ENDBRANCH  62  75
ENDBRANCH  36  37
ENDBRANCH  29  31
ENDBRANCH  28  29
ENDBRANCH  27  28
ENDBRANCH   1  27
TORSDOF 14
ENDMDL
