MODEL 1
REMARK VINA RESULT:     -10.8      0.000      0.000
REMARK SMILES C[C@@H](C(=O)OCCOC(=O)c1ccc(-c2c3nc(c(-c4ccccc4)c4ccc([nH]4)c(-c4ccccc4)c4nc(c(-c5ccccc5)c5ccc2[nH]5)C=C4)C=C3)cc1)c1ccccc1-c1ccn(C(F)F)c(=O)c1
REMARK SMILES IDX 6 1 5 2 3 3 4 4 2 5 1 6 59 7 60 8 64 9 61 10 63 11 62 12
REMARK SMILES IDX 65 13 66 14 74 15 67 16 72 17 68 18 73 19 69 20 70 21 71 22
REMARK SMILES IDX 7 23 8 24 9 25 10 26 11 27 12 28 58 29 13 30 57 31 14 32
REMARK SMILES IDX 15 33 16 34 51 35 17 36 56 37 50 38 52 39 18 40 55 41 49 42
REMARK SMILES IDX 48 43 19 45 41 46 26 47 40 48 27 49 30 50 39 51 53 52 28 53
REMARK SMILES IDX 29 54 38 56 54 57 31 58 20 59 21 60 25 61 22 62 24 63 23 64
REMARK SMILES IDX 42 65 43 66 47 67 44 68 46 69 45 70 32 71 33 72 37 73 34 74
REMARK SMILES IDX 36 75 35 76
REMARK H PARENT 52 44 30 55
REMARK Flexibility Score: inf
ROOT
ATOM      1  C   UNL A   1      31.607  31.271  26.488  1.00  0.00     0.274 C 
ENDROOT
BRANCH   1   2
ATOM      2  O   UNL A   1      32.563  30.459  27.202  1.00  0.00    -0.462 OA
BRANCH   2   3
ATOM      3  C   UNL A   1      32.432  29.109  27.102  1.00  0.00     0.313 C 
ATOM      4  O   UNL A   1      31.424  28.499  27.448  1.00  0.00    -0.252 OA
BRANCH   3   5
ATOM      5  C   UNL A   1      33.710  28.413  26.585  1.00  0.00     0.127 C 
ATOM      6  C   UNL A   1      34.982  29.120  27.053  1.00  0.00     0.025 C 
BRANCH   5   7
ATOM      7  C   UNL A   1      33.601  27.998  25.104  1.00  0.00    -0.026 A 
ATOM      8  C   UNL A   1      33.552  29.073  24.177  1.00  0.00     0.005 A 
ATOM      9  C   UNL A   1      33.578  26.687  24.568  1.00  0.00    -0.014 A 
ATOM     10  C   UNL A   1      33.508  28.873  22.796  1.00  0.00     0.000 A 
ATOM     11  C   UNL A   1      33.523  26.505  23.165  1.00  0.00     0.009 A 
ATOM     12  C   UNL A   1      33.493  27.586  22.287  1.00  0.00     0.001 A 
BRANCH   9  13
ATOM     13  C   UNL A   1      33.566  25.437  25.353  1.00  0.00    -0.011 A 
ATOM     14  C   UNL A   1      34.750  24.612  25.501  1.00  0.00     0.027 A 
ATOM     15  C   UNL A   1      32.443  25.082  26.002  1.00  0.00     0.080 A 
ATOM     16  C   UNL A   1      34.681  23.433  26.128  1.00  0.00     0.095 A 
ATOM     17  C   UNL A   1      32.377  23.815  26.784  1.00  0.00     0.255 A 
ATOM     18  N   UNL A   1      33.505  23.011  26.718  1.00  0.00    -0.258 N 
ATOM     19  O   UNL A   1      31.362  23.564  27.423  1.00  0.00    -0.269 OA
BRANCH  18  20
ATOM     20  C   UNL A   1      33.429  21.722  27.353  1.00  0.00     0.451 C 
ATOM     21  F   UNL A   1      33.227  20.739  26.444  1.00  0.00    -0.185 F 
ATOM     22  F   UNL A   1      34.565  21.439  28.038  1.00  0.00    -0.185 F 
ENDBRANCH  18  20
ENDBRANCH   9  13
ENDBRANCH   5   7
ENDBRANCH   3   5
ENDBRANCH   2   3
ENDBRANCH   1   2
BRANCH   1  23
ATOM     23  C   UNL A   1      31.450  32.645  27.138  1.00  0.00     0.275 C 
BRANCH  23  24
ATOM     24  O   UNL A   1      32.652  33.415  26.970  1.00  0.00    -0.458 OA
BRANCH  24  25
ATOM     25  C   UNL A   1      33.130  33.980  28.100  1.00  0.00     0.338 C 
ATOM     26  O   UNL A   1      32.577  34.793  28.820  1.00  0.00    -0.246 OA
BRANCH  25  27
ATOM     27  C   UNL A   1      34.405  33.343  28.449  1.00  0.00     0.060 A 
ATOM     28  C   UNL A   1      34.364  32.304  29.373  1.00  0.00     0.016 A 
ATOM     29  C   UNL A   1      35.624  33.831  27.985  1.00  0.00     0.016 A 
ATOM     30  C   UNL A   1      35.542  31.782  29.889  1.00  0.00     0.010 A 
ATOM     31  C   UNL A   1      36.813  33.261  28.462  1.00  0.00     0.010 A 
ATOM     32  C   UNL A   1      36.782  32.250  29.440  1.00  0.00    -0.014 A 
BRANCH  32  33
ATOM     33  C   UNL A   1      38.024  31.710  30.053  1.00  0.00     0.031 A 
ATOM     34  C   UNL A   1      38.544  32.291  31.340  1.00  0.00     0.074 A 
ATOM     35  C   UNL A   1      38.650  30.650  29.505  1.00  0.00     0.049 A 
ATOM     36  N   UNL A   1      39.664  32.032  31.968  1.00  0.00    -0.248 NA
ATOM     37  C   UNL A   1      37.694  33.287  32.010  1.00  0.00     0.031 C 
ATOM     38  C   UNL A   1      38.211  29.926  28.310  1.00  0.00     0.029 A 
ATOM     39  N   UNL A   1      39.778  29.976  29.903  1.00  0.00    -0.354 N 
ATOM     40  C   UNL A   1      39.679  32.873  33.072  1.00  0.00     0.074 A 
ATOM     41  C   UNL A   1      38.452  33.640  33.038  1.00  0.00     0.031 C 
ATOM     42  C   UNL A   1      39.029  28.883  28.102  1.00  0.00     0.029 A 
ATOM     43  C   UNL A   1      40.095  28.909  29.098  1.00  0.00     0.049 A 
ATOM     44  H   UNL A   1      40.310  30.234  30.691  1.00  0.00     0.167 HD
ATOM     45  C   UNL A   1      40.633  33.003  34.025  1.00  0.00     0.031 A 
ATOM     46  C   UNL A   1      41.142  28.064  29.136  1.00  0.00     0.031 A 
ATOM     47  C   UNL A   1      41.836  32.218  34.086  1.00  0.00     0.049 A 
ATOM     48  C   UNL A   1      42.212  28.261  30.170  1.00  0.00     0.074 A 
ATOM     49  C   UNL A   1      42.873  32.297  35.001  1.00  0.00     0.029 A 
ATOM     50  N   UNL A   1      42.155  31.196  33.208  1.00  0.00    -0.354 N 
ATOM     51  N   UNL A   1      42.259  29.124  31.155  1.00  0.00    -0.248 NA
ATOM     52  C   UNL A   1      43.388  27.384  30.079  1.00  0.00     0.031 C 
ATOM     53  C   UNL A   1      43.833  31.337  34.659  1.00  0.00     0.029 A 
ATOM     54  C   UNL A   1      43.375  30.641  33.553  1.00  0.00     0.049 A 
ATOM     55  H   UNL A   1      41.595  30.908  32.450  1.00  0.00     0.167 HD
ATOM     56  C   UNL A   1      43.469  28.898  31.796  1.00  0.00     0.074 A 
ATOM     57  C   UNL A   1      44.113  27.798  31.108  1.00  0.00     0.031 C 
ATOM     58  C   UNL A   1      44.004  29.552  32.854  1.00  0.00     0.031 A 
BRANCH  45  59
ATOM     59  C   UNL A   1      40.435  34.078  35.051  1.00  0.00    -0.014 A 
ATOM     60  C   UNL A   1      40.876  35.391  34.832  1.00  0.00     0.009 A 
ATOM     61  C   UNL A   1      39.772  33.770  36.249  1.00  0.00     0.009 A 
ATOM     62  C   UNL A   1      40.678  36.371  35.808  1.00  0.00     0.001 A 
ATOM     63  C   UNL A   1      39.559  34.755  37.214  1.00  0.00     0.001 A 
ATOM     64  C   UNL A   1      40.018  36.054  36.995  1.00  0.00     0.000 A 
ENDBRANCH  45  59
BRANCH  46  65
ATOM     65  C   UNL A   1      41.262  26.984  28.125  1.00  0.00    -0.014 A 
ATOM     66  C   UNL A   1      41.736  27.265  26.835  1.00  0.00     0.009 A 
ATOM     67  C   UNL A   1      40.892  25.668  28.443  1.00  0.00     0.009 A 
ATOM     68  C   UNL A   1      41.825  26.251  25.879  1.00  0.00     0.001 A 
ATOM     69  C   UNL A   1      41.006  24.652  27.493  1.00  0.00     0.001 A 
ATOM     70  C   UNL A   1      41.466  24.945  26.211  1.00  0.00     0.000 A 
ENDBRANCH  46  65
BRANCH  58  71
ATOM     71  C   UNL A   1      45.346  29.086  33.334  1.00  0.00    -0.014 A 
ATOM     72  C   UNL A   1      46.525  29.660  32.837  1.00  0.00     0.009 A 
ATOM     73  C   UNL A   1      45.430  28.086  34.314  1.00  0.00     0.009 A 
ATOM     74  C   UNL A   1      47.768  29.220  33.294  1.00  0.00     0.001 A 
ATOM     75  C   UNL A   1      46.674  27.662  34.782  1.00  0.00     0.001 A 
ATOM     76  C   UNL A   1      47.842  28.225  34.268  1.00  0.00     0.000 A 
ENDBRANCH  58  71
ENDBRANCH  32  33
ENDBRANCH  25  27
ENDBRANCH  24  25
ENDBRANCH  23  24
ENDBRANCH   1  23
TORSDOF 14
ENDMDL
MODEL 2
REMARK VINA RESULT:     -10.6      3.162      4.072
REMARK SMILES C[C@@H](C(=O)OCCOC(=O)c1ccc(-c2c3nc(c(-c4ccccc4)c4ccc([nH]4)c(-c4ccccc4)c4nc(c(-c5ccccc5)c5ccc2[nH]5)C=C4)C=C3)cc1)c1ccccc1-c1ccn(C(F)F)c(=O)c1
REMARK SMILES IDX 6 1 5 2 3 3 4 4 2 5 1 6 59 7 60 8 64 9 61 10 63 11 62 12
REMARK SMILES IDX 65 13 66 14 74 15 67 16 72 17 68 18 73 19 69 20 70 21 71 22
REMARK SMILES IDX 7 23 8 24 9 25 10 26 11 27 12 28 58 29 13 30 57 31 14 32
REMARK SMILES IDX 15 33 16 34 51 35 17 36 56 37 50 38 52 39 18 40 55 41 49 42
REMARK SMILES IDX 48 43 19 45 41 46 26 47 40 48 27 49 30 50 39 51 53 52 28 53
REMARK SMILES IDX 29 54 38 56 54 57 31 58 20 59 21 60 25 61 22 62 24 63 23 64
REMARK SMILES IDX 42 65 43 66 47 67 44 68 46 69 45 70 32 71 33 72 37 73 34 74
REMARK SMILES IDX 36 75 35 76
REMARK H PARENT 52 44 30 55
REMARK Flexibility Score: inf
ROOT
ATOM      1  C   UNL A   1      31.358  31.018  26.615  1.00  0.00     0.274 C 
ENDROOT
BRANCH   1   2
ATOM      2  O   UNL A   1      32.186  30.420  25.595  1.00  0.00    -0.462 OA
BRANCH   2   3
ATOM      3  C   UNL A   1      32.689  29.181  25.847  1.00  0.00     0.313 C 
ATOM      4  O   UNL A   1      33.873  28.889  25.706  1.00  0.00    -0.252 OA
BRANCH   3   5
ATOM      5  C   UNL A   1      31.604  28.159  26.249  1.00  0.00     0.127 C 
ATOM      6  C   UNL A   1      31.559  27.927  27.759  1.00  0.00     0.025 C 
BRANCH   5   7
ATOM      7  C   UNL A   1      31.571  26.932  25.315  1.00  0.00    -0.026 A 
ATOM      8  C   UNL A   1      32.273  25.792  25.789  1.00  0.00     0.005 A 
ATOM      9  C   UNL A   1      30.904  26.804  24.072  1.00  0.00    -0.014 A 
ATOM     10  C   UNL A   1      32.298  24.582  25.093  1.00  0.00     0.000 A 
ATOM     11  C   UNL A   1      30.949  25.572  23.376  1.00  0.00     0.009 A 
ATOM     12  C   UNL A   1      31.635  24.470  23.883  1.00  0.00     0.001 A 
BRANCH   9  13
ATOM     13  C   UNL A   1      30.166  27.877  23.377  1.00  0.00    -0.011 A 
ATOM     14  C   UNL A   1      30.827  28.809  22.482  1.00  0.00     0.027 A 
ATOM     15  C   UNL A   1      28.832  27.957  23.527  1.00  0.00     0.080 A 
ATOM     16  C   UNL A   1      30.152  29.834  21.952  1.00  0.00     0.095 A 
ATOM     17  C   UNL A   1      28.050  29.041  22.866  1.00  0.00     0.255 A 
ATOM     18  N   UNL A   1      28.797  29.983  22.177  1.00  0.00    -0.258 N 
ATOM     19  O   UNL A   1      26.828  29.036  22.965  1.00  0.00    -0.269 OA
BRANCH  18  20
ATOM     20  C   UNL A   1      28.088  31.114  21.637  1.00  0.00     0.451 C 
ATOM     21  F   UNL A   1      28.887  32.205  21.567  1.00  0.00    -0.185 F 
ATOM     22  F   UNL A   1      27.616  30.854  20.392  1.00  0.00    -0.185 F 
ENDBRANCH  18  20
ENDBRANCH   9  13
ENDBRANCH   5   7
ENDBRANCH   3   5
ENDBRANCH   2   3
ENDBRANCH   1   2
BRANCH   1  23
ATOM     23  C   UNL A   1      31.404  32.543  26.545  1.00  0.00     0.275 C 
BRANCH  23  24
ATOM     24  O   UNL A   1      32.767  33.001  26.557  1.00  0.00    -0.458 OA
BRANCH  24  25
ATOM     25  C   UNL A   1      33.160  33.593  27.705  1.00  0.00     0.338 C 
ATOM     26  O   UNL A   1      32.550  34.414  28.369  1.00  0.00    -0.246 OA
BRANCH  25  27
ATOM     27  C   UNL A   1      34.414  32.977  28.154  1.00  0.00     0.060 A 
ATOM     28  C   UNL A   1      34.396  31.609  28.407  1.00  0.00     0.016 A 
ATOM     29  C   UNL A   1      35.546  33.736  28.445  1.00  0.00     0.016 A 
ATOM     30  C   UNL A   1      35.485  30.997  29.010  1.00  0.00     0.010 A 
ATOM     31  C   UNL A   1      36.668  33.104  28.998  1.00  0.00     0.010 A 
ATOM     32  C   UNL A   1      36.637  31.732  29.311  1.00  0.00    -0.014 A 
BRANCH  32  33
ATOM     33  C   UNL A   1      37.764  31.059  30.007  1.00  0.00     0.031 A 
ATOM     34  C   UNL A   1      37.975  31.270  31.482  1.00  0.00     0.074 A 
ATOM     35  C   UNL A   1      38.558  30.196  29.343  1.00  0.00     0.049 A 
ATOM     36  N   UNL A   1      38.961  30.861  32.241  1.00  0.00    -0.248 NA
ATOM     37  C   UNL A   1      36.941  32.035  32.197  1.00  0.00     0.031 C 
ATOM     38  C   UNL A   1      38.419  29.823  27.933  1.00  0.00     0.029 A 
ATOM     39  N   UNL A   1      39.627  29.451  29.777  1.00  0.00    -0.354 N 
ATOM     40  C   UNL A   1      38.696  31.367  33.506  1.00  0.00     0.074 A 
ATOM     41  C   UNL A   1      37.452  32.101  33.418  1.00  0.00     0.031 C 
ATOM     42  C   UNL A   1      39.331  28.886  27.634  1.00  0.00     0.029 A 
ATOM     43  C   UNL A   1      40.171  28.649  28.803  1.00  0.00     0.049 A 
ATOM     44  H   UNL A   1      39.971  29.489  30.699  1.00  0.00     0.167 HD
ATOM     45  C   UNL A   1      39.429  31.242  34.638  1.00  0.00     0.031 A 
ATOM     46  C   UNL A   1      41.244  27.838  28.835  1.00  0.00     0.031 A 
ATOM     47  C   UNL A   1      40.646  30.483  34.743  1.00  0.00     0.049 A 
ATOM     48  C   UNL A   1      42.069  27.755  30.087  1.00  0.00     0.074 A 
ATOM     49  C   UNL A   1      41.470  30.320  35.843  1.00  0.00     0.029 A 
ATOM     50  N   UNL A   1      41.203  29.745  33.712  1.00  0.00    -0.354 N 
ATOM     51  N   UNL A   1      41.858  28.316  31.252  1.00  0.00    -0.248 NA
ATOM     52  C   UNL A   1      43.297  26.950  30.017  1.00  0.00     0.031 C 
ATOM     53  C   UNL A   1      42.542  29.500  35.470  1.00  0.00     0.029 A 
ATOM     54  C   UNL A   1      42.364  29.129  34.147  1.00  0.00     0.049 A 
ATOM     55  H   UNL A   1      40.828  29.669  32.804  1.00  0.00     0.167 HD
ATOM     56  C   UNL A   1      42.928  27.936  32.052  1.00  0.00     0.074 A 
ATOM     57  C   UNL A   1      43.770  27.074  31.249  1.00  0.00     0.031 C 
ATOM     58  C   UNL A   1      43.194  28.281  33.334  1.00  0.00     0.031 A 
BRANCH  45  59
ATOM     59  C   UNL A   1      38.956  31.992  35.847  1.00  0.00    -0.014 A 
ATOM     60  C   UNL A   1      38.110  31.398  36.795  1.00  0.00     0.009 A 
ATOM     61  C   UNL A   1      39.389  33.312  36.050  1.00  0.00     0.009 A 
ATOM     62  C   UNL A   1      37.685  32.123  37.911  1.00  0.00     0.001 A 
ATOM     63  C   UNL A   1      38.979  34.027  37.175  1.00  0.00     0.001 A 
ATOM     64  C   UNL A   1      38.122  33.434  38.101  1.00  0.00     0.000 A 
ENDBRANCH  45  59
BRANCH  46  65
ATOM     65  C   UNL A   1      41.638  27.077  27.623  1.00  0.00    -0.014 A 
ATOM     66  C   UNL A   1      41.186  25.764  27.429  1.00  0.00     0.009 A 
ATOM     67  C   UNL A   1      42.477  27.659  26.660  1.00  0.00     0.009 A 
ATOM     68  C   UNL A   1      41.578  25.042  26.300  1.00  0.00     0.001 A 
ATOM     69  C   UNL A   1      42.846  26.944  25.520  1.00  0.00     0.001 A 
ATOM     70  C   UNL A   1      42.403  25.635  25.343  1.00  0.00     0.000 A 
ENDBRANCH  46  65
BRANCH  58  71
ATOM     71  C   UNL A   1      44.440  27.716  33.946  1.00  0.00    -0.014 A 
ATOM     72  C   UNL A   1      44.423  26.470  34.591  1.00  0.00     0.009 A 
ATOM     73  C   UNL A   1      45.649  28.422  33.851  1.00  0.00     0.009 A 
ATOM     74  C   UNL A   1      45.590  25.953  35.153  1.00  0.00     0.001 A 
ATOM     75  C   UNL A   1      46.818  27.892  34.398  1.00  0.00     0.001 A 
ATOM     76  C   UNL A   1      46.787  26.662  35.054  1.00  0.00     0.000 A 
ENDBRANCH  58  71
ENDBRANCH  32  33
ENDBRANCH  25  27
ENDBRANCH  24  25
ENDBRANCH  23  24
ENDBRANCH   1  23
TORSDOF 14
ENDMDL
MODEL 3
REMARK VINA RESULT:     -10.6      4.484      8.442
REMARK SMILES C[C@@H](C(=O)OCCOC(=O)c1ccc(-c2c3nc(c(-c4ccccc4)c4ccc([nH]4)c(-c4ccccc4)c4nc(c(-c5ccccc5)c5ccc2[nH]5)C=C4)C=C3)cc1)c1ccccc1-c1ccn(C(F)F)c(=O)c1
REMARK SMILES IDX 6 1 5 2 3 3 4 4 2 5 1 6 59 7 60 8 64 9 61 10 63 11 62 12
REMARK SMILES IDX 65 13 66 14 74 15 67 16 72 17 68 18 73 19 69 20 70 21 71 22
REMARK SMILES IDX 7 23 8 24 9 25 10 26 11 27 12 28 58 29 13 30 57 31 14 32
REMARK SMILES IDX 15 33 16 34 51 35 17 36 56 37 50 38 52 39 18 40 55 41 49 42
REMARK SMILES IDX 48 43 19 45 41 46 26 47 40 48 27 49 30 50 39 51 53 52 28 53
REMARK SMILES IDX 29 54 38 56 54 57 31 58 20 59 21 60 25 61 22 62 24 63 23 64
REMARK SMILES IDX 42 65 43 66 47 67 44 68 46 69 45 70 32 71 33 72 37 73 34 74
REMARK SMILES IDX 36 75 35 76
REMARK H PARENT 52 44 30 55
REMARK Flexibility Score: inf
ROOT
ATOM      1  C   UNL A   1      38.595  21.549  25.753  1.00  0.00     0.274 C 
ENDROOT
BRANCH   1   2
ATOM      2  O   UNL A   1      37.611  21.872  24.747  1.00  0.00    -0.462 OA
BRANCH   2   3
ATOM      3  C   UNL A   1      36.303  21.814  25.115  1.00  0.00     0.313 C 
ATOM      4  O   UNL A   1      35.922  21.380  26.199  1.00  0.00    -0.252 OA
BRANCH   3   5
ATOM      5  C   UNL A   1      35.340  22.273  23.999  1.00  0.00     0.127 C 
ATOM      6  C   UNL A   1      36.019  23.205  22.996  1.00  0.00     0.025 C 
BRANCH   5   7
ATOM      7  C   UNL A   1      33.949  22.662  24.540  1.00  0.00    -0.026 A 
ATOM      8  C   UNL A   1      33.774  24.044  24.821  1.00  0.00     0.005 A 
ATOM      9  C   UNL A   1      32.832  21.818  24.754  1.00  0.00    -0.014 A 
ATOM     10  C   UNL A   1      32.561  24.572  25.264  1.00  0.00     0.000 A 
ATOM     11  C   UNL A   1      31.613  22.371  25.214  1.00  0.00     0.009 A 
ATOM     12  C   UNL A   1      31.476  23.735  25.462  1.00  0.00     0.001 A 
BRANCH   9  13
ATOM     13  C   UNL A   1      32.815  20.352  24.578  1.00  0.00    -0.011 A 
ATOM     14  C   UNL A   1      32.984  19.442  25.695  1.00  0.00     0.027 A 
ATOM     15  C   UNL A   1      32.574  19.843  23.357  1.00  0.00     0.080 A 
ATOM     16  C   UNL A   1      33.071  18.123  25.488  1.00  0.00     0.095 A 
ATOM     17  C   UNL A   1      32.575  18.370  23.126  1.00  0.00     0.255 A 
ATOM     18  N   UNL A   1      32.922  17.593  24.221  1.00  0.00    -0.258 N 
ATOM     19  O   UNL A   1      32.276  17.942  22.017  1.00  0.00    -0.269 OA
BRANCH  18  20
ATOM     20  C   UNL A   1      33.059  16.177  24.002  1.00  0.00     0.451 C 
ATOM     21  F   UNL A   1      34.236  15.887  23.399  1.00  0.00    -0.185 F 
ATOM     22  F   UNL A   1      33.001  15.487  25.168  1.00  0.00    -0.185 F 
ENDBRANCH  18  20
ENDBRANCH   9  13
ENDBRANCH   5   7
ENDBRANCH   3   5
ENDBRANCH   2   3
ENDBRANCH   1   2
BRANCH   1  23
ATOM     23  C   UNL A   1      39.153  20.141  25.553  1.00  0.00     0.275 C 
BRANCH  23  24
ATOM     24  O   UNL A   1      40.193  19.877  26.510  1.00  0.00    -0.458 OA
BRANCH  24  25
ATOM     25  C   UNL A   1      41.451  19.998  26.034  1.00  0.00     0.338 C 
ATOM     26  O   UNL A   1      42.017  19.280  25.228  1.00  0.00    -0.246 OA
BRANCH  25  27
ATOM     27  C   UNL A   1      42.027  21.257  26.523  1.00  0.00     0.060 A 
ATOM     28  C   UNL A   1      42.066  21.446  27.900  1.00  0.00     0.016 A 
ATOM     29  C   UNL A   1      42.400  22.282  25.656  1.00  0.00     0.016 A 
ATOM     30  C   UNL A   1      42.421  22.680  28.426  1.00  0.00     0.010 A 
ATOM     31  C   UNL A   1      42.816  23.509  26.191  1.00  0.00     0.010 A 
ATOM     32  C   UNL A   1      42.803  23.728  27.581  1.00  0.00    -0.014 A 
BRANCH  32  33
ATOM     33  C   UNL A   1      43.123  25.053  28.171  1.00  0.00     0.031 A 
ATOM     34  C   UNL A   1      42.022  26.039  28.453  1.00  0.00     0.074 A 
ATOM     35  C   UNL A   1      44.387  25.354  28.530  1.00  0.00     0.049 A 
ATOM     36  N   UNL A   1      42.111  27.281  28.860  1.00  0.00    -0.248 NA
ATOM     37  C   UNL A   1      40.642  25.567  28.257  1.00  0.00     0.031 C 
ATOM     38  C   UNL A   1      45.543  24.463  28.401  1.00  0.00     0.029 A 
ATOM     39  N   UNL A   1      44.906  26.487  29.106  1.00  0.00    -0.354 N 
ATOM     40  C   UNL A   1      40.807  27.754  28.912  1.00  0.00     0.074 A 
ATOM     41  C   UNL A   1      39.943  26.665  28.510  1.00  0.00     0.031 C 
ATOM     42  C   UNL A   1      46.621  25.063  28.929  1.00  0.00     0.029 A 
ATOM     43  C   UNL A   1      46.253  26.408  29.360  1.00  0.00     0.049 A 
ATOM     44  H   UNL A   1      44.363  27.281  29.318  1.00  0.00     0.167 HD
ATOM     45  C   UNL A   1      40.368  28.989  29.255  1.00  0.00     0.031 A 
ATOM     46  C   UNL A   1      47.107  27.324  29.853  1.00  0.00     0.031 A 
ATOM     47  C   UNL A   1      41.215  30.065  29.692  1.00  0.00     0.049 A 
ATOM     48  C   UNL A   1      46.605  28.701  30.177  1.00  0.00     0.074 A 
ATOM     49  C   UNL A   1      40.862  31.359  30.036  1.00  0.00     0.029 A 
ATOM     50  N   UNL A   1      42.586  29.966  29.864  1.00  0.00    -0.354 N 
ATOM     51  N   UNL A   1      45.380  29.164  30.132  1.00  0.00    -0.248 NA
ATOM     52  C   UNL A   1      47.610  29.690  30.592  1.00  0.00     0.031 C 
ATOM     53  C   UNL A   1      42.025  32.051  30.393  1.00  0.00     0.029 A 
ATOM     54  C   UNL A   1      43.095  31.176  30.302  1.00  0.00     0.049 A 
ATOM     55  H   UNL A   1      43.119  29.154  29.699  1.00  0.00     0.167 HD
ATOM     56  C   UNL A   1      45.468  30.498  30.507  1.00  0.00     0.074 A 
ATOM     57  C   UNL A   1      46.860  30.763  30.805  1.00  0.00     0.031 C 
ATOM     58  C   UNL A   1      44.483  31.424  30.587  1.00  0.00     0.031 A 
BRANCH  45  59
ATOM     59  C   UNL A   1      38.899  29.257  29.115  1.00  0.00    -0.014 A 
ATOM     60  C   UNL A   1      38.339  29.656  27.892  1.00  0.00     0.009 A 
ATOM     61  C   UNL A   1      38.060  29.082  30.227  1.00  0.00     0.009 A 
ATOM     62  C   UNL A   1      36.967  29.899  27.794  1.00  0.00     0.001 A 
ATOM     63  C   UNL A   1      36.687  29.307  30.120  1.00  0.00     0.001 A 
ATOM     64  C   UNL A   1      36.143  29.722  28.905  1.00  0.00     0.000 A 
ENDBRANCH  45  59
BRANCH  46  65
ATOM     65  C   UNL A   1      48.544  26.988  30.019  1.00  0.00    -0.014 A 
ATOM     66  C   UNL A   1      49.452  27.212  28.974  1.00  0.00     0.009 A 
ATOM     67  C   UNL A   1      49.010  26.433  31.221  1.00  0.00     0.009 A 
ATOM     68  C   UNL A   1      50.798  26.873  29.125  1.00  0.00     0.001 A 
ATOM     69  C   UNL A   1      50.361  26.119  31.377  1.00  0.00     0.001 A 
ATOM     70  C   UNL A   1      51.252  26.332  30.328  1.00  0.00     0.000 A 
ENDBRANCH  46  65
BRANCH  58  71
ATOM     71  C   UNL A   1      44.880  32.803  31.021  1.00  0.00    -0.014 A 
ATOM     72  C   UNL A   1      45.228  33.781  30.078  1.00  0.00     0.009 A 
ATOM     73  C   UNL A   1      44.876  33.136  32.384  1.00  0.00     0.009 A 
ATOM     74  C   UNL A   1      45.592  35.062  30.494  1.00  0.00     0.001 A 
ATOM     75  C   UNL A   1      45.223  34.423  32.796  1.00  0.00     0.001 A 
ATOM     76  C   UNL A   1      45.586  35.383  31.852  1.00  0.00     0.000 A 
ENDBRANCH  58  71
ENDBRANCH  32  33
ENDBRANCH  25  27
ENDBRANCH  24  25
ENDBRANCH  23  24
ENDBRANCH   1  23
TORSDOF 14
ENDMDL
