MODEL 1
REMARK VINA RESULT:     -11.1      0.000      0.000
REMARK SMILES O=C(OCCOC(=O)[C@@H]1CS[C@H](c2ncc(-c3ccccc3)s2)[NH2+]1)c1ccc(-c2c3nc(c(-c4ccccc4)c4ccc([nH]4)c(-c4ccccc4)c4nc(c(-c5ccccc5)c5ccc2[nH]5)C=C4)C=C3)cc1
REMARK SMILES IDX 4 1 3 2 2 3 1 4 25 5 26 6 72 7 27 8 71 9 28 10 29 11 30 12
REMARK SMILES IDX 65 13 31 14 70 15 64 16 66 17 32 18 69 19 63 20 62 21 33 23
REMARK SMILES IDX 55 24 40 25 54 26 41 27 44 28 53 29 67 30 42 31 43 32 52 34
REMARK SMILES IDX 68 35 45 36 34 37 35 38 39 39 36 40 38 41 37 42 56 43 57 44
REMARK SMILES IDX 61 45 58 46 60 47 59 48 46 49 47 50 51 51 48 52 50 53 49 54
REMARK SMILES IDX 5 55 6 56 7 57 8 58 9 59 10 60 24 61 11 62 12 63 13 66 14 67
REMARK SMILES IDX 23 68 15 69 16 70 17 71 18 72 22 73 19 74 21 75 20 76
REMARK H PARENT 66 22 44 33 24 64 24 65
REMARK Flexibility Score: inf
ROOT
ATOM      1  C   UNL A   1      37.206  21.702  24.749  1.00  0.00     0.275 C 
ENDROOT
BRANCH   1   2
ATOM      2  O   UNL A   1      37.978  21.196  25.846  1.00  0.00    -0.458 OA
BRANCH   2   3
ATOM      3  C   UNL A   1      39.278  21.453  26.126  1.00  0.00     0.338 C 
ATOM      4  O   UNL A   1      40.092  20.533  26.124  1.00  0.00    -0.246 OA
BRANCH   3   5
ATOM      5  C   UNL A   1      39.707  22.777  26.661  1.00  0.00     0.060 A 
ATOM      6  C   UNL A   1      39.162  24.009  26.295  1.00  0.00     0.016 A 
ATOM      7  C   UNL A   1      40.744  22.760  27.615  1.00  0.00     0.016 A 
ATOM      8  C   UNL A   1      39.581  25.186  26.908  1.00  0.00     0.010 A 
ATOM      9  C   UNL A   1      41.155  23.936  28.250  1.00  0.00     0.010 A 
ATOM     10  C   UNL A   1      40.585  25.159  27.879  1.00  0.00    -0.014 A 
BRANCH  10  11
ATOM     11  C   UNL A   1      41.181  26.448  28.285  1.00  0.00     0.031 A 
ATOM     12  C   UNL A   1      42.503  26.810  27.673  1.00  0.00     0.074 A 
ATOM     13  C   UNL A   1      40.493  27.321  29.045  1.00  0.00     0.049 A 
ATOM     14  N   UNL A   1      43.157  27.939  27.719  1.00  0.00    -0.248 NA
ATOM     15  C   UNL A   1      43.176  25.756  26.894  1.00  0.00     0.031 C 
ATOM     16  C   UNL A   1      39.180  27.076  29.647  1.00  0.00     0.029 A 
ATOM     17  N   UNL A   1      40.789  28.610  29.406  1.00  0.00    -0.354 N 
ATOM     18  C   UNL A   1      44.314  27.723  26.980  1.00  0.00     0.074 A 
ATOM     19  C   UNL A   1      44.305  26.347  26.549  1.00  0.00     0.031 C 
ATOM     20  C   UNL A   1      38.767  28.195  30.269  1.00  0.00     0.029 A 
ATOM     21  C   UNL A   1      39.789  29.227  30.121  1.00  0.00     0.049 A 
ATOM     22  H   UNL A   1      41.637  29.054  29.174  1.00  0.00     0.167 HD
ATOM     23  C   UNL A   1      45.289  28.603  26.660  1.00  0.00     0.031 A 
ATOM     24  C   UNL A   1      39.709  30.492  30.578  1.00  0.00     0.031 A 
ATOM     25  C   UNL A   1      45.293  29.966  27.100  1.00  0.00     0.049 A 
ATOM     26  C   UNL A   1      40.839  31.438  30.259  1.00  0.00     0.074 A 
ATOM     27  C   UNL A   1      46.234  30.950  26.867  1.00  0.00     0.029 A 
ATOM     28  N   UNL A   1      44.290  30.533  27.873  1.00  0.00    -0.354 N 
ATOM     29  N   UNL A   1      41.912  31.231  29.532  1.00  0.00    -0.248 NA
ATOM     30  C   UNL A   1      40.736  32.798  30.806  1.00  0.00     0.031 C 
ATOM     31  C   UNL A   1      45.818  32.105  27.541  1.00  0.00     0.029 A 
ATOM     32  C   UNL A   1      44.592  31.853  28.140  1.00  0.00     0.049 A 
ATOM     33  H   UNL A   1      43.482  30.064  28.184  1.00  0.00     0.167 HD
ATOM     34  C   UNL A   1      42.592  32.442  29.502  1.00  0.00     0.074 A 
ATOM     35  C   UNL A   1      41.800  33.381  30.272  1.00  0.00     0.031 C 
ATOM     36  C   UNL A   1      43.764  32.757  28.897  1.00  0.00     0.031 A 
BRANCH  23  37
ATOM     37  C   UNL A   1      46.428  28.068  25.840  1.00  0.00    -0.014 A 
ATOM     38  C   UNL A   1      46.403  28.117  24.435  1.00  0.00     0.009 A 
ATOM     39  C   UNL A   1      47.496  27.422  26.478  1.00  0.00     0.009 A 
ATOM     40  C   UNL A   1      47.392  27.474  23.687  1.00  0.00     0.001 A 
ATOM     41  C   UNL A   1      48.501  26.807  25.728  1.00  0.00     0.001 A 
ATOM     42  C   UNL A   1      48.438  26.818  24.334  1.00  0.00     0.000 A 
ENDBRANCH  23  37
BRANCH  24  43
ATOM     43  C   UNL A   1      38.525  30.955  31.356  1.00  0.00    -0.014 A 
ATOM     44  C   UNL A   1      37.419  31.533  30.709  1.00  0.00     0.009 A 
ATOM     45  C   UNL A   1      38.512  30.869  32.758  1.00  0.00     0.009 A 
ATOM     46  C   UNL A   1      36.349  32.047  31.449  1.00  0.00     0.001 A 
ATOM     47  C   UNL A   1      37.428  31.357  33.492  1.00  0.00     0.001 A 
ATOM     48  C   UNL A   1      36.355  31.958  32.840  1.00  0.00     0.000 A 
ENDBRANCH  24  43
BRANCH  36  49
ATOM     49  C   UNL A   1      44.227  34.182  28.999  1.00  0.00    -0.014 A 
ATOM     50  C   UNL A   1      45.128  34.589  29.993  1.00  0.00     0.009 A 
ATOM     51  C   UNL A   1      43.801  35.112  28.038  1.00  0.00     0.009 A 
ATOM     52  C   UNL A   1      45.570  35.912  30.041  1.00  0.00     0.001 A 
ATOM     53  C   UNL A   1      44.270  36.425  28.068  1.00  0.00     0.001 A 
ATOM     54  C   UNL A   1      45.147  36.825  29.075  1.00  0.00     0.000 A 
ENDBRANCH  36  49
ENDBRANCH  10  11
ENDBRANCH   3   5
ENDBRANCH   2   3
ENDBRANCH   1   2
BRANCH   1  55
ATOM     55  C   UNL A   1      35.871  22.324  25.164  1.00  0.00     0.274 C 
BRANCH  55  56
ATOM     56  O   UNL A   1      35.822  23.755  24.993  1.00  0.00    -0.458 OA
BRANCH  56  57
ATOM     57  C   UNL A   1      35.116  24.193  23.900  1.00  0.00     0.365 C 
ATOM     58  O   UNL A   1      35.398  23.895  22.751  1.00  0.00    -0.245 OA
BRANCH  57  59
ATOM     59  C   UNL A   1      34.039  25.230  24.290  1.00  0.00     0.304 C 
ATOM     60  C   UNL A   1      33.647  25.183  25.760  1.00  0.00     0.153 C 
ATOM     61  N   UNL A   1      32.817  25.088  23.424  1.00  0.00    -0.317 N 
ATOM     62  S   UNL A   1      31.874  25.477  25.781  1.00  0.00    -0.085 SA
ATOM     63  C   UNL A   1      31.706  24.538  24.234  1.00  0.00     0.303 C 
ATOM     64  H   UNL A   1      33.019  24.456  22.650  1.00  0.00     0.348 HD
ATOM     65  H   UNL A   1      32.552  26.000  23.054  1.00  0.00     0.348 HD
BRANCH  63  66
ATOM     66  C   UNL A   1      31.766  23.030  24.472  1.00  0.00     0.162 A 
ATOM     67  N   UNL A   1      31.442  22.424  25.603  1.00  0.00    -0.242 NA
ATOM     68  S   UNL A   1      32.295  21.957  23.224  1.00  0.00    -0.112 S 
ATOM     69  C   UNL A   1      31.779  21.085  25.540  1.00  0.00     0.132 A 
ATOM     70  C   UNL A   1      32.341  20.668  24.352  1.00  0.00     0.055 A 
BRANCH  70  71
ATOM     71  C   UNL A   1      32.975  19.405  23.999  1.00  0.00    -0.007 A 
ATOM     72  C   UNL A   1      32.373  18.582  23.037  1.00  0.00     0.009 A 
ATOM     73  C   UNL A   1      34.146  18.969  24.627  1.00  0.00     0.009 A 
ATOM     74  C   UNL A   1      32.902  17.327  22.736  1.00  0.00     0.001 A 
ATOM     75  C   UNL A   1      34.687  17.720  24.312  1.00  0.00     0.001 A 
ATOM     76  C   UNL A   1      34.059  16.894  23.378  1.00  0.00     0.000 A 
ENDBRANCH  70  71
ENDBRANCH  63  66
ENDBRANCH  57  59
ENDBRANCH  56  57
ENDBRANCH  55  56
ENDBRANCH   1  55
TORSDOF 13
ENDMDL
MODEL 2
REMARK VINA RESULT:     -11.1      3.411      6.791
REMARK SMILES O=C(OCCOC(=O)[C@@H]1CS[C@H](c2ncc(-c3ccccc3)s2)[NH2+]1)c1ccc(-c2c3nc(c(-c4ccccc4)c4ccc([nH]4)c(-c4ccccc4)c4nc(c(-c5ccccc5)c5ccc2[nH]5)C=C4)C=C3)cc1
REMARK SMILES IDX 4 1 3 2 2 3 1 4 25 5 26 6 72 7 27 8 71 9 28 10 29 11 30 12
REMARK SMILES IDX 65 13 31 14 70 15 64 16 66 17 32 18 69 19 63 20 62 21 33 23
REMARK SMILES IDX 55 24 40 25 54 26 41 27 44 28 53 29 67 30 42 31 43 32 52 34
REMARK SMILES IDX 68 35 45 36 34 37 35 38 39 39 36 40 38 41 37 42 56 43 57 44
REMARK SMILES IDX 61 45 58 46 60 47 59 48 46 49 47 50 51 51 48 52 50 53 49 54
REMARK SMILES IDX 5 55 6 56 7 57 8 58 9 59 10 60 24 61 11 62 12 63 13 66 14 67
REMARK SMILES IDX 23 68 15 69 16 70 17 71 18 72 22 73 19 74 21 75 20 76
REMARK H PARENT 66 22 44 33 24 64 24 65
REMARK Flexibility Score: inf
ROOT
ATOM      1  C   UNL A   1      33.766  28.733  27.131  1.00  0.00     0.275 C 
ENDROOT
BRANCH   1   2
ATOM      2  O   UNL A   1      33.697  30.090  27.590  1.00  0.00    -0.458 OA
BRANCH   2   3
ATOM      3  C   UNL A   1      34.685  30.815  28.170  1.00  0.00     0.338 C 
ATOM      4  O   UNL A   1      34.567  32.033  28.266  1.00  0.00    -0.246 OA
BRANCH   3   5
ATOM      5  C   UNL A   1      36.009  30.204  28.485  1.00  0.00     0.060 A 
ATOM      6  C   UNL A   1      36.358  29.625  29.705  1.00  0.00     0.016 A 
ATOM      7  C   UNL A   1      36.966  30.221  27.452  1.00  0.00     0.016 A 
ATOM      8  C   UNL A   1      37.597  29.014  29.876  1.00  0.00     0.010 A 
ATOM      9  C   UNL A   1      38.203  29.590  27.610  1.00  0.00     0.010 A 
ATOM     10  C   UNL A   1      38.530  29.001  28.837  1.00  0.00    -0.014 A 
BRANCH  10  11
ATOM     11  C   UNL A   1      39.913  28.597  29.162  1.00  0.00     0.031 A 
ATOM     12  C   UNL A   1      40.331  27.213  28.756  1.00  0.00     0.074 A 
ATOM     13  C   UNL A   1      40.796  29.483  29.659  1.00  0.00     0.049 A 
ATOM     14  N   UNL A   1      41.518  26.670  28.763  1.00  0.00    -0.248 NA
ATOM     15  C   UNL A   1      39.265  26.324  28.262  1.00  0.00     0.031 C 
ATOM     16  C   UNL A   1      40.492  30.864  30.041  1.00  0.00     0.029 A 
ATOM     17  N   UNL A   1      42.142  29.364  29.887  1.00  0.00    -0.354 N 
ATOM     18  C   UNL A   1      41.334  25.380  28.282  1.00  0.00     0.074 A 
ATOM     19  C   UNL A   1      39.923  25.199  28.050  1.00  0.00     0.031 C 
ATOM     20  C   UNL A   1      41.630  31.475  30.419  1.00  0.00     0.029 A 
ATOM     21  C   UNL A   1      42.736  30.527  30.318  1.00  0.00     0.049 A 
ATOM     22  H   UNL A   1      42.639  28.524  29.753  1.00  0.00     0.167 HD
ATOM     23  C   UNL A   1      42.264  24.432  28.025  1.00  0.00     0.031 A 
ATOM     24  C   UNL A   1      44.032  30.791  30.575  1.00  0.00     0.031 A 
ATOM     25  C   UNL A   1      43.664  24.620  28.267  1.00  0.00     0.049 A 
ATOM     26  C   UNL A   1      45.042  29.698  30.339  1.00  0.00     0.074 A 
ATOM     27  C   UNL A   1      44.703  23.730  28.076  1.00  0.00     0.029 A 
ATOM     28  N   UNL A   1      44.213  25.793  28.762  1.00  0.00    -0.354 N 
ATOM     29  N   UNL A   1      44.860  28.492  29.852  1.00  0.00    -0.248 NA
ATOM     30  C   UNL A   1      46.440  30.009  30.666  1.00  0.00     0.031 C 
ATOM     31  C   UNL A   1      45.882  24.356  28.499  1.00  0.00     0.029 A 
ATOM     32  C   UNL A   1      45.580  25.651  28.895  1.00  0.00     0.049 A 
ATOM     33  H   UNL A   1      43.706  26.607  28.983  1.00  0.00     0.167 HD
ATOM     34  C   UNL A   1      46.122  27.915  29.780  1.00  0.00     0.074 A 
ATOM     35  C   UNL A   1      47.060  28.911  30.258  1.00  0.00     0.031 C 
ATOM     36  C   UNL A   1      46.480  26.677  29.359  1.00  0.00     0.031 A 
BRANCH  23  37
ATOM     37  C   UNL A   1      41.753  23.119  27.506  1.00  0.00    -0.014 A 
ATOM     38  C   UNL A   1      41.341  22.098  28.380  1.00  0.00     0.009 A 
ATOM     39  C   UNL A   1      41.771  22.866  26.127  1.00  0.00     0.009 A 
ATOM     40  C   UNL A   1      41.021  20.831  27.888  1.00  0.00     0.001 A 
ATOM     41  C   UNL A   1      41.420  21.607  25.634  1.00  0.00     0.001 A 
ATOM     42  C   UNL A   1      41.063  20.587  26.516  1.00  0.00     0.000 A 
ENDBRANCH  23  37
BRANCH  24  43
ATOM     43  C   UNL A   1      44.462  32.135  31.055  1.00  0.00    -0.014 A 
ATOM     44  C   UNL A   1      44.577  32.407  32.429  1.00  0.00     0.009 A 
ATOM     45  C   UNL A   1      44.713  33.173  30.142  1.00  0.00     0.009 A 
ATOM     46  C   UNL A   1      44.895  33.693  32.876  1.00  0.00     0.001 A 
ATOM     47  C   UNL A   1      45.059  34.450  30.593  1.00  0.00     0.001 A 
ATOM     48  C   UNL A   1      45.136  34.713  31.958  1.00  0.00     0.000 A 
ENDBRANCH  24  43
BRANCH  36  49
ATOM     49  C   UNL A   1      47.946  26.354  29.346  1.00  0.00    -0.014 A 
ATOM     50  C   UNL A   1      48.572  25.752  30.447  1.00  0.00     0.009 A 
ATOM     51  C   UNL A   1      48.692  26.598  28.183  1.00  0.00     0.009 A 
ATOM     52  C   UNL A   1      49.929  25.429  30.393  1.00  0.00     0.001 A 
ATOM     53  C   UNL A   1      50.039  26.244  28.120  1.00  0.00     0.001 A 
ATOM     54  C   UNL A   1      50.658  25.669  29.228  1.00  0.00     0.000 A 
ENDBRANCH  36  49
ENDBRANCH  10  11
ENDBRANCH   3   5
ENDBRANCH   2   3
ENDBRANCH   1   2
BRANCH   1  55
ATOM     55  C   UNL A   1      34.054  28.599  25.634  1.00  0.00     0.274 C 
BRANCH  55  56
ATOM     56  O   UNL A   1      33.149  29.353  24.802  1.00  0.00    -0.458 OA
BRANCH  56  57
ATOM     57  C   UNL A   1      33.115  28.982  23.482  1.00  0.00     0.365 C 
ATOM     58  O   UNL A   1      34.087  29.021  22.744  1.00  0.00    -0.245 OA
BRANCH  57  59
ATOM     59  C   UNL A   1      31.678  28.671  23.008  1.00  0.00     0.304 C 
ATOM     60  C   UNL A   1      30.713  28.361  24.144  1.00  0.00     0.153 C 
ATOM     61  N   UNL A   1      31.672  27.550  22.004  1.00  0.00    -0.317 N 
ATOM     62  S   UNL A   1      29.657  27.049  23.515  1.00  0.00    -0.085 SA
ATOM     63  C   UNL A   1      31.074  26.345  22.622  1.00  0.00     0.303 C 
ATOM     64  H   UNL A   1      32.629  27.347  21.715  1.00  0.00     0.348 HD
ATOM     65  H   UNL A   1      31.125  27.825  21.189  1.00  0.00     0.348 HD
BRANCH  63  66
ATOM     66  C   UNL A   1      32.005  25.566  23.549  1.00  0.00     0.162 A 
ATOM     67  N   UNL A   1      31.956  25.590  24.871  1.00  0.00    -0.242 NA
ATOM     68  S   UNL A   1      33.254  24.558  22.908  1.00  0.00    -0.112 S 
ATOM     69  C   UNL A   1      33.045  24.921  25.401  1.00  0.00     0.132 A 
ATOM     70  C   UNL A   1      33.910  24.371  24.479  1.00  0.00     0.055 A 
BRANCH  70  71
ATOM     71  C   UNL A   1      35.226  23.772  24.660  1.00  0.00    -0.007 A 
ATOM     72  C   UNL A   1      35.751  22.955  23.650  1.00  0.00     0.009 A 
ATOM     73  C   UNL A   1      35.961  23.954  25.835  1.00  0.00     0.009 A 
ATOM     74  C   UNL A   1      36.967  22.295  23.823  1.00  0.00     0.001 A 
ATOM     75  C   UNL A   1      37.189  23.307  26.002  1.00  0.00     0.001 A 
ATOM     76  C   UNL A   1      37.685  22.469  25.003  1.00  0.00     0.000 A 
ENDBRANCH  70  71
ENDBRANCH  63  66
ENDBRANCH  57  59
ENDBRANCH  56  57
ENDBRANCH  55  56
ENDBRANCH   1  55
TORSDOF 13
ENDMDL
MODEL 3
REMARK VINA RESULT:     -11.0      4.407      9.234
REMARK SMILES O=C(OCCOC(=O)[C@@H]1CS[C@H](c2ncc(-c3ccccc3)s2)[NH2+]1)c1ccc(-c2c3nc(c(-c4ccccc4)c4ccc([nH]4)c(-c4ccccc4)c4nc(c(-c5ccccc5)c5ccc2[nH]5)C=C4)C=C3)cc1
REMARK SMILES IDX 4 1 3 2 2 3 1 4 25 5 26 6 72 7 27 8 71 9 28 10 29 11 30 12
REMARK SMILES IDX 65 13 31 14 70 15 64 16 66 17 32 18 69 19 63 20 62 21 33 23
REMARK SMILES IDX 55 24 40 25 54 26 41 27 44 28 53 29 67 30 42 31 43 32 52 34
REMARK SMILES IDX 68 35 45 36 34 37 35 38 39 39 36 40 38 41 37 42 56 43 57 44
REMARK SMILES IDX 61 45 58 46 60 47 59 48 46 49 47 50 51 51 48 52 50 53 49 54
REMARK SMILES IDX 5 55 6 56 7 57 8 58 9 59 10 60 24 61 11 62 12 63 13 66 14 67
REMARK SMILES IDX 23 68 15 69 16 70 17 71 18 72 22 73 19 74 21 75 20 76
REMARK H PARENT 66 22 44 33 24 64 24 65
REMARK Flexibility Score: inf
ROOT
ATOM      1  C   UNL A   1      32.148  30.443  25.849  1.00  0.00     0.275 C 
ENDROOT
BRANCH   1   2
ATOM      2  O   UNL A   1      32.637  30.620  27.186  1.00  0.00    -0.458 OA
BRANCH   2   3
ATOM      3  C   UNL A   1      33.580  31.496  27.609  1.00  0.00     0.338 C 
ATOM      4  O   UNL A   1      33.411  32.700  27.437  1.00  0.00    -0.246 OA
BRANCH   3   5
ATOM      5  C   UNL A   1      34.920  31.027  28.067  1.00  0.00     0.060 A 
ATOM      6  C   UNL A   1      35.272  29.697  28.300  1.00  0.00     0.016 A 
ATOM      7  C   UNL A   1      35.894  32.024  28.270  1.00  0.00     0.016 A 
ATOM      8  C   UNL A   1      36.574  29.355  28.655  1.00  0.00     0.010 A 
ATOM      9  C   UNL A   1      37.208  31.686  28.606  1.00  0.00     0.010 A 
ATOM     10  C   UNL A   1      37.546  30.345  28.821  1.00  0.00    -0.014 A 
BRANCH  10  11
ATOM     11  C   UNL A   1      38.816  29.956  29.466  1.00  0.00     0.031 A 
ATOM     12  C   UNL A   1      38.989  30.327  30.910  1.00  0.00     0.074 A 
ATOM     13  C   UNL A   1      39.706  29.173  28.828  1.00  0.00     0.049 A 
ATOM     14  N   UNL A   1      39.916  29.964  31.754  1.00  0.00    -0.248 NA
ATOM     15  C   UNL A   1      37.968  31.221  31.485  1.00  0.00     0.031 C 
ATOM     16  C   UNL A   1      39.602  28.723  27.437  1.00  0.00     0.029 A 
ATOM     17  N   UNL A   1      40.855  28.580  29.283  1.00  0.00    -0.354 N 
ATOM     18  C   UNL A   1      39.588  30.591  32.951  1.00  0.00     0.074 A 
ATOM     19  C   UNL A   1      38.419  31.400  32.712  1.00  0.00     0.031 C 
ATOM     20  C   UNL A   1      40.625  27.893  27.166  1.00  0.00     0.029 A 
ATOM     21  C   UNL A   1      41.461  27.763  28.357  1.00  0.00     0.049 A 
ATOM     22  H   UNL A   1      41.213  28.724  30.189  1.00  0.00     0.167 HD
ATOM     23  C   UNL A   1      40.190  30.480  34.156  1.00  0.00     0.031 A 
ATOM     24  C   UNL A   1      42.554  26.985  28.477  1.00  0.00     0.031 A 
ATOM     25  C   UNL A   1      41.357  29.679  34.381  1.00  0.00     0.049 A 
ATOM     26  C   UNL A   1      43.244  26.926  29.816  1.00  0.00     0.074 A 
ATOM     27  C   UNL A   1      42.077  29.504  35.546  1.00  0.00     0.029 A 
ATOM     28  N   UNL A   1      41.972  28.916  33.399  1.00  0.00    -0.354 N 
ATOM     29  N   UNL A   1      42.905  27.497  30.948  1.00  0.00    -0.248 NA
ATOM     30  C   UNL A   1      44.454  26.097  29.899  1.00  0.00     0.031 C 
ATOM     31  C   UNL A   1      43.159  28.665  35.256  1.00  0.00     0.029 A 
ATOM     32  C   UNL A   1      43.075  28.274  33.927  1.00  0.00     0.049 A 
ATOM     33  H   UNL A   1      41.668  28.841  32.466  1.00  0.00     0.167 HD
ATOM     34  C   UNL A   1      43.837  27.068  31.885  1.00  0.00     0.074 A 
ATOM     35  C   UNL A   1      44.744  26.176  31.190  1.00  0.00     0.031 C 
ATOM     36  C   UNL A   1      43.940  27.379  33.201  1.00  0.00     0.031 A 
BRANCH  23  37
ATOM     37  C   UNL A   1      39.600  31.291  35.274  1.00  0.00    -0.014 A 
ATOM     38  C   UNL A   1      38.542  30.796  36.056  1.00  0.00     0.009 A 
ATOM     39  C   UNL A   1      40.047  32.603  35.487  1.00  0.00     0.009 A 
ATOM     40  C   UNL A   1      37.901  31.621  36.983  1.00  0.00     0.001 A 
ATOM     41  C   UNL A   1      39.424  33.416  36.437  1.00  0.00     0.001 A 
ATOM     42  C   UNL A   1      38.342  32.930  37.171  1.00  0.00     0.000 A 
ENDBRANCH  23  37
BRANCH  24  43
ATOM     43  C   UNL A   1      43.055  26.181  27.326  1.00  0.00    -0.014 A 
ATOM     44  C   UNL A   1      43.989  26.718  26.424  1.00  0.00     0.009 A 
ATOM     45  C   UNL A   1      42.565  24.886  27.092  1.00  0.00     0.009 A 
ATOM     46  C   UNL A   1      44.389  25.993  25.297  1.00  0.00     0.001 A 
ATOM     47  C   UNL A   1      42.989  24.153  25.979  1.00  0.00     0.001 A 
ATOM     48  C   UNL A   1      43.890  24.712  25.076  1.00  0.00     0.000 A 
ENDBRANCH  24  43
BRANCH  36  49
ATOM     49  C   UNL A   1      45.035  26.709  33.980  1.00  0.00    -0.014 A 
ATOM     50  C   UNL A   1      46.295  27.305  34.131  1.00  0.00     0.009 A 
ATOM     51  C   UNL A   1      44.771  25.492  34.627  1.00  0.00     0.009 A 
ATOM     52  C   UNL A   1      47.282  26.677  34.892  1.00  0.00     0.001 A 
ATOM     53  C   UNL A   1      45.747  24.882  35.414  1.00  0.00     0.001 A 
ATOM     54  C   UNL A   1      47.005  25.471  35.538  1.00  0.00     0.000 A 
ENDBRANCH  36  49
ENDBRANCH  10  11
ENDBRANCH   3   5
ENDBRANCH   2   3
ENDBRANCH   1   2
BRANCH   1  55
ATOM     55  C   UNL A   1      32.407  29.049  25.274  1.00  0.00     0.274 C 
BRANCH  55  56
ATOM     56  O   UNL A   1      33.085  28.164  26.188  1.00  0.00    -0.458 OA
BRANCH  56  57
ATOM     57  C   UNL A   1      32.319  27.148  26.703  1.00  0.00     0.365 C 
ATOM     58  O   UNL A   1      31.360  27.330  27.435  1.00  0.00    -0.245 OA
BRANCH  57  59
ATOM     59  C   UNL A   1      32.913  25.759  26.379  1.00  0.00     0.304 C 
ATOM     60  C   UNL A   1      33.997  25.791  25.310  1.00  0.00     0.153 C 
ATOM     61  N   UNL A   1      31.832  24.788  25.990  1.00  0.00    -0.317 N 
ATOM     62  S   UNL A   1      33.734  24.304  24.334  1.00  0.00    -0.085 SA
ATOM     63  C   UNL A   1      31.938  24.492  24.544  1.00  0.00     0.303 C 
ATOM     64  H   UNL A   1      30.919  25.197  26.188  1.00  0.00     0.348 HD
ATOM     65  H   UNL A   1      31.938  23.926  26.524  1.00  0.00     0.348 HD
BRANCH  63  66
ATOM     66  C   UNL A   1      31.364  25.567  23.621  1.00  0.00     0.162 A 
ATOM     67  N   UNL A   1      31.922  25.979  22.494  1.00  0.00    -0.242 NA
ATOM     68  S   UNL A   1      29.881  26.365  24.008  1.00  0.00    -0.112 S 
ATOM     69  C   UNL A   1      31.243  27.078  22.001  1.00  0.00     0.132 A 
ATOM     70  C   UNL A   1      30.156  27.489  22.744  1.00  0.00     0.055 A 
BRANCH  70  71
ATOM     71  C   UNL A   1      29.338  28.689  22.636  1.00  0.00    -0.007 A 
ATOM     72  C   UNL A   1      29.895  29.851  22.085  1.00  0.00     0.009 A 
ATOM     73  C   UNL A   1      28.022  28.726  23.108  1.00  0.00     0.009 A 
ATOM     74  C   UNL A   1      29.172  31.042  22.044  1.00  0.00     0.001 A 
ATOM     75  C   UNL A   1      27.290  29.915  23.050  1.00  0.00     0.001 A 
ATOM     76  C   UNL A   1      27.868  31.075  22.531  1.00  0.00     0.000 A 
ENDBRANCH  70  71
ENDBRANCH  63  66
ENDBRANCH  57  59
ENDBRANCH  56  57
ENDBRANCH  55  56
ENDBRANCH   1  55
TORSDOF 13
ENDMDL
