MODEL 1
REMARK VINA RESULT:     -10.7      0.000      0.000
REMARK SMILES Cc1cc(OC(F)(F)F)cc2c1O[C@@H](C(F)(F)F)C(C(=O)OCCOC(=O)c1ccc(-c3c4nc(c(-c5ccccc5)c5ccc([nH]5)c(-c5ccccc5)c5nc(c(-c6ccccc6)c6ccc3[nH]6)C=C5)C=C4)cc1)=C2
REMARK SMILES IDX 23 1 22 2 20 3 21 4 19 5 1 6 2 7 3 8 12 9 4 10 11 11 13 12
REMARK SMILES IDX 10 13 76 14 14 15 5 16 6 17 7 18 8 19 9 20 15 21 16 22 17 23
REMARK SMILES IDX 18 24 24 25 25 26 26 27 27 28 28 29 29 30 75 31 30 32 74 33
REMARK SMILES IDX 31 34 32 35 33 36 68 37 34 38 73 39 67 40 69 41 35 42 72 43
REMARK SMILES IDX 66 44 65 45 36 47 58 48 43 49 57 50 44 51 47 52 56 53 70 54
REMARK SMILES IDX 45 55 46 56 55 58 71 59 48 60 37 61 38 62 42 63 39 64 41 65
REMARK SMILES IDX 40 66 59 67 60 68 64 69 61 70 63 71 62 72 49 73 50 74 54 75
REMARK SMILES IDX 51 76 53 77 52 78
REMARK H PARENT 69 46 47 57
REMARK Flexibility Score: inf
ROOT
ATOM      1  C   UNL A   1      31.718  29.667  25.985  1.00  0.00     0.275 C 
ENDROOT
BRANCH   1   2
ATOM      2  O   UNL A   1      31.513  28.332  25.479  1.00  0.00    -0.459 OA
BRANCH   2   3
ATOM      3  C   UNL A   1      31.514  27.340  26.393  1.00  0.00     0.338 C 
ATOM      4  O   UNL A   1      31.068  27.411  27.528  1.00  0.00    -0.246 OA
BRANCH   3   5
ATOM      5  C   UNL A   1      32.059  26.098  25.814  1.00  0.00     0.087 C 
ATOM      6  C   UNL A   1      32.862  22.083  22.715  1.00  0.00     0.048 C 
ATOM      7  C   UNL A   1      33.714  22.978  23.569  1.00  0.00    -0.005 A 
ATOM      8  C   UNL A   1      35.099  22.734  23.668  1.00  0.00     0.054 A 
ATOM      9  C   UNL A   1      33.148  24.029  24.303  1.00  0.00     0.131 A 
ATOM     10  C   UNL A   1      35.915  23.544  24.459  1.00  0.00     0.130 A 
ATOM     11  C   UNL A   1      33.967  24.851  25.078  1.00  0.00     0.021 A 
ATOM     12  O   UNL A   1      31.801  24.263  24.178  1.00  0.00    -0.475 OA
ATOM     13  C   UNL A   1      35.340  24.601  25.166  1.00  0.00     0.058 A 
ATOM     14  C   UNL A   1      33.393  26.019  25.719  1.00  0.00     0.027 C 
ATOM     15  C   UNL A   1      31.159  25.035  25.243  1.00  0.00     0.316 C 
BRANCH  10  16
ATOM     16  O   UNL A   1      37.264  23.426  24.631  1.00  0.00    -0.406 OA
BRANCH  16  17
ATOM     17  C   UNL A   1      37.731  22.525  25.619  1.00  0.00     0.573 C 
ATOM     18  F   UNL A   1      36.706  21.841  26.172  1.00  0.00    -0.132 F 
ATOM     19  F   UNL A   1      38.628  21.656  25.105  1.00  0.00    -0.132 F 
ATOM     20  F   UNL A   1      38.341  23.230  26.597  1.00  0.00    -0.132 F 
ENDBRANCH  16  17
ENDBRANCH  10  16
BRANCH  15  21
ATOM     21  C   UNL A   1      30.542  24.066  26.268  1.00  0.00     0.430 C 
ATOM     22  F   UNL A   1      30.265  22.871  25.682  1.00  0.00    -0.167 F 
ATOM     23  F   UNL A   1      31.367  23.817  27.309  1.00  0.00    -0.167 F 
ATOM     24  F   UNL A   1      29.368  24.514  26.769  1.00  0.00    -0.167 F 
ENDBRANCH  15  21
ENDBRANCH   3   5
ENDBRANCH   2   3
ENDBRANCH   1   2
BRANCH   1  25
ATOM     25  C   UNL A   1      33.209  29.939  26.184  1.00  0.00     0.275 C 
BRANCH  25  26
ATOM     26  O   UNL A   1      33.533  29.935  27.588  1.00  0.00    -0.458 OA
BRANCH  26  27
ATOM     27  C   UNL A   1      34.389  30.899  27.997  1.00  0.00     0.338 C 
ATOM     28  O   UNL A   1      34.152  32.079  28.182  1.00  0.00    -0.246 OA
BRANCH  27  29
ATOM     29  C   UNL A   1      35.709  30.302  28.253  1.00  0.00     0.060 A 
ATOM     30  C   UNL A   1      35.939  29.672  29.472  1.00  0.00     0.016 A 
ATOM     31  C   UNL A   1      36.749  30.468  27.339  1.00  0.00     0.016 A 
ATOM     32  C   UNL A   1      37.227  29.288  29.825  1.00  0.00     0.010 A 
ATOM     33  C   UNL A   1      38.025  29.984  27.652  1.00  0.00     0.010 A 
ATOM     34  C   UNL A   1      38.286  29.419  28.913  1.00  0.00    -0.014 A 
BRANCH  34  35
ATOM     35  C   UNL A   1      39.645  28.948  29.296  1.00  0.00     0.031 A 
ATOM     36  C   UNL A   1      40.497  29.739  30.251  1.00  0.00     0.074 A 
ATOM     37  C   UNL A   1      40.096  27.770  28.820  1.00  0.00     0.049 A 
ATOM     38  N   UNL A   1      41.709  29.481  30.676  1.00  0.00    -0.248 NA
ATOM     39  C   UNL A   1      39.923  30.978  30.802  1.00  0.00     0.031 C 
ATOM     40  C   UNL A   1      39.359  26.889  27.910  1.00  0.00     0.029 A 
ATOM     41  N   UNL A   1      41.264  27.089  29.064  1.00  0.00    -0.354 N 
ATOM     42  C   UNL A   1      42.052  30.535  31.514  1.00  0.00     0.074 A 
ATOM     43  C   UNL A   1      40.929  31.445  31.531  1.00  0.00     0.031 C 
ATOM     44  C   UNL A   1      40.055  25.756  27.734  1.00  0.00     0.029 A 
ATOM     45  C   UNL A   1      41.320  25.858  28.455  1.00  0.00     0.049 A 
ATOM     46  H   UNL A   1      41.991  27.448  29.622  1.00  0.00     0.167 HD
ATOM     47  C   UNL A   1      43.197  30.723  32.210  1.00  0.00     0.031 A 
ATOM     48  C   UNL A   1      42.280  24.914  28.460  1.00  0.00     0.031 A 
ATOM     49  C   UNL A   1      44.302  29.803  32.226  1.00  0.00     0.049 A 
ATOM     50  C   UNL A   1      43.553  25.160  29.213  1.00  0.00     0.074 A 
ATOM     51  C   UNL A   1      45.498  29.912  32.915  1.00  0.00     0.029 A 
ATOM     52  N   UNL A   1      44.340  28.603  31.539  1.00  0.00    -0.354 N 
ATOM     53  N   UNL A   1      43.872  26.183  29.966  1.00  0.00    -0.248 NA
ATOM     54  C   UNL A   1      44.604  24.139  29.103  1.00  0.00     0.031 C 
ATOM     55  C   UNL A   1      46.276  28.791  32.617  1.00  0.00     0.029 A 
ATOM     56  C   UNL A   1      45.547  27.967  31.775  1.00  0.00     0.049 A 
ATOM     57  H   UNL A   1      43.619  28.253  30.967  1.00  0.00     0.167 HD
ATOM     58  C   UNL A   1      45.157  25.929  30.423  1.00  0.00     0.074 A 
ATOM     59  C   UNL A   1      45.557  24.651  29.873  1.00  0.00     0.031 C 
ATOM     60  C   UNL A   1      45.933  26.696  31.223  1.00  0.00     0.031 A 
BRANCH  47  61
ATOM     61  C   UNL A   1      43.333  31.981  33.018  1.00  0.00    -0.014 A 
ATOM     62  C   UNL A   1      43.828  33.160  32.442  1.00  0.00     0.009 A 
ATOM     63  C   UNL A   1      42.866  32.011  34.342  1.00  0.00     0.009 A 
ATOM     64  C   UNL A   1      43.862  34.344  33.182  1.00  0.00     0.001 A 
ATOM     65  C   UNL A   1      42.883  33.200  35.072  1.00  0.00     0.001 A 
ATOM     66  C   UNL A   1      43.384  34.364  34.493  1.00  0.00     0.000 A 
ENDBRANCH  47  61
BRANCH  48  67
ATOM     67  C   UNL A   1      42.056  23.648  27.717  1.00  0.00    -0.014 A 
ATOM     68  C   UNL A   1      42.490  23.521  26.388  1.00  0.00     0.009 A 
ATOM     69  C   UNL A   1      41.476  22.539  28.352  1.00  0.00     0.009 A 
ATOM     70  C   UNL A   1      42.354  22.305  25.715  1.00  0.00     0.001 A 
ATOM     71  C   UNL A   1      41.362  21.320  27.684  1.00  0.00     0.001 A 
ATOM     72  C   UNL A   1      41.800  21.203  26.366  1.00  0.00     0.000 A 
ENDBRANCH  48  67
BRANCH  60  73
ATOM     73  C   UNL A   1      47.298  26.190  31.577  1.00  0.00    -0.014 A 
ATOM     74  C   UNL A   1      47.514  25.507  32.782  1.00  0.00     0.009 A 
ATOM     75  C   UNL A   1      48.336  26.271  30.637  1.00  0.00     0.009 A 
ATOM     76  C   UNL A   1      48.749  24.908  33.037  1.00  0.00     0.001 A 
ATOM     77  C   UNL A   1      49.564  25.659  30.889  1.00  0.00     0.001 A 
ATOM     78  C   UNL A   1      49.768  24.976  32.088  1.00  0.00     0.000 A 
ENDBRANCH  60  73
ENDBRANCH  34  35
ENDBRANCH  27  29
ENDBRANCH  26  27
ENDBRANCH  25  26
ENDBRANCH   1  25
TORSDOF 14
ENDMDL
MODEL 2
REMARK VINA RESULT:     -10.7      1.993      7.319
REMARK SMILES Cc1cc(OC(F)(F)F)cc2c1O[C@@H](C(F)(F)F)C(C(=O)OCCOC(=O)c1ccc(-c3c4nc(c(-c5ccccc5)c5ccc([nH]5)c(-c5ccccc5)c5nc(c(-c6ccccc6)c6ccc3[nH]6)C=C5)C=C4)cc1)=C2
REMARK SMILES IDX 23 1 22 2 20 3 21 4 19 5 1 6 2 7 3 8 12 9 4 10 11 11 13 12
REMARK SMILES IDX 10 13 76 14 14 15 5 16 6 17 7 18 8 19 9 20 15 21 16 22 17 23
REMARK SMILES IDX 18 24 24 25 25 26 26 27 27 28 28 29 29 30 75 31 30 32 74 33
REMARK SMILES IDX 31 34 32 35 33 36 68 37 34 38 73 39 67 40 69 41 35 42 72 43
REMARK SMILES IDX 66 44 65 45 36 47 58 48 43 49 57 50 44 51 47 52 56 53 70 54
REMARK SMILES IDX 45 55 46 56 55 58 71 59 48 60 37 61 38 62 42 63 39 64 41 65
REMARK SMILES IDX 40 66 59 67 60 68 64 69 61 70 63 71 62 72 49 73 50 74 54 75
REMARK SMILES IDX 51 76 53 77 52 78
REMARK H PARENT 69 46 47 57
REMARK Flexibility Score: inf
ROOT
ATOM      1  C   UNL A   1      37.745  20.873  24.706  1.00  0.00     0.275 C 
ENDROOT
BRANCH   1   2
ATOM      2  O   UNL A   1      36.979  21.376  25.820  1.00  0.00    -0.459 OA
BRANCH   2   3
ATOM      3  C   UNL A   1      36.821  22.714  25.881  1.00  0.00     0.338 C 
ATOM      4  O   UNL A   1      37.719  23.542  25.889  1.00  0.00    -0.246 OA
BRANCH   3   5
ATOM      5  C   UNL A   1      35.390  23.072  25.853  1.00  0.00     0.087 C 
ATOM      6  C   UNL A   1      30.348  23.161  26.816  1.00  0.00     0.048 C 
ATOM      7  C   UNL A   1      31.407  24.178  26.496  1.00  0.00    -0.005 A 
ATOM      8  C   UNL A   1      31.049  25.533  26.350  1.00  0.00     0.054 A 
ATOM      9  C   UNL A   1      32.740  23.795  26.298  1.00  0.00     0.131 A 
ATOM     10  C   UNL A   1      32.009  26.500  26.045  1.00  0.00     0.130 A 
ATOM     11  C   UNL A   1      33.703  24.763  26.014  1.00  0.00     0.021 A 
ATOM     12  O   UNL A   1      33.072  22.473  26.464  1.00  0.00    -0.475 OA
ATOM     13  C   UNL A   1      33.336  26.105  25.875  1.00  0.00     0.058 A 
ATOM     14  C   UNL A   1      35.099  24.376  25.952  1.00  0.00     0.027 C 
ATOM     15  C   UNL A   1      34.316  22.017  25.842  1.00  0.00     0.316 C 
BRANCH  10  16
ATOM     16  O   UNL A   1      31.800  27.840  25.890  1.00  0.00    -0.406 OA
BRANCH  16  17
ATOM     17  C   UNL A   1      31.863  28.659  27.045  1.00  0.00     0.573 C 
ATOM     18  F   UNL A   1      31.036  28.200  28.008  1.00  0.00    -0.132 F 
ATOM     19  F   UNL A   1      33.122  28.729  27.526  1.00  0.00    -0.132 F 
ATOM     20  F   UNL A   1      31.469  29.908  26.712  1.00  0.00    -0.132 F 
ENDBRANCH  16  17
ENDBRANCH  10  16
BRANCH  15  21
ATOM     21  C   UNL A   1      33.999  21.404  24.466  1.00  0.00     0.430 C 
ATOM     22  F   UNL A   1      32.655  21.289  24.299  1.00  0.00    -0.167 F 
ATOM     23  F   UNL A   1      34.464  22.155  23.444  1.00  0.00    -0.167 F 
ATOM     24  F   UNL A   1      34.499  20.156  24.323  1.00  0.00    -0.167 F 
ENDBRANCH  15  21
ENDBRANCH   3   5
ENDBRANCH   2   3
ENDBRANCH   1   2
BRANCH   1  25
ATOM     25  C   UNL A   1      38.500  19.605  25.105  1.00  0.00     0.275 C 
BRANCH  25  26
ATOM     26  O   UNL A   1      39.271  19.839  26.299  1.00  0.00    -0.458 OA
BRANCH  26  27
ATOM     27  C   UNL A   1      40.614  19.792  26.151  1.00  0.00     0.338 C 
ATOM     28  O   UNL A   1      41.281  18.899  25.660  1.00  0.00    -0.246 OA
BRANCH  27  29
ATOM     29  C   UNL A   1      41.203  21.047  26.643  1.00  0.00     0.060 A 
ATOM     30  C   UNL A   1      41.179  21.312  28.009  1.00  0.00     0.016 A 
ATOM     31  C   UNL A   1      41.669  22.009  25.747  1.00  0.00     0.016 A 
ATOM     32  C   UNL A   1      41.532  22.571  28.480  1.00  0.00     0.010 A 
ATOM     33  C   UNL A   1      42.126  23.240  26.234  1.00  0.00     0.010 A 
ATOM     34  C   UNL A   1      42.031  23.547  27.602  1.00  0.00    -0.014 A 
BRANCH  34  35
ATOM     35  C   UNL A   1      42.455  24.868  28.141  1.00  0.00     0.031 A 
ATOM     36  C   UNL A   1      41.450  25.962  28.389  1.00  0.00     0.074 A 
ATOM     37  C   UNL A   1      43.749  25.068  28.462  1.00  0.00     0.049 A 
ATOM     38  N   UNL A   1      41.653  27.175  28.837  1.00  0.00    -0.248 NA
ATOM     39  C   UNL A   1      40.039  25.661  28.097  1.00  0.00     0.031 C 
ATOM     40  C   UNL A   1      44.821  24.083  28.300  1.00  0.00     0.029 A 
ATOM     41  N   UNL A   1      44.380  26.151  29.024  1.00  0.00    -0.354 N 
ATOM     42  C   UNL A   1      40.407  27.790  28.851  1.00  0.00     0.074 A 
ATOM     43  C   UNL A   1      39.453  26.823  28.354  1.00  0.00     0.031 C 
ATOM     44  C   UNL A   1      45.955  24.575  28.821  1.00  0.00     0.029 A 
ATOM     45  C   UNL A   1      45.712  25.937  29.285  1.00  0.00     0.049 A 
ATOM     46  H   UNL A   1      43.921  27.000  29.222  1.00  0.00     0.167 HD
ATOM     47  C   UNL A   1      40.087  29.043  29.247  1.00  0.00     0.031 A 
ATOM     48  C   UNL A   1      46.646  26.742  29.826  1.00  0.00     0.031 A 
ATOM     49  C   UNL A   1      41.025  29.996  29.776  1.00  0.00     0.049 A 
ATOM     50  C   UNL A   1      46.274  28.138  30.227  1.00  0.00     0.074 A 
ATOM     51  C   UNL A   1      40.782  31.287  30.212  1.00  0.00     0.029 A 
ATOM     52  N   UNL A   1      42.377  29.756  29.957  1.00  0.00    -0.354 N 
ATOM     53  N   UNL A   1      45.097  28.712  30.193  1.00  0.00    -0.248 NA
ATOM     54  C   UNL A   1      47.355  29.004  30.719  1.00  0.00     0.031 C 
ATOM     55  C   UNL A   1      41.994  31.842  30.627  1.00  0.00     0.029 A 
ATOM     56  C   UNL A   1      42.984  30.882  30.485  1.00  0.00     0.049 A 
ATOM     57  H   UNL A   1      42.837  28.913  29.742  1.00  0.00     0.167 HD
ATOM     58  C   UNL A   1      45.292  30.002  30.661  1.00  0.00     0.074 A 
ATOM     59  C   UNL A   1      46.698  30.128  30.985  1.00  0.00     0.031 C 
ATOM     60  C   UNL A   1      44.382  30.994  30.803  1.00  0.00     0.031 A 
BRANCH  47  61
ATOM     61  C   UNL A   1      38.656  29.480  29.121  1.00  0.00    -0.014 A 
ATOM     62  C   UNL A   1      38.138  29.912  27.892  1.00  0.00     0.009 A 
ATOM     63  C   UNL A   1      37.793  29.360  30.222  1.00  0.00     0.009 A 
ATOM     64  C   UNL A   1      36.783  30.227  27.771  1.00  0.00     0.001 A 
ATOM     65  C   UNL A   1      36.436  29.657  30.093  1.00  0.00     0.001 A 
ATOM     66  C   UNL A   1      35.932  30.093  28.869  1.00  0.00     0.000 A 
ENDBRANCH  47  61
BRANCH  48  67
ATOM     67  C   UNL A   1      48.027  26.229  30.011  1.00  0.00    -0.014 A 
ATOM     68  C   UNL A   1      48.953  26.293  28.959  1.00  0.00     0.009 A 
ATOM     69  C   UNL A   1      48.447  25.743  31.259  1.00  0.00     0.009 A 
ATOM     70  C   UNL A   1      50.275  25.886  29.157  1.00  0.00     0.001 A 
ATOM     71  C   UNL A   1      49.773  25.358  31.459  1.00  0.00     0.001 A 
ATOM     72  C   UNL A   1      50.686  25.430  30.408  1.00  0.00     0.000 A 
ENDBRANCH  48  67
BRANCH  60  73
ATOM     73  C   UNL A   1      44.852  32.311  31.340  1.00  0.00    -0.014 A 
ATOM     74  C   UNL A   1      45.236  33.339  30.467  1.00  0.00     0.009 A 
ATOM     75  C   UNL A   1      44.774  32.571  32.716  1.00  0.00     0.009 A 
ATOM     76  C   UNL A   1      45.529  34.610  30.967  1.00  0.00     0.001 A 
ATOM     77  C   UNL A   1      45.054  33.846  33.210  1.00  0.00     0.001 A 
ATOM     78  C   UNL A   1      45.428  34.864  32.334  1.00  0.00     0.000 A 
ENDBRANCH  60  73
ENDBRANCH  34  35
ENDBRANCH  27  29
ENDBRANCH  26  27
ENDBRANCH  25  26
ENDBRANCH   1  25
TORSDOF 14
ENDMDL
MODEL 3
REMARK VINA RESULT:     -10.7      3.402      7.896
REMARK SMILES Cc1cc(OC(F)(F)F)cc2c1O[C@@H](C(F)(F)F)C(C(=O)OCCOC(=O)c1ccc(-c3c4nc(c(-c5ccccc5)c5ccc([nH]5)c(-c5ccccc5)c5nc(c(-c6ccccc6)c6ccc3[nH]6)C=C5)C=C4)cc1)=C2
REMARK SMILES IDX 23 1 22 2 20 3 21 4 19 5 1 6 2 7 3 8 12 9 4 10 11 11 13 12
REMARK SMILES IDX 10 13 76 14 14 15 5 16 6 17 7 18 8 19 9 20 15 21 16 22 17 23
REMARK SMILES IDX 18 24 24 25 25 26 26 27 27 28 28 29 29 30 75 31 30 32 74 33
REMARK SMILES IDX 31 34 32 35 33 36 68 37 34 38 73 39 67 40 69 41 35 42 72 43
REMARK SMILES IDX 66 44 65 45 36 47 58 48 43 49 57 50 44 51 47 52 56 53 70 54
REMARK SMILES IDX 45 55 46 56 55 58 71 59 48 60 37 61 38 62 42 63 39 64 41 65
REMARK SMILES IDX 40 66 59 67 60 68 64 69 61 70 63 71 62 72 49 73 50 74 54 75
REMARK SMILES IDX 51 76 53 77 52 78
REMARK H PARENT 69 46 47 57
REMARK Flexibility Score: inf
ROOT
ATOM      1  C   UNL A   1      35.697  21.095  24.944  1.00  0.00     0.275 C 
ENDROOT
BRANCH   1   2
ATOM      2  O   UNL A   1      35.922  22.518  25.015  1.00  0.00    -0.459 OA
BRANCH   2   3
ATOM      3  C   UNL A   1      35.577  23.232  23.925  1.00  0.00     0.338 C 
ATOM      4  O   UNL A   1      36.064  23.118  22.810  1.00  0.00    -0.246 OA
BRANCH   3   5
ATOM      5  C   UNL A   1      34.452  24.137  24.228  1.00  0.00     0.087 C 
ATOM      6  C   UNL A   1      29.779  25.913  25.399  1.00  0.00     0.048 C 
ATOM      7  C   UNL A   1      31.196  26.310  25.703  1.00  0.00    -0.005 A 
ATOM      8  C   UNL A   1      31.445  27.475  26.457  1.00  0.00     0.054 A 
ATOM      9  C   UNL A   1      32.276  25.564  25.216  1.00  0.00     0.131 A 
ATOM     10  C   UNL A   1      32.751  27.874  26.750  1.00  0.00     0.130 A 
ATOM     11  C   UNL A   1      33.580  25.950  25.525  1.00  0.00     0.021 A 
ATOM     12  O   UNL A   1      32.012  24.422  24.501  1.00  0.00    -0.475 OA
ATOM     13  C   UNL A   1      33.815  27.107  26.277  1.00  0.00     0.058 A 
ATOM     14  C   UNL A   1      34.684  25.094  25.136  1.00  0.00     0.027 C 
ATOM     15  C   UNL A   1      33.083  23.912  23.642  1.00  0.00     0.316 C 
BRANCH  10  16
ATOM     16  O   UNL A   1      33.129  28.966  27.476  1.00  0.00    -0.406 OA
BRANCH  16  17
ATOM     17  C   UNL A   1      32.947  30.245  26.894  1.00  0.00     0.573 C 
ATOM     18  F   UNL A   1      33.143  30.202  25.559  1.00  0.00    -0.132 F 
ATOM     19  F   UNL A   1      31.713  30.729  27.154  1.00  0.00    -0.132 F 
ATOM     20  F   UNL A   1      33.853  31.096  27.425  1.00  0.00    -0.132 F 
ENDBRANCH  16  17
ENDBRANCH  10  16
BRANCH  15  21
ATOM     21  C   UNL A   1      32.878  24.439  22.211  1.00  0.00     0.430 C 
ATOM     22  F   UNL A   1      31.584  24.815  22.027  1.00  0.00    -0.167 F 
ATOM     23  F   UNL A   1      33.648  25.516  21.938  1.00  0.00    -0.167 F 
ATOM     24  F   UNL A   1      33.129  23.502  21.269  1.00  0.00    -0.167 F 
ENDBRANCH  15  21
ENDBRANCH   3   5
ENDBRANCH   2   3
ENDBRANCH   1   2
BRANCH   1  25
ATOM     25  C   UNL A   1      37.023  20.339  25.044  1.00  0.00     0.275 C 
BRANCH  25  26
ATOM     26  O   UNL A   1      38.122  21.268  25.115  1.00  0.00    -0.458 OA
BRANCH  26  27
ATOM     27  C   UNL A   1      39.055  21.005  26.058  1.00  0.00     0.338 C 
ATOM     28  O   UNL A   1      39.447  19.917  26.439  1.00  0.00    -0.246 OA
BRANCH  27  29
ATOM     29  C   UNL A   1      39.604  22.272  26.565  1.00  0.00     0.060 A 
ATOM     30  C   UNL A   1      39.021  23.470  26.160  1.00  0.00     0.016 A 
ATOM     31  C   UNL A   1      40.763  22.281  27.342  1.00  0.00     0.016 A 
ATOM     32  C   UNL A   1      39.643  24.679  26.449  1.00  0.00     0.010 A 
ATOM     33  C   UNL A   1      41.328  23.504  27.723  1.00  0.00     0.010 A 
ATOM     34  C   UNL A   1      40.794  24.716  27.252  1.00  0.00    -0.014 A 
BRANCH  34  35
ATOM     35  C   UNL A   1      41.407  26.029  27.593  1.00  0.00     0.031 A 
ATOM     36  C   UNL A   1      42.737  26.434  27.018  1.00  0.00     0.074 A 
ATOM     37  C   UNL A   1      40.735  26.887  28.387  1.00  0.00     0.049 A 
ATOM     38  N   UNL A   1      43.420  27.533  27.225  1.00  0.00    -0.248 NA
ATOM     39  C   UNL A   1      43.389  25.491  26.094  1.00  0.00     0.031 C 
ATOM     40  C   UNL A   1      39.423  26.632  28.987  1.00  0.00     0.029 A 
ATOM     41  N   UNL A   1      41.041  28.163  28.795  1.00  0.00    -0.354 N 
ATOM     42  C   UNL A   1      44.589  27.400  26.487  1.00  0.00     0.074 A 
ATOM     43  C   UNL A   1      44.534  26.110  25.835  1.00  0.00     0.031 C 
ATOM     44  C   UNL A   1      39.005  27.738  29.620  1.00  0.00     0.029 A 
ATOM     45  C   UNL A   1      40.048  28.756  29.537  1.00  0.00     0.049 A 
ATOM     46  H   UNL A   1      41.892  28.609  28.577  1.00  0.00     0.167 HD
ATOM     47  C   UNL A   1      45.612  28.276  26.359  1.00  0.00     0.031 A 
ATOM     48  C   UNL A   1      39.977  29.976  30.101  1.00  0.00     0.031 A 
ATOM     49  C   UNL A   1      45.656  29.575  26.975  1.00  0.00     0.049 A 
ATOM     50  C   UNL A   1      41.137  30.917  29.972  1.00  0.00     0.074 A 
ATOM     51  C   UNL A   1      46.652  30.531  26.888  1.00  0.00     0.029 A 
ATOM     52  N   UNL A   1      44.656  30.103  27.773  1.00  0.00    -0.354 N 
ATOM     53  N   UNL A   1      42.251  30.754  29.302  1.00  0.00    -0.248 NA
ATOM     54  C   UNL A   1      41.045  32.196  30.690  1.00  0.00     0.031 C 
ATOM     55  C   UNL A   1      46.271  31.629  27.663  1.00  0.00     0.029 A 
ATOM     56  C   UNL A   1      45.019  31.369  28.199  1.00  0.00     0.049 A 
ATOM     57  H   UNL A   1      43.814  29.649  28.004  1.00  0.00     0.167 HD
ATOM     58  C   UNL A   1      42.991  31.908  29.513  1.00  0.00     0.074 A 
ATOM     59  C   UNL A   1      42.197  32.770  30.364  1.00  0.00     0.031 C 
ATOM     60  C   UNL A   1      44.222  32.217  29.044  1.00  0.00     0.031 A 
BRANCH  47  61
ATOM     61  C   UNL A   1      46.792  27.867  25.524  1.00  0.00    -0.014 A 
ATOM     62  C   UNL A   1      47.885  27.202  26.095  1.00  0.00     0.009 A 
ATOM     63  C   UNL A   1      46.760  28.062  24.134  1.00  0.00     0.009 A 
ATOM     64  C   UNL A   1      48.932  26.748  25.289  1.00  0.00     0.001 A 
ATOM     65  C   UNL A   1      47.797  27.590  23.329  1.00  0.00     0.001 A 
ATOM     66  C   UNL A   1      48.884  26.936  23.907  1.00  0.00     0.000 A 
ENDBRANCH  47  61
BRANCH  48  67
ATOM     67  C   UNL A   1      38.749  30.363  30.840  1.00  0.00    -0.014 A 
ATOM     68  C   UNL A   1      37.683  30.981  30.169  1.00  0.00     0.009 A 
ATOM     69  C   UNL A   1      38.606  30.050  32.201  1.00  0.00     0.009 A 
ATOM     70  C   UNL A   1      36.496  31.271  30.846  1.00  0.00     0.001 A 
ATOM     71  C   UNL A   1      37.411  30.321  32.869  1.00  0.00     0.001 A 
ATOM     72  C   UNL A   1      36.357  30.932  32.191  1.00  0.00     0.000 A 
ENDBRANCH  48  67
BRANCH  60  73
ATOM     73  C   UNL A   1      44.806  33.544  29.418  1.00  0.00    -0.014 A 
ATOM     74  C   UNL A   1      45.650  33.662  30.532  1.00  0.00     0.009 A 
ATOM     75  C   UNL A   1      44.627  34.649  28.572  1.00  0.00     0.009 A 
ATOM     76  C   UNL A   1      46.309  34.866  30.788  1.00  0.00     0.001 A 
ATOM     77  C   UNL A   1      45.299  35.846  28.823  1.00  0.00     0.001 A 
ATOM     78  C   UNL A   1      46.141  35.951  29.929  1.00  0.00     0.000 A 
ENDBRANCH  60  73
ENDBRANCH  34  35
ENDBRANCH  27  29
ENDBRANCH  26  27
ENDBRANCH  25  26
ENDBRANCH   1  25
TORSDOF 14
ENDMDL
