MODEL 1
REMARK VINA RESULT:     -11.8      0.000      0.000
REMARK SMILES O=C(CCN1C(=O)S/C(=C\c2ccc(F)cc2)C1=O)Nc1ccc(O)cc1C(=O)OCCOC(=O)c1ccc(-c2c3nc(c(-c4ccccc4)c4ccc([nH]4)c(-c4ccccc4)c4nc(c(-c5ccccc5)c5ccc2[nH]5)C=C4)C=C3)cc1
REMARK SMILES IDX 30 1 28 2 29 3 27 4 21 5 22 6 23 7 26 8 24 9 20 10 1 11 2 12
REMARK SMILES IDX 3 14 4 15 5 16 6 17 18 18 7 19 8 20 9 21 19 22 10 23 11 24
REMARK SMILES IDX 12 25 17 26 13 27 16 28 14 29 15 30 25 31 31 33 32 34 33 35
REMARK SMILES IDX 34 36 35 37 36 38 37 39 83 40 38 41 82 42 39 43 40 44 41 45
REMARK SMILES IDX 76 46 42 47 81 48 75 49 77 50 43 51 80 52 74 53 73 54 44 56
REMARK SMILES IDX 66 57 51 58 65 59 52 60 55 61 64 62 78 63 53 64 54 65 63 67
REMARK SMILES IDX 79 68 56 69 45 70 46 71 50 72 47 73 49 74 48 75 67 76 68 77
REMARK SMILES IDX 72 78 69 79 71 80 70 81 57 82 58 83 62 84 59 85 61 86 60 87
REMARK H PARENT 20 13 25 32 77 55 55 66
REMARK Flexibility Score: inf
ROOT
ATOM      1  O   UNL A   1      36.317  20.730  25.255  1.00  0.00    -0.458 OA
ENDROOT
BRANCH   1   2
ATOM      2  C   UNL A   1      35.046  20.917  25.709  1.00  0.00     0.340 C 
ATOM      3  O   UNL A   1      34.755  21.409  26.787  1.00  0.00    -0.246 OA
BRANCH   2   4
ATOM      4  C   UNL A   1      34.021  20.480  24.713  1.00  0.00     0.087 A 
ATOM      5  C   UNL A   1      33.225  21.370  23.958  1.00  0.00     0.056 A 
ATOM      6  C   UNL A   1      32.284  20.835  23.066  1.00  0.00     0.031 A 
ATOM      7  C   UNL A   1      32.134  19.451  22.912  1.00  0.00     0.048 A 
ATOM      8  C   UNL A   1      33.912  19.095  24.495  1.00  0.00     0.064 A 
ATOM      9  C   UNL A   1      32.955  18.592  23.625  1.00  0.00     0.116 A 
BRANCH   5  10
ATOM     10  N   UNL A   1      33.483  22.757  24.048  1.00  0.00    -0.325 N 
ATOM     11  O   UNL A   1      35.347  23.078  22.720  1.00  0.00    -0.275 OA
ATOM     12  C   UNL A   1      34.555  23.473  23.574  1.00  0.00     0.226 C 
ATOM     13  H   UNL A   1      32.797  23.286  24.518  1.00  0.00     0.169 HD
BRANCH  12  14
ATOM     14  C   UNL A   1      34.795  24.828  24.247  1.00  0.00     0.122 C 
BRANCH  14  15
ATOM     15  C   UNL A   1      34.001  25.193  25.500  1.00  0.00     0.140 C 
BRANCH  15  16
ATOM     16  N   UNL A   1      32.858  26.116  25.399  1.00  0.00    -0.268 N 
ATOM     17  C   UNL A   1      33.011  27.406  25.860  1.00  0.00     0.293 C 
ATOM     18  C   UNL A   1      31.671  25.861  24.757  1.00  0.00     0.268 C 
ATOM     19  O   UNL A   1      33.998  27.869  26.410  1.00  0.00    -0.261 OA
ATOM     20  S   UNL A   1      31.628  28.397  25.414  1.00  0.00    -0.022 SA
ATOM     21  C   UNL A   1      30.943  27.132  24.488  1.00  0.00     0.083 C 
ATOM     22  O   UNL A   1      31.276  24.773  24.366  1.00  0.00    -0.268 OA
ATOM     23  C   UNL A   1      30.012  27.184  23.526  1.00  0.00     0.029 C 
BRANCH  23  24
ATOM     24  C   UNL A   1      29.343  28.349  22.926  1.00  0.00    -0.024 A 
ATOM     25  C   UNL A   1      28.033  28.708  23.275  1.00  0.00     0.011 A 
ATOM     26  C   UNL A   1      30.096  29.229  22.138  1.00  0.00     0.011 A 
ATOM     27  C   UNL A   1      27.487  29.924  22.859  1.00  0.00     0.040 A 
ATOM     28  C   UNL A   1      29.548  30.443  21.712  1.00  0.00     0.040 A 
ATOM     29  C   UNL A   1      28.253  30.783  22.084  1.00  0.00     0.123 A 
ATOM     30  F   UNL A   1      27.745  31.964  21.708  1.00  0.00    -0.207 F 
ENDBRANCH  23  24
ENDBRANCH  15  16
ENDBRANCH  14  15
ENDBRANCH  12  14
ENDBRANCH   5  10
BRANCH   9  31
ATOM     31  O   UNL A   1      32.858  17.239  23.505  1.00  0.00    -0.508 OA
ATOM     32  H   UNL A   1      33.628  16.724  23.363  1.00  0.00     0.293 HD
ENDBRANCH   9  31
ENDBRANCH   2   4
ENDBRANCH   1   2
BRANCH   1  33
ATOM     33  C   UNL A   1      37.328  21.653  25.714  1.00  0.00     0.275 C 
BRANCH  33  34
ATOM     34  C   UNL A   1      38.763  21.268  25.371  1.00  0.00     0.275 C 
BRANCH  34  35
ATOM     35  O   UNL A   1      39.498  20.932  26.550  1.00  0.00    -0.458 OA
BRANCH  35  36
ATOM     36  C   UNL A   1      40.730  20.455  26.285  1.00  0.00     0.338 C 
ATOM     37  O   UNL A   1      41.022  19.421  25.706  1.00  0.00    -0.246 OA
BRANCH  36  38
ATOM     38  C   UNL A   1      41.733  21.444  26.663  1.00  0.00     0.060 A 
ATOM     39  C   UNL A   1      41.950  21.608  28.028  1.00  0.00     0.016 A 
ATOM     40  C   UNL A   1      42.257  22.338  25.736  1.00  0.00     0.016 A 
ATOM     41  C   UNL A   1      42.591  22.737  28.500  1.00  0.00     0.010 A 
ATOM     42  C   UNL A   1      42.942  23.460  26.206  1.00  0.00     0.010 A 
ATOM     43  C   UNL A   1      43.046  23.695  27.592  1.00  0.00    -0.014 A 
BRANCH  43  44
ATOM     44  C   UNL A   1      43.422  25.029  28.104  1.00  0.00     0.031 A 
ATOM     45  C   UNL A   1      42.328  26.006  28.437  1.00  0.00     0.074 A 
ATOM     46  C   UNL A   1      44.708  25.325  28.361  1.00  0.00     0.049 A 
ATOM     47  N   UNL A   1      42.413  27.272  28.749  1.00  0.00    -0.248 NA
ATOM     48  C   UNL A   1      40.949  25.487  28.403  1.00  0.00     0.031 C 
ATOM     49  C   UNL A   1      45.840  24.413  28.190  1.00  0.00     0.029 A 
ATOM     50  N   UNL A   1      45.271  26.476  28.844  1.00  0.00    -0.354 N 
ATOM     51  C   UNL A   1      41.102  27.714  28.875  1.00  0.00     0.074 A 
ATOM     52  C   UNL A   1      40.239  26.586  28.612  1.00  0.00     0.031 C 
ATOM     53  C   UNL A   1      46.961  25.032  28.592  1.00  0.00     0.029 A 
ATOM     54  C   UNL A   1      46.635  26.402  28.972  1.00  0.00     0.049 A 
ATOM     55  H   UNL A   1      44.749  27.278  29.077  1.00  0.00     0.167 HD
ATOM     56  C   UNL A   1      40.662  28.959  29.176  1.00  0.00     0.031 A 
ATOM     57  C   UNL A   1      47.522  27.350  29.323  1.00  0.00     0.031 A 
ATOM     58  C   UNL A   1      41.537  30.056  29.486  1.00  0.00     0.049 A 
ATOM     59  C   UNL A   1      47.014  28.730  29.629  1.00  0.00     0.074 A 
ATOM     60  C   UNL A   1      41.214  31.368  29.779  1.00  0.00     0.029 A 
ATOM     61  N   UNL A   1      42.918  29.952  29.571  1.00  0.00    -0.354 N 
ATOM     62  N   UNL A   1      45.779  29.173  29.640  1.00  0.00    -0.248 NA
ATOM     63  C   UNL A   1      48.024  29.744  29.960  1.00  0.00     0.031 C 
ATOM     64  C   UNL A   1      42.404  32.065  30.017  1.00  0.00     0.029 A 
ATOM     65  C   UNL A   1      43.463  31.175  29.916  1.00  0.00     0.049 A 
ATOM     66  H   UNL A   1      43.434  29.130  29.408  1.00  0.00     0.167 HD
ATOM     67  C   UNL A   1      45.859  30.512  29.995  1.00  0.00     0.074 A 
ATOM     68  C   UNL A   1      47.265  30.802  30.209  1.00  0.00     0.031 C 
ATOM     69  C   UNL A   1      44.866  31.424  30.128  1.00  0.00     0.031 A 
BRANCH  56  70
ATOM     70  C   UNL A   1      39.179  29.199  29.123  1.00  0.00    -0.014 A 
ATOM     71  C   UNL A   1      38.359  29.025  30.248  1.00  0.00     0.009 A 
ATOM     72  C   UNL A   1      38.593  29.602  27.912  1.00  0.00     0.009 A 
ATOM     73  C   UNL A   1      36.977  29.215  30.151  1.00  0.00     0.001 A 
ATOM     74  C   UNL A   1      37.216  29.819  27.825  1.00  0.00     0.001 A 
ATOM     75  C   UNL A   1      36.408  29.613  28.941  1.00  0.00     0.000 A 
ENDBRANCH  56  70
BRANCH  57  76
ATOM     76  C   UNL A   1      48.972  27.032  29.362  1.00  0.00    -0.014 A 
ATOM     77  C   UNL A   1      49.768  27.183  28.217  1.00  0.00     0.009 A 
ATOM     78  C   UNL A   1      49.572  26.590  30.552  1.00  0.00     0.009 A 
ATOM     79  C   UNL A   1      51.132  26.883  28.260  1.00  0.00     0.001 A 
ATOM     80  C   UNL A   1      50.940  26.320  30.600  1.00  0.00     0.001 A 
ATOM     81  C   UNL A   1      51.718  26.459  29.453  1.00  0.00     0.000 A 
ENDBRANCH  57  76
BRANCH  69  82
ATOM     82  C   UNL A   1      45.269  32.799  30.569  1.00  0.00    -0.014 A 
ATOM     83  C   UNL A   1      45.816  33.723  29.667  1.00  0.00     0.009 A 
ATOM     84  C   UNL A   1      45.076  33.178  31.907  1.00  0.00     0.009 A 
ATOM     85  C   UNL A   1      46.199  34.992  30.106  1.00  0.00     0.001 A 
ATOM     86  C   UNL A   1      45.434  34.456  32.337  1.00  0.00     0.001 A 
ATOM     87  C   UNL A   1      46.005  35.357  31.438  1.00  0.00     0.000 A 
ENDBRANCH  69  82
ENDBRANCH  43  44
ENDBRANCH  36  38
ENDBRANCH  35  36
ENDBRANCH  34  35
ENDBRANCH  33  34
ENDBRANCH   1  33
TORSDOF 17
ENDMDL
MODEL 2
REMARK VINA RESULT:     -11.7      2.245      5.779
REMARK SMILES O=C(CCN1C(=O)S/C(=C\c2ccc(F)cc2)C1=O)Nc1ccc(O)cc1C(=O)OCCOC(=O)c1ccc(-c2c3nc(c(-c4ccccc4)c4ccc([nH]4)c(-c4ccccc4)c4nc(c(-c5ccccc5)c5ccc2[nH]5)C=C4)C=C3)cc1
REMARK SMILES IDX 30 1 28 2 29 3 27 4 21 5 22 6 23 7 26 8 24 9 20 10 1 11 2 12
REMARK SMILES IDX 3 14 4 15 5 16 6 17 18 18 7 19 8 20 9 21 19 22 10 23 11 24
REMARK SMILES IDX 12 25 17 26 13 27 16 28 14 29 15 30 25 31 31 33 32 34 33 35
REMARK SMILES IDX 34 36 35 37 36 38 37 39 83 40 38 41 82 42 39 43 40 44 41 45
REMARK SMILES IDX 76 46 42 47 81 48 75 49 77 50 43 51 80 52 74 53 73 54 44 56
REMARK SMILES IDX 66 57 51 58 65 59 52 60 55 61 64 62 78 63 53 64 54 65 63 67
REMARK SMILES IDX 79 68 56 69 45 70 46 71 50 72 47 73 49 74 48 75 67 76 68 77
REMARK SMILES IDX 72 78 69 79 71 80 70 81 57 82 58 83 62 84 59 85 61 86 60 87
REMARK H PARENT 20 13 25 32 77 55 55 66
REMARK Flexibility Score: inf
ROOT
ATOM      1  O   UNL A   1      36.130  20.723  24.823  1.00  0.00    -0.458 OA
ENDROOT
BRANCH   1   2
ATOM      2  C   UNL A   1      34.876  20.564  25.330  1.00  0.00     0.340 C 
ATOM      3  O   UNL A   1      34.451  21.118  26.331  1.00  0.00    -0.246 OA
BRANCH   2   4
ATOM      4  C   UNL A   1      34.042  19.647  24.493  1.00  0.00     0.087 A 
ATOM      5  C   UNL A   1      32.915  20.064  23.750  1.00  0.00     0.056 A 
ATOM      6  C   UNL A   1      32.203  19.104  23.017  1.00  0.00     0.031 A 
ATOM      7  C   UNL A   1      32.597  17.759  23.006  1.00  0.00     0.048 A 
ATOM      8  C   UNL A   1      34.470  18.310  24.415  1.00  0.00     0.064 A 
ATOM      9  C   UNL A   1      33.733  17.376  23.702  1.00  0.00     0.116 A 
BRANCH   5  10
ATOM     10  N   UNL A   1      32.615  21.445  23.685  1.00  0.00    -0.325 N 
ATOM     11  O   UNL A   1      31.283  21.826  25.535  1.00  0.00    -0.275 OA
ATOM     12  C   UNL A   1      31.743  22.180  24.451  1.00  0.00     0.226 C 
ATOM     13  H   UNL A   1      33.098  21.950  22.993  1.00  0.00     0.169 HD
BRANCH  12  14
ATOM     14  C   UNL A   1      31.269  23.498  23.831  1.00  0.00     0.122 C 
BRANCH  14  15
ATOM     15  C   UNL A   1      32.294  24.442  23.206  1.00  0.00     0.140 C 
BRANCH  15  16
ATOM     16  N   UNL A   1      32.085  25.898  23.273  1.00  0.00    -0.268 N 
ATOM     17  C   UNL A   1      32.939  26.720  22.568  1.00  0.00     0.293 C 
ATOM     18  C   UNL A   1      31.022  26.532  23.870  1.00  0.00     0.268 C 
ATOM     19  O   UNL A   1      33.912  26.371  21.919  1.00  0.00    -0.261 OA
ATOM     20  S   UNL A   1      32.360  28.381  22.581  1.00  0.00    -0.022 SA
ATOM     21  C   UNL A   1      30.916  27.936  23.382  1.00  0.00     0.083 C 
ATOM     22  O   UNL A   1      30.207  26.027  24.627  1.00  0.00    -0.268 OA
ATOM     23  C   UNL A   1      29.753  28.594  23.478  1.00  0.00     0.029 C 
BRANCH  23  24
ATOM     24  C   UNL A   1      29.341  29.868  22.868  1.00  0.00    -0.024 A 
ATOM     25  C   UNL A   1      28.852  29.933  21.554  1.00  0.00     0.011 A 
ATOM     26  C   UNL A   1      29.249  31.007  23.678  1.00  0.00     0.011 A 
ATOM     27  C   UNL A   1      28.273  31.104  21.061  1.00  0.00     0.040 A 
ATOM     28  C   UNL A   1      28.678  32.184  23.182  1.00  0.00     0.040 A 
ATOM     29  C   UNL A   1      28.188  32.219  21.882  1.00  0.00     0.123 A 
ATOM     30  F   UNL A   1      27.606  33.335  21.424  1.00  0.00    -0.207 F 
ENDBRANCH  23  24
ENDBRANCH  15  16
ENDBRANCH  14  15
ENDBRANCH  12  14
ENDBRANCH   5  10
BRANCH   9  31
ATOM     31  O   UNL A   1      34.165  16.084  23.717  1.00  0.00    -0.508 OA
ATOM     32  H   UNL A   1      35.001  15.865  23.353  1.00  0.00     0.293 HD
ENDBRANCH   9  31
ENDBRANCH   2   4
ENDBRANCH   1   2
BRANCH   1  33
ATOM     33  C   UNL A   1      37.039  19.606  24.940  1.00  0.00     0.275 C 
BRANCH  33  34
ATOM     34  C   UNL A   1      38.520  19.967  24.910  1.00  0.00     0.275 C 
BRANCH  34  35
ATOM     35  O   UNL A   1      38.776  21.136  25.690  1.00  0.00    -0.458 OA
BRANCH  35  36
ATOM     36  C   UNL A   1      39.966  21.097  26.321  1.00  0.00     0.338 C 
ATOM     37  O   UNL A   1      40.846  20.260  26.207  1.00  0.00    -0.246 OA
BRANCH  36  38
ATOM     38  C   UNL A   1      40.155  22.321  27.094  1.00  0.00     0.060 A 
ATOM     39  C   UNL A   1      39.369  23.409  26.724  1.00  0.00     0.016 A 
ATOM     40  C   UNL A   1      41.222  22.467  27.973  1.00  0.00     0.016 A 
ATOM     41  C   UNL A   1      39.710  24.684  27.130  1.00  0.00     0.010 A 
ATOM     42  C   UNL A   1      41.546  23.749  28.420  1.00  0.00     0.010 A 
ATOM     43  C   UNL A   1      40.832  24.866  27.940  1.00  0.00    -0.014 A 
BRANCH  43  44
ATOM     44  C   UNL A   1      41.377  26.231  28.094  1.00  0.00     0.031 A 
ATOM     45  C   UNL A   1      42.635  26.590  27.350  1.00  0.00     0.074 A 
ATOM     46  C   UNL A   1      40.709  27.159  28.799  1.00  0.00     0.049 A 
ATOM     47  N   UNL A   1      43.378  27.661  27.447  1.00  0.00    -0.248 NA
ATOM     48  C   UNL A   1      43.127  25.604  26.373  1.00  0.00     0.031 C 
ATOM     49  C   UNL A   1      39.419  26.957  29.461  1.00  0.00     0.029 A 
ATOM     50  N   UNL A   1      41.018  28.468  29.055  1.00  0.00    -0.354 N 
ATOM     51  C   UNL A   1      44.459  27.442  26.602  1.00  0.00     0.074 A 
ATOM     52  C   UNL A   1      44.276  26.143  25.996  1.00  0.00     0.031 C 
ATOM     53  C   UNL A   1      39.033  28.113  30.024  1.00  0.00     0.029 A 
ATOM     54  C   UNL A   1      40.081  29.108  29.827  1.00  0.00     0.049 A 
ATOM     55  H   UNL A   1      41.831  28.908  28.718  1.00  0.00     0.167 HD
ATOM     56  C   UNL A   1      45.514  28.255  26.362  1.00  0.00     0.031 A 
ATOM     57  C   UNL A   1      40.090  30.349  30.346  1.00  0.00     0.031 A 
ATOM     58  C   UNL A   1      45.652  29.566  26.936  1.00  0.00     0.049 A 
ATOM     59  C   UNL A   1      41.283  31.225  30.088  1.00  0.00     0.074 A 
ATOM     60  C   UNL A   1      46.685  30.473  26.792  1.00  0.00     0.029 A 
ATOM     61  N   UNL A   1      44.697  30.168  27.744  1.00  0.00    -0.354 N 
ATOM     62  N   UNL A   1      42.355  30.973  29.376  1.00  0.00    -0.248 NA
ATOM     63  C   UNL A   1      41.270  32.553  30.715  1.00  0.00     0.031 C 
ATOM     64  C   UNL A   1      46.368  31.615  27.536  1.00  0.00     0.029 A 
ATOM     65  C   UNL A   1      45.115  31.435  28.105  1.00  0.00     0.049 A 
ATOM     66  H   UNL A   1      43.849  29.753  28.020  1.00  0.00     0.167 HD
ATOM     67  C   UNL A   1      43.140  32.115  29.454  1.00  0.00     0.074 A 
ATOM     68  C   UNL A   1      42.407  33.068  30.267  1.00  0.00     0.031 C 
ATOM     69  C   UNL A   1      44.357  32.358  28.909  1.00  0.00     0.031 A 
BRANCH  56  70
ATOM     70  C   UNL A   1      46.618  27.718  25.494  1.00  0.00    -0.014 A 
ATOM     71  C   UNL A   1      46.711  28.038  24.131  1.00  0.00     0.009 A 
ATOM     72  C   UNL A   1      47.580  26.865  26.058  1.00  0.00     0.009 A 
ATOM     73  C   UNL A   1      47.725  27.485  23.344  1.00  0.00     0.001 A 
ATOM     74  C   UNL A   1      48.609  26.337  25.275  1.00  0.00     0.001 A 
ATOM     75  C   UNL A   1      48.673  26.638  23.917  1.00  0.00     0.000 A 
ENDBRANCH  56  70
BRANCH  57  76
ATOM     76  C   UNL A   1      38.957  30.810  31.187  1.00  0.00    -0.014 A 
ATOM     77  C   UNL A   1      38.957  30.588  32.572  1.00  0.00     0.009 A 
ATOM     78  C   UNL A   1      37.874  31.492  30.609  1.00  0.00     0.009 A 
ATOM     79  C   UNL A   1      37.888  31.026  33.358  1.00  0.00     0.001 A 
ATOM     80  C   UNL A   1      36.821  31.954  31.401  1.00  0.00     0.001 A 
ATOM     81  C   UNL A   1      36.826  31.714  32.773  1.00  0.00     0.000 A 
ENDBRANCH  57  76
BRANCH  69  82
ATOM     82  C   UNL A   1      44.938  33.721  29.140  1.00  0.00    -0.014 A 
ATOM     83  C   UNL A   1      44.627  34.798  28.298  1.00  0.00     0.009 A 
ATOM     84  C   UNL A   1      45.793  33.929  30.233  1.00  0.00     0.009 A 
ATOM     85  C   UNL A   1      45.193  36.053  28.525  1.00  0.00     0.001 A 
ATOM     86  C   UNL A   1      46.336  35.191  30.473  1.00  0.00     0.001 A 
ATOM     87  C   UNL A   1      46.044  36.248  29.612  1.00  0.00     0.000 A 
ENDBRANCH  69  82
ENDBRANCH  43  44
ENDBRANCH  36  38
ENDBRANCH  35  36
ENDBRANCH  34  35
ENDBRANCH  33  34
ENDBRANCH   1  33
TORSDOF 17
ENDMDL
MODEL 3
REMARK VINA RESULT:     -11.7      0.603      5.662
REMARK SMILES O=C(CCN1C(=O)S/C(=C\c2ccc(F)cc2)C1=O)Nc1ccc(O)cc1C(=O)OCCOC(=O)c1ccc(-c2c3nc(c(-c4ccccc4)c4ccc([nH]4)c(-c4ccccc4)c4nc(c(-c5ccccc5)c5ccc2[nH]5)C=C4)C=C3)cc1
REMARK SMILES IDX 30 1 28 2 29 3 27 4 21 5 22 6 23 7 26 8 24 9 20 10 1 11 2 12
REMARK SMILES IDX 3 14 4 15 5 16 6 17 18 18 7 19 8 20 9 21 19 22 10 23 11 24
REMARK SMILES IDX 12 25 17 26 13 27 16 28 14 29 15 30 25 31 31 33 32 34 33 35
REMARK SMILES IDX 34 36 35 37 36 38 37 39 83 40 38 41 82 42 39 43 40 44 41 45
REMARK SMILES IDX 76 46 42 47 81 48 75 49 77 50 43 51 80 52 74 53 73 54 44 56
REMARK SMILES IDX 66 57 51 58 65 59 52 60 55 61 64 62 78 63 53 64 54 65 63 67
REMARK SMILES IDX 79 68 56 69 45 70 46 71 50 72 47 73 49 74 48 75 67 76 68 77
REMARK SMILES IDX 72 78 69 79 71 80 70 81 57 82 58 83 62 84 59 85 61 86 60 87
REMARK H PARENT 20 13 25 32 77 55 55 66
REMARK Flexibility Score: inf
ROOT
ATOM      1  O   UNL A   1      36.160  20.606  24.917  1.00  0.00    -0.458 OA
ENDROOT
BRANCH   1   2
ATOM      2  C   UNL A   1      34.906  20.749  25.432  1.00  0.00     0.340 C 
ATOM      3  O   UNL A   1      34.655  21.122  26.566  1.00  0.00    -0.246 OA
BRANCH   2   4
ATOM      4  C   UNL A   1      33.846  20.428  24.428  1.00  0.00     0.087 A 
ATOM      5  C   UNL A   1      33.066  21.402  23.766  1.00  0.00     0.056 A 
ATOM      6  C   UNL A   1      32.088  20.972  22.856  1.00  0.00     0.031 A 
ATOM      7  C   UNL A   1      31.886  19.611  22.597  1.00  0.00     0.048 A 
ATOM      8  C   UNL A   1      33.683  19.069  24.104  1.00  0.00     0.064 A 
ATOM      9  C   UNL A   1      32.691  18.670  23.219  1.00  0.00     0.116 A 
BRANCH   5  10
ATOM     10  N   UNL A   1      33.374  22.768  23.959  1.00  0.00    -0.325 N 
ATOM     11  O   UNL A   1      35.259  23.116  22.668  1.00  0.00    -0.275 OA
ATOM     12  C   UNL A   1      34.476  23.476  23.545  1.00  0.00     0.226 C 
ATOM     13  H   UNL A   1      32.705  23.286  24.463  1.00  0.00     0.169 HD
BRANCH  12  14
ATOM     14  C   UNL A   1      34.761  24.767  24.318  1.00  0.00     0.122 C 
BRANCH  14  15
ATOM     15  C   UNL A   1      33.924  25.102  25.552  1.00  0.00     0.140 C 
BRANCH  15  16
ATOM     16  N   UNL A   1      32.798  26.043  25.439  1.00  0.00    -0.268 N 
ATOM     17  C   UNL A   1      32.984  27.346  25.853  1.00  0.00     0.293 C 
ATOM     18  C   UNL A   1      31.595  25.791  24.825  1.00  0.00     0.268 C 
ATOM     19  O   UNL A   1      33.989  27.807  26.370  1.00  0.00    -0.261 OA
ATOM     20  S   UNL A   1      31.613  28.348  25.397  1.00  0.00    -0.022 SA
ATOM     21  C   UNL A   1      30.887  27.067  24.526  1.00  0.00     0.083 C 
ATOM     22  O   UNL A   1      31.172  24.698  24.478  1.00  0.00    -0.268 OA
ATOM     23  C   UNL A   1      29.940  27.104  23.579  1.00  0.00     0.029 C 
BRANCH  23  24
ATOM     24  C   UNL A   1      29.284  28.261  22.951  1.00  0.00    -0.024 A 
ATOM     25  C   UNL A   1      27.928  28.549  23.170  1.00  0.00     0.011 A 
ATOM     26  C   UNL A   1      30.073  29.204  22.279  1.00  0.00     0.011 A 
ATOM     27  C   UNL A   1      27.372  29.756  22.740  1.00  0.00     0.040 A 
ATOM     28  C   UNL A   1      29.515  30.409  21.838  1.00  0.00     0.040 A 
ATOM     29  C   UNL A   1      28.173  30.677  22.081  1.00  0.00     0.123 A 
ATOM     30  F   UNL A   1      27.652  31.848  21.694  1.00  0.00    -0.207 F 
ENDBRANCH  23  24
ENDBRANCH  15  16
ENDBRANCH  14  15
ENDBRANCH  12  14
ENDBRANCH   5  10
BRANCH   9  31
ATOM     31  O   UNL A   1      32.544  17.335  22.994  1.00  0.00    -0.508 OA
ATOM     32  H   UNL A   1      31.794  16.883  23.329  1.00  0.00     0.293 HD
ENDBRANCH   9  31
ENDBRANCH   2   4
ENDBRANCH   1   2
BRANCH   1  33
ATOM     33  C   UNL A   1      37.256  21.155  25.681  1.00  0.00     0.275 C 
BRANCH  33  34
ATOM     34  C   UNL A   1      38.631  20.589  25.343  1.00  0.00     0.275 C 
BRANCH  34  35
ATOM     35  O   UNL A   1      39.417  20.420  26.524  1.00  0.00    -0.458 OA
BRANCH  35  36
ATOM     36  C   UNL A   1      40.695  20.081  26.262  1.00  0.00     0.338 C 
ATOM     37  O   UNL A   1      41.099  19.098  25.664  1.00  0.00    -0.246 OA
BRANCH  36  38
ATOM     38  C   UNL A   1      41.586  21.161  26.674  1.00  0.00     0.060 A 
ATOM     39  C   UNL A   1      41.706  21.371  28.044  1.00  0.00     0.016 A 
ATOM     40  C   UNL A   1      42.085  22.079  25.756  1.00  0.00     0.016 A 
ATOM     41  C   UNL A   1      42.219  22.560  28.524  1.00  0.00     0.010 A 
ATOM     42  C   UNL A   1      42.642  23.265  26.237  1.00  0.00     0.010 A 
ATOM     43  C   UNL A   1      42.643  23.536  27.620  1.00  0.00    -0.014 A 
BRANCH  43  44
ATOM     44  C   UNL A   1      42.873  24.908  28.119  1.00  0.00     0.031 A 
ATOM     45  C   UNL A   1      44.287  25.349  28.380  1.00  0.00     0.074 A 
ATOM     46  C   UNL A   1      41.851  25.772  28.240  1.00  0.00     0.049 A 
ATOM     47  N   UNL A   1      44.723  26.437  28.959  1.00  0.00    -0.248 NA
ATOM     48  C   UNL A   1      45.355  24.435  27.938  1.00  0.00     0.031 C 
ATOM     49  C   UNL A   1      40.455  25.490  27.900  1.00  0.00     0.029 A 
ATOM     50  N   UNL A   1      41.839  27.075  28.662  1.00  0.00    -0.354 N 
ATOM     51  C   UNL A   1      46.104  26.302  29.015  1.00  0.00     0.074 A 
ATOM     52  C   UNL A   1      46.438  25.033  28.409  1.00  0.00     0.031 C 
ATOM     53  C   UNL A   1      39.726  26.599  28.100  1.00  0.00     0.029 A 
ATOM     54  C   UNL A   1      40.588  27.638  28.653  1.00  0.00     0.049 A 
ATOM     55  H   UNL A   1      42.648  27.559  28.944  1.00  0.00     0.167 HD
ATOM     56  C   UNL A   1      47.011  27.162  29.536  1.00  0.00     0.031 A 
ATOM     57  C   UNL A   1      40.183  28.848  29.078  1.00  0.00     0.031 A 
ATOM     58  C   UNL A   1      46.662  28.443  30.088  1.00  0.00     0.049 A 
ATOM     59  C   UNL A   1      41.201  29.777  29.676  1.00  0.00     0.074 A 
ATOM     60  C   UNL A   1      47.484  29.390  30.670  1.00  0.00     0.029 A 
ATOM     61  N   UNL A   1      45.377  28.966  30.094  1.00  0.00    -0.354 N 
ATOM     62  N   UNL A   1      42.492  29.600  29.827  1.00  0.00    -0.248 NA
ATOM     63  C   UNL A   1      40.704  31.066  30.171  1.00  0.00     0.031 C 
ATOM     64  C   UNL A   1      46.691  30.478  31.052  1.00  0.00     0.029 A 
ATOM     65  C   UNL A   1      45.383  30.225  30.666  1.00  0.00     0.049 A 
ATOM     66  H   UNL A   1      44.580  28.508  29.744  1.00  0.00     0.167 HD
ATOM     67  C   UNL A   1      42.967  30.762  30.420  1.00  0.00     0.074 A 
ATOM     68  C   UNL A   1      41.825  31.643  30.582  1.00  0.00     0.031 C 
ATOM     69  C   UNL A   1      44.229  31.075  30.803  1.00  0.00     0.031 A 
BRANCH  56  70
ATOM     70  C   UNL A   1      48.444  26.711  29.583  1.00  0.00    -0.014 A 
ATOM     71  C   UNL A   1      49.364  27.061  28.584  1.00  0.00     0.009 A 
ATOM     72  C   UNL A   1      48.876  25.910  30.653  1.00  0.00     0.009 A 
ATOM     73  C   UNL A   1      50.678  26.587  28.637  1.00  0.00     0.001 A 
ATOM     74  C   UNL A   1      50.197  25.462  30.718  1.00  0.00     0.001 A 
ATOM     75  C   UNL A   1      51.093  25.791  29.704  1.00  0.00     0.000 A 
ENDBRANCH  56  70
BRANCH  57  76
ATOM     76  C   UNL A   1      38.749  29.224  28.990  1.00  0.00    -0.014 A 
ATOM     77  C   UNL A   1      38.214  29.729  27.796  1.00  0.00     0.009 A 
ATOM     78  C   UNL A   1      37.902  29.062  30.098  1.00  0.00     0.009 A 
ATOM     79  C   UNL A   1      36.864  30.079  27.719  1.00  0.00     0.001 A 
ATOM     80  C   UNL A   1      36.547  29.384  30.009  1.00  0.00     0.001 A 
ATOM     81  C   UNL A   1      36.030  29.900  28.823  1.00  0.00     0.000 A 
ENDBRANCH  57  76
BRANCH  69  82
ATOM     82  C   UNL A   1      44.436  32.442  31.384  1.00  0.00    -0.014 A 
ATOM     83  C   UNL A   1      44.731  33.544  30.569  1.00  0.00     0.009 A 
ATOM     84  C   UNL A   1      44.311  32.627  32.770  1.00  0.00     0.009 A 
ATOM     85  C   UNL A   1      44.935  34.803  31.136  1.00  0.00     0.001 A 
ATOM     86  C   UNL A   1      44.489  33.891  33.330  1.00  0.00     0.001 A 
ATOM     87  C   UNL A   1      44.812  34.975  32.514  1.00  0.00     0.000 A 
ENDBRANCH  69  82
ENDBRANCH  43  44
ENDBRANCH  36  38
ENDBRANCH  35  36
ENDBRANCH  34  35
ENDBRANCH  33  34
ENDBRANCH   1  33
TORSDOF 17
ENDMDL
