MODEL 1
REMARK VINA RESULT:      -9.0      0.000      0.000
REMARK SMILES C[C@]1(C(=O)OCCOC(=O)c2ccc(-c3c4nc(c(-c5ccccc5)c5ccc([nH]5)c(-c5ccccc5)c5nc(c(-c6ccccc6)c6ccc3[nH]6)C=C5)C=C4)cc2)COC[C@@H]1NC(=O)[C@H]1C=C[C@@H]([NH3+])C1
REMARK SMILES IDX 6 1 5 2 3 3 4 4 2 5 1 6 59 7 62 8 60 9 61 10 63 11 64 12
REMARK SMILES IDX 65 14 66 15 67 16 71 17 68 18 69 19 70 20 7 24 8 25 9 26
REMARK SMILES IDX 10 27 11 28 12 29 58 30 13 31 57 32 14 33 15 34 16 35 51 36
REMARK SMILES IDX 17 37 56 38 50 39 52 40 18 41 55 42 49 43 48 44 19 46 41 47
REMARK SMILES IDX 26 48 40 49 27 50 30 51 39 52 53 53 28 54 29 55 38 57 54 58
REMARK SMILES IDX 31 59 20 60 21 61 25 62 22 63 24 64 23 65 42 66 43 67 47 68
REMARK SMILES IDX 44 69 46 70 45 71 32 72 33 73 37 74 34 75 36 76 35 77
REMARK H PARENT 63 13 70 21 70 22 70 23 52 45 30 56
REMARK Flexibility Score: inf
ROOT
ATOM      1  C   UNL A   1      34.304  33.948  29.459  1.00  0.00     0.274 C 
ENDROOT
BRANCH   1   2
ATOM      2  O   UNL A   1      35.432  33.243  30.018  1.00  0.00    -0.462 OA
BRANCH   2   3
ATOM      3  C   UNL A   1      35.294  32.852  31.314  1.00  0.00     0.316 C 
ATOM      4  O   UNL A   1      34.257  32.414  31.796  1.00  0.00    -0.251 OA
BRANCH   3   5
ATOM      5  C   UNL A   1      36.559  33.091  32.113  1.00  0.00     0.111 C 
ATOM      6  C   UNL A   1      37.804  33.358  31.253  1.00  0.00     0.028 C 
ATOM      7  C   UNL A   1      36.373  34.330  33.004  1.00  0.00     0.181 C 
ATOM      8  C   UNL A   1      36.673  32.062  33.257  1.00  0.00     0.127 C 
ATOM      9  O   UNL A   1      37.287  34.168  34.112  1.00  0.00    -0.378 OA
ATOM     10  C   UNL A   1      37.583  32.762  34.252  1.00  0.00     0.186 C 
BRANCH   8  11
ATOM     11  N   UNL A   1      36.813  30.612  33.103  1.00  0.00    -0.349 N 
ATOM     12  C   UNL A   1      37.745  29.636  33.233  1.00  0.00     0.227 C 
ATOM     13  H   UNL A   1      35.958  30.221  32.811  1.00  0.00     0.163 HD
ATOM     14  O   UNL A   1      37.330  28.475  33.177  1.00  0.00    -0.274 OA
BRANCH  12  15
ATOM     15  C   UNL A   1      39.218  29.956  33.378  1.00  0.00     0.107 C 
ATOM     16  C   UNL A   1      39.695  30.207  34.792  1.00  0.00    -0.012 C 
ATOM     17  C   UNL A   1      40.035  28.701  33.098  1.00  0.00     0.087 C 
ATOM     18  C   UNL A   1      40.888  29.626  35.014  1.00  0.00     0.033 C 
ATOM     19  C   UNL A   1      41.371  28.935  33.781  1.00  0.00     0.205 C 
BRANCH  19  20
ATOM     20  N   UNL A   1      42.067  27.687  33.981  1.00  0.00    -0.352 N 
ATOM     21  H   UNL A   1      41.388  26.928  34.057  1.00  0.00     0.345 HD
ATOM     22  H   UNL A   1      42.616  27.737  34.839  1.00  0.00     0.345 HD
ATOM     23  H   UNL A   1      42.685  27.511  33.191  1.00  0.00     0.345 HD
ENDBRANCH  19  20
ENDBRANCH  12  15
ENDBRANCH   8  11
ENDBRANCH   3   5
ENDBRANCH   2   3
ENDBRANCH   1   2
BRANCH   1  24
ATOM     24  C   UNL A   1      33.747  33.230  28.232  1.00  0.00     0.275 C 
BRANCH  24  25
ATOM     25  O   UNL A   1      34.746  32.362  27.667  1.00  0.00    -0.458 OA
BRANCH  25  26
ATOM     26  C   UNL A   1      34.508  31.038  27.822  1.00  0.00     0.338 C 
ATOM     27  O   UNL A   1      33.420  30.491  27.739  1.00  0.00    -0.246 OA
BRANCH  26  28
ATOM     28  C   UNL A   1      35.756  30.289  28.117  1.00  0.00     0.060 A 
ATOM     29  C   UNL A   1      36.037  29.780  29.383  1.00  0.00     0.016 A 
ATOM     30  C   UNL A   1      36.731  30.208  27.117  1.00  0.00     0.016 A 
ATOM     31  C   UNL A   1      37.333  29.327  29.677  1.00  0.00     0.010 A 
ATOM     32  C   UNL A   1      37.992  29.662  27.392  1.00  0.00     0.010 A 
ATOM     33  C   UNL A   1      38.338  29.268  28.693  1.00  0.00    -0.014 A 
BRANCH  33  34
ATOM     34  C   UNL A   1      39.736  28.833  29.015  1.00  0.00     0.031 A 
ATOM     35  C   UNL A   1      40.254  27.466  28.608  1.00  0.00     0.074 A 
ATOM     36  C   UNL A   1      40.579  29.656  29.672  1.00  0.00     0.049 A 
ATOM     37  N   UNL A   1      41.362  26.853  28.956  1.00  0.00    -0.248 NA
ATOM     38  C   UNL A   1      39.419  26.681  27.687  1.00  0.00     0.031 C 
ATOM     39  C   UNL A   1      40.282  31.028  30.087  1.00  0.00     0.029 A 
ATOM     40  N   UNL A   1      41.869  29.454  30.106  1.00  0.00    -0.354 N 
ATOM     41  C   UNL A   1      41.335  25.613  28.324  1.00  0.00     0.074 A 
ATOM     42  C   UNL A   1      40.104  25.553  27.570  1.00  0.00     0.031 C 
ATOM     43  C   UNL A   1      41.366  31.558  30.667  1.00  0.00     0.029 A 
ATOM     44  C   UNL A   1      42.393  30.530  30.779  1.00  0.00     0.049 A 
ATOM     45  H   UNL A   1      42.367  28.620  29.950  1.00  0.00     0.167 HD
ATOM     46  C   UNL A   1      42.241  24.605  28.373  1.00  0.00     0.031 A 
ATOM     47  C   UNL A   1      43.536  30.672  31.476  1.00  0.00     0.031 A 
ATOM     48  C   UNL A   1      43.475  24.649  29.114  1.00  0.00     0.049 A 
ATOM     49  C   UNL A   1      44.468  29.508  31.623  1.00  0.00     0.074 A 
ATOM     50  C   UNL A   1      44.448  23.669  29.229  1.00  0.00     0.029 A 
ATOM     51  N   UNL A   1      43.906  25.730  29.863  1.00  0.00    -0.354 N 
ATOM     52  N   UNL A   1      44.385  28.314  31.092  1.00  0.00    -0.248 NA
ATOM     53  C   UNL A   1      45.635  29.704  32.494  1.00  0.00     0.031 C 
ATOM     54  C   UNL A   1      45.444  24.139  30.091  1.00  0.00     0.029 A 
ATOM     55  C   UNL A   1      45.115  25.431  30.469  1.00  0.00     0.049 A 
ATOM     56  H   UNL A   1      43.426  26.584  29.951  1.00  0.00     0.167 HD
ATOM     57  C   UNL A   1      45.485  27.614  31.567  1.00  0.00     0.074 A 
ATOM     58  C   UNL A   1      46.233  28.523  32.410  1.00  0.00     0.031 C 
ATOM     59  C   UNL A   1      45.838  26.329  31.327  1.00  0.00     0.031 A 
BRANCH  46  60
ATOM     60  C   UNL A   1      41.918  23.330  27.644  1.00  0.00    -0.014 A 
ATOM     61  C   UNL A   1      42.362  23.100  26.333  1.00  0.00     0.009 A 
ATOM     62  C   UNL A   1      41.225  22.308  28.315  1.00  0.00     0.009 A 
ATOM     63  C   UNL A   1      42.105  21.877  25.705  1.00  0.00     0.001 A 
ATOM     64  C   UNL A   1      40.989  21.082  27.693  1.00  0.00     0.001 A 
ATOM     65  C   UNL A   1      41.426  20.868  26.387  1.00  0.00     0.000 A 
ENDBRANCH  46  60
BRANCH  47  66
ATOM     66  C   UNL A   1      43.797  31.954  32.180  1.00  0.00    -0.014 A 
ATOM     67  C   UNL A   1      43.337  32.164  33.487  1.00  0.00     0.009 A 
ATOM     68  C   UNL A   1      44.556  32.956  31.554  1.00  0.00     0.009 A 
ATOM     69  C   UNL A   1      43.640  33.354  34.155  1.00  0.00     0.001 A 
ATOM     70  C   UNL A   1      44.886  34.128  32.236  1.00  0.00     0.001 A 
ATOM     71  C   UNL A   1      44.424  34.327  33.534  1.00  0.00     0.000 A 
ENDBRANCH  47  66
BRANCH  59  72
ATOM     72  C   UNL A   1      47.094  25.835  31.983  1.00  0.00    -0.014 A 
ATOM     73  C   UNL A   1      48.338  25.962  31.347  1.00  0.00     0.009 A 
ATOM     74  C   UNL A   1      47.032  25.242  33.254  1.00  0.00     0.009 A 
ATOM     75  C   UNL A   1      49.494  25.473  31.958  1.00  0.00     0.001 A 
ATOM     76  C   UNL A   1      48.192  24.775  33.871  1.00  0.00     0.001 A 
ATOM     77  C   UNL A   1      49.420  24.882  33.219  1.00  0.00     0.000 A 
ENDBRANCH  59  72
ENDBRANCH  33  34
ENDBRANCH  26  28
ENDBRANCH  25  26
ENDBRANCH  24  25
ENDBRANCH   1  24
TORSDOF 14
ENDMDL
MODEL 2
REMARK VINA RESULT:      -8.9      4.788     10.250
REMARK SMILES C[C@]1(C(=O)OCCOC(=O)c2ccc(-c3c4nc(c(-c5ccccc5)c5ccc([nH]5)c(-c5ccccc5)c5nc(c(-c6ccccc6)c6ccc3[nH]6)C=C5)C=C4)cc2)COC[C@@H]1NC(=O)[C@H]1C=C[C@@H]([NH3+])C1
REMARK SMILES IDX 6 1 5 2 3 3 4 4 2 5 1 6 59 7 62 8 60 9 61 10 63 11 64 12
REMARK SMILES IDX 65 14 66 15 67 16 71 17 68 18 69 19 70 20 7 24 8 25 9 26
REMARK SMILES IDX 10 27 11 28 12 29 58 30 13 31 57 32 14 33 15 34 16 35 51 36
REMARK SMILES IDX 17 37 56 38 50 39 52 40 18 41 55 42 49 43 48 44 19 46 41 47
REMARK SMILES IDX 26 48 40 49 27 50 30 51 39 52 53 53 28 54 29 55 38 57 54 58
REMARK SMILES IDX 31 59 20 60 21 61 25 62 22 63 24 64 23 65 42 66 43 67 47 68
REMARK SMILES IDX 44 69 46 70 45 71 32 72 33 73 37 74 34 75 36 76 35 77
REMARK H PARENT 63 13 70 21 70 22 70 23 52 45 30 56
REMARK Flexibility Score: inf
ROOT
ATOM      1  C   UNL A   1      37.179  20.834  25.043  1.00  0.00     0.274 C 
ENDROOT
BRANCH   1   2
ATOM      2  O   UNL A   1      36.261  21.899  25.370  1.00  0.00    -0.462 OA
BRANCH   2   3
ATOM      3  C   UNL A   1      35.528  22.380  24.330  1.00  0.00     0.316 C 
ATOM      4  O   UNL A   1      36.009  22.871  23.316  1.00  0.00    -0.251 OA
BRANCH   3   5
ATOM      5  C   UNL A   1      34.040  22.305  24.606  1.00  0.00     0.111 C 
ATOM      6  C   UNL A   1      33.380  20.998  24.140  1.00  0.00     0.028 C 
ATOM      7  C   UNL A   1      33.797  22.398  26.121  1.00  0.00     0.181 C 
ATOM      8  C   UNL A   1      33.358  23.638  24.231  1.00  0.00     0.127 C 
ATOM      9  O   UNL A   1      32.454  22.910  26.280  1.00  0.00    -0.378 OA
ATOM     10  C   UNL A   1      32.095  23.620  25.075  1.00  0.00     0.186 C 
BRANCH   8  11
ATOM     11  N   UNL A   1      33.277  24.218  22.889  1.00  0.00    -0.349 N 
ATOM     12  C   UNL A   1      33.164  25.425  22.282  1.00  0.00     0.227 C 
ATOM     13  H   UNL A   1      33.318  23.505  22.211  1.00  0.00     0.163 HD
ATOM     14  O   UNL A   1      33.339  25.439  21.060  1.00  0.00    -0.274 OA
BRANCH  12  15
ATOM     15  C   UNL A   1      32.784  26.672  23.053  1.00  0.00     0.107 C 
ATOM     16  C   UNL A   1      33.833  27.763  23.087  1.00  0.00    -0.012 C 
ATOM     17  C   UNL A   1      31.712  27.433  22.282  1.00  0.00     0.087 C 
ATOM     18  C   UNL A   1      33.277  28.977  22.928  1.00  0.00     0.033 C 
ATOM     19  C   UNL A   1      31.795  28.862  22.790  1.00  0.00     0.205 C 
BRANCH  19  20
ATOM     20  N   UNL A   1      31.169  29.770  21.860  1.00  0.00    -0.352 N 
ATOM     21  H   UNL A   1      31.626  30.681  21.915  1.00  0.00     0.345 HD
ATOM     22  H   UNL A   1      30.181  29.871  22.095  1.00  0.00     0.345 HD
ATOM     23  H   UNL A   1      31.257  29.402  20.914  1.00  0.00     0.345 HD
ENDBRANCH  19  20
ENDBRANCH  12  15
ENDBRANCH   8  11
ENDBRANCH   3   5
ENDBRANCH   2   3
ENDBRANCH   1   2
BRANCH   1  24
ATOM     24  C   UNL A   1      38.614  21.196  25.418  1.00  0.00     0.275 C 
BRANCH  24  25
ATOM     25  O   UNL A   1      38.658  22.506  26.012  1.00  0.00    -0.458 OA
BRANCH  25  26
ATOM     26  C   UNL A   1      39.901  22.972  26.279  1.00  0.00     0.338 C 
ATOM     27  O   UNL A   1      40.947  22.379  26.075  1.00  0.00    -0.246 OA
BRANCH  26  28
ATOM     28  C   UNL A   1      39.858  24.333  26.872  1.00  0.00     0.060 A 
ATOM     29  C   UNL A   1      40.645  25.379  26.393  1.00  0.00     0.016 A 
ATOM     30  C   UNL A   1      39.096  24.528  28.029  1.00  0.00     0.016 A 
ATOM     31  C   UNL A   1      40.772  26.555  27.149  1.00  0.00     0.010 A 
ATOM     32  C   UNL A   1      39.152  25.743  28.726  1.00  0.00     0.010 A 
ATOM     33  C   UNL A   1      40.038  26.757  28.333  1.00  0.00    -0.014 A 
BRANCH  33  34
ATOM     34  C   UNL A   1      40.210  27.990  29.170  1.00  0.00     0.031 A 
ATOM     35  C   UNL A   1      41.375  28.139  30.130  1.00  0.00     0.074 A 
ATOM     36  C   UNL A   1      39.330  29.008  29.082  1.00  0.00     0.049 A 
ATOM     37  N   UNL A   1      41.583  29.045  31.058  1.00  0.00    -0.248 NA
ATOM     38  C   UNL A   1      42.450  27.142  30.037  1.00  0.00     0.031 C 
ATOM     39  C   UNL A   1      38.186  29.073  28.172  1.00  0.00     0.029 A 
ATOM     40  N   UNL A   1      39.264  30.195  29.776  1.00  0.00    -0.354 N 
ATOM     41  C   UNL A   1      42.787  28.705  31.669  1.00  0.00     0.074 A 
ATOM     42  C   UNL A   1      43.268  27.511  31.013  1.00  0.00     0.031 C 
ATOM     43  C   UNL A   1      37.565  30.250  28.325  1.00  0.00     0.029 A 
ATOM     44  C   UNL A   1      38.187  30.972  29.428  1.00  0.00     0.049 A 
ATOM     45  H   UNL A   1      39.925  30.461  30.455  1.00  0.00     0.167 HD
ATOM     46  C   UNL A   1      43.432  29.316  32.693  1.00  0.00     0.031 A 
ATOM     47  C   UNL A   1      37.695  32.103  29.968  1.00  0.00     0.031 A 
ATOM     48  C   UNL A   1      42.971  30.509  33.355  1.00  0.00     0.049 A 
ATOM     49  C   UNL A   1      38.351  32.698  31.176  1.00  0.00     0.074 A 
ATOM     50  C   UNL A   1      43.556  31.191  34.410  1.00  0.00     0.029 A 
ATOM     51  N   UNL A   1      41.816  31.196  33.026  1.00  0.00    -0.354 N 
ATOM     52  N   UNL A   1      39.438  32.314  31.796  1.00  0.00    -0.248 NA
ATOM     53  C   UNL A   1      37.689  33.863  31.779  1.00  0.00     0.031 C 
ATOM     54  C   UNL A   1      42.726  32.264  34.753  1.00  0.00     0.029 A 
ATOM     55  C   UNL A   1      41.653  32.276  33.877  1.00  0.00     0.049 A 
ATOM     56  H   UNL A   1      41.203  30.954  32.296  1.00  0.00     0.167 HD
ATOM     57  C   UNL A   1      39.590  33.187  32.864  1.00  0.00     0.074 A 
ATOM     58  C   UNL A   1      38.497  34.134  32.795  1.00  0.00     0.031 C 
ATOM     59  C   UNL A   1      40.550  33.197  33.819  1.00  0.00     0.031 A 
BRANCH  46  60
ATOM     60  C   UNL A   1      44.694  28.683  33.211  1.00  0.00    -0.014 A 
ATOM     61  C   UNL A   1      44.665  27.687  34.199  1.00  0.00     0.009 A 
ATOM     62  C   UNL A   1      45.928  29.035  32.638  1.00  0.00     0.009 A 
ATOM     63  C   UNL A   1      45.849  27.067  34.611  1.00  0.00     0.001 A 
ATOM     64  C   UNL A   1      47.105  28.400  33.038  1.00  0.00     0.001 A 
ATOM     65  C   UNL A   1      47.065  27.420  34.026  1.00  0.00     0.000 A 
ENDBRANCH  46  60
BRANCH  47  66
ATOM     66  C   UNL A   1      36.441  32.679  29.417  1.00  0.00    -0.014 A 
ATOM     67  C   UNL A   1      35.188  32.216  29.843  1.00  0.00     0.009 A 
ATOM     68  C   UNL A   1      36.501  33.734  28.492  1.00  0.00     0.009 A 
ATOM     69  C   UNL A   1      34.020  32.809  29.356  1.00  0.00     0.001 A 
ATOM     70  C   UNL A   1      35.333  34.345  28.034  1.00  0.00     0.001 A 
ATOM     71  C   UNL A   1      34.094  33.879  28.465  1.00  0.00     0.000 A 
ENDBRANCH  47  66
BRANCH  59  72
ATOM     72  C   UNL A   1      40.461  34.271  34.862  1.00  0.00    -0.014 A 
ATOM     73  C   UNL A   1      41.063  35.523  34.662  1.00  0.00     0.009 A 
ATOM     74  C   UNL A   1      39.761  34.031  36.055  1.00  0.00     0.009 A 
ATOM     75  C   UNL A   1      40.994  36.503  35.653  1.00  0.00     0.001 A 
ATOM     76  C   UNL A   1      39.676  35.021  37.034  1.00  0.00     0.001 A 
ATOM     77  C   UNL A   1      40.300  36.252  36.837  1.00  0.00     0.000 A 
ENDBRANCH  59  72
ENDBRANCH  33  34
ENDBRANCH  26  28
ENDBRANCH  25  26
ENDBRANCH  24  25
ENDBRANCH   1  24
TORSDOF 14
ENDMDL
MODEL 3
REMARK VINA RESULT:      -8.9      3.826      8.599
REMARK SMILES C[C@]1(C(=O)OCCOC(=O)c2ccc(-c3c4nc(c(-c5ccccc5)c5ccc([nH]5)c(-c5ccccc5)c5nc(c(-c6ccccc6)c6ccc3[nH]6)C=C5)C=C4)cc2)COC[C@@H]1NC(=O)[C@H]1C=C[C@@H]([NH3+])C1
REMARK SMILES IDX 6 1 5 2 3 3 4 4 2 5 1 6 59 7 62 8 60 9 61 10 63 11 64 12
REMARK SMILES IDX 65 14 66 15 67 16 71 17 68 18 69 19 70 20 7 24 8 25 9 26
REMARK SMILES IDX 10 27 11 28 12 29 58 30 13 31 57 32 14 33 15 34 16 35 51 36
REMARK SMILES IDX 17 37 56 38 50 39 52 40 18 41 55 42 49 43 48 44 19 46 41 47
REMARK SMILES IDX 26 48 40 49 27 50 30 51 39 52 53 53 28 54 29 55 38 57 54 58
REMARK SMILES IDX 31 59 20 60 21 61 25 62 22 63 24 64 23 65 42 66 43 67 47 68
REMARK SMILES IDX 44 69 46 70 45 71 32 72 33 73 37 74 34 75 36 76 35 77
REMARK H PARENT 63 13 70 21 70 22 70 23 52 45 30 56
REMARK Flexibility Score: inf
ROOT
ATOM      1  C   UNL A   1      32.127  29.505  26.929  1.00  0.00     0.274 C 
ENDROOT
BRANCH   1   2
ATOM      2  O   UNL A   1      32.598  29.039  25.647  1.00  0.00    -0.462 OA
BRANCH   2   3
ATOM      3  C   UNL A   1      31.665  29.007  24.656  1.00  0.00     0.316 C 
ATOM      4  O   UNL A   1      30.714  29.774  24.580  1.00  0.00    -0.251 OA
BRANCH   3   5
ATOM      5  C   UNL A   1      31.903  27.859  23.695  1.00  0.00     0.111 C 
ATOM      6  C   UNL A   1      30.730  27.588  22.740  1.00  0.00     0.028 C 
ATOM      7  C   UNL A   1      33.119  28.177  22.811  1.00  0.00     0.181 C 
ATOM      8  C   UNL A   1      32.528  26.660  24.438  1.00  0.00     0.127 C 
ATOM      9  O   UNL A   1      33.645  26.902  22.379  1.00  0.00    -0.378 OA
ATOM     10  C   UNL A   1      33.219  25.895  23.323  1.00  0.00     0.186 C 
BRANCH   8  11
ATOM     11  N   UNL A   1      31.900  25.887  25.512  1.00  0.00    -0.349 N 
ATOM     12  C   UNL A   1      32.055  24.718  26.182  1.00  0.00     0.227 C 
ATOM     13  H   UNL A   1      31.115  26.370  25.859  1.00  0.00     0.163 HD
ATOM     14  O   UNL A   1      31.360  24.572  27.191  1.00  0.00    -0.274 OA
BRANCH  12  15
ATOM     15  C   UNL A   1      32.984  23.632  25.682  1.00  0.00     0.107 C 
ATOM     16  C   UNL A   1      34.308  23.521  26.407  1.00  0.00    -0.012 C 
ATOM     17  C   UNL A   1      32.418  22.270  26.067  1.00  0.00     0.087 C 
ATOM     18  C   UNL A   1      34.642  22.235  26.617  1.00  0.00     0.033 C 
ATOM     19  C   UNL A   1      33.606  21.324  26.046  1.00  0.00     0.205 C 
BRANCH  19  20
ATOM     20  N   UNL A   1      33.320  20.130  26.803  1.00  0.00    -0.352 N 
ATOM     21  H   UNL A   1      32.322  19.921  26.744  1.00  0.00     0.345 HD
ATOM     22  H   UNL A   1      33.579  20.276  27.779  1.00  0.00     0.345 HD
ATOM     23  H   UNL A   1      33.853  19.350  26.422  1.00  0.00     0.345 HD
ENDBRANCH  19  20
ENDBRANCH  12  15
ENDBRANCH   8  11
ENDBRANCH   3   5
ENDBRANCH   2   3
ENDBRANCH   1   2
BRANCH   1  24
ATOM     24  C   UNL A   1      32.710  30.873  27.276  1.00  0.00     0.275 C 
BRANCH  24  25
ATOM     25  O   UNL A   1      34.147  30.833  27.213  1.00  0.00    -0.458 OA
BRANCH  25  26
ATOM     26  C   UNL A   1      34.779  31.060  28.389  1.00  0.00     0.338 C 
ATOM     27  O   UNL A   1      34.410  31.827  29.263  1.00  0.00    -0.246 OA
BRANCH  26  28
ATOM     28  C   UNL A   1      36.017  30.250  28.510  1.00  0.00     0.060 A 
ATOM     29  C   UNL A   1      36.429  29.695  29.719  1.00  0.00     0.016 A 
ATOM     30  C   UNL A   1      36.857  30.154  27.395  1.00  0.00     0.016 A 
ATOM     31  C   UNL A   1      37.728  29.177  29.840  1.00  0.00     0.010 A 
ATOM     32  C   UNL A   1      38.116  29.547  27.498  1.00  0.00     0.010 A 
ATOM     33  C   UNL A   1      38.600  29.102  28.737  1.00  0.00    -0.014 A 
BRANCH  33  34
ATOM     34  C   UNL A   1      40.006  28.597  28.873  1.00  0.00     0.031 A 
ATOM     35  C   UNL A   1      41.134  29.507  29.320  1.00  0.00     0.074 A 
ATOM     36  C   UNL A   1      40.303  27.309  28.606  1.00  0.00     0.049 A 
ATOM     37  N   UNL A   1      42.431  29.296  29.319  1.00  0.00    -0.248 NA
ATOM     38  C   UNL A   1      40.760  30.831  29.840  1.00  0.00     0.031 C 
ATOM     39  C   UNL A   1      39.343  26.272  28.226  1.00  0.00     0.029 A 
ATOM     40  N   UNL A   1      41.511  26.649  28.618  1.00  0.00    -0.354 N 
ATOM     41  C   UNL A   1      43.015  30.463  29.804  1.00  0.00     0.074 A 
ATOM     42  C   UNL A   1      41.938  31.384  30.091  1.00  0.00     0.031 C 
ATOM     43  C   UNL A   1      39.985  25.105  28.090  1.00  0.00     0.029 A 
ATOM     44  C   UNL A   1      41.416  25.330  28.250  1.00  0.00     0.049 A 
ATOM     45  H   UNL A   1      42.360  27.081  28.866  1.00  0.00     0.167 HD
ATOM     46  C   UNL A   1      44.327  30.755  29.983  1.00  0.00     0.031 A 
ATOM     47  C   UNL A   1      42.363  24.408  27.993  1.00  0.00     0.031 A 
ATOM     48  C   UNL A   1      45.412  29.850  29.709  1.00  0.00     0.049 A 
ATOM     49  C   UNL A   1      43.811  24.784  28.078  1.00  0.00     0.074 A 
ATOM     50  C   UNL A   1      46.773  30.067  29.851  1.00  0.00     0.029 A 
ATOM     51  N   UNL A   1      45.260  28.558  29.238  1.00  0.00    -0.354 N 
ATOM     52  N   UNL A   1      44.346  25.918  28.453  1.00  0.00    -0.248 NA
ATOM     53  C   UNL A   1      44.782  23.761  27.669  1.00  0.00     0.031 C 
ATOM     54  C   UNL A   1      47.447  28.920  29.416  1.00  0.00     0.029 A 
ATOM     55  C   UNL A   1      46.502  27.975  29.053  1.00  0.00     0.049 A 
ATOM     56  H   UNL A   1      44.397  28.119  29.061  1.00  0.00     0.167 HD
ATOM     57  C   UNL A   1      45.717  25.748  28.322  1.00  0.00     0.074 A 
ATOM     58  C   UNL A   1      45.933  24.394  27.856  1.00  0.00     0.031 C 
ATOM     59  C   UNL A   1      46.708  26.639  28.564  1.00  0.00     0.031 A 
BRANCH  46  60
ATOM     60  C   UNL A   1      44.683  32.138  30.457  1.00  0.00    -0.014 A 
ATOM     61  C   UNL A   1      44.903  32.416  31.814  1.00  0.00     0.009 A 
ATOM     62  C   UNL A   1      44.882  33.160  29.513  1.00  0.00     0.009 A 
ATOM     63  C   UNL A   1      45.300  33.695  32.217  1.00  0.00     0.001 A 
ATOM     64  C   UNL A   1      45.299  34.429  29.917  1.00  0.00     0.001 A 
ATOM     65  C   UNL A   1      45.504  34.697  31.269  1.00  0.00     0.000 A 
ENDBRANCH  46  60
BRANCH  47  66
ATOM     66  C   UNL A   1      41.949  23.061  27.523  1.00  0.00    -0.014 A 
ATOM     67  C   UNL A   1      41.830  22.781  26.155  1.00  0.00     0.009 A 
ATOM     68  C   UNL A   1      41.719  22.033  28.453  1.00  0.00     0.009 A 
ATOM     69  C   UNL A   1      41.495  21.493  25.729  1.00  0.00     0.001 A 
ATOM     70  C   UNL A   1      41.418  20.741  28.023  1.00  0.00     0.001 A 
ATOM     71  C   UNL A   1      41.303  20.473  26.661  1.00  0.00     0.000 A 
ENDBRANCH  47  66
BRANCH  59  72
ATOM     72  C   UNL A   1      48.115  26.171  28.333  1.00  0.00    -0.014 A 
ATOM     73  C   UNL A   1      48.882  25.645  29.384  1.00  0.00     0.009 A 
ATOM     74  C   UNL A   1      48.676  26.252  27.050  1.00  0.00     0.009 A 
ATOM     75  C   UNL A   1      50.198  25.239  29.160  1.00  0.00     0.001 A 
ATOM     76  C   UNL A   1      49.985  25.825  26.824  1.00  0.00     0.001 A 
ATOM     77  C   UNL A   1      50.747  25.328  27.881  1.00  0.00     0.000 A 
ENDBRANCH  59  72
ENDBRANCH  33  34
ENDBRANCH  26  28
ENDBRANCH  25  26
ENDBRANCH  24  25
ENDBRANCH   1  24
TORSDOF 14
ENDMDL
