MODEL 1
REMARK VINA RESULT:     -10.9      0.000      0.000
REMARK SMILES O=C(OCCOC(=O)[C@H]1C[C@H]2CCCC[C@@H]2[N@@H+]1CCn1ccnc1)c1ccc(-c2c3nc(c(-c4ccccc4)c4ccc([nH]4)c(-c4ccccc4)c4nc(c(-c5ccccc5)c5ccc2[nH]5)C=C4)C=C3)cc1
REMARK SMILES IDX 5 1 4 2 3 3 2 4 1 5 25 6 26 7 72 8 27 9 71 10 28 11 29 12
REMARK SMILES IDX 30 13 65 14 31 15 70 16 64 17 66 18 32 19 69 20 63 21 62 22
REMARK SMILES IDX 33 24 55 25 40 26 54 27 41 28 44 29 53 30 67 31 42 32 43 33
REMARK SMILES IDX 52 35 68 36 45 37 34 38 35 39 39 40 36 41 38 42 37 43 56 44
REMARK SMILES IDX 57 45 61 46 58 47 60 48 59 49 46 50 47 51 51 52 48 53 50 54
REMARK SMILES IDX 49 55 6 56 7 57 8 58 9 59 10 60 17 61 11 62 16 63 12 65
REMARK SMILES IDX 15 66 13 67 14 68 18 69 19 70 20 71 21 72 24 73 22 74 23 75
REMARK H PARENT 66 23 44 34 17 64
REMARK Flexibility Score: inf
ROOT
ATOM      1  C   UNL A   1      31.854  30.296  25.906  1.00  0.00     0.274 C 
ENDROOT
BRANCH   1   2
ATOM      2  C   UNL A   1      32.543  30.833  27.161  1.00  0.00     0.275 C 
BRANCH   2   3
ATOM      3  O   UNL A   1      33.959  31.103  27.095  1.00  0.00    -0.458 OA
BRANCH   3   4
ATOM      4  C   UNL A   1      34.567  31.815  28.071  1.00  0.00     0.338 C 
ATOM      5  O   UNL A   1      34.164  32.818  28.615  1.00  0.00    -0.246 OA
BRANCH   4   6
ATOM      6  C   UNL A   1      35.872  31.185  28.367  1.00  0.00     0.060 A 
ATOM      7  C   UNL A   1      36.068  29.810  28.179  1.00  0.00     0.016 A 
ATOM      8  C   UNL A   1      36.928  32.003  28.783  1.00  0.00     0.016 A 
ATOM      9  C   UNL A   1      37.299  29.242  28.470  1.00  0.00     0.010 A 
ATOM     10  C   UNL A   1      38.159  31.432  29.083  1.00  0.00     0.010 A 
ATOM     11  C   UNL A   1      38.333  30.049  28.946  1.00  0.00    -0.014 A 
BRANCH  11  12
ATOM     12  C   UNL A   1      39.619  29.418  29.222  1.00  0.00     0.031 A 
ATOM     13  C   UNL A   1      39.937  29.128  30.649  1.00  0.00     0.074 A 
ATOM     14  C   UNL A   1      40.413  28.907  28.264  1.00  0.00     0.049 A 
ATOM     15  N   UNL A   1      40.928  29.553  31.365  1.00  0.00    -0.248 NA
ATOM     16  C   UNL A   1      39.001  28.257  31.370  1.00  0.00     0.031 C 
ATOM     17  C   UNL A   1      40.124  28.747  26.839  1.00  0.00     0.029 A 
ATOM     18  N   UNL A   1      41.619  28.291  28.415  1.00  0.00    -0.354 N 
ATOM     19  C   UNL A   1      40.835  28.885  32.587  1.00  0.00     0.074 A 
ATOM     20  C   UNL A   1      39.573  28.197  32.571  1.00  0.00     0.031 C 
ATOM     21  C   UNL A   1      41.014  27.878  26.309  1.00  0.00     0.029 A 
ATOM     22  C   UNL A   1      41.999  27.530  27.323  1.00  0.00     0.049 A 
ATOM     23  H   UNL A   1      42.169  28.380  29.226  1.00  0.00     0.167 HD
ATOM     24  C   UNL A   1      41.874  28.769  33.463  1.00  0.00     0.031 A 
ATOM     25  C   UNL A   1      43.005  26.625  27.284  1.00  0.00     0.031 A 
ATOM     26  C   UNL A   1      42.928  29.707  33.187  1.00  0.00     0.049 A 
ATOM     27  C   UNL A   1      43.903  26.878  28.435  1.00  0.00     0.074 A 
ATOM     28  C   UNL A   1      43.009  31.081  33.059  1.00  0.00     0.029 A 
ATOM     29  N   UNL A   1      44.093  29.226  32.638  1.00  0.00    -0.354 N 
ATOM     30  N   UNL A   1      44.678  27.918  28.531  1.00  0.00    -0.248 NA
ATOM     31  C   UNL A   1      43.652  26.169  29.680  1.00  0.00     0.031 C 
ATOM     32  C   UNL A   1      43.917  31.288  31.977  1.00  0.00     0.029 A 
ATOM     33  C   UNL A   1      44.358  30.031  31.563  1.00  0.00     0.049 A 
ATOM     34  H   UNL A   1      44.625  28.460  32.954  1.00  0.00     0.167 HD
ATOM     35  C   UNL A   1      44.667  28.247  29.878  1.00  0.00     0.074 A 
ATOM     36  C   UNL A   1      44.112  27.073  30.549  1.00  0.00     0.031 C 
ATOM     37  C   UNL A   1      44.842  29.535  30.298  1.00  0.00     0.031 A 
BRANCH  24  38
ATOM     38  C   UNL A   1      42.099  27.551  34.338  1.00  0.00    -0.014 A 
ATOM     39  C   UNL A   1      41.778  27.629  35.707  1.00  0.00     0.009 A 
ATOM     40  C   UNL A   1      42.862  26.436  33.941  1.00  0.00     0.009 A 
ATOM     41  C   UNL A   1      42.276  26.700  36.631  1.00  0.00     0.001 A 
ATOM     42  C   UNL A   1      43.315  25.478  34.851  1.00  0.00     0.001 A 
ATOM     43  C   UNL A   1      43.053  25.630  36.204  1.00  0.00     0.000 A 
ENDBRANCH  24  38
BRANCH  25  44
ATOM     44  C   UNL A   1      43.124  25.412  26.451  1.00  0.00    -0.014 A 
ATOM     45  C   UNL A   1      44.057  25.351  25.405  1.00  0.00     0.009 A 
ATOM     46  C   UNL A   1      42.491  24.217  26.839  1.00  0.00     0.009 A 
ATOM     47  C   UNL A   1      44.365  24.131  24.788  1.00  0.00     0.001 A 
ATOM     48  C   UNL A   1      42.792  23.002  26.219  1.00  0.00     0.001 A 
ATOM     49  C   UNL A   1      43.740  22.957  25.203  1.00  0.00     0.000 A 
ENDBRANCH  25  44
BRANCH  37  50
ATOM     50  C   UNL A   1      45.266  30.571  29.289  1.00  0.00    -0.014 A 
ATOM     51  C   UNL A   1      46.612  30.915  29.072  1.00  0.00     0.009 A 
ATOM     52  C   UNL A   1      44.298  31.097  28.421  1.00  0.00     0.009 A 
ATOM     53  C   UNL A   1      46.972  31.790  28.045  1.00  0.00     0.001 A 
ATOM     54  C   UNL A   1      44.660  31.954  27.380  1.00  0.00     0.001 A 
ATOM     55  C   UNL A   1      45.995  32.306  27.196  1.00  0.00     0.000 A 
ENDBRANCH  37  50
ENDBRANCH  11  12
ENDBRANCH   4   6
ENDBRANCH   3   4
ENDBRANCH   2   3
ENDBRANCH   1   2
BRANCH   1  56
ATOM     56  O   UNL A   1      31.622  28.896  26.123  1.00  0.00    -0.458 OA
BRANCH  56  57
ATOM     57  C   UNL A   1      32.601  28.026  25.735  1.00  0.00     0.365 C 
ATOM     58  O   UNL A   1      33.354  27.446  26.505  1.00  0.00    -0.245 OA
BRANCH  57  59
ATOM     59  C   UNL A   1      32.504  27.804  24.202  1.00  0.00     0.295 C 
ATOM     60  C   UNL A   1      33.742  27.064  23.648  1.00  0.00     0.087 C 
ATOM     61  N   UNL A   1      31.335  26.945  23.861  1.00  0.00    -0.319 N 
ATOM     62  C   UNL A   1      33.200  25.749  23.129  1.00  0.00     0.054 C 
ATOM     63  C   UNL A   1      31.861  25.580  23.817  1.00  0.00     0.188 C 
ATOM     64  H   UNL A   1      30.604  26.984  24.572  1.00  0.00     0.349 HD
ATOM     65  C   UNL A   1      34.056  24.507  23.262  1.00  0.00     0.010 C 
ATOM     66  C   UNL A   1      31.060  24.450  23.180  1.00  0.00     0.065 C 
ATOM     67  C   UNL A   1      33.311  23.345  22.593  1.00  0.00     0.001 C 
ATOM     68  C   UNL A   1      31.888  23.156  23.140  1.00  0.00     0.006 C 
BRANCH  61  69
ATOM     69  C   UNL A   1      30.485  27.422  22.760  1.00  0.00     0.285 C 
BRANCH  69  70
ATOM     70  C   UNL A   1      30.360  28.919  22.381  1.00  0.00     0.184 C 
BRANCH  70  71
ATOM     71  N   UNL A   1      29.172  29.620  22.821  1.00  0.00    -0.332 N 
ATOM     72  C   UNL A   1      29.067  30.920  23.231  1.00  0.00     0.107 A 
ATOM     73  C   UNL A   1      27.908  29.103  22.817  1.00  0.00     0.199 A 
ATOM     74  C   UNL A   1      27.738  31.089  23.551  1.00  0.00     0.130 A 
ATOM     75  N   UNL A   1      27.022  29.957  23.268  1.00  0.00    -0.245 NA
ENDBRANCH  70  71
ENDBRANCH  69  70
ENDBRANCH  61  69
ENDBRANCH  57  59
ENDBRANCH  56  57
ENDBRANCH   1  56
TORSDOF 14
ENDMDL
MODEL 2
REMARK VINA RESULT:     -10.9      3.582      8.366
REMARK SMILES O=C(OCCOC(=O)[C@H]1C[C@H]2CCCC[C@@H]2[N@@H+]1CCn1ccnc1)c1ccc(-c2c3nc(c(-c4ccccc4)c4ccc([nH]4)c(-c4ccccc4)c4nc(c(-c5ccccc5)c5ccc2[nH]5)C=C4)C=C3)cc1
REMARK SMILES IDX 5 1 4 2 3 3 2 4 1 5 25 6 26 7 72 8 27 9 71 10 28 11 29 12
REMARK SMILES IDX 30 13 65 14 31 15 70 16 64 17 66 18 32 19 69 20 63 21 62 22
REMARK SMILES IDX 33 24 55 25 40 26 54 27 41 28 44 29 53 30 67 31 42 32 43 33
REMARK SMILES IDX 52 35 68 36 45 37 34 38 35 39 39 40 36 41 38 42 37 43 56 44
REMARK SMILES IDX 57 45 61 46 58 47 60 48 59 49 46 50 47 51 51 52 48 53 50 54
REMARK SMILES IDX 49 55 6 56 7 57 8 58 9 59 10 60 17 61 11 62 16 63 12 65
REMARK SMILES IDX 15 66 13 67 14 68 18 69 19 70 20 71 21 72 24 73 22 74 23 75
REMARK H PARENT 66 23 44 34 17 64
REMARK Flexibility Score: inf
ROOT
ATOM      1  C   UNL A   1      37.305  21.589  24.681  1.00  0.00     0.274 C 
ENDROOT
BRANCH   1   2
ATOM      2  C   UNL A   1      38.537  21.192  25.495  1.00  0.00     0.275 C 
BRANCH   2   3
ATOM      3  O   UNL A   1      39.040  22.132  26.469  1.00  0.00    -0.458 OA
BRANCH   3   4
ATOM      4  C   UNL A   1      40.350  22.468  26.483  1.00  0.00     0.338 C 
ATOM      5  O   UNL A   1      41.285  21.816  26.080  1.00  0.00    -0.246 OA
BRANCH   4   6
ATOM      6  C   UNL A   1      40.486  23.794  27.126  1.00  0.00     0.060 A 
ATOM      7  C   UNL A   1      41.661  24.148  27.805  1.00  0.00     0.016 A 
ATOM      8  C   UNL A   1      39.440  24.712  26.989  1.00  0.00     0.016 A 
ATOM      9  C   UNL A   1      41.762  25.394  28.405  1.00  0.00     0.010 A 
ATOM     10  C   UNL A   1      39.539  25.958  27.598  1.00  0.00     0.010 A 
ATOM     11  C   UNL A   1      40.692  26.285  28.323  1.00  0.00    -0.014 A 
BRANCH  11  12
ATOM     12  C   UNL A   1      40.844  27.593  28.948  1.00  0.00     0.031 A 
ATOM     13  C   UNL A   1      41.845  28.518  28.345  1.00  0.00     0.074 A 
ATOM     14  C   UNL A   1      40.001  28.071  29.881  1.00  0.00     0.049 A 
ATOM     15  N   UNL A   1      42.888  29.057  28.889  1.00  0.00    -0.248 NA
ATOM     16  C   UNL A   1      41.653  28.868  26.932  1.00  0.00     0.031 C 
ATOM     17  C   UNL A   1      38.741  27.489  30.345  1.00  0.00     0.029 A 
ATOM     18  N   UNL A   1      40.046  29.276  30.515  1.00  0.00    -0.354 N 
ATOM     19  C   UNL A   1      43.408  29.938  27.939  1.00  0.00     0.074 A 
ATOM     20  C   UNL A   1      42.679  29.691  26.725  1.00  0.00     0.031 C 
ATOM     21  C   UNL A   1      38.037  28.440  31.001  1.00  0.00     0.029 A 
ATOM     22  C   UNL A   1      38.850  29.642  31.109  1.00  0.00     0.049 A 
ATOM     23  H   UNL A   1      40.856  29.834  30.548  1.00  0.00     0.167 HD
ATOM     24  C   UNL A   1      44.266  30.953  28.244  1.00  0.00     0.031 A 
ATOM     25  C   UNL A   1      38.531  30.869  31.584  1.00  0.00     0.031 A 
ATOM     26  C   UNL A   1      44.868  30.790  29.539  1.00  0.00     0.049 A 
ATOM     27  C   UNL A   1      39.783  31.637  31.768  1.00  0.00     0.074 A 
ATOM     28  C   UNL A   1      45.604  29.798  30.160  1.00  0.00     0.029 A 
ATOM     29  N   UNL A   1      44.447  31.614  30.556  1.00  0.00    -0.354 N 
ATOM     30  N   UNL A   1      40.664  31.375  32.689  1.00  0.00    -0.248 NA
ATOM     31  C   UNL A   1      40.257  32.465  30.669  1.00  0.00     0.031 C 
ATOM     32  C   UNL A   1      45.118  29.777  31.503  1.00  0.00     0.029 A 
ATOM     33  C   UNL A   1      44.164  30.789  31.611  1.00  0.00     0.049 A 
ATOM     34  H   UNL A   1      44.365  32.595  30.529  1.00  0.00     0.167 HD
ATOM     35  C   UNL A   1      41.889  31.632  32.094  1.00  0.00     0.074 A 
ATOM     36  C   UNL A   1      41.572  32.404  30.894  1.00  0.00     0.031 C 
ATOM     37  C   UNL A   1      43.018  30.960  32.469  1.00  0.00     0.031 A 
BRANCH  24  38
ATOM     38  C   UNL A   1      44.270  32.289  27.525  1.00  0.00    -0.014 A 
ATOM     39  C   UNL A   1      43.740  33.417  28.183  1.00  0.00     0.009 A 
ATOM     40  C   UNL A   1      44.512  32.431  26.146  1.00  0.00     0.009 A 
ATOM     41  C   UNL A   1      43.384  34.575  27.479  1.00  0.00     0.001 A 
ATOM     42  C   UNL A   1      44.209  33.604  25.450  1.00  0.00     0.001 A 
ATOM     43  C   UNL A   1      43.610  34.665  26.111  1.00  0.00     0.000 A 
ENDBRANCH  24  38
BRANCH  25  44
ATOM     44  C   UNL A   1      37.202  31.505  31.678  1.00  0.00    -0.014 A 
ATOM     45  C   UNL A   1      36.595  31.715  32.925  1.00  0.00     0.009 A 
ATOM     46  C   UNL A   1      36.632  32.133  30.556  1.00  0.00     0.009 A 
ATOM     47  C   UNL A   1      35.475  32.546  33.048  1.00  0.00     0.001 A 
ATOM     48  C   UNL A   1      35.510  32.957  30.676  1.00  0.00     0.001 A 
ATOM     49  C   UNL A   1      34.940  33.174  31.926  1.00  0.00     0.000 A 
ENDBRANCH  25  44
BRANCH  37  50
ATOM     50  C   UNL A   1      42.961  30.085  33.695  1.00  0.00    -0.014 A 
ATOM     51  C   UNL A   1      42.439  28.780  33.674  1.00  0.00     0.009 A 
ATOM     52  C   UNL A   1      43.597  30.527  34.865  1.00  0.00     0.009 A 
ATOM     53  C   UNL A   1      42.514  27.959  34.801  1.00  0.00     0.001 A 
ATOM     54  C   UNL A   1      43.694  29.697  35.984  1.00  0.00     0.001 A 
ATOM     55  C   UNL A   1      43.146  28.417  35.955  1.00  0.00     0.000 A 
ENDBRANCH  37  50
ENDBRANCH  11  12
ENDBRANCH   4   6
ENDBRANCH   3   4
ENDBRANCH   2   3
ENDBRANCH   1   2
BRANCH   1  56
ATOM     56  O   UNL A   1      36.160  21.346  25.511  1.00  0.00    -0.458 OA
BRANCH  56  57
ATOM     57  C   UNL A   1      35.456  22.430  25.952  1.00  0.00     0.365 C 
ATOM     58  O   UNL A   1      35.883  23.576  25.957  1.00  0.00    -0.245 OA
BRANCH  57  59
ATOM     59  C   UNL A   1      34.013  21.985  26.311  1.00  0.00     0.295 C 
ATOM     60  C   UNL A   1      33.299  23.018  27.211  1.00  0.00     0.087 C 
ATOM     61  N   UNL A   1      33.172  21.870  25.086  1.00  0.00    -0.319 N 
ATOM     62  C   UNL A   1      32.145  23.523  26.372  1.00  0.00     0.054 C 
ATOM     63  C   UNL A   1      32.515  23.169  24.946  1.00  0.00     0.188 C 
ATOM     64  H   UNL A   1      33.728  21.699  24.248  1.00  0.00     0.349 HD
ATOM     65  C   UNL A   1      31.736  24.976  26.497  1.00  0.00     0.010 C 
ATOM     66  C   UNL A   1      31.323  23.351  24.012  1.00  0.00     0.065 C 
ATOM     67  C   UNL A   1      30.508  25.200  25.608  1.00  0.00     0.001 C 
ATOM     68  C   UNL A   1      30.737  24.764  24.153  1.00  0.00     0.006 C 
BRANCH  61  69
ATOM     69  C   UNL A   1      32.368  20.643  24.972  1.00  0.00     0.285 C 
BRANCH  69  70
ATOM     70  C   UNL A   1      32.876  19.256  25.439  1.00  0.00     0.184 C 
BRANCH  70  71
ATOM     71  N   UNL A   1      33.236  18.299  24.414  1.00  0.00    -0.332 N 
ATOM     72  C   UNL A   1      34.175  17.308  24.484  1.00  0.00     0.107 A 
ATOM     73  C   UNL A   1      32.618  18.175  23.203  1.00  0.00     0.199 A 
ATOM     74  C   UNL A   1      34.136  16.691  23.253  1.00  0.00     0.130 A 
ATOM     75  N   UNL A   1      33.148  17.226  22.472  1.00  0.00    -0.245 NA
ENDBRANCH  70  71
ENDBRANCH  69  70
ENDBRANCH  61  69
ENDBRANCH  57  59
ENDBRANCH  56  57
ENDBRANCH   1  56
TORSDOF 14
ENDMDL
MODEL 3
REMARK VINA RESULT:     -10.7      1.656      2.025
REMARK SMILES O=C(OCCOC(=O)[C@H]1C[C@H]2CCCC[C@@H]2[N@@H+]1CCn1ccnc1)c1ccc(-c2c3nc(c(-c4ccccc4)c4ccc([nH]4)c(-c4ccccc4)c4nc(c(-c5ccccc5)c5ccc2[nH]5)C=C4)C=C3)cc1
REMARK SMILES IDX 5 1 4 2 3 3 2 4 1 5 25 6 26 7 72 8 27 9 71 10 28 11 29 12
REMARK SMILES IDX 30 13 65 14 31 15 70 16 64 17 66 18 32 19 69 20 63 21 62 22
REMARK SMILES IDX 33 24 55 25 40 26 54 27 41 28 44 29 53 30 67 31 42 32 43 33
REMARK SMILES IDX 52 35 68 36 45 37 34 38 35 39 39 40 36 41 38 42 37 43 56 44
REMARK SMILES IDX 57 45 61 46 58 47 60 48 59 49 46 50 47 51 51 52 48 53 50 54
REMARK SMILES IDX 49 55 6 56 7 57 8 58 9 59 10 60 17 61 11 62 16 63 12 65
REMARK SMILES IDX 15 66 13 67 14 68 18 69 19 70 20 71 21 72 24 73 22 74 23 75
REMARK H PARENT 66 23 44 34 17 64
REMARK Flexibility Score: inf
ROOT
ATOM      1  C   UNL A   1      33.105  30.563  26.604  1.00  0.00     0.274 C 
ENDROOT
BRANCH   1   2
ATOM      2  C   UNL A   1      33.680  31.249  27.843  1.00  0.00     0.275 C 
BRANCH   2   3
ATOM      3  O   UNL A   1      35.072  31.632  27.823  1.00  0.00    -0.458 OA
BRANCH   3   4
ATOM      4  C   UNL A   1      35.706  31.969  28.969  1.00  0.00     0.338 C 
ATOM      5  O   UNL A   1      35.431  32.869  29.730  1.00  0.00    -0.246 OA
BRANCH   4   6
ATOM      6  C   UNL A   1      36.860  31.061  29.151  1.00  0.00     0.060 A 
ATOM      7  C   UNL A   1      36.682  29.671  29.205  1.00  0.00     0.016 A 
ATOM      8  C   UNL A   1      38.143  31.616  29.207  1.00  0.00     0.016 A 
ATOM      9  C   UNL A   1      37.779  28.841  29.382  1.00  0.00     0.010 A 
ATOM     10  C   UNL A   1      39.241  30.784  29.393  1.00  0.00     0.010 A 
ATOM     11  C   UNL A   1      39.051  29.401  29.502  1.00  0.00    -0.014 A 
BRANCH  11  12
ATOM     12  C   UNL A   1      40.182  28.495  29.667  1.00  0.00     0.031 A 
ATOM     13  C   UNL A   1      40.734  28.347  31.043  1.00  0.00     0.074 A 
ATOM     14  C   UNL A   1      40.599  27.650  28.707  1.00  0.00     0.049 A 
ATOM     15  N   UNL A   1      41.932  28.590  31.470  1.00  0.00    -0.248 NA
ATOM     16  C   UNL A   1      39.807  27.881  32.081  1.00  0.00     0.031 C 
ATOM     17  C   UNL A   1      39.969  27.361  27.419  1.00  0.00     0.029 A 
ATOM     18  N   UNL A   1      41.630  26.760  28.763  1.00  0.00    -0.354 N 
ATOM     19  C   UNL A   1      41.961  28.164  32.800  1.00  0.00     0.074 A 
ATOM     20  C   UNL A   1      40.602  27.849  33.148  1.00  0.00     0.031 C 
ATOM     21  C   UNL A   1      40.490  26.214  26.926  1.00  0.00     0.029 A 
ATOM     22  C   UNL A   1      41.567  25.770  27.798  1.00  0.00     0.049 A 
ATOM     23  H   UNL A   1      42.352  26.817  29.428  1.00  0.00     0.167 HD
ATOM     24  C   UNL A   1      43.113  27.904  33.481  1.00  0.00     0.031 A 
ATOM     25  C   UNL A   1      42.299  24.630  27.766  1.00  0.00     0.031 A 
ATOM     26  C   UNL A   1      44.268  28.469  32.839  1.00  0.00     0.049 A 
ATOM     27  C   UNL A   1      43.465  24.801  28.663  1.00  0.00     0.074 A 
ATOM     28  C   UNL A   1      44.638  29.734  32.422  1.00  0.00     0.029 A 
ATOM     29  N   UNL A   1      45.135  27.614  32.201  1.00  0.00    -0.354 N 
ATOM     30  N   UNL A   1      44.463  25.595  28.407  1.00  0.00    -0.248 NA
ATOM     31  C   UNL A   1      43.340  24.382  30.050  1.00  0.00     0.031 C 
ATOM     32  C   UNL A   1      45.303  29.523  31.176  1.00  0.00     0.029 A 
ATOM     33  C   UNL A   1      45.333  28.146  30.955  1.00  0.00     0.049 A 
ATOM     34  H   UNL A   1      45.530  26.789  32.565  1.00  0.00     0.167 HD
ATOM     35  C   UNL A   1      44.831  26.112  29.639  1.00  0.00     0.074 A 
ATOM     36  C   UNL A   1      44.182  25.247  30.622  1.00  0.00     0.031 C 
ATOM     37  C   UNL A   1      45.392  27.353  29.752  1.00  0.00     0.031 A 
BRANCH  24  38
ATOM     38  C   UNL A   1      43.237  26.816  34.531  1.00  0.00    -0.014 A 
ATOM     39  C   UNL A   1      43.331  25.474  34.112  1.00  0.00     0.009 A 
ATOM     40  C   UNL A   1      42.987  27.023  35.901  1.00  0.00     0.009 A 
ATOM     41  C   UNL A   1      43.090  24.412  34.994  1.00  0.00     0.001 A 
ATOM     42  C   UNL A   1      42.800  25.966  36.796  1.00  0.00     0.001 A 
ATOM     43  C   UNL A   1      42.815  24.659  36.334  1.00  0.00     0.000 A 
ENDBRANCH  24  38
BRANCH  25  44
ATOM     44  C   UNL A   1      41.941  23.320  27.188  1.00  0.00    -0.014 A 
ATOM     45  C   UNL A   1      42.876  22.587  26.442  1.00  0.00     0.009 A 
ATOM     46  C   UNL A   1      40.755  22.670  27.578  1.00  0.00     0.009 A 
ATOM     47  C   UNL A   1      42.644  21.243  26.121  1.00  0.00     0.001 A 
ATOM     48  C   UNL A   1      40.520  21.332  27.251  1.00  0.00     0.001 A 
ATOM     49  C   UNL A   1      41.472  20.615  26.534  1.00  0.00     0.000 A 
ENDBRANCH  25  44
BRANCH  37  50
ATOM     50  C   UNL A   1      45.810  28.072  28.494  1.00  0.00    -0.014 A 
ATOM     51  C   UNL A   1      47.106  27.976  27.959  1.00  0.00     0.009 A 
ATOM     52  C   UNL A   1      44.827  28.732  27.741  1.00  0.00     0.009 A 
ATOM     53  C   UNL A   1      47.419  28.559  26.728  1.00  0.00     0.001 A 
ATOM     54  C   UNL A   1      45.134  29.294  26.500  1.00  0.00     0.001 A 
ATOM     55  C   UNL A   1      46.430  29.214  25.998  1.00  0.00     0.000 A 
ENDBRANCH  37  50
ENDBRANCH  11  12
ENDBRANCH   4   6
ENDBRANCH   3   4
ENDBRANCH   2   3
ENDBRANCH   1   2
BRANCH   1  56
ATOM     56  O   UNL A   1      31.863  29.962  26.998  1.00  0.00    -0.458 OA
BRANCH  56  57
ATOM     57  C   UNL A   1      31.808  28.598  27.049  1.00  0.00     0.365 C 
ATOM     58  O   UNL A   1      31.398  27.958  28.007  1.00  0.00    -0.245 OA
BRANCH  57  59
ATOM     59  C   UNL A   1      32.220  28.022  25.667  1.00  0.00     0.295 C 
ATOM     60  C   UNL A   1      33.420  27.055  25.781  1.00  0.00     0.087 C 
ATOM     61  N   UNL A   1      31.113  27.221  25.074  1.00  0.00    -0.319 N 
ATOM     62  C   UNL A   1      32.871  25.712  25.352  1.00  0.00     0.054 C 
ATOM     63  C   UNL A   1      31.367  25.843  25.493  1.00  0.00     0.188 C 
ATOM     64  H   UNL A   1      30.198  27.500  25.428  1.00  0.00     0.349 HD
ATOM     65  C   UNL A   1      33.388  24.463  26.036  1.00  0.00     0.010 C 
ATOM     66  C   UNL A   1      30.654  24.673  24.823  1.00  0.00     0.065 C 
ATOM     67  C   UNL A   1      32.731  23.251  25.365  1.00  0.00     0.001 C 
ATOM     68  C   UNL A   1      31.197  23.335  25.349  1.00  0.00     0.006 C 
BRANCH  61  69
ATOM     69  C   UNL A   1      30.805  27.496  23.662  1.00  0.00     0.285 C 
BRANCH  69  70
ATOM     70  C   UNL A   1      30.683  28.931  23.090  1.00  0.00     0.184 C 
BRANCH  70  71
ATOM     71  N   UNL A   1      29.396  29.585  23.202  1.00  0.00    -0.332 N 
ATOM     72  C   UNL A   1      29.143  30.895  23.500  1.00  0.00     0.107 A 
ATOM     73  C   UNL A   1      28.192  28.999  22.937  1.00  0.00     0.199 A 
ATOM     74  C   UNL A   1      27.769  31.004  23.492  1.00  0.00     0.130 A 
ATOM     75  N   UNL A   1      27.189  29.822  23.119  1.00  0.00    -0.245 NA
ENDBRANCH  70  71
ENDBRANCH  69  70
ENDBRANCH  61  69
ENDBRANCH  57  59
ENDBRANCH  56  57
ENDBRANCH   1  56
TORSDOF 14
ENDMDL
