MODEL 1
REMARK VINA RESULT:     -10.3      0.000      0.000
REMARK SMILES Cc1cc(Br)cnc1Sc1nc(CC(=O)OCCOC(=O)c2ccc(-c3c4nc(c(-c5ccccc5)c5ccc([nH]5)c(-c5ccccc5)c5nc(c(-c6ccccc6)c6ccc3[nH]6)C=C5)C=C4)cc2)cs1
REMARK SMILES IDX 17 1 16 2 14 3 15 4 13 5 12 6 10 7 11 8 71 9 70 10 9 11 8 12
REMARK SMILES IDX 1 13 2 14 3 15 4 16 7 17 5 18 6 19 18 20 19 21 20 22 21 23
REMARK SMILES IDX 22 24 23 25 69 26 24 27 68 28 25 29 26 30 27 31 62 32 28 33
REMARK SMILES IDX 67 34 61 35 63 36 29 37 66 38 60 39 59 40 30 42 52 43 37 44
REMARK SMILES IDX 51 45 38 46 41 47 50 48 64 49 39 50 40 51 49 53 65 54 42 55
REMARK SMILES IDX 31 56 32 57 36 58 33 59 35 60 34 61 53 62 54 63 58 64 55 65
REMARK SMILES IDX 57 66 56 67 43 68 44 69 48 70 45 71 47 72 46 73
REMARK H PARENT 63 41 41 52
REMARK Flexibility Score: inf
ROOT
ATOM      1  C   UNL A   1      43.417  20.673  26.062  1.00  0.00     0.274 C 
ENDROOT
BRANCH   1   2
ATOM      2  O   UNL A   1      42.150  20.613  25.377  1.00  0.00    -0.462 OA
BRANCH   2   3
ATOM      3  C   UNL A   1      41.093  20.175  26.110  1.00  0.00     0.312 C 
ATOM      4  O   UNL A   1      40.570  19.072  25.989  1.00  0.00    -0.252 OA
BRANCH   3   5
ATOM      5  C   UNL A   1      40.553  21.218  27.054  1.00  0.00     0.179 C 
BRANCH   5   6
ATOM      6  C   UNL A   1      39.431  22.057  26.535  1.00  0.00     0.064 A 
ATOM      7  C   UNL A   1      37.530  22.285  25.405  1.00  0.00     0.156 A 
ATOM      8  N   UNL A   1      38.506  21.451  25.685  1.00  0.00    -0.234 NA
ATOM      9  S   UNL A   1      37.694  23.861  26.068  1.00  0.00    -0.116 S 
ATOM     10  C   UNL A   1      39.116  23.360  26.872  1.00  0.00     0.092 A 
BRANCH   7  11
ATOM     11  S   UNL A   1      36.150  21.878  24.434  1.00  0.00    -0.039 SA
BRANCH  11  12
ATOM     12  C   UNL A   1      34.844  22.944  25.004  1.00  0.00     0.106 A 
ATOM     13  C   UNL A   1      34.271  21.824  27.261  1.00  0.00     0.047 C 
ATOM     14  C   UNL A   1      34.146  22.899  26.222  1.00  0.00    -0.017 A 
ATOM     15  C   UNL A   1      33.233  23.939  26.501  1.00  0.00     0.023 A 
ATOM     16  C   UNL A   1      33.078  24.998  25.621  1.00  0.00     0.036 A 
ATOM     17  N   UNL A   1      34.677  23.988  24.141  1.00  0.00    -0.248 NA
ATOM     18  Br  UNL A   1      31.915  26.424  26.018  1.00  0.00    -0.049 Br
ATOM     19  C   UNL A   1      33.818  24.981  24.461  1.00  0.00     0.128 A 
ENDBRANCH  11  12
ENDBRANCH   7  11
ENDBRANCH   5   6
ENDBRANCH   3   5
ENDBRANCH   2   3
ENDBRANCH   1   2
BRANCH   1  20
ATOM     20  C   UNL A   1      44.351  21.699  25.424  1.00  0.00     0.275 C 
BRANCH  20  21
ATOM     21  O   UNL A   1      43.604  22.855  24.998  1.00  0.00    -0.458 OA
BRANCH  21  22
ATOM     22  C   UNL A   1      44.246  24.036  25.109  1.00  0.00     0.338 C 
ATOM     23  O   UNL A   1      45.274  24.387  24.557  1.00  0.00    -0.246 OA
BRANCH  22  24
ATOM     24  C   UNL A   1      43.488  24.935  25.989  1.00  0.00     0.060 A 
ATOM     25  C   UNL A   1      43.872  26.273  26.097  1.00  0.00     0.016 A 
ATOM     26  C   UNL A   1      42.511  24.400  26.830  1.00  0.00     0.016 A 
ATOM     27  C   UNL A   1      43.312  27.074  27.091  1.00  0.00     0.010 A 
ATOM     28  C   UNL A   1      41.927  25.213  27.803  1.00  0.00     0.010 A 
ATOM     29  C   UNL A   1      42.353  26.543  27.967  1.00  0.00    -0.014 A 
BRANCH  29  30
ATOM     30  C   UNL A   1      41.857  27.351  29.105  1.00  0.00     0.031 A 
ATOM     31  C   UNL A   1      42.579  27.312  30.424  1.00  0.00     0.074 A 
ATOM     32  C   UNL A   1      40.767  28.126  28.961  1.00  0.00     0.049 A 
ATOM     33  N   UNL A   1      42.286  27.921  31.545  1.00  0.00    -0.248 NA
ATOM     34  C   UNL A   1      43.785  26.472  30.491  1.00  0.00     0.031 C 
ATOM     35  C   UNL A   1      39.981  28.262  27.735  1.00  0.00     0.029 A 
ATOM     36  N   UNL A   1      40.134  28.943  29.863  1.00  0.00    -0.354 N 
ATOM     37  C   UNL A   1      43.252  27.519  32.457  1.00  0.00     0.074 A 
ATOM     38  C   UNL A   1      44.133  26.603  31.763  1.00  0.00     0.031 C 
ATOM     39  C   UNL A   1      38.970  29.118  27.960  1.00  0.00     0.029 A 
ATOM     40  C   UNL A   1      39.025  29.567  29.350  1.00  0.00     0.049 A 
ATOM     41  H   UNL A   1      40.444  29.068  30.788  1.00  0.00     0.167 HD
ATOM     42  C   UNL A   1      43.399  27.878  33.756  1.00  0.00     0.031 A 
ATOM     43  C   UNL A   1      38.145  30.400  29.935  1.00  0.00     0.031 A 
ATOM     44  C   UNL A   1      42.535  28.791  34.452  1.00  0.00     0.049 A 
ATOM     45  C   UNL A   1      38.327  30.786  31.374  1.00  0.00     0.074 A 
ATOM     46  C   UNL A   1      42.619  29.231  35.762  1.00  0.00     0.029 A 
ATOM     47  N   UNL A   1      41.428  29.408  33.893  1.00  0.00    -0.354 N 
ATOM     48  N   UNL A   1      39.257  30.411  32.217  1.00  0.00    -0.248 NA
ATOM     49  C   UNL A   1      37.341  31.719  31.937  1.00  0.00     0.031 C 
ATOM     50  C   UNL A   1      41.544  30.094  36.005  1.00  0.00     0.029 A 
ATOM     51  C   UNL A   1      40.813  30.217  34.833  1.00  0.00     0.049 A 
ATOM     52  H   UNL A   1      41.124  29.290  32.965  1.00  0.00     0.167 HD
ATOM     53  C   UNL A   1      38.978  31.072  33.405  1.00  0.00     0.074 A 
ATOM     54  C   UNL A   1      37.801  31.883  33.170  1.00  0.00     0.031 C 
ATOM     55  C   UNL A   1      39.640  31.014  34.586  1.00  0.00     0.031 A 
BRANCH  42  56
ATOM     56  C   UNL A   1      44.528  27.244  34.512  1.00  0.00    -0.014 A 
ATOM     57  C   UNL A   1      45.802  27.833  34.546  1.00  0.00     0.009 A 
ATOM     58  C   UNL A   1      44.314  26.041  35.205  1.00  0.00     0.009 A 
ATOM     59  C   UNL A   1      46.848  27.210  35.231  1.00  0.00     0.001 A 
ATOM     60  C   UNL A   1      45.356  25.433  35.904  1.00  0.00     0.001 A 
ATOM     61  C   UNL A   1      46.625  26.013  35.910  1.00  0.00     0.000 A 
ENDBRANCH  42  56
BRANCH  43  62
ATOM     62  C   UNL A   1      37.005  30.927  29.147  1.00  0.00    -0.014 A 
ATOM     63  C   UNL A   1      36.974  32.272  28.752  1.00  0.00     0.009 A 
ATOM     64  C   UNL A   1      35.952  30.079  28.769  1.00  0.00     0.009 A 
ATOM     65  C   UNL A   1      35.903  32.761  28.002  1.00  0.00     0.001 A 
ATOM     66  C   UNL A   1      34.893  30.567  28.004  1.00  0.00     0.001 A 
ATOM     67  C   UNL A   1      34.866  31.909  27.625  1.00  0.00     0.000 A 
ENDBRANCH  43  62
BRANCH  55  68
ATOM     68  C   UNL A   1      39.116  31.867  35.704  1.00  0.00    -0.014 A 
ATOM     69  C   UNL A   1      38.183  31.364  36.622  1.00  0.00     0.009 A 
ATOM     70  C   UNL A   1      39.582  33.183  35.852  1.00  0.00     0.009 A 
ATOM     71  C   UNL A   1      37.701  32.175  37.652  1.00  0.00     0.001 A 
ATOM     72  C   UNL A   1      39.113  33.984  36.894  1.00  0.00     0.001 A 
ATOM     73  C   UNL A   1      38.168  33.482  37.788  1.00  0.00     0.000 A 
ENDBRANCH  55  68
ENDBRANCH  29  30
ENDBRANCH  22  24
ENDBRANCH  21  22
ENDBRANCH  20  21
ENDBRANCH   1  20
TORSDOF 14
ENDMDL
MODEL 2
REMARK VINA RESULT:     -10.3      4.025      7.839
REMARK SMILES Cc1cc(Br)cnc1Sc1nc(CC(=O)OCCOC(=O)c2ccc(-c3c4nc(c(-c5ccccc5)c5ccc([nH]5)c(-c5ccccc5)c5nc(c(-c6ccccc6)c6ccc3[nH]6)C=C5)C=C4)cc2)cs1
REMARK SMILES IDX 17 1 16 2 14 3 15 4 13 5 12 6 10 7 11 8 71 9 70 10 9 11 8 12
REMARK SMILES IDX 1 13 2 14 3 15 4 16 7 17 5 18 6 19 18 20 19 21 20 22 21 23
REMARK SMILES IDX 22 24 23 25 69 26 24 27 68 28 25 29 26 30 27 31 62 32 28 33
REMARK SMILES IDX 67 34 61 35 63 36 29 37 66 38 60 39 59 40 30 42 52 43 37 44
REMARK SMILES IDX 51 45 38 46 41 47 50 48 64 49 39 50 40 51 49 53 65 54 42 55
REMARK SMILES IDX 31 56 32 57 36 58 33 59 35 60 34 61 53 62 54 63 58 64 55 65
REMARK SMILES IDX 57 66 56 67 43 68 44 69 48 70 45 71 47 72 46 73
REMARK H PARENT 63 41 41 52
REMARK Flexibility Score: inf
ROOT
ATOM      1  C   UNL A   1      37.607  20.254  24.933  1.00  0.00     0.274 C 
ENDROOT
BRANCH   1   2
ATOM      2  O   UNL A   1      37.753  21.627  25.348  1.00  0.00    -0.462 OA
BRANCH   2   3
ATOM      3  C   UNL A   1      37.063  22.548  24.625  1.00  0.00     0.312 C 
ATOM      4  O   UNL A   1      36.919  22.513  23.407  1.00  0.00    -0.252 OA
BRANCH   3   5
ATOM      5  C   UNL A   1      36.543  23.689  25.460  1.00  0.00     0.179 C 
BRANCH   5   6
ATOM      6  C   UNL A   1      35.075  23.953  25.372  1.00  0.00     0.064 A 
ATOM      7  C   UNL A   1      32.964  23.265  25.468  1.00  0.00     0.156 A 
ATOM      8  N   UNL A   1      34.214  22.859  25.453  1.00  0.00    -0.234 NA
ATOM      9  S   UNL A   1      32.736  24.960  25.307  1.00  0.00    -0.116 S 
ATOM     10  C   UNL A   1      34.431  25.174  25.324  1.00  0.00     0.092 A 
BRANCH   7  11
ATOM     11  S   UNL A   1      31.598  22.206  25.632  1.00  0.00    -0.039 SA
BRANCH  11  12
ATOM     12  C   UNL A   1      32.082  20.690  24.836  1.00  0.00     0.106 A 
ATOM     13  C   UNL A   1      31.983  21.405  22.355  1.00  0.00     0.047 C 
ATOM     14  C   UNL A   1      32.282  20.444  23.468  1.00  0.00    -0.017 A 
ATOM     15  C   UNL A   1      32.792  19.183  23.089  1.00  0.00     0.023 A 
ATOM     16  C   UNL A   1      33.136  18.244  24.047  1.00  0.00     0.036 A 
ATOM     17  N   UNL A   1      32.417  19.753  25.771  1.00  0.00    -0.248 NA
ATOM     18  Br  UNL A   1      33.884  16.588  23.554  1.00  0.00    -0.049 Br
ATOM     19  C   UNL A   1      32.934  18.571  25.368  1.00  0.00     0.128 A 
ENDBRANCH  11  12
ENDBRANCH   7  11
ENDBRANCH   5   6
ENDBRANCH   3   5
ENDBRANCH   2   3
ENDBRANCH   1   2
BRANCH   1  20
ATOM     20  C   UNL A   1      38.830  19.422  25.309  1.00  0.00     0.275 C 
BRANCH  20  21
ATOM     21  O   UNL A   1      39.645  20.134  26.260  1.00  0.00    -0.458 OA
BRANCH  21  22
ATOM     22  C   UNL A   1      40.975  19.951  26.139  1.00  0.00     0.338 C 
ATOM     23  O   UNL A   1      41.562  19.000  25.653  1.00  0.00    -0.246 OA
BRANCH  22  24
ATOM     24  C   UNL A   1      41.689  21.131  26.645  1.00  0.00     0.060 A 
ATOM     25  C   UNL A   1      41.797  21.327  28.023  1.00  0.00     0.016 A 
ATOM     26  C   UNL A   1      42.093  22.119  25.747  1.00  0.00     0.016 A 
ATOM     27  C   UNL A   1      42.265  22.547  28.511  1.00  0.00     0.010 A 
ATOM     28  C   UNL A   1      42.593  23.327  26.237  1.00  0.00     0.010 A 
ATOM     29  C   UNL A   1      42.644  23.563  27.622  1.00  0.00    -0.014 A 
BRANCH  29  30
ATOM     30  C   UNL A   1      43.014  24.903  28.138  1.00  0.00     0.031 A 
ATOM     31  C   UNL A   1      41.945  25.932  28.386  1.00  0.00     0.074 A 
ATOM     32  C   UNL A   1      44.301  25.199  28.391  1.00  0.00     0.049 A 
ATOM     33  N   UNL A   1      42.068  27.166  28.805  1.00  0.00    -0.248 NA
ATOM     34  C   UNL A   1      40.558  25.519  28.122  1.00  0.00     0.031 C 
ATOM     35  C   UNL A   1      45.432  24.290  28.203  1.00  0.00     0.029 A 
ATOM     36  N   UNL A   1      44.869  26.356  28.861  1.00  0.00    -0.354 N 
ATOM     37  C   UNL A   1      40.781  27.686  28.830  1.00  0.00     0.074 A 
ATOM     38  C   UNL A   1      39.893  26.638  28.371  1.00  0.00     0.031 C 
ATOM     39  C   UNL A   1      46.562  24.924  28.559  1.00  0.00     0.029 A 
ATOM     40  C   UNL A   1      46.234  26.286  28.974  1.00  0.00     0.049 A 
ATOM     41  H   UNL A   1      44.348  27.158  29.092  1.00  0.00     0.167 HD
ATOM     42  C   UNL A   1      40.370  28.922  29.201  1.00  0.00     0.031 A 
ATOM     43  C   UNL A   1      47.125  27.219  29.358  1.00  0.00     0.031 A 
ATOM     44  C   UNL A   1      41.242  29.967  29.665  1.00  0.00     0.049 A 
ATOM     45  C   UNL A   1      46.648  28.581  29.768  1.00  0.00     0.074 A 
ATOM     46  C   UNL A   1      40.911  31.245  30.084  1.00  0.00     0.029 A 
ATOM     47  N   UNL A   1      42.617  29.853  29.774  1.00  0.00    -0.354 N 
ATOM     48  N   UNL A   1      45.425  29.052  29.803  1.00  0.00    -0.248 NA
ATOM     49  C   UNL A   1      47.676  29.539  30.200  1.00  0.00     0.031 C 
ATOM     50  C   UNL A   1      42.094  31.915  30.420  1.00  0.00     0.029 A 
ATOM     51  C   UNL A   1      43.155  31.040  30.242  1.00  0.00     0.049 A 
ATOM     52  H   UNL A   1      43.137  29.047  29.551  1.00  0.00     0.167 HD
ATOM     53  C   UNL A   1      45.534  30.352  30.275  1.00  0.00     0.074 A 
ATOM     54  C   UNL A   1      46.941  30.594  30.526  1.00  0.00     0.031 C 
ATOM     55  C   UNL A   1      44.556  31.266  30.483  1.00  0.00     0.031 A 
BRANCH  42  56
ATOM     56  C   UNL A   1      38.903  29.214  29.085  1.00  0.00    -0.014 A 
ATOM     57  C   UNL A   1      38.347  29.682  27.884  1.00  0.00     0.009 A 
ATOM     58  C   UNL A   1      38.064  29.012  30.192  1.00  0.00     0.009 A 
ATOM     59  C   UNL A   1      36.984  29.977  27.806  1.00  0.00     0.001 A 
ATOM     60  C   UNL A   1      36.699  29.289  30.105  1.00  0.00     0.001 A 
ATOM     61  C   UNL A   1      36.162  29.779  28.914  1.00  0.00     0.000 A 
ENDBRANCH  42  56
BRANCH  43  62
ATOM     62  C   UNL A   1      48.570  26.885  29.373  1.00  0.00    -0.014 A 
ATOM     63  C   UNL A   1      49.156  26.315  30.513  1.00  0.00     0.009 A 
ATOM     64  C   UNL A   1      49.363  27.117  28.239  1.00  0.00     0.009 A 
ATOM     65  C   UNL A   1      50.515  25.994  30.519  1.00  0.00     0.001 A 
ATOM     66  C   UNL A   1      50.716  26.777  28.243  1.00  0.00     0.001 A 
ATOM     67  C   UNL A   1      51.293  26.221  29.384  1.00  0.00     0.000 A 
ENDBRANCH  43  62
BRANCH  55  68
ATOM     68  C   UNL A   1      44.973  32.600  31.028  1.00  0.00    -0.014 A 
ATOM     69  C   UNL A   1      45.293  33.664  30.171  1.00  0.00     0.009 A 
ATOM     70  C   UNL A   1      45.023  32.800  32.416  1.00  0.00     0.009 A 
ATOM     71  C   UNL A   1      45.686  34.897  30.696  1.00  0.00     0.001 A 
ATOM     72  C   UNL A   1      45.398  34.040  32.938  1.00  0.00     0.001 A 
ATOM     73  C   UNL A   1      45.736  35.084  32.077  1.00  0.00     0.000 A 
ENDBRANCH  55  68
ENDBRANCH  29  30
ENDBRANCH  22  24
ENDBRANCH  21  22
ENDBRANCH  20  21
ENDBRANCH   1  20
TORSDOF 14
ENDMDL
MODEL 3
REMARK VINA RESULT:     -10.2      6.048     11.810
REMARK SMILES Cc1cc(Br)cnc1Sc1nc(CC(=O)OCCOC(=O)c2ccc(-c3c4nc(c(-c5ccccc5)c5ccc([nH]5)c(-c5ccccc5)c5nc(c(-c6ccccc6)c6ccc3[nH]6)C=C5)C=C4)cc2)cs1
REMARK SMILES IDX 17 1 16 2 14 3 15 4 13 5 12 6 10 7 11 8 71 9 70 10 9 11 8 12
REMARK SMILES IDX 1 13 2 14 3 15 4 16 7 17 5 18 6 19 18 20 19 21 20 22 21 23
REMARK SMILES IDX 22 24 23 25 69 26 24 27 68 28 25 29 26 30 27 31 62 32 28 33
REMARK SMILES IDX 67 34 61 35 63 36 29 37 66 38 60 39 59 40 30 42 52 43 37 44
REMARK SMILES IDX 51 45 38 46 41 47 50 48 64 49 39 50 40 51 49 53 65 54 42 55
REMARK SMILES IDX 31 56 32 57 36 58 33 59 35 60 34 61 53 62 54 63 58 64 55 65
REMARK SMILES IDX 57 66 56 67 43 68 44 69 48 70 45 71 47 72 46 73
REMARK H PARENT 63 41 41 52
REMARK Flexibility Score: inf
ROOT
ATOM      1  C   UNL A   1      33.181  36.514  32.023  1.00  0.00     0.274 C 
ENDROOT
BRANCH   1   2
ATOM      2  O   UNL A   1      33.354  35.285  32.758  1.00  0.00    -0.462 OA
BRANCH   2   3
ATOM      3  C   UNL A   1      34.626  34.985  33.130  1.00  0.00     0.312 C 
ATOM      4  O   UNL A   1      35.604  35.691  32.904  1.00  0.00    -0.252 OA
BRANCH   3   5
ATOM      5  C   UNL A   1      34.748  33.636  33.791  1.00  0.00     0.179 C 
BRANCH   5   6
ATOM      6  C   UNL A   1      36.111  33.263  34.276  1.00  0.00     0.064 A 
ATOM      7  C   UNL A   1      37.821  33.524  35.672  1.00  0.00     0.156 A 
ATOM      8  N   UNL A   1      36.677  34.043  35.284  1.00  0.00    -0.234 NA
ATOM      9  S   UNL A   1      38.329  32.129  34.809  1.00  0.00    -0.116 S 
ATOM     10  C   UNL A   1      36.866  32.160  33.927  1.00  0.00     0.092 A 
BRANCH   7  11
ATOM     11  S   UNL A   1      38.795  34.167  36.958  1.00  0.00    -0.039 SA
BRANCH  11  12
ATOM     12  C   UNL A   1      38.115  33.476  38.451  1.00  0.00     0.106 A 
ATOM     13  C   UNL A   1      39.793  34.379  40.196  1.00  0.00     0.047 C 
ATOM     14  C   UNL A   1      38.547  33.657  39.775  1.00  0.00    -0.017 A 
ATOM     15  C   UNL A   1      37.763  33.103  40.809  1.00  0.00     0.023 A 
ATOM     16  C   UNL A   1      36.573  32.452  40.522  1.00  0.00     0.036 A 
ATOM     17  N   UNL A   1      36.947  32.826  38.179  1.00  0.00    -0.248 NA
ATOM     18  Br  UNL A   1      35.485  31.773  41.900  1.00  0.00    -0.049 Br
ATOM     19  C   UNL A   1      36.206  32.340  39.201  1.00  0.00     0.128 A 
ENDBRANCH  11  12
ENDBRANCH   7  11
ENDBRANCH   5   6
ENDBRANCH   3   5
ENDBRANCH   2   3
ENDBRANCH   1   2
BRANCH   1  20
ATOM     20  C   UNL A   1      33.115  36.262  30.519  1.00  0.00     0.275 C 
BRANCH  20  21
ATOM     21  O   UNL A   1      32.783  34.885  30.258  1.00  0.00    -0.458 OA
BRANCH  21  22
ATOM     22  C   UNL A   1      33.150  34.417  29.047  1.00  0.00     0.338 C 
ATOM     23  O   UNL A   1      32.602  34.596  27.975  1.00  0.00    -0.246 OA
BRANCH  22  24
ATOM     24  C   UNL A   1      34.403  33.659  29.165  1.00  0.00     0.060 A 
ATOM     25  C   UNL A   1      34.549  32.733  30.201  1.00  0.00     0.016 A 
ATOM     26  C   UNL A   1      35.485  34.000  28.352  1.00  0.00     0.016 A 
ATOM     27  C   UNL A   1      35.802  32.180  30.460  1.00  0.00     0.010 A 
ATOM     28  C   UNL A   1      36.731  33.420  28.592  1.00  0.00     0.010 A 
ATOM     29  C   UNL A   1      36.907  32.538  29.673  1.00  0.00    -0.014 A 
BRANCH  29  30
ATOM     30  C   UNL A   1      38.262  32.055  30.031  1.00  0.00     0.031 A 
ATOM     31  C   UNL A   1      38.758  30.743  29.490  1.00  0.00     0.074 A 
ATOM     32  C   UNL A   1      39.051  32.791  30.833  1.00  0.00     0.049 A 
ATOM     33  N   UNL A   1      39.897  30.136  29.711  1.00  0.00    -0.248 NA
ATOM     34  C   UNL A   1      37.852  30.016  28.588  1.00  0.00     0.031 C 
ATOM     35  C   UNL A   1      38.696  34.084  31.417  1.00  0.00     0.029 A 
ATOM     36  N   UNL A   1      40.320  32.547  31.296  1.00  0.00    -0.354 N 
ATOM     37  C   UNL A   1      39.835  28.946  28.999  1.00  0.00     0.074 A 
ATOM     38  C   UNL A   1      38.541  28.909  28.349  1.00  0.00     0.031 C 
ATOM     39  C   UNL A   1      39.726  34.524  32.159  1.00  0.00     0.029 A 
ATOM     40  C   UNL A   1      40.799  33.533  32.121  1.00  0.00     0.049 A 
ATOM     41  H   UNL A   1      40.835  31.743  31.060  1.00  0.00     0.167 HD
ATOM     42  C   UNL A   1      40.768  27.969  28.890  1.00  0.00     0.031 A 
ATOM     43  C   UNL A   1      41.967  33.624  32.782  1.00  0.00     0.031 A 
ATOM     44  C   UNL A   1      42.058  27.999  29.524  1.00  0.00     0.049 A 
ATOM     45  C   UNL A   1      42.988  32.532  32.646  1.00  0.00     0.074 A 
ATOM     46  C   UNL A   1      43.076  27.064  29.453  1.00  0.00     0.029 A 
ATOM     47  N   UNL A   1      42.507  29.020  30.344  1.00  0.00    -0.354 N 
ATOM     48  N   UNL A   1      42.921  31.421  31.954  1.00  0.00    -0.248 NA
ATOM     49  C   UNL A   1      44.250  32.713  33.377  1.00  0.00     0.031 C 
ATOM     50  C   UNL A   1      44.135  27.508  30.255  1.00  0.00     0.029 A 
ATOM     51  C   UNL A   1      43.785  28.735  30.796  1.00  0.00     0.049 A 
ATOM     52  H   UNL A   1      41.995  29.829  30.573  1.00  0.00     0.167 HD
ATOM     53  C   UNL A   1      44.134  30.778  32.153  1.00  0.00     0.074 A 
ATOM     54  C   UNL A   1      44.926  31.629  33.018  1.00  0.00     0.031 C 
ATOM     55  C   UNL A   1      44.557  29.589  31.660  1.00  0.00     0.031 A 
BRANCH  42  56
ATOM     56  C   UNL A   1      40.400  26.766  28.073  1.00  0.00    -0.014 A 
ATOM     57  C   UNL A   1      40.842  26.624  26.748  1.00  0.00     0.009 A 
ATOM     58  C   UNL A   1      39.603  25.758  28.638  1.00  0.00     0.009 A 
ATOM     59  C   UNL A   1      40.463  25.511  25.994  1.00  0.00     0.001 A 
ATOM     60  C   UNL A   1      39.243  24.638  27.889  1.00  0.00     0.001 A 
ATOM     61  C   UNL A   1      39.666  24.520  26.565  1.00  0.00     0.000 A 
ENDBRANCH  42  56
BRANCH  43  62
ATOM     62  C   UNL A   1      42.232  34.807  33.637  1.00  0.00    -0.014 A 
ATOM     63  C   UNL A   1      42.859  35.943  33.105  1.00  0.00     0.009 A 
ATOM     64  C   UNL A   1      41.838  34.810  34.984  1.00  0.00     0.009 A 
ATOM     65  C   UNL A   1      43.098  37.057  33.912  1.00  0.00     0.001 A 
ATOM     66  C   UNL A   1      42.060  35.933  35.781  1.00  0.00     0.001 A 
ATOM     67  C   UNL A   1      42.695  37.053  35.246  1.00  0.00     0.000 A 
ENDBRANCH  43  62
BRANCH  55  68
ATOM     68  C   UNL A   1      45.944  29.152  32.030  1.00  0.00    -0.014 A 
ATOM     69  C   UNL A   1      47.059  29.582  31.296  1.00  0.00     0.009 A 
ATOM     70  C   UNL A   1      46.137  28.318  33.143  1.00  0.00     0.009 A 
ATOM     71  C   UNL A   1      48.341  29.161  31.652  1.00  0.00     0.001 A 
ATOM     72  C   UNL A   1      47.422  27.913  33.507  1.00  0.00     0.001 A 
ATOM     73  C   UNL A   1      48.522  28.329  32.756  1.00  0.00     0.000 A 
ENDBRANCH  55  68
ENDBRANCH  29  30
ENDBRANCH  22  24
ENDBRANCH  21  22
ENDBRANCH  20  21
ENDBRANCH   1  20
TORSDOF 14
ENDMDL
