MODEL 1
REMARK VINA RESULT:     -11.0      0.000      0.000
REMARK SMILES COc1ccc2[nH]c(C(=O)c3cc(C)ccn3)c(CC(=O)OCCOC(=O)c3ccc(-c4c5nc(c(-c6ccccc6)c6ccc([nH]6)c(-c6ccccc6)c6nc(c(-c7ccccc7)c7ccc4[nH]7)C=C6)C=C5)cc3)c2c1
REMARK SMILES IDX 23 1 22 2 20 3 21 4 19 5 18 6 3 7 4 8 77 9 5 10 76 11 6 12
REMARK SMILES IDX 7 13 8 14 2 16 1 17 9 18 10 19 11 20 12 21 17 22 13 23 16 24
REMARK SMILES IDX 14 25 15 26 24 27 25 28 26 29 27 30 28 31 29 32 75 33 30 34
REMARK SMILES IDX 74 35 31 36 32 37 33 38 68 39 34 40 73 41 67 42 69 43 35 44
REMARK SMILES IDX 72 45 66 46 65 47 36 49 58 50 43 51 57 52 44 53 47 54 56 55
REMARK SMILES IDX 70 56 45 57 46 58 55 60 71 61 48 62 37 63 38 64 42 65 39 66
REMARK SMILES IDX 41 67 40 68 59 69 60 70 64 71 61 72 63 73 62 74 49 75 50 76
REMARK SMILES IDX 54 77 51 78 53 79 52 80
REMARK H PARENT 7 15 69 48 47 59
REMARK Flexibility Score: inf
ROOT
ATOM      1  C   UNL A   1      32.483  30.077  25.933  1.00  0.00     0.274 C 
ENDROOT
BRANCH   1   2
ATOM      2  O   UNL A   1      31.640  28.947  26.241  1.00  0.00    -0.462 OA
BRANCH   2   3
ATOM      3  C   UNL A   1      32.292  27.782  26.498  1.00  0.00     0.310 C 
ATOM      4  O   UNL A   1      31.869  26.910  27.255  1.00  0.00    -0.252 OA
BRANCH   3   5
ATOM      5  C   UNL A   1      33.591  27.593  25.743  1.00  0.00     0.161 C 
BRANCH   5   6
ATOM      6  C   UNL A   1      33.561  26.665  24.566  1.00  0.00     0.000 A 
ATOM      7  C   UNL A   1      34.555  23.076  25.399  1.00  0.00     0.119 A 
ATOM      8  C   UNL A   1      34.307  22.554  24.132  1.00  0.00     0.048 A 
ATOM      9  C   UNL A   1      34.385  24.439  25.650  1.00  0.00     0.057 A 
ATOM     10  C   UNL A   1      33.914  23.385  23.074  1.00  0.00     0.030 A 
ATOM     11  C   UNL A   1      33.946  25.287  24.615  1.00  0.00     0.008 A 
ATOM     12  C   UNL A   1      33.732  24.744  23.353  1.00  0.00     0.046 A 
ATOM     13  N   UNL A   1      33.306  25.773  22.546  1.00  0.00    -0.352 N 
ATOM     14  C   UNL A   1      33.003  26.883  23.306  1.00  0.00     0.093 A 
ATOM     15  H   UNL A   1      33.228  25.723  21.565  1.00  0.00     0.167 HD
BRANCH   7  16
ATOM     16  O   UNL A   1      34.875  22.317  26.494  1.00  0.00    -0.497 OA
ATOM     17  C   UNL A   1      34.000  21.217  26.709  1.00  0.00     0.278 C 
ENDBRANCH   7  16
BRANCH  14  18
ATOM     18  C   UNL A   1      32.169  27.987  22.852  1.00  0.00     0.227 C 
ATOM     19  O   UNL A   1      32.627  29.013  22.355  1.00  0.00    -0.285 OA
BRANCH  18  20
ATOM     20  C   UNL A   1      30.713  27.956  23.123  1.00  0.00     0.113 A 
ATOM     21  C   UNL A   1      29.933  29.058  22.791  1.00  0.00     0.036 A 
ATOM     22  N   UNL A   1      30.224  26.814  23.656  1.00  0.00    -0.253 NA
ATOM     23  C   UNL A   1      28.556  28.981  23.012  1.00  0.00    -0.047 A 
ATOM     24  C   UNL A   1      28.887  26.738  23.795  1.00  0.00     0.112 A 
ATOM     25  C   UNL A   1      27.652  30.139  22.714  1.00  0.00     0.044 C 
ATOM     26  C   UNL A   1      28.023  27.782  23.497  1.00  0.00     0.023 A 
ENDBRANCH  18  20
ENDBRANCH  14  18
ENDBRANCH   5   6
ENDBRANCH   3   5
ENDBRANCH   2   3
ENDBRANCH   1   2
BRANCH   1  27
ATOM     27  C   UNL A   1      32.887  30.817  27.206  1.00  0.00     0.275 C 
BRANCH  27  28
ATOM     28  O   UNL A   1      33.950  30.106  27.862  1.00  0.00    -0.458 OA
BRANCH  28  29
ATOM     29  C   UNL A   1      34.788  30.876  28.593  1.00  0.00     0.338 C 
ATOM     30  O   UNL A   1      34.541  31.971  29.079  1.00  0.00    -0.246 OA
BRANCH  29  31
ATOM     31  C   UNL A   1      36.118  30.244  28.684  1.00  0.00     0.060 A 
ATOM     32  C   UNL A   1      36.619  29.763  29.894  1.00  0.00     0.016 A 
ATOM     33  C   UNL A   1      36.918  30.222  27.540  1.00  0.00     0.016 A 
ATOM     34  C   UNL A   1      37.946  29.343  29.979  1.00  0.00     0.010 A 
ATOM     35  C   UNL A   1      38.214  29.705  27.606  1.00  0.00     0.010 A 
ATOM     36  C   UNL A   1      38.753  29.287  28.833  1.00  0.00    -0.014 A 
BRANCH  36  37
ATOM     37  C   UNL A   1      40.149  28.779  28.904  1.00  0.00     0.031 A 
ATOM     38  C   UNL A   1      41.284  29.691  29.286  1.00  0.00     0.074 A 
ATOM     39  C   UNL A   1      40.407  27.493  28.593  1.00  0.00     0.049 A 
ATOM     40  N   UNL A   1      42.575  29.471  29.225  1.00  0.00    -0.248 NA
ATOM     41  C   UNL A   1      40.925  31.027  29.789  1.00  0.00     0.031 C 
ATOM     42  C   UNL A   1      39.407  26.487  28.233  1.00  0.00     0.029 A 
ATOM     43  N   UNL A   1      41.599  26.813  28.531  1.00  0.00    -0.354 N 
ATOM     44  C   UNL A   1      43.181  30.653  29.633  1.00  0.00     0.074 A 
ATOM     45  C   UNL A   1      42.119  31.588  29.939  1.00  0.00     0.031 C 
ATOM     46  C   UNL A   1      40.019  25.312  28.024  1.00  0.00     0.029 A 
ATOM     47  C   UNL A   1      41.459  25.500  28.156  1.00  0.00     0.049 A 
ATOM     48  H   UNL A   1      42.469  27.226  28.735  1.00  0.00     0.167 HD
ATOM     49  C   UNL A   1      44.503  30.932  29.740  1.00  0.00     0.031 A 
ATOM     50  C   UNL A   1      42.382  24.554  27.906  1.00  0.00     0.031 A 
ATOM     51  C   UNL A   1      45.562  29.994  29.476  1.00  0.00     0.049 A 
ATOM     52  C   UNL A   1      43.837  24.896  28.007  1.00  0.00     0.074 A 
ATOM     53  C   UNL A   1      46.931  30.187  29.576  1.00  0.00     0.029 A 
ATOM     54  N   UNL A   1      45.373  28.681  29.074  1.00  0.00    -0.354 N 
ATOM     55  N   UNL A   1      44.395  26.032  28.346  1.00  0.00    -0.248 NA
ATOM     56  C   UNL A   1      44.790  23.828  27.674  1.00  0.00     0.031 C 
ATOM     57  C   UNL A   1      47.571  28.998  29.205  1.00  0.00     0.029 A 
ATOM     58  C   UNL A   1      46.599  28.057  28.911  1.00  0.00     0.049 A 
ATOM     59  H   UNL A   1      44.498  28.257  28.927  1.00  0.00     0.167 HD
ATOM     60  C   UNL A   1      45.763  25.815  28.272  1.00  0.00     0.074 A 
ATOM     61  C   UNL A   1      45.951  24.434  27.877  1.00  0.00     0.031 C 
ATOM     62  C   UNL A   1      46.773  26.687  28.508  1.00  0.00     0.031 A 
BRANCH  49  63
ATOM     63  C   UNL A   1      44.887  32.330  30.136  1.00  0.00    -0.014 A 
ATOM     64  C   UNL A   1      45.049  32.692  31.481  1.00  0.00     0.009 A 
ATOM     65  C   UNL A   1      45.147  33.284  29.138  1.00  0.00     0.009 A 
ATOM     66  C   UNL A   1      45.442  33.989  31.821  1.00  0.00     0.001 A 
ATOM     67  C   UNL A   1      45.560  34.573  29.479  1.00  0.00     0.001 A 
ATOM     68  C   UNL A   1      45.701  34.925  30.820  1.00  0.00     0.000 A 
ENDBRANCH  49  63
BRANCH  50  69
ATOM     69  C   UNL A   1      41.946  23.197  27.493  1.00  0.00    -0.014 A 
ATOM     70  C   UNL A   1      41.696  22.911  26.143  1.00  0.00     0.009 A 
ATOM     71  C   UNL A   1      41.803  22.175  28.445  1.00  0.00     0.009 A 
ATOM     72  C   UNL A   1      41.302  21.629  25.756  1.00  0.00     0.001 A 
ATOM     73  C   UNL A   1      41.433  20.890  28.052  1.00  0.00     0.001 A 
ATOM     74  C   UNL A   1      41.176  20.618  26.710  1.00  0.00     0.000 A 
ENDBRANCH  50  69
BRANCH  62  75
ATOM     75  C   UNL A   1      48.169  26.159  28.358  1.00  0.00    -0.014 A 
ATOM     76  C   UNL A   1      48.878  25.673  29.467  1.00  0.00     0.009 A 
ATOM     77  C   UNL A   1      48.776  26.140  27.095  1.00  0.00     0.009 A 
ATOM     78  C   UNL A   1      50.185  25.205  29.316  1.00  0.00     0.001 A 
ATOM     79  C   UNL A   1      50.076  25.654  26.943  1.00  0.00     0.001 A 
ATOM     80  C   UNL A   1      50.781  25.194  28.055  1.00  0.00     0.000 A 
ENDBRANCH  62  75
ENDBRANCH  36  37
ENDBRANCH  29  31
ENDBRANCH  28  29
ENDBRANCH  27  28
ENDBRANCH   1  27
TORSDOF 15
ENDMDL
MODEL 2
REMARK VINA RESULT:     -11.0      2.910      8.285
REMARK SMILES COc1ccc2[nH]c(C(=O)c3cc(C)ccn3)c(CC(=O)OCCOC(=O)c3ccc(-c4c5nc(c(-c6ccccc6)c6ccc([nH]6)c(-c6ccccc6)c6nc(c(-c7ccccc7)c7ccc4[nH]7)C=C6)C=C5)cc3)c2c1
REMARK SMILES IDX 23 1 22 2 20 3 21 4 19 5 18 6 3 7 4 8 77 9 5 10 76 11 6 12
REMARK SMILES IDX 7 13 8 14 2 16 1 17 9 18 10 19 11 20 12 21 17 22 13 23 16 24
REMARK SMILES IDX 14 25 15 26 24 27 25 28 26 29 27 30 28 31 29 32 75 33 30 34
REMARK SMILES IDX 74 35 31 36 32 37 33 38 68 39 34 40 73 41 67 42 69 43 35 44
REMARK SMILES IDX 72 45 66 46 65 47 36 49 58 50 43 51 57 52 44 53 47 54 56 55
REMARK SMILES IDX 70 56 45 57 46 58 55 60 71 61 48 62 37 63 38 64 42 65 39 66
REMARK SMILES IDX 41 67 40 68 59 69 60 70 64 71 61 72 63 73 62 74 49 75 50 76
REMARK SMILES IDX 54 77 51 78 53 79 52 80
REMARK H PARENT 7 15 69 48 47 59
REMARK Flexibility Score: inf
ROOT
ATOM      1  C   UNL A   1      36.433  21.652  24.770  1.00  0.00     0.274 C 
ENDROOT
BRANCH   1   2
ATOM      2  O   UNL A   1      36.352  22.569  23.659  1.00  0.00    -0.462 OA
BRANCH   2   3
ATOM      3  C   UNL A   1      35.436  23.566  23.787  1.00  0.00     0.310 C 
ATOM      4  O   UNL A   1      34.718  23.962  22.871  1.00  0.00    -0.252 OA
BRANCH   3   5
ATOM      5  C   UNL A   1      35.315  24.152  25.179  1.00  0.00     0.161 C 
BRANCH   5   6
ATOM      6  C   UNL A   1      33.928  24.345  25.713  1.00  0.00     0.000 A 
ATOM      7  C   UNL A   1      32.237  27.548  24.509  1.00  0.00     0.119 A 
ATOM      8  C   UNL A   1      31.006  27.304  25.114  1.00  0.00     0.048 A 
ATOM      9  C   UNL A   1      33.298  26.655  24.675  1.00  0.00     0.057 A 
ATOM     10  C   UNL A   1      30.814  26.179  25.928  1.00  0.00     0.030 A 
ATOM     11  C   UNL A   1      33.114  25.494  25.451  1.00  0.00     0.008 A 
ATOM     12  C   UNL A   1      31.884  25.289  26.065  1.00  0.00     0.046 A 
ATOM     13  N   UNL A   1      31.973  24.095  26.742  1.00  0.00    -0.352 N 
ATOM     14  C   UNL A   1      33.118  23.420  26.373  1.00  0.00     0.093 A 
ATOM     15  H   UNL A   1      31.312  23.769  27.396  1.00  0.00     0.167 HD
BRANCH   7  16
ATOM     16  O   UNL A   1      32.478  28.586  23.648  1.00  0.00    -0.497 OA
ATOM     17  C   UNL A   1      33.619  28.397  22.820  1.00  0.00     0.278 C 
ENDBRANCH   7  16
BRANCH  14  18
ATOM     18  C   UNL A   1      33.331  21.994  26.573  1.00  0.00     0.227 C 
ATOM     19  O   UNL A   1      33.916  21.533  27.551  1.00  0.00    -0.285 OA
BRANCH  18  20
ATOM     20  C   UNL A   1      32.965  21.047  25.494  1.00  0.00     0.113 A 
ATOM     21  C   UNL A   1      32.554  21.541  24.263  1.00  0.00     0.036 A 
ATOM     22  N   UNL A   1      33.095  19.731  25.779  1.00  0.00    -0.253 NA
ATOM     23  C   UNL A   1      32.263  20.625  23.249  1.00  0.00    -0.047 A 
ATOM     24  C   UNL A   1      32.876  18.871  24.766  1.00  0.00     0.112 A 
ATOM     25  C   UNL A   1      31.778  21.078  21.905  1.00  0.00     0.044 C 
ATOM     26  C   UNL A   1      32.459  19.264  23.503  1.00  0.00     0.023 A 
ENDBRANCH  18  20
ENDBRANCH  14  18
ENDBRANCH   5   6
ENDBRANCH   3   5
ENDBRANCH   2   3
ENDBRANCH   1   2
BRANCH   1  27
ATOM     27  C   UNL A   1      37.870  21.532  25.271  1.00  0.00     0.275 C 
BRANCH  27  28
ATOM     28  O   UNL A   1      38.184  22.654  26.113  1.00  0.00    -0.458 OA
BRANCH  28  29
ATOM     29  C   UNL A   1      39.504  22.871  26.310  1.00  0.00     0.338 C 
ATOM     30  O   UNL A   1      40.414  22.077  26.116  1.00  0.00    -0.246 OA
BRANCH  29  31
ATOM     31  C   UNL A   1      39.725  24.215  26.876  1.00  0.00     0.060 A 
ATOM     32  C   UNL A   1      40.407  25.205  26.168  1.00  0.00     0.016 A 
ATOM     33  C   UNL A   1      39.318  24.453  28.191  1.00  0.00     0.016 A 
ATOM     34  C   UNL A   1      40.758  26.397  26.803  1.00  0.00     0.010 A 
ATOM     35  C   UNL A   1      39.582  25.686  28.789  1.00  0.00     0.010 A 
ATOM     36  C   UNL A   1      40.331  26.662  28.112  1.00  0.00    -0.014 A 
BRANCH  36  37
ATOM     37  C   UNL A   1      40.646  27.957  28.773  1.00  0.00     0.031 A 
ATOM     38  C   UNL A   1      41.996  28.198  29.393  1.00  0.00     0.074 A 
ATOM     39  C   UNL A   1      39.702  28.917  28.843  1.00  0.00     0.049 A 
ATOM     40  N   UNL A   1      42.385  29.186  30.162  1.00  0.00    -0.248 NA
ATOM     41  C   UNL A   1      43.040  27.196  29.129  1.00  0.00     0.031 C 
ATOM     42  C   UNL A   1      38.360  28.835  28.263  1.00  0.00     0.029 A 
ATOM     43  N   UNL A   1      39.732  30.153  29.439  1.00  0.00    -0.354 N 
ATOM     44  C   UNL A   1      43.699  28.900  30.512  1.00  0.00     0.074 A 
ATOM     45  C   UNL A   1      44.042  27.647  29.874  1.00  0.00     0.031 C 
ATOM     46  C   UNL A   1      37.709  29.983  28.498  1.00  0.00     0.029 A 
ATOM     47  C   UNL A   1      38.554  30.849  29.312  1.00  0.00     0.049 A 
ATOM     48  H   UNL A   1      40.520  30.508  29.911  1.00  0.00     0.167 HD
ATOM     49  C   UNL A   1      44.540  29.617  31.296  1.00  0.00     0.031 A 
ATOM     50  C   UNL A   1      38.174  32.034  29.821  1.00  0.00     0.031 A 
ATOM     51  C   UNL A   1      44.218  30.883  31.901  1.00  0.00     0.049 A 
ATOM     52  C   UNL A   1      39.115  32.794  30.706  1.00  0.00     0.074 A 
ATOM     53  C   UNL A   1      45.017  31.688  32.697  1.00  0.00     0.029 A 
ATOM     54  N   UNL A   1      43.004  31.537  31.765  1.00  0.00    -0.354 N 
ATOM     55  N   UNL A   1      40.336  32.487  31.068  1.00  0.00    -0.248 NA
ATOM     56  C   UNL A   1      38.616  34.057  31.266  1.00  0.00     0.031 C 
ATOM     57  C   UNL A   1      44.274  32.815  33.068  1.00  0.00     0.029 A 
ATOM     58  C   UNL A   1      43.028  32.729  32.471  1.00  0.00     0.049 A 
ATOM     59  H   UNL A   1      42.238  31.204  31.243  1.00  0.00     0.167 HD
ATOM     60  C   UNL A   1      40.754  33.520  31.894  1.00  0.00     0.074 A 
ATOM     61  C   UNL A   1      39.665  34.473  31.962  1.00  0.00     0.031 C 
ATOM     62  C   UNL A   1      41.936  33.662  32.540  1.00  0.00     0.031 A 
BRANCH  49  63
ATOM     63  C   UNL A   1      45.896  29.032  31.576  1.00  0.00    -0.014 A 
ATOM     64  C   UNL A   1      47.004  29.335  30.772  1.00  0.00     0.009 A 
ATOM     65  C   UNL A   1      46.075  28.208  32.700  1.00  0.00     0.009 A 
ATOM     66  C   UNL A   1      48.262  28.807  31.074  1.00  0.00     0.001 A 
ATOM     67  C   UNL A   1      47.336  27.699  33.012  1.00  0.00     0.001 A 
ATOM     68  C   UNL A   1      48.427  27.994  32.196  1.00  0.00     0.000 A 
ENDBRANCH  49  63
BRANCH  50  69
ATOM     69  C   UNL A   1      36.813  32.551  29.534  1.00  0.00    -0.014 A 
ATOM     70  C   UNL A   1      35.760  32.314  30.428  1.00  0.00     0.009 A 
ATOM     71  C   UNL A   1      36.570  33.307  28.376  1.00  0.00     0.009 A 
ATOM     72  C   UNL A   1      34.485  32.817  30.163  1.00  0.00     0.001 A 
ATOM     73  C   UNL A   1      35.301  33.828  28.126  1.00  0.00     0.001 A 
ATOM     74  C   UNL A   1      34.257  33.577  29.015  1.00  0.00     0.000 A 
ENDBRANCH  50  69
BRANCH  62  75
ATOM     75  C   UNL A   1      42.110  34.904  33.362  1.00  0.00    -0.014 A 
ATOM     76  C   UNL A   1      42.857  35.990  32.880  1.00  0.00     0.009 A 
ATOM     77  C   UNL A   1      41.513  34.993  34.628  1.00  0.00     0.009 A 
ATOM     78  C   UNL A   1      43.028  37.131  33.666  1.00  0.00     0.001 A 
ATOM     79  C   UNL A   1      41.670  36.142  35.404  1.00  0.00     0.001 A 
ATOM     80  C   UNL A   1      42.434  37.207  34.926  1.00  0.00     0.000 A 
ENDBRANCH  62  75
ENDBRANCH  36  37
ENDBRANCH  29  31
ENDBRANCH  28  29
ENDBRANCH  27  28
ENDBRANCH   1  27
TORSDOF 15
ENDMDL
MODEL 3
REMARK VINA RESULT:     -11.0      3.038      7.116
REMARK SMILES COc1ccc2[nH]c(C(=O)c3cc(C)ccn3)c(CC(=O)OCCOC(=O)c3ccc(-c4c5nc(c(-c6ccccc6)c6ccc([nH]6)c(-c6ccccc6)c6nc(c(-c7ccccc7)c7ccc4[nH]7)C=C6)C=C5)cc3)c2c1
REMARK SMILES IDX 23 1 22 2 20 3 21 4 19 5 18 6 3 7 4 8 77 9 5 10 76 11 6 12
REMARK SMILES IDX 7 13 8 14 2 16 1 17 9 18 10 19 11 20 12 21 17 22 13 23 16 24
REMARK SMILES IDX 14 25 15 26 24 27 25 28 26 29 27 30 28 31 29 32 75 33 30 34
REMARK SMILES IDX 74 35 31 36 32 37 33 38 68 39 34 40 73 41 67 42 69 43 35 44
REMARK SMILES IDX 72 45 66 46 65 47 36 49 58 50 43 51 57 52 44 53 47 54 56 55
REMARK SMILES IDX 70 56 45 57 46 58 55 60 71 61 48 62 37 63 38 64 42 65 39 66
REMARK SMILES IDX 41 67 40 68 59 69 60 70 64 71 61 72 63 73 62 74 49 75 50 76
REMARK SMILES IDX 54 77 51 78 53 79 52 80
REMARK H PARENT 7 15 69 48 47 59
REMARK Flexibility Score: inf
ROOT
ATOM      1  C   UNL A   1      32.405  31.530  26.968  1.00  0.00     0.274 C 
ENDROOT
BRANCH   1   2
ATOM      2  O   UNL A   1      31.582  30.803  26.032  1.00  0.00    -0.462 OA
BRANCH   2   3
ATOM      3  C   UNL A   1      32.143  29.681  25.506  1.00  0.00     0.310 C 
ATOM      4  O   UNL A   1      33.340  29.567  25.248  1.00  0.00    -0.252 OA
BRANCH   3   5
ATOM      5  C   UNL A   1      31.188  28.526  25.289  1.00  0.00     0.161 C 
BRANCH   5   6
ATOM      6  C   UNL A   1      31.182  27.899  23.927  1.00  0.00     0.000 A 
ATOM      7  C   UNL A   1      33.854  25.216  23.448  1.00  0.00     0.119 A 
ATOM      8  C   UNL A   1      33.458  24.839  22.166  1.00  0.00     0.048 A 
ATOM      9  C   UNL A   1      33.198  26.253  24.114  1.00  0.00     0.057 A 
ATOM     10  C   UNL A   1      32.420  25.510  21.506  1.00  0.00     0.030 A 
ATOM     11  C   UNL A   1      32.121  26.911  23.490  1.00  0.00     0.008 A 
ATOM     12  C   UNL A   1      31.766  26.533  22.200  1.00  0.00     0.046 A 
ATOM     13  N   UNL A   1      30.696  27.317  21.837  1.00  0.00    -0.352 N 
ATOM     14  C   UNL A   1      30.206  27.995  22.934  1.00  0.00     0.093 A 
ATOM     15  H   UNL A   1      30.331  27.384  20.925  1.00  0.00     0.167 HD
BRANCH   7  16
ATOM     16  O   UNL A   1      34.811  24.565  24.179  1.00  0.00    -0.497 OA
ATOM     17  C   UNL A   1      35.347  23.415  23.537  1.00  0.00     0.278 C 
ENDBRANCH   7  16
BRANCH  14  18
ATOM     18  C   UNL A   1      28.877  28.585  23.010  1.00  0.00     0.227 C 
ATOM     19  O   UNL A   1      27.895  27.976  23.428  1.00  0.00    -0.285 OA
BRANCH  18  20
ATOM     20  C   UNL A   1      28.645  29.928  22.427  1.00  0.00     0.113 A 
ATOM     21  C   UNL A   1      28.994  31.058  23.157  1.00  0.00     0.036 A 
ATOM     22  N   UNL A   1      28.128  29.960  21.178  1.00  0.00    -0.253 NA
ATOM     23  C   UNL A   1      28.809  32.308  22.562  1.00  0.00    -0.047 A 
ATOM     24  C   UNL A   1      28.025  31.173  20.601  1.00  0.00     0.112 A 
ATOM     25  C   UNL A   1      29.127  33.575  23.297  1.00  0.00     0.044 C 
ATOM     26  C   UNL A   1      28.343  32.359  21.245  1.00  0.00     0.023 A 
ENDBRANCH  18  20
ENDBRANCH  14  18
ENDBRANCH   5   6
ENDBRANCH   3   5
ENDBRANCH   2   3
ENDBRANCH   1   2
BRANCH   1  27
ATOM     27  C   UNL A   1      31.785  32.885  27.297  1.00  0.00     0.275 C 
BRANCH  27  28
ATOM     28  O   UNL A   1      32.822  33.872  27.434  1.00  0.00    -0.458 OA
BRANCH  28  29
ATOM     29  C   UNL A   1      33.178  34.156  28.708  1.00  0.00     0.338 C 
ATOM     30  O   UNL A   1      32.575  34.871  29.495  1.00  0.00    -0.246 OA
BRANCH  29  31
ATOM     31  C   UNL A   1      34.473  33.529  29.030  1.00  0.00     0.060 A 
ATOM     32  C   UNL A   1      34.610  32.634  30.092  1.00  0.00     0.016 A 
ATOM     33  C   UNL A   1      35.598  33.925  28.304  1.00  0.00     0.016 A 
ATOM     34  C   UNL A   1      35.879  32.205  30.482  1.00  0.00     0.010 A 
ATOM     35  C   UNL A   1      36.855  33.415  28.633  1.00  0.00     0.010 A 
ATOM     36  C   UNL A   1      37.014  32.572  29.745  1.00  0.00    -0.014 A 
BRANCH  36  37
ATOM     37  C   UNL A   1      38.363  32.067  30.115  1.00  0.00     0.031 A 
ATOM     38  C   UNL A   1      38.884  30.771  29.553  1.00  0.00     0.074 A 
ATOM     39  C   UNL A   1      39.119  32.762  30.988  1.00  0.00     0.049 A 
ATOM     40  N   UNL A   1      39.951  30.091  29.899  1.00  0.00    -0.248 NA
ATOM     41  C   UNL A   1      38.101  30.151  28.473  1.00  0.00     0.031 C 
ATOM     42  C   UNL A   1      38.758  34.046  31.592  1.00  0.00     0.029 A 
ATOM     43  N   UNL A   1      40.353  32.481  31.520  1.00  0.00    -0.354 N 
ATOM     44  C   UNL A   1      39.940  28.943  29.117  1.00  0.00     0.074 A 
ATOM     45  C   UNL A   1      38.762  29.016  28.278  1.00  0.00     0.031 C 
ATOM     46  C   UNL A   1      39.761  34.459  32.381  1.00  0.00     0.029 A 
ATOM     47  C   UNL A   1      40.798  33.435  32.402  1.00  0.00     0.049 A 
ATOM     48  H   UNL A   1      40.870  31.674  31.292  1.00  0.00     0.167 HD
ATOM     49  C   UNL A   1      40.830  27.922  29.102  1.00  0.00     0.031 A 
ATOM     50  C   UNL A   1      41.898  33.473  33.175  1.00  0.00     0.031 A 
ATOM     51  C   UNL A   1      42.023  27.863  29.905  1.00  0.00     0.049 A 
ATOM     52  C   UNL A   1      42.854  32.318  33.158  1.00  0.00     0.074 A 
ATOM     53  C   UNL A   1      42.992  26.873  29.941  1.00  0.00     0.029 A 
ATOM     54  N   UNL A   1      42.420  28.841  30.803  1.00  0.00    -0.354 N 
ATOM     55  N   UNL A   1      42.804  31.218  32.450  1.00  0.00    -0.248 NA
ATOM     56  C   UNL A   1      44.008  32.406  34.063  1.00  0.00     0.031 C 
ATOM     57  C   UNL A   1      43.960  27.238  30.884  1.00  0.00     0.029 A 
ATOM     58  C   UNL A   1      43.612  28.473  31.406  1.00  0.00     0.049 A 
ATOM     59  H   UNL A   1      41.928  29.674  30.984  1.00  0.00     0.167 HD
ATOM     60  C   UNL A   1      43.922  30.483  32.818  1.00  0.00     0.074 A 
ATOM     61  C   UNL A   1      44.641  31.272  33.796  1.00  0.00     0.031 C 
ATOM     62  C   UNL A   1      44.312  29.261  32.385  1.00  0.00     0.031 A 
BRANCH  49  63
ATOM     63  C   UNL A   1      40.532  26.755  28.203  1.00  0.00    -0.014 A 
ATOM     64  C   UNL A   1      39.708  25.700  28.622  1.00  0.00     0.009 A 
ATOM     65  C   UNL A   1      41.040  26.744  26.894  1.00  0.00     0.009 A 
ATOM     66  C   UNL A   1      39.417  24.644  27.754  1.00  0.00     0.001 A 
ATOM     67  C   UNL A   1      40.732  25.699  26.022  1.00  0.00     0.001 A 
ATOM     68  C   UNL A   1      39.925  24.648  26.454  1.00  0.00     0.000 A 
ENDBRANCH  49  63
BRANCH  50  69
ATOM     69  C   UNL A   1      42.129  34.638  34.064  1.00  0.00    -0.014 A 
ATOM     70  C   UNL A   1      41.681  34.618  35.392  1.00  0.00     0.009 A 
ATOM     71  C   UNL A   1      42.820  35.766  33.593  1.00  0.00     0.009 A 
ATOM     72  C   UNL A   1      41.914  35.710  36.231  1.00  0.00     0.001 A 
ATOM     73  C   UNL A   1      43.072  36.845  34.440  1.00  0.00     0.001 A 
ATOM     74  C   UNL A   1      42.613  36.820  35.756  1.00  0.00     0.000 A 
ENDBRANCH  50  69
BRANCH  62  75
ATOM     75  C   UNL A   1      45.586  28.717  32.959  1.00  0.00    -0.014 A 
ATOM     76  C   UNL A   1      46.824  28.989  32.355  1.00  0.00     0.009 A 
ATOM     77  C   UNL A   1      45.549  27.931  34.120  1.00  0.00     0.009 A 
ATOM     78  C   UNL A   1      47.999  28.458  32.890  1.00  0.00     0.001 A 
ATOM     79  C   UNL A   1      46.727  27.417  34.662  1.00  0.00     0.001 A 
ATOM     80  C   UNL A   1      47.950  27.674  34.043  1.00  0.00     0.000 A 
ENDBRANCH  62  75
ENDBRANCH  36  37
ENDBRANCH  29  31
ENDBRANCH  28  29
ENDBRANCH  27  28
ENDBRANCH   1  27
TORSDOF 15
ENDMDL
