MODEL 1
REMARK VINA RESULT:     -14.9      0.000      0.000
REMARK SMILES CC1=C(C)C[C@@H](C(=O)OCCOC(=O)c2ccc(-c3c4nc(c(-c5ccccc5)c5ccc([nH]5)c(-c5ccccc5)c5nc(c(-c6ccccc6)c6ccc3[nH]6)C=C5)C=C4)cc2)[C@@H](C(=O)N2CCN(c3cccc(C(F)(F)F)c3)CC2)C1
REMARK SMILES IDX 10 1 9 2 7 3 8 4 6 5 1 6 2 7 3 8 82 9 4 10 5 11 63 12 64 13
REMARK SMILES IDX 65 14 66 15 67 16 81 17 68 18 80 19 69 20 70 21 71 22 79 23
REMARK SMILES IDX 72 24 74 25 73 26 75 27 76 28 77 29 78 30 11 31 12 32 13 33
REMARK SMILES IDX 14 34 15 35 16 36 62 37 17 38 61 39 18 40 19 41 20 42 55 43
REMARK SMILES IDX 21 44 60 45 54 46 56 47 22 48 59 49 53 50 52 51 23 53 45 54
REMARK SMILES IDX 30 55 44 56 31 57 34 58 43 59 57 60 32 61 33 62 42 64 58 65
REMARK SMILES IDX 35 66 24 67 25 68 29 69 26 70 28 71 27 72 46 73 47 74 51 75
REMARK SMILES IDX 48 76 50 77 49 78 36 79 37 80 41 81 38 82 40 83 39 84
REMARK H PARENT 56 52 34 63
REMARK Flexibility Score: inf
ROOT
ATOM      1  C   UNL A   1      32.672  30.309  26.371  1.00  0.00     0.274 C 
ENDROOT
BRANCH   1   2
ATOM      2  O   UNL A   1      32.505  29.770  25.032  1.00  0.00    -0.462 OA
BRANCH   2   3
ATOM      3  C   UNL A   1      31.236  29.659  24.522  1.00  0.00     0.310 C 
ATOM      4  O   UNL A   1      30.337  30.451  24.789  1.00  0.00    -0.252 OA
BRANCH   3   5
ATOM      5  C   UNL A   1      31.169  28.694  23.313  1.00  0.00     0.116 C 
ATOM      6  C   UNL A   1      26.944  28.848  23.091  1.00  0.00     0.039 C 
ATOM      7  C   UNL A   1      28.421  28.676  22.889  1.00  0.00    -0.074 C 
ATOM      8  C   UNL A   1      29.171  29.530  22.160  1.00  0.00    -0.073 C 
ATOM      9  C   UNL A   1      29.020  27.467  23.629  1.00  0.00     0.045 C 
ATOM     10  C   UNL A   1      28.757  30.803  21.478  1.00  0.00     0.039 C 
ATOM     11  C   UNL A   1      30.630  29.293  22.037  1.00  0.00     0.046 C 
ATOM     12  C   UNL A   1      30.562  27.334  23.588  1.00  0.00     0.097 C 
BRANCH  12  13
ATOM     13  C   UNL A   1      31.126  26.611  24.820  1.00  0.00     0.227 C 
ATOM     14  O   UNL A   1      30.970  27.092  25.947  1.00  0.00    -0.275 OA
ATOM     15  N   UNL A   1      31.786  25.392  24.665  1.00  0.00    -0.339 N 
ATOM     16  C   UNL A   1      32.224  24.585  26.321  1.00  0.00     0.141 C 
ATOM     17  C   UNL A   1      32.118  24.445  23.041  1.00  0.00     0.141 C 
ATOM     18  C   UNL A   1      33.014  22.779  26.292  1.00  0.00     0.138 C 
ATOM     19  C   UNL A   1      32.991  22.705  23.085  1.00  0.00     0.138 C 
ATOM     20  N   UNL A   1      33.143  21.850  24.696  1.00  0.00    -0.368 N 
BRANCH  20  21
ATOM     21  C   UNL A   1      34.054  20.810  24.528  1.00  0.00     0.037 A 
ATOM     22  C   UNL A   1      35.414  21.016  24.805  1.00  0.00     0.026 A 
ATOM     23  C   UNL A   1      33.602  19.504  24.366  1.00  0.00     0.039 A 
ATOM     24  C   UNL A   1      36.299  19.940  24.917  1.00  0.00     0.003 A 
ATOM     25  C   UNL A   1      34.461  18.408  24.550  1.00  0.00     0.058 A 
ATOM     26  C   UNL A   1      35.820  18.636  24.802  1.00  0.00     0.013 A 
BRANCH  25  27
ATOM     27  C   UNL A   1      33.904  17.009  24.524  1.00  0.00     0.416 C 
ATOM     28  F   UNL A   1      32.553  16.984  24.383  1.00  0.00    -0.166 F 
ATOM     29  F   UNL A   1      34.407  16.259  23.504  1.00  0.00    -0.166 F 
ATOM     30  F   UNL A   1      34.177  16.308  25.663  1.00  0.00    -0.166 F 
ENDBRANCH  25  27
ENDBRANCH  20  21
ENDBRANCH  12  13
ENDBRANCH   3   5
ENDBRANCH   2   3
ENDBRANCH   1   2
BRANCH   1  31
ATOM     31  C   UNL A   1      31.728  31.526  26.855  1.00  0.00     0.275 C 
BRANCH  31  32
ATOM     32  O   UNL A   1      32.314  33.132  27.464  1.00  0.00    -0.458 OA
BRANCH  32  33
ATOM     33  C   UNL A   1      33.077  34.243  28.429  1.00  0.00     0.338 C 
ATOM     34  O   UNL A   1      32.655  35.353  28.784  1.00  0.00    -0.246 OA
BRANCH  33  35
ATOM     35  C   UNL A   1      34.319  33.993  29.175  1.00  0.00     0.060 A 
ATOM     36  C   UNL A   1      35.528  34.408  28.580  1.00  0.00     0.016 A 
ATOM     37  C   UNL A   1      34.307  32.925  30.072  1.00  0.00     0.016 A 
ATOM     38  C   UNL A   1      36.720  33.823  28.930  1.00  0.00     0.010 A 
ATOM     39  C   UNL A   1      35.506  32.338  30.436  1.00  0.00     0.010 A 
ATOM     40  C   UNL A   1      36.702  32.807  29.877  1.00  0.00    -0.014 A 
BRANCH  40  41
ATOM     41  C   UNL A   1      37.972  32.298  30.376  1.00  0.00     0.031 A 
ATOM     42  C   UNL A   1      38.603  31.123  29.723  1.00  0.00     0.074 A 
ATOM     43  C   UNL A   1      38.445  32.908  31.475  1.00  0.00     0.049 A 
ATOM     44  N   UNL A   1      39.579  30.384  30.164  1.00  0.00    -0.248 NA
ATOM     45  C   UNL A   1      38.048  30.699  28.426  1.00  0.00     0.031 C 
ATOM     46  C   UNL A   1      37.837  34.085  32.116  1.00  0.00     0.029 A 
ATOM     47  N   UNL A   1      39.517  32.619  32.259  1.00  0.00    -0.354 N 
ATOM     48  C   UNL A   1      39.730  29.374  29.226  1.00  0.00     0.074 A 
ATOM     49  C   UNL A   1      38.745  29.595  28.189  1.00  0.00     0.031 C 
ATOM     50  C   UNL A   1      38.553  34.414  33.197  1.00  0.00     0.029 A 
ATOM     51  C   UNL A   1      39.608  33.430  33.361  1.00  0.00     0.049 A 
ATOM     52  H   UNL A   1      40.162  31.902  32.057  1.00  0.00     0.167 HD
ATOM     53  C   UNL A   1      40.615  28.353  29.265  1.00  0.00     0.031 A 
ATOM     54  C   UNL A   1      40.427  33.340  34.418  1.00  0.00     0.031 A 
ATOM     55  C   UNL A   1      41.562  28.195  30.338  1.00  0.00     0.049 A 
ATOM     56  C   UNL A   1      41.386  32.192  34.432  1.00  0.00     0.074 A 
ATOM     57  C   UNL A   1      42.530  27.224  30.506  1.00  0.00     0.029 A 
ATOM     58  N   UNL A   1      41.655  29.053  31.429  1.00  0.00    -0.354 N 
ATOM     59  N   UNL A   1      41.527  31.232  33.547  1.00  0.00    -0.248 NA
ATOM     60  C   UNL A   1      42.285  32.103  35.582  1.00  0.00     0.031 C 
ATOM     61  C   UNL A   1      43.186  27.477  31.717  1.00  0.00     0.029 A 
ATOM     62  C   UNL A   1      42.656  28.630  32.281  1.00  0.00     0.049 A 
ATOM     63  H   UNL A   1      41.088  29.845  31.574  1.00  0.00     0.167 HD
ATOM     64  C   UNL A   1      42.539  30.422  34.029  1.00  0.00     0.074 A 
ATOM     65  C   UNL A   1      42.992  31.026  35.271  1.00  0.00     0.031 C 
ATOM     66  C   UNL A   1      43.046  29.277  33.509  1.00  0.00     0.031 A 
BRANCH  53  67
ATOM     67  C   UNL A   1      40.566  27.343  28.156  1.00  0.00    -0.014 A 
ATOM     68  C   UNL A   1      41.318  27.509  26.982  1.00  0.00     0.009 A 
ATOM     69  C   UNL A   1      39.764  26.198  28.287  1.00  0.00     0.009 A 
ATOM     70  C   UNL A   1      41.247  26.566  25.953  1.00  0.00     0.001 A 
ATOM     71  C   UNL A   1      39.712  25.244  27.267  1.00  0.00     0.001 A 
ATOM     72  C   UNL A   1      40.447  25.433  26.098  1.00  0.00     0.000 A 
ENDBRANCH  53  67
BRANCH  54  73
ATOM     73  C   UNL A   1      40.338  34.336  35.511  1.00  0.00    -0.014 A 
ATOM     74  C   UNL A   1      41.029  35.551  35.413  1.00  0.00     0.009 A 
ATOM     75  C   UNL A   1      39.513  34.113  36.626  1.00  0.00     0.009 A 
ATOM     76  C   UNL A   1      40.912  36.514  36.417  1.00  0.00     0.001 A 
ATOM     77  C   UNL A   1      39.373  35.090  37.613  1.00  0.00     0.001 A 
ATOM     78  C   UNL A   1      40.081  36.286  37.513  1.00  0.00     0.000 A 
ENDBRANCH  54  73
BRANCH  66  79
ATOM     79  C   UNL A   1      44.149  28.641  34.297  1.00  0.00    -0.014 A 
ATOM     80  C   UNL A   1      45.485  29.006  34.080  1.00  0.00     0.009 A 
ATOM     81  C   UNL A   1      43.839  27.688  35.277  1.00  0.00     0.009 A 
ATOM     82  C   UNL A   1      46.501  28.400  34.816  1.00  0.00     0.001 A 
ATOM     83  C   UNL A   1      44.856  27.106  36.030  1.00  0.00     0.001 A 
ATOM     84  C   UNL A   1      46.185  27.456  35.793  1.00  0.00     0.000 A 
ENDBRANCH  66  79
ENDBRANCH  40  41
ENDBRANCH  33  35
ENDBRANCH  32  33
ENDBRANCH  31  32
ENDBRANCH   1  31
TORSDOF 14
ENDMDL
MODEL 2
REMARK VINA RESULT:     -14.6      0.588      5.769
REMARK SMILES CC1=C(C)C[C@@H](C(=O)OCCOC(=O)c2ccc(-c3c4nc(c(-c5ccccc5)c5ccc([nH]5)c(-c5ccccc5)c5nc(c(-c6ccccc6)c6ccc3[nH]6)C=C5)C=C4)cc2)[C@@H](C(=O)N2CCN(c3cccc(C(F)(F)F)c3)CC2)C1
REMARK SMILES IDX 10 1 9 2 7 3 8 4 6 5 1 6 2 7 3 8 82 9 4 10 5 11 63 12 64 13
REMARK SMILES IDX 65 14 66 15 67 16 81 17 68 18 80 19 69 20 70 21 71 22 79 23
REMARK SMILES IDX 72 24 74 25 73 26 75 27 76 28 77 29 78 30 11 31 12 32 13 33
REMARK SMILES IDX 14 34 15 35 16 36 62 37 17 38 61 39 18 40 19 41 20 42 55 43
REMARK SMILES IDX 21 44 60 45 54 46 56 47 22 48 59 49 53 50 52 51 23 53 45 54
REMARK SMILES IDX 30 55 44 56 31 57 34 58 43 59 57 60 32 61 33 62 42 64 58 65
REMARK SMILES IDX 35 66 24 67 25 68 29 69 26 70 28 71 27 72 46 73 47 74 51 75
REMARK SMILES IDX 48 76 50 77 49 78 36 79 37 80 41 81 38 82 40 83 39 84
REMARK H PARENT 56 52 34 63
REMARK Flexibility Score: inf
ROOT
ATOM      1  C   UNL A   1      32.587  30.498  26.504  1.00  0.00     0.274 C 
ENDROOT
BRANCH   1   2
ATOM      2  O   UNL A   1      32.481  29.860  25.204  1.00  0.00    -0.462 OA
BRANCH   2   3
ATOM      3  C   UNL A   1      31.240  29.735  24.633  1.00  0.00     0.310 C 
ATOM      4  O   UNL A   1      30.315  30.506  24.870  1.00  0.00    -0.252 OA
BRANCH   3   5
ATOM      5  C   UNL A   1      31.249  28.791  23.405  1.00  0.00     0.116 C 
ATOM      6  C   UNL A   1      27.030  28.785  23.053  1.00  0.00     0.039 C 
ATOM      7  C   UNL A   1      28.518  28.673  22.894  1.00  0.00    -0.074 C 
ATOM      8  C   UNL A   1      29.256  29.570  22.204  1.00  0.00    -0.073 C 
ATOM      9  C   UNL A   1      29.141  27.475  23.632  1.00  0.00     0.045 C 
ATOM     10  C   UNL A   1      28.813  30.838  21.532  1.00  0.00     0.039 C 
ATOM     11  C   UNL A   1      30.726  29.392  22.123  1.00  0.00     0.046 C 
ATOM     12  C   UNL A   1      30.688  27.403  23.637  1.00  0.00     0.097 C 
BRANCH  12  13
ATOM     13  C   UNL A   1      31.241  26.680  24.874  1.00  0.00     0.227 C 
ATOM     14  O   UNL A   1      31.033  27.134  26.004  1.00  0.00    -0.275 OA
ATOM     15  N   UNL A   1      31.952  25.490  24.718  1.00  0.00    -0.339 N 
ATOM     16  C   UNL A   1      32.370  24.670  26.373  1.00  0.00     0.141 C 
ATOM     17  C   UNL A   1      32.370  24.586  23.090  1.00  0.00     0.141 C 
ATOM     18  C   UNL A   1      33.231  22.897  26.339  1.00  0.00     0.138 C 
ATOM     19  C   UNL A   1      33.307  22.880  23.131  1.00  0.00     0.138 C 
ATOM     20  N   UNL A   1      33.443  22.002  24.732  1.00  0.00    -0.368 N 
BRANCH  20  21
ATOM     21  C   UNL A   1      34.399  21.001  24.574  1.00  0.00     0.037 A 
ATOM     22  C   UNL A   1      35.746  21.263  24.865  1.00  0.00     0.026 A 
ATOM     23  C   UNL A   1      34.003  19.677  24.410  1.00  0.00     0.039 A 
ATOM     24  C   UNL A   1      36.673  20.225  24.986  1.00  0.00     0.003 A 
ATOM     25  C   UNL A   1      34.904  18.618  24.604  1.00  0.00     0.058 A 
ATOM     26  C   UNL A   1      36.251  18.902  24.869  1.00  0.00     0.013 A 
BRANCH  25  27
ATOM     27  C   UNL A   1      34.407  17.197  24.574  1.00  0.00     0.416 C 
ATOM     28  F   UNL A   1      35.360  16.299  24.937  1.00  0.00    -0.166 F 
ATOM     29  F   UNL A   1      33.349  16.989  25.407  1.00  0.00    -0.166 F 
ATOM     30  F   UNL A   1      33.978  16.811  23.337  1.00  0.00    -0.166 F 
ENDBRANCH  25  27
ENDBRANCH  20  21
ENDBRANCH  12  13
ENDBRANCH   3   5
ENDBRANCH   2   3
ENDBRANCH   1   2
BRANCH   1  31
ATOM     31  C   UNL A   1      31.717  31.825  26.805  1.00  0.00     0.275 C 
BRANCH  31  32
ATOM     32  O   UNL A   1      32.372  33.385  27.461  1.00  0.00    -0.458 OA
BRANCH  32  33
ATOM     33  C   UNL A   1      33.179  34.434  28.459  1.00  0.00     0.338 C 
ATOM     34  O   UNL A   1      32.873  35.605  28.732  1.00  0.00    -0.246 OA
BRANCH  33  35
ATOM     35  C   UNL A   1      34.299  34.063  29.336  1.00  0.00     0.060 A 
ATOM     36  C   UNL A   1      35.601  34.185  28.809  1.00  0.00     0.016 A 
ATOM     37  C   UNL A   1      34.029  33.131  30.338  1.00  0.00     0.016 A 
ATOM     38  C   UNL A   1      36.638  33.446  29.326  1.00  0.00     0.010 A 
ATOM     39  C   UNL A   1      35.071  32.392  30.868  1.00  0.00     0.010 A 
ATOM     40  C   UNL A   1      36.368  32.572  30.371  1.00  0.00    -0.014 A 
BRANCH  40  41
ATOM     41  C   UNL A   1      37.486  31.913  31.032  1.00  0.00     0.031 A 
ATOM     42  C   UNL A   1      38.082  32.517  32.250  1.00  0.00     0.074 A 
ATOM     43  C   UNL A   1      37.953  30.814  30.417  1.00  0.00     0.049 A 
ATOM     44  N   UNL A   1      39.213  32.225  32.824  1.00  0.00    -0.248 NA
ATOM     45  C   UNL A   1      37.333  33.612  32.890  1.00  0.00     0.031 C 
ATOM     46  C   UNL A   1      37.356  30.198  29.221  1.00  0.00     0.029 A 
ATOM     47  N   UNL A   1      39.036  30.039  30.686  1.00  0.00    -0.354 N 
ATOM     48  C   UNL A   1      39.343  33.131  33.866  1.00  0.00     0.074 A 
ATOM     49  C   UNL A   1      38.173  33.982  33.848  1.00  0.00     0.031 C 
ATOM     50  C   UNL A   1      38.087  29.135  28.864  1.00  0.00     0.029 A 
ATOM     51  C   UNL A   1      39.233  29.053  29.752  1.00  0.00     0.049 A 
ATOM     52  H   UNL A   1      39.619  30.170  31.468  1.00  0.00     0.167 HD
ATOM     53  C   UNL A   1      40.372  33.227  34.736  1.00  0.00     0.031 A 
ATOM     54  C   UNL A   1      40.268  28.215  29.607  1.00  0.00     0.031 A 
ATOM     55  C   UNL A   1      41.510  32.345  34.686  1.00  0.00     0.049 A 
ATOM     56  C   UNL A   1      41.394  28.357  30.581  1.00  0.00     0.074 A 
ATOM     57  C   UNL A   1      42.618  32.310  35.509  1.00  0.00     0.029 A 
ATOM     58  N   UNL A   1      41.669  31.331  33.747  1.00  0.00    -0.354 N 
ATOM     59  N   UNL A   1      41.520  29.216  31.567  1.00  0.00    -0.248 NA
ATOM     60  C   UNL A   1      42.516  27.433  30.425  1.00  0.00     0.031 C 
ATOM     61  C   UNL A   1      43.463  31.293  35.046  1.00  0.00     0.029 A 
ATOM     62  C   UNL A   1      42.861  30.668  33.962  1.00  0.00     0.049 A 
ATOM     63  H   UNL A   1      41.025  31.117  33.033  1.00  0.00     0.167 HD
ATOM     64  C   UNL A   1      42.739  28.935  32.157  1.00  0.00     0.074 A 
ATOM     65  C   UNL A   1      43.295  27.804  31.432  1.00  0.00     0.031 C 
ATOM     66  C   UNL A   1      43.357  29.554  33.192  1.00  0.00     0.031 A 
BRANCH  53  67
ATOM     67  C   UNL A   1      40.320  34.322  35.762  1.00  0.00    -0.014 A 
ATOM     68  C   UNL A   1      40.944  35.561  35.541  1.00  0.00     0.009 A 
ATOM     69  C   UNL A   1      39.628  34.120  36.966  1.00  0.00     0.009 A 
ATOM     70  C   UNL A   1      40.898  36.562  36.514  1.00  0.00     0.001 A 
ATOM     71  C   UNL A   1      39.564  35.132  37.929  1.00  0.00     0.001 A 
ATOM     72  C   UNL A   1      40.206  36.349  37.705  1.00  0.00     0.000 A 
ENDBRANCH  53  67
BRANCH  54  73
ATOM     73  C   UNL A   1      40.270  27.225  28.504  1.00  0.00    -0.014 A 
ATOM     74  C   UNL A   1      39.597  26.005  28.653  1.00  0.00     0.009 A 
ATOM     75  C   UNL A   1      40.883  27.516  27.274  1.00  0.00     0.009 A 
ATOM     76  C   UNL A   1      39.555  25.088  27.600  1.00  0.00     0.001 A 
ATOM     77  C   UNL A   1      40.814  26.610  26.213  1.00  0.00     0.001 A 
ATOM     78  C   UNL A   1      40.158  25.393  26.381  1.00  0.00     0.000 A 
ENDBRANCH  54  73
BRANCH  66  79
ATOM     79  C   UNL A   1      44.687  28.991  33.583  1.00  0.00    -0.014 A 
ATOM     80  C   UNL A   1      45.868  29.483  33.008  1.00  0.00     0.009 A 
ATOM     81  C   UNL A   1      44.755  27.978  34.550  1.00  0.00     0.009 A 
ATOM     82  C   UNL A   1      47.099  28.945  33.377  1.00  0.00     0.001 A 
ATOM     83  C   UNL A   1      45.989  27.463  34.936  1.00  0.00     0.001 A 
ATOM     84  C   UNL A   1      47.158  27.940  34.343  1.00  0.00     0.000 A 
ENDBRANCH  66  79
ENDBRANCH  40  41
ENDBRANCH  33  35
ENDBRANCH  32  33
ENDBRANCH  31  32
ENDBRANCH   1  31
TORSDOF 14
ENDMDL
MODEL 3
REMARK VINA RESULT:     -14.5      3.664      7.165
REMARK SMILES CC1=C(C)C[C@@H](C(=O)OCCOC(=O)c2ccc(-c3c4nc(c(-c5ccccc5)c5ccc([nH]5)c(-c5ccccc5)c5nc(c(-c6ccccc6)c6ccc3[nH]6)C=C5)C=C4)cc2)[C@@H](C(=O)N2CCN(c3cccc(C(F)(F)F)c3)CC2)C1
REMARK SMILES IDX 10 1 9 2 7 3 8 4 6 5 1 6 2 7 3 8 82 9 4 10 5 11 63 12 64 13
REMARK SMILES IDX 65 14 66 15 67 16 81 17 68 18 80 19 69 20 70 21 71 22 79 23
REMARK SMILES IDX 72 24 74 25 73 26 75 27 76 28 77 29 78 30 11 31 12 32 13 33
REMARK SMILES IDX 14 34 15 35 16 36 62 37 17 38 61 39 18 40 19 41 20 42 55 43
REMARK SMILES IDX 21 44 60 45 54 46 56 47 22 48 59 49 53 50 52 51 23 53 45 54
REMARK SMILES IDX 30 55 44 56 31 57 34 58 43 59 57 60 32 61 33 62 42 64 58 65
REMARK SMILES IDX 35 66 24 67 25 68 29 69 26 70 28 71 27 72 46 73 47 74 51 75
REMARK SMILES IDX 48 76 50 77 49 78 36 79 37 80 41 81 38 82 40 83 39 84
REMARK H PARENT 56 52 34 63
REMARK Flexibility Score: inf
ROOT
ATOM      1  C   UNL A   1      33.333  29.469  25.750  1.00  0.00     0.274 C 
ENDROOT
BRANCH   1   2
ATOM      2  O   UNL A   1      32.508  28.418  25.178  1.00  0.00    -0.462 OA
BRANCH   2   3
ATOM      3  C   UNL A   1      31.338  28.768  24.555  1.00  0.00     0.310 C 
ATOM      4  O   UNL A   1      30.807  29.866  24.698  1.00  0.00    -0.252 OA
BRANCH   3   5
ATOM      5  C   UNL A   1      30.983  27.814  23.388  1.00  0.00     0.116 C 
ATOM      6  C   UNL A   1      26.887  28.885  23.412  1.00  0.00     0.039 C 
ATOM      7  C   UNL A   1      28.274  28.388  23.129  1.00  0.00    -0.074 C 
ATOM      8  C   UNL A   1      29.142  29.040  22.325  1.00  0.00    -0.073 C 
ATOM      9  C   UNL A   1      28.644  27.095  23.876  1.00  0.00     0.045 C 
ATOM     10  C   UNL A   1      28.971  30.356  21.622  1.00  0.00     0.039 C 
ATOM     11  C   UNL A   1      30.503  28.487  22.125  1.00  0.00     0.046 C 
ATOM     12  C   UNL A   1      30.115  26.627  23.748  1.00  0.00     0.097 C 
BRANCH  12  13
ATOM     13  C   UNL A   1      30.588  25.827  24.971  1.00  0.00     0.227 C 
ATOM     14  O   UNL A   1      30.242  26.166  26.107  1.00  0.00    -0.275 OA
ATOM     15  N   UNL A   1      31.383  24.695  24.791  1.00  0.00    -0.339 N 
ATOM     16  C   UNL A   1      31.687  23.754  26.407  1.00  0.00     0.141 C 
ATOM     17  C   UNL A   1      32.014  23.963  23.145  1.00  0.00     0.141 C 
ATOM     18  C   UNL A   1      32.655  22.039  26.313  1.00  0.00     0.138 C 
ATOM     19  C   UNL A   1      33.046  22.313  23.141  1.00  0.00     0.138 C 
ATOM     20  N   UNL A   1      33.079  21.304  24.668  1.00  0.00    -0.368 N 
BRANCH  20  21
ATOM     21  C   UNL A   1      34.106  20.373  24.527  1.00  0.00     0.037 A 
ATOM     22  C   UNL A   1      35.421  20.719  24.871  1.00  0.00     0.026 A 
ATOM     23  C   UNL A   1      33.807  19.029  24.323  1.00  0.00     0.039 A 
ATOM     24  C   UNL A   1      36.412  19.744  25.007  1.00  0.00     0.003 A 
ATOM     25  C   UNL A   1      34.771  18.030  24.530  1.00  0.00     0.058 A 
ATOM     26  C   UNL A   1      36.085  18.399  24.850  1.00  0.00     0.013 A 
BRANCH  25  27
ATOM     27  C   UNL A   1      34.373  16.580  24.455  1.00  0.00     0.416 C 
ATOM     28  F   UNL A   1      35.364  15.742  24.861  1.00  0.00    -0.166 F 
ATOM     29  F   UNL A   1      33.288  16.288  25.226  1.00  0.00    -0.166 F 
ATOM     30  F   UNL A   1      34.040  16.185  23.191  1.00  0.00    -0.166 F 
ENDBRANCH  25  27
ENDBRANCH  20  21
ENDBRANCH  12  13
ENDBRANCH   3   5
ENDBRANCH   2   3
ENDBRANCH   1   2
BRANCH   1  31
ATOM     31  C   UNL A   1      32.893  30.142  27.151  1.00  0.00     0.275 C 
BRANCH  31  32
ATOM     32  O   UNL A   1      34.025  30.871  28.367  1.00  0.00    -0.458 OA
BRANCH  32  33
ATOM     33  C   UNL A   1      35.370  31.067  29.315  1.00  0.00     0.338 C 
ATOM     34  O   UNL A   1      35.502  31.814  30.297  1.00  0.00    -0.246 OA
BRANCH  33  35
ATOM     35  C   UNL A   1      36.576  30.228  29.245  1.00  0.00     0.060 A 
ATOM     36  C   UNL A   1      37.218  29.914  30.460  1.00  0.00     0.016 A 
ATOM     37  C   UNL A   1      37.303  30.274  28.055  1.00  0.00     0.016 A 
ATOM     38  C   UNL A   1      38.548  29.573  30.481  1.00  0.00     0.010 A 
ATOM     39  C   UNL A   1      38.640  29.921  28.070  1.00  0.00     0.010 A 
ATOM     40  C   UNL A   1      39.244  29.555  29.279  1.00  0.00    -0.014 A 
BRANCH  40  41
ATOM     41  C   UNL A   1      40.604  29.034  29.271  1.00  0.00     0.031 A 
ATOM     42  C   UNL A   1      41.748  29.954  29.496  1.00  0.00     0.074 A 
ATOM     43  C   UNL A   1      40.720  27.730  28.970  1.00  0.00     0.049 A 
ATOM     44  N   UNL A   1      43.012  29.735  29.282  1.00  0.00    -0.248 NA
ATOM     45  C   UNL A   1      41.433  31.305  29.993  1.00  0.00     0.031 C 
ATOM     46  C   UNL A   1      39.592  26.807  28.765  1.00  0.00     0.029 A 
ATOM     47  N   UNL A   1      41.821  26.961  28.760  1.00  0.00    -0.354 N 
ATOM     48  C   UNL A   1      43.648  30.934  29.568  1.00  0.00     0.074 A 
ATOM     49  C   UNL A   1      42.629  31.878  29.975  1.00  0.00     0.031 C 
ATOM     50  C   UNL A   1      40.067  25.594  28.459  1.00  0.00     0.029 A 
ATOM     51  C   UNL A   1      41.514  25.683  28.371  1.00  0.00     0.049 A 
ATOM     52  H   UNL A   1      42.743  27.288  28.874  1.00  0.00     0.167 HD
ATOM     53  C   UNL A   1      44.970  31.196  29.475  1.00  0.00     0.031 A 
ATOM     54  C   UNL A   1      42.325  24.710  27.933  1.00  0.00     0.031 A 
ATOM     55  C   UNL A   1      45.925  30.204  29.053  1.00  0.00     0.049 A 
ATOM     56  C   UNL A   1      43.780  25.039  27.832  1.00  0.00     0.074 A 
ATOM     57  C   UNL A   1      47.296  30.316  28.927  1.00  0.00     0.029 A 
ATOM     58  N   UNL A   1      45.590  28.902  28.695  1.00  0.00    -0.354 N 
ATOM     59  N   UNL A   1      44.384  26.175  28.100  1.00  0.00    -0.248 NA
ATOM     60  C   UNL A   1      44.663  23.971  27.364  1.00  0.00     0.031 C 
ATOM     61  C   UNL A   1      47.785  29.090  28.460  1.00  0.00     0.029 A 
ATOM     62  C   UNL A   1      46.725  28.201  28.338  1.00  0.00     0.049 A 
ATOM     63  H   UNL A   1      44.676  28.534  28.696  1.00  0.00     0.167 HD
ATOM     64  C   UNL A   1      45.724  25.959  27.838  1.00  0.00     0.074 A 
ATOM     65  C   UNL A   1      45.843  24.572  27.418  1.00  0.00     0.031 C 
ATOM     66  C   UNL A   1      46.767  26.822  27.920  1.00  0.00     0.031 A 
BRANCH  53  67
ATOM     67  C   UNL A   1      45.431  32.589  29.794  1.00  0.00    -0.014 A 
ATOM     68  C   UNL A   1      45.647  33.537  28.781  1.00  0.00     0.009 A 
ATOM     69  C   UNL A   1      45.642  32.967  31.129  1.00  0.00     0.009 A 
ATOM     70  C   UNL A   1      46.092  34.824  29.096  1.00  0.00     0.001 A 
ATOM     71  C   UNL A   1      46.065  34.262  31.444  1.00  0.00     0.001 A 
ATOM     72  C   UNL A   1      46.296  35.186  30.427  1.00  0.00     0.000 A 
ENDBRANCH  53  67
BRANCH  54  73
ATOM     73  C   UNL A   1      41.763  23.392  27.553  1.00  0.00    -0.014 A 
ATOM     74  C   UNL A   1      41.451  23.121  26.214  1.00  0.00     0.009 A 
ATOM     75  C   UNL A   1      41.600  22.374  28.508  1.00  0.00     0.009 A 
ATOM     76  C   UNL A   1      40.967  21.865  25.842  1.00  0.00     0.001 A 
ATOM     77  C   UNL A   1      41.144  21.110  28.128  1.00  0.00     0.001 A 
ATOM     78  C   UNL A   1      40.818  20.860  26.797  1.00  0.00     0.000 A 
ENDBRANCH  54  73
BRANCH  66  79
ATOM     79  C   UNL A   1      48.105  26.258  27.556  1.00  0.00    -0.014 A 
ATOM     80  C   UNL A   1      48.830  25.488  28.477  1.00  0.00     0.009 A 
ATOM     81  C   UNL A   1      48.627  26.483  26.275  1.00  0.00     0.009 A 
ATOM     82  C   UNL A   1      50.077  24.975  28.127  1.00  0.00     0.001 A 
ATOM     83  C   UNL A   1      49.861  25.945  25.920  1.00  0.00     0.001 A 
ATOM     84  C   UNL A   1      50.588  25.199  26.848  1.00  0.00     0.000 A 
ENDBRANCH  66  79
ENDBRANCH  40  41
ENDBRANCH  33  35
ENDBRANCH  32  33
ENDBRANCH  31  32
ENDBRANCH   1  31
TORSDOF 14
ENDMDL
