MODEL 1
REMARK VINA RESULT:     -10.1      0.000      0.000
REMARK SMILES O=C(Cc1ccc(=O)n(C(F)F)c1)OCCOC(=O)c1ccc(-c2c3nc(c(-c4ccccc4)c4ccc([nH]4)c(-c4ccccc4)c4nc(c(-c5ccccc5)c5ccc2[nH]5)C=C4)C=C3)cc1
REMARK SMILES IDX 15 1 14 2 2 3 1 4 3 5 4 6 5 7 13 8 6 9 9 10 7 11 8 12 10 13
REMARK SMILES IDX 11 14 12 15 16 16 17 17 18 18 19 19 20 20 21 21 67 22 22 23
REMARK SMILES IDX 66 24 23 25 24 26 25 27 60 28 26 29 65 30 59 31 61 32 27 33
REMARK SMILES IDX 64 34 58 35 57 36 28 38 50 39 35 40 49 41 36 42 39 43 48 44
REMARK SMILES IDX 62 45 37 46 38 47 47 49 63 50 40 51 29 52 30 53 34 54 31 55
REMARK SMILES IDX 33 56 32 57 51 58 52 59 56 60 53 61 55 62 54 63 41 64 42 65
REMARK SMILES IDX 46 66 43 67 45 68 44 69
REMARK H PARENT 61 37 39 48
REMARK Flexibility Score: inf
ROOT
ATOM      1  C   UNL A   1      44.457  20.967  24.997  1.00  0.00     0.274 C 
ENDROOT
BRANCH   1   2
ATOM      2  O   UNL A   1      43.482  21.166  26.047  1.00  0.00    -0.462 OA
BRANCH   2   3
ATOM      3  C   UNL A   1      42.282  20.551  26.162  1.00  0.00     0.310 C 
ATOM      4  O   UNL A   1      42.023  19.566  25.473  1.00  0.00    -0.252 OA
BRANCH   3   5
ATOM      5  C   UNL A   1      41.277  21.075  27.171  1.00  0.00     0.159 C 
BRANCH   5   6
ATOM      6  C   UNL A   1      40.096  21.834  26.635  1.00  0.00    -0.020 A 
ATOM      7  C   UNL A   1      39.958  23.198  27.114  1.00  0.00     0.011 A 
ATOM      8  C   UNL A   1      39.146  21.335  25.827  1.00  0.00     0.099 A 
ATOM      9  C   UNL A   1      38.883  23.931  26.803  1.00  0.00     0.072 A 
ATOM     10  N   UNL A   1      38.017  22.066  25.504  1.00  0.00    -0.258 N 
ATOM     11  C   UNL A   1      37.797  23.355  25.966  1.00  0.00     0.254 A 
ATOM     12  O   UNL A   1      36.799  24.034  25.752  1.00  0.00    -0.269 OA
BRANCH  10  13
ATOM     13  C   UNL A   1      36.954  21.456  24.747  1.00  0.00     0.451 C 
ATOM     14  F   UNL A   1      36.925  21.957  23.486  1.00  0.00    -0.185 F 
ATOM     15  F   UNL A   1      37.105  20.114  24.665  1.00  0.00    -0.185 F 
ENDBRANCH  10  13
ENDBRANCH   5   6
ENDBRANCH   3   5
ENDBRANCH   2   3
ENDBRANCH   1   2
BRANCH   1  16
ATOM     16  C   UNL A   1      44.604  22.215  24.130  1.00  0.00     0.275 C 
BRANCH  16  17
ATOM     17  O   UNL A   1      43.961  23.321  24.786  1.00  0.00    -0.458 OA
BRANCH  17  18
ATOM     18  C   UNL A   1      44.762  24.354  25.140  1.00  0.00     0.338 C 
ATOM     19  O   UNL A   1      45.795  24.698  24.595  1.00  0.00    -0.246 OA
BRANCH  18  20
ATOM     20  C   UNL A   1      44.055  25.161  26.162  1.00  0.00     0.060 A 
ATOM     21  C   UNL A   1      43.198  24.575  27.100  1.00  0.00     0.016 A 
ATOM     22  C   UNL A   1      44.192  26.555  26.112  1.00  0.00     0.016 A 
ATOM     23  C   UNL A   1      42.492  25.381  27.993  1.00  0.00     0.010 A 
ATOM     24  C   UNL A   1      43.491  27.361  27.009  1.00  0.00     0.010 A 
ATOM     25  C   UNL A   1      42.647  26.778  27.964  1.00  0.00    -0.014 A 
BRANCH  25  26
ATOM     26  C   UNL A   1      42.069  27.597  29.054  1.00  0.00     0.031 A 
ATOM     27  C   UNL A   1      40.773  28.330  28.904  1.00  0.00     0.074 A 
ATOM     28  C   UNL A   1      42.752  27.658  30.212  1.00  0.00     0.049 A 
ATOM     29  N   UNL A   1      40.095  28.976  29.817  1.00  0.00    -0.248 NA
ATOM     30  C   UNL A   1      40.158  28.342  27.570  1.00  0.00     0.031 C 
ATOM     31  C   UNL A   1      44.035  26.997  30.462  1.00  0.00     0.029 A 
ATOM     32  N   UNL A   1      42.463  28.290  31.393  1.00  0.00    -0.354 N 
ATOM     33  C   UNL A   1      38.959  29.454  29.180  1.00  0.00     0.074 A 
ATOM     34  C   UNL A   1      39.060  29.056  27.790  1.00  0.00     0.031 C 
ATOM     35  C   UNL A   1      44.408  27.234  31.727  1.00  0.00     0.029 A 
ATOM     36  C   UNL A   1      43.406  28.081  32.367  1.00  0.00     0.049 A 
ATOM     37  H   UNL A   1      41.658  28.839  31.529  1.00  0.00     0.167 HD
ATOM     38  C   UNL A   1      37.927  30.148  29.715  1.00  0.00     0.031 A 
ATOM     39  C   UNL A   1      43.462  28.512  33.641  1.00  0.00     0.031 A 
ATOM     40  C   UNL A   1      37.856  30.572  31.091  1.00  0.00     0.049 A 
ATOM     41  C   UNL A   1      42.334  29.332  34.189  1.00  0.00     0.074 A 
ATOM     42  C   UNL A   1      36.823  31.237  31.730  1.00  0.00     0.029 A 
ATOM     43  N   UNL A   1      38.860  30.398  32.031  1.00  0.00    -0.354 N 
ATOM     44  N   UNL A   1      41.221  29.697  33.600  1.00  0.00    -0.248 NA
ATOM     45  C   UNL A   1      42.457  29.787  35.581  1.00  0.00     0.031 C 
ATOM     46  C   UNL A   1      37.229  31.528  33.035  1.00  0.00     0.029 A 
ATOM     47  C   UNL A   1      38.488  30.982  33.232  1.00  0.00     0.049 A 
ATOM     48  H   UNL A   1      39.710  29.930  31.870  1.00  0.00     0.167 HD
ATOM     49  C   UNL A   1      40.505  30.409  34.551  1.00  0.00     0.074 A 
ATOM     50  C   UNL A   1      41.301  30.411  35.761  1.00  0.00     0.031 C 
ATOM     51  C   UNL A   1      39.292  31.001  34.428  1.00  0.00     0.031 A 
BRANCH  38  52
ATOM     52  C   UNL A   1      36.771  30.502  28.822  1.00  0.00    -0.014 A 
ATOM     53  C   UNL A   1      36.523  31.845  28.493  1.00  0.00     0.009 A 
ATOM     54  C   UNL A   1      35.851  29.523  28.413  1.00  0.00     0.009 A 
ATOM     55  C   UNL A   1      35.372  32.202  27.787  1.00  0.00     0.001 A 
ATOM     56  C   UNL A   1      34.713  29.880  27.687  1.00  0.00     0.001 A 
ATOM     57  C   UNL A   1      34.469  31.219  27.383  1.00  0.00     0.000 A 
ENDBRANCH  38  52
BRANCH  39  58
ATOM     58  C   UNL A   1      44.624  28.126  34.480  1.00  0.00    -0.014 A 
ATOM     59  C   UNL A   1      45.810  28.876  34.443  1.00  0.00     0.009 A 
ATOM     60  C   UNL A   1      44.579  26.960  35.258  1.00  0.00     0.009 A 
ATOM     61  C   UNL A   1      46.938  28.452  35.148  1.00  0.00     0.001 A 
ATOM     62  C   UNL A   1      45.700  26.553  35.984  1.00  0.00     0.001 A 
ATOM     63  C   UNL A   1      46.881  27.293  35.920  1.00  0.00     0.000 A 
ENDBRANCH  39  58
BRANCH  51  64
ATOM     64  C   UNL A   1      38.736  31.713  35.629  1.00  0.00    -0.014 A 
ATOM     65  C   UNL A   1      38.967  33.088  35.797  1.00  0.00     0.009 A 
ATOM     66  C   UNL A   1      38.063  31.009  36.640  1.00  0.00     0.009 A 
ATOM     67  C   UNL A   1      38.548  33.741  36.957  1.00  0.00     0.001 A 
ATOM     68  C   UNL A   1      37.620  31.671  37.787  1.00  0.00     0.001 A 
ATOM     69  C   UNL A   1      37.872  33.034  37.949  1.00  0.00     0.000 A 
ENDBRANCH  51  64
ENDBRANCH  25  26
ENDBRANCH  18  20
ENDBRANCH  17  18
ENDBRANCH  16  17
ENDBRANCH   1  16
TORSDOF 13
ENDMDL
MODEL 2
REMARK VINA RESULT:     -10.1      4.393      8.510
REMARK SMILES O=C(Cc1ccc(=O)n(C(F)F)c1)OCCOC(=O)c1ccc(-c2c3nc(c(-c4ccccc4)c4ccc([nH]4)c(-c4ccccc4)c4nc(c(-c5ccccc5)c5ccc2[nH]5)C=C4)C=C3)cc1
REMARK SMILES IDX 15 1 14 2 2 3 1 4 3 5 4 6 5 7 13 8 6 9 9 10 7 11 8 12 10 13
REMARK SMILES IDX 11 14 12 15 16 16 17 17 18 18 19 19 20 20 21 21 67 22 22 23
REMARK SMILES IDX 66 24 23 25 24 26 25 27 60 28 26 29 65 30 59 31 61 32 27 33
REMARK SMILES IDX 64 34 58 35 57 36 28 38 50 39 35 40 49 41 36 42 39 43 48 44
REMARK SMILES IDX 62 45 37 46 38 47 47 49 63 50 40 51 29 52 30 53 34 54 31 55
REMARK SMILES IDX 33 56 32 57 51 58 52 59 56 60 53 61 55 62 54 63 41 64 42 65
REMARK SMILES IDX 46 66 43 67 45 68 44 69
REMARK H PARENT 61 37 39 48
REMARK Flexibility Score: inf
ROOT
ATOM      1  C   UNL A   1      44.672  19.186  25.073  1.00  0.00     0.274 C 
ENDROOT
BRANCH   1   2
ATOM      2  O   UNL A   1      44.587  20.518  24.512  1.00  0.00    -0.462 OA
BRANCH   2   3
ATOM      3  C   UNL A   1      45.225  21.624  24.958  1.00  0.00     0.310 C 
ATOM      4  O   UNL A   1      45.797  21.612  26.047  1.00  0.00    -0.252 OA
BRANCH   3   5
ATOM      5  C   UNL A   1      45.252  22.864  24.085  1.00  0.00     0.159 C 
BRANCH   5   6
ATOM      6  C   UNL A   1      45.751  24.136  24.710  1.00  0.00    -0.020 A 
ATOM      7  C   UNL A   1      44.753  25.172  24.905  1.00  0.00     0.011 A 
ATOM      8  C   UNL A   1      47.029  24.404  25.026  1.00  0.00     0.099 A 
ATOM      9  C   UNL A   1      45.099  26.389  25.341  1.00  0.00     0.072 A 
ATOM     10  N   UNL A   1      47.416  25.659  25.462  1.00  0.00    -0.258 N 
ATOM     11  C   UNL A   1      46.524  26.708  25.624  1.00  0.00     0.254 A 
ATOM     12  O   UNL A   1      46.812  27.851  25.962  1.00  0.00    -0.269 OA
BRANCH  10  13
ATOM     13  C   UNL A   1      48.811  25.955  25.664  1.00  0.00     0.451 C 
ATOM     14  F   UNL A   1      49.392  24.998  26.430  1.00  0.00    -0.185 F 
ATOM     15  F   UNL A   1      49.482  26.021  24.491  1.00  0.00    -0.185 F 
ENDBRANCH  10  13
ENDBRANCH   5   6
ENDBRANCH   3   5
ENDBRANCH   2   3
ENDBRANCH   1   2
BRANCH   1  16
ATOM     16  C   UNL A   1      43.355  18.773  25.726  1.00  0.00     0.275 C 
BRANCH  16  17
ATOM     17  O   UNL A   1      42.286  19.552  25.163  1.00  0.00    -0.458 OA
BRANCH  17  18
ATOM     18  C   UNL A   1      41.340  19.983  26.031  1.00  0.00     0.338 C 
ATOM     19  O   UNL A   1      40.395  19.345  26.458  1.00  0.00    -0.246 OA
BRANCH  18  20
ATOM     20  C   UNL A   1      41.770  21.293  26.574  1.00  0.00     0.060 A 
ATOM     21  C   UNL A   1      41.896  22.423  25.758  1.00  0.00     0.016 A 
ATOM     22  C   UNL A   1      42.140  21.357  27.924  1.00  0.00     0.016 A 
ATOM     23  C   UNL A   1      42.380  23.615  26.296  1.00  0.00     0.010 A 
ATOM     24  C   UNL A   1      42.618  22.552  28.463  1.00  0.00     0.010 A 
ATOM     25  C   UNL A   1      42.728  23.692  27.656  1.00  0.00    -0.014 A 
BRANCH  25  26
ATOM     26  C   UNL A   1      43.024  25.012  28.259  1.00  0.00     0.031 A 
ATOM     27  C   UNL A   1      44.406  25.413  28.667  1.00  0.00     0.074 A 
ATOM     28  C   UNL A   1      41.994  25.862  28.424  1.00  0.00     0.049 A 
ATOM     29  N   UNL A   1      44.822  26.581  29.087  1.00  0.00    -0.248 NA
ATOM     30  C   UNL A   1      45.454  24.385  28.597  1.00  0.00     0.031 C 
ATOM     31  C   UNL A   1      40.603  25.567  28.077  1.00  0.00     0.029 A 
ATOM     32  N   UNL A   1      41.956  27.143  28.910  1.00  0.00    -0.354 N 
ATOM     33  C   UNL A   1      46.185  26.441  29.310  1.00  0.00     0.074 A 
ATOM     34  C   UNL A   1      46.518  25.061  29.016  1.00  0.00     0.031 C 
ATOM     35  C   UNL A   1      39.852  26.647  28.334  1.00  0.00     0.029 A 
ATOM     36  C   UNL A   1      40.702  27.698  28.885  1.00  0.00     0.049 A 
ATOM     37  H   UNL A   1      42.751  27.618  29.243  1.00  0.00     0.167 HD
ATOM     38  C   UNL A   1      47.070  27.384  29.710  1.00  0.00     0.031 A 
ATOM     39  C   UNL A   1      40.276  28.920  29.254  1.00  0.00     0.031 A 
ATOM     40  C   UNL A   1      46.720  28.744  30.037  1.00  0.00     0.049 A 
ATOM     41  C   UNL A   1      41.270  29.925  29.752  1.00  0.00     0.074 A 
ATOM     42  C   UNL A   1      47.563  29.780  30.402  1.00  0.00     0.029 A 
ATOM     43  N   UNL A   1      45.430  29.251  30.062  1.00  0.00    -0.354 N 
ATOM     44  N   UNL A   1      42.570  29.807  29.869  1.00  0.00    -0.248 NA
ATOM     45  C   UNL A   1      40.744  31.237  30.155  1.00  0.00     0.031 C 
ATOM     46  C   UNL A   1      46.778  30.892  30.718  1.00  0.00     0.029 A 
ATOM     47  C   UNL A   1      45.451  30.572  30.480  1.00  0.00     0.049 A 
ATOM     48  H   UNL A   1      44.621  28.748  29.819  1.00  0.00     0.167 HD
ATOM     49  C   UNL A   1      43.020  31.031  30.341  1.00  0.00     0.074 A 
ATOM     50  C   UNL A   1      41.857  31.884  30.474  1.00  0.00     0.031 C 
ATOM     51  C   UNL A   1      44.288  31.411  30.632  1.00  0.00     0.031 A 
BRANCH  38  52
ATOM     52  C   UNL A   1      48.518  26.997  29.821  1.00  0.00    -0.014 A 
ATOM     53  C   UNL A   1      49.406  27.291  28.774  1.00  0.00     0.009 A 
ATOM     54  C   UNL A   1      48.976  26.225  30.902  1.00  0.00     0.009 A 
ATOM     55  C   UNL A   1      50.717  26.810  28.798  1.00  0.00     0.001 A 
ATOM     56  C   UNL A   1      50.294  25.765  30.934  1.00  0.00     0.001 A 
ATOM     57  C   UNL A   1      51.160  26.049  29.879  1.00  0.00     0.000 A 
ENDBRANCH  38  52
BRANCH  39  58
ATOM     58  C   UNL A   1      38.836  29.251  29.115  1.00  0.00    -0.014 A 
ATOM     59  C   UNL A   1      37.963  29.102  30.205  1.00  0.00     0.009 A 
ATOM     60  C   UNL A   1      38.314  29.638  27.873  1.00  0.00     0.009 A 
ATOM     61  C   UNL A   1      36.591  29.309  30.046  1.00  0.00     0.001 A 
ATOM     62  C   UNL A   1      36.946  29.871  27.724  1.00  0.00     0.001 A 
ATOM     63  C   UNL A   1      36.084  29.696  28.807  1.00  0.00     0.000 A 
ENDBRANCH  39  58
BRANCH  51  64
ATOM     64  C   UNL A   1      44.502  32.813  31.130  1.00  0.00    -0.014 A 
ATOM     65  C   UNL A   1      44.435  33.084  32.506  1.00  0.00     0.009 A 
ATOM     66  C   UNL A   1      44.680  33.879  30.235  1.00  0.00     0.009 A 
ATOM     67  C   UNL A   1      44.526  34.396  32.976  1.00  0.00     0.001 A 
ATOM     68  C   UNL A   1      44.800  35.187  30.710  1.00  0.00     0.001 A 
ATOM     69  C   UNL A   1      44.712  35.445  32.078  1.00  0.00     0.000 A 
ENDBRANCH  51  64
ENDBRANCH  25  26
ENDBRANCH  18  20
ENDBRANCH  17  18
ENDBRANCH  16  17
ENDBRANCH   1  16
TORSDOF 13
ENDMDL
MODEL 3
REMARK VINA RESULT:      -9.8      1.404      6.464
REMARK SMILES O=C(Cc1ccc(=O)n(C(F)F)c1)OCCOC(=O)c1ccc(-c2c3nc(c(-c4ccccc4)c4ccc([nH]4)c(-c4ccccc4)c4nc(c(-c5ccccc5)c5ccc2[nH]5)C=C4)C=C3)cc1
REMARK SMILES IDX 15 1 14 2 2 3 1 4 3 5 4 6 5 7 13 8 6 9 9 10 7 11 8 12 10 13
REMARK SMILES IDX 11 14 12 15 16 16 17 17 18 18 19 19 20 20 21 21 67 22 22 23
REMARK SMILES IDX 66 24 23 25 24 26 25 27 60 28 26 29 65 30 59 31 61 32 27 33
REMARK SMILES IDX 64 34 58 35 57 36 28 38 50 39 35 40 49 41 36 42 39 43 48 44
REMARK SMILES IDX 62 45 37 46 38 47 47 49 63 50 40 51 29 52 30 53 34 54 31 55
REMARK SMILES IDX 33 56 32 57 51 58 52 59 56 60 53 61 55 62 54 63 41 64 42 65
REMARK SMILES IDX 46 66 43 67 45 68 44 69
REMARK H PARENT 61 37 39 48
REMARK Flexibility Score: inf
ROOT
ATOM      1  C   UNL A   1      44.405  21.183  24.598  1.00  0.00     0.274 C 
ENDROOT
BRANCH   1   2
ATOM      2  O   UNL A   1      43.181  21.338  25.354  1.00  0.00    -0.462 OA
BRANCH   2   3
ATOM      3  C   UNL A   1      42.388  20.345  25.819  1.00  0.00     0.310 C 
ATOM      4  O   UNL A   1      42.431  19.227  25.307  1.00  0.00    -0.252 OA
BRANCH   3   5
ATOM      5  C   UNL A   1      41.470  20.622  26.995  1.00  0.00     0.159 C 
BRANCH   5   6
ATOM      6  C   UNL A   1      40.302  21.536  26.756  1.00  0.00    -0.020 A 
ATOM      7  C   UNL A   1      39.246  20.998  25.918  1.00  0.00     0.011 A 
ATOM      8  C   UNL A   1      40.200  22.805  27.187  1.00  0.00     0.099 A 
ATOM      9  C   UNL A   1      38.214  21.760  25.536  1.00  0.00     0.072 A 
ATOM     10  N   UNL A   1      39.153  23.619  26.793  1.00  0.00    -0.258 N 
ATOM     11  C   UNL A   1      38.136  23.185  25.956  1.00  0.00     0.254 A 
ATOM     12  O   UNL A   1      37.209  23.869  25.537  1.00  0.00    -0.269 OA
BRANCH  10  13
ATOM     13  C   UNL A   1      39.142  25.011  27.162  1.00  0.00     0.451 C 
ATOM     14  F   UNL A   1      39.402  25.151  28.486  1.00  0.00    -0.185 F 
ATOM     15  F   UNL A   1      40.067  25.717  26.472  1.00  0.00    -0.185 F 
ENDBRANCH  10  13
ENDBRANCH   5   6
ENDBRANCH   3   5
ENDBRANCH   2   3
ENDBRANCH   1   2
BRANCH   1  16
ATOM     16  C   UNL A   1      45.477  22.163  25.069  1.00  0.00     0.275 C 
BRANCH  16  17
ATOM     17  O   UNL A   1      44.900  23.066  26.027  1.00  0.00    -0.458 OA
BRANCH  17  18
ATOM     18  C   UNL A   1      44.998  24.386  25.740  1.00  0.00     0.338 C 
ATOM     19  O   UNL A   1      45.394  24.880  24.700  1.00  0.00    -0.246 OA
BRANCH  18  20
ATOM     20  C   UNL A   1      44.314  25.147  26.813  1.00  0.00     0.060 A 
ATOM     21  C   UNL A   1      43.355  24.552  27.640  1.00  0.00     0.016 A 
ATOM     22  C   UNL A   1      44.586  26.517  26.925  1.00  0.00     0.016 A 
ATOM     23  C   UNL A   1      42.680  25.325  28.585  1.00  0.00     0.010 A 
ATOM     24  C   UNL A   1      43.916  27.289  27.874  1.00  0.00     0.010 A 
ATOM     25  C   UNL A   1      42.968  26.695  28.719  1.00  0.00    -0.014 A 
BRANCH  25  26
ATOM     26  C   UNL A   1      42.411  27.447  29.866  1.00  0.00     0.031 A 
ATOM     27  C   UNL A   1      43.045  27.425  31.221  1.00  0.00     0.074 A 
ATOM     28  C   UNL A   1      41.300  28.174  29.649  1.00  0.00     0.049 A 
ATOM     29  N   UNL A   1      42.734  28.136  32.275  1.00  0.00    -0.248 NA
ATOM     30  C   UNL A   1      44.165  26.497  31.426  1.00  0.00     0.031 C 
ATOM     31  C   UNL A   1      40.588  28.253  28.372  1.00  0.00     0.029 A 
ATOM     32  N   UNL A   1      40.583  28.990  30.485  1.00  0.00    -0.354 N 
ATOM     33  C   UNL A   1      43.633  27.763  33.264  1.00  0.00     0.074 A 
ATOM     34  C   UNL A   1      44.477  26.731  32.695  1.00  0.00     0.031 C 
ATOM     35  C   UNL A   1      39.554  29.095  28.501  1.00  0.00     0.029 A 
ATOM     36  C   UNL A   1      39.515  29.594  29.871  1.00  0.00     0.049 A 
ATOM     37  H   UNL A   1      40.812  29.129  31.432  1.00  0.00     0.167 HD
ATOM     38  C   UNL A   1      43.744  28.249  34.523  1.00  0.00     0.031 A 
ATOM     39  C   UNL A   1      38.604  30.463  30.350  1.00  0.00     0.031 A 
ATOM     40  C   UNL A   1      42.873  29.248  35.091  1.00  0.00     0.049 A 
ATOM     41  C   UNL A   1      38.716  30.937  31.767  1.00  0.00     0.074 A 
ATOM     42  C   UNL A   1      42.946  29.835  36.343  1.00  0.00     0.029 A 
ATOM     43  N   UNL A   1      41.763  29.788  34.461  1.00  0.00    -0.354 N 
ATOM     44  N   UNL A   1      39.628  30.645  32.662  1.00  0.00    -0.248 NA
ATOM     45  C   UNL A   1      37.685  31.873  32.238  1.00  0.00     0.031 C 
ATOM     46  C   UNL A   1      41.841  30.676  36.497  1.00  0.00     0.029 A 
ATOM     47  C   UNL A   1      41.118  30.669  35.315  1.00  0.00     0.049 A 
ATOM     48  H   UNL A   1      41.476  29.579  33.544  1.00  0.00     0.167 HD
ATOM     49  C   UNL A   1      39.292  31.372  33.795  1.00  0.00     0.074 A 
ATOM     50  C   UNL A   1      38.102  32.131  33.470  1.00  0.00     0.031 C 
ATOM     51  C   UNL A   1      39.922  31.407  34.995  1.00  0.00     0.031 A 
BRANCH  38  52
ATOM     52  C   UNL A   1      44.850  27.720  35.393  1.00  0.00    -0.014 A 
ATOM     53  C   UNL A   1      44.605  26.645  36.264  1.00  0.00     0.009 A 
ATOM     54  C   UNL A   1      46.095  28.366  35.448  1.00  0.00     0.009 A 
ATOM     55  C   UNL A   1      45.577  26.239  37.181  1.00  0.00     0.001 A 
ATOM     56  C   UNL A   1      47.073  27.942  36.349  1.00  0.00     0.001 A 
ATOM     57  C   UNL A   1      46.810  26.887  37.221  1.00  0.00     0.000 A 
ENDBRANCH  38  52
BRANCH  39  58
ATOM     58  C   UNL A   1      37.539  30.958  29.444  1.00  0.00    -0.014 A 
ATOM     59  C   UNL A   1      37.588  32.266  28.935  1.00  0.00     0.009 A 
ATOM     60  C   UNL A   1      36.429  30.154  29.148  1.00  0.00     0.009 A 
ATOM     61  C   UNL A   1      36.533  32.769  28.171  1.00  0.00     0.001 A 
ATOM     62  C   UNL A   1      35.389  30.649  28.360  1.00  0.00     0.001 A 
ATOM     63  C   UNL A   1      35.436  31.959  27.881  1.00  0.00     0.000 A 
ENDBRANCH  39  58
BRANCH  51  64
ATOM     64  C   UNL A   1      39.344  32.292  36.063  1.00  0.00    -0.014 A 
ATOM     65  C   UNL A   1      38.316  31.811  36.890  1.00  0.00     0.009 A 
ATOM     66  C   UNL A   1      39.751  33.629  36.193  1.00  0.00     0.009 A 
ATOM     67  C   UNL A   1      37.696  32.654  37.815  1.00  0.00     0.001 A 
ATOM     68  C   UNL A   1      39.149  34.461  37.140  1.00  0.00     0.001 A 
ATOM     69  C   UNL A   1      38.116  33.976  37.942  1.00  0.00     0.000 A 
ENDBRANCH  51  64
ENDBRANCH  25  26
ENDBRANCH  18  20
ENDBRANCH  17  18
ENDBRANCH  16  17
ENDBRANCH   1  16
TORSDOF 13
ENDMDL
