MODEL 1
REMARK VINA RESULT:     -10.0      0.000      0.000
REMARK SMILES COCC1CC[NH+]([C@@H]2CCC[C@@]([NH3+])(C(=O)OCCOC(=O)c3ccc(-c4c5nc(c(-c6ccccc6)c6ccc([nH]6)c(-c6ccccc6)c6nc(c(-c7ccccc7)c7ccc4[nH]7)C=C6)C=C5)cc3)C2)CC1
REMARK SMILES IDX 17 1 16 2 14 3 15 4 12 5 8 6 9 7 70 8 10 9 11 10 7 11 4 12
REMARK SMILES IDX 5 13 72 14 6 15 71 16 3 18 2 19 1 20 13 21 18 25 19 26 20 27
REMARK SMILES IDX 21 28 22 29 23 30 69 31 24 32 68 33 25 34 26 35 27 36 62 37
REMARK SMILES IDX 28 38 67 39 61 40 63 41 29 42 66 43 60 44 59 45 30 47 52 48
REMARK SMILES IDX 37 49 51 50 38 51 41 52 50 53 64 54 39 55 40 56 49 58 65 59
REMARK SMILES IDX 42 60 31 61 32 62 36 63 33 64 35 65 34 66 53 67 54 68 58 69
REMARK SMILES IDX 55 70 57 71 56 72 43 73 44 74 48 75 45 76 47 77 46 78
REMARK H PARENT 7 17 13 22 13 23 13 24 63 46 41 57
REMARK Flexibility Score: inf
ROOT
ATOM      1  C   UNL A   1      34.551  34.795  32.859  1.00  0.00     0.274 C 
ENDROOT
BRANCH   1   2
ATOM      2  O   UNL A   1      34.851  34.879  31.452  1.00  0.00    -0.457 OA
BRANCH   2   3
ATOM      3  C   UNL A   1      34.670  33.736  30.740  1.00  0.00     0.368 C 
ATOM      4  O   UNL A   1      34.295  32.669  31.220  1.00  0.00    -0.245 OA
BRANCH   3   5
ATOM      5  C   UNL A   1      35.071  33.877  29.243  1.00  0.00     0.198 C 
ATOM      6  C   UNL A   1      33.631  31.965  28.273  1.00  0.00     0.190 C 
ATOM      7  C   UNL A   1      32.900  32.978  27.378  1.00  0.00     0.065 C 
ATOM      8  C   UNL A   1      35.057  32.480  28.585  1.00  0.00     0.145 C 
ATOM      9  C   UNL A   1      32.845  34.349  28.055  1.00  0.00     0.013 C 
ATOM     10  C   UNL A   1      34.235  34.871  28.418  1.00  0.00     0.081 C 
BRANCH   6  11
ATOM     11  N   UNL A   1      33.627  30.565  27.798  1.00  0.00    -0.332 N 
ATOM     12  C   UNL A   1      33.539  28.050  26.252  1.00  0.00     0.026 C 
ATOM     13  C   UNL A   1      32.295  28.673  26.890  1.00  0.00     0.067 C 
ATOM     14  C   UNL A   1      34.797  28.596  26.928  1.00  0.00     0.067 C 
ATOM     15  C   UNL A   1      32.386  30.185  27.102  1.00  0.00     0.262 C 
ATOM     16  C   UNL A   1      34.801  30.121  27.047  1.00  0.00     0.262 C 
ATOM     17  H   UNL A   1      33.676  30.052  28.679  1.00  0.00     0.348 HD
BRANCH  12  18
ATOM     18  C   UNL A   1      33.573  28.274  24.733  1.00  0.00     0.163 C 
BRANCH  18  19
ATOM     19  O   UNL A   1      33.957  27.100  24.013  1.00  0.00    -0.384 OA
ATOM     20  C   UNL A   1      32.993  26.053  24.103  1.00  0.00     0.194 C 
ENDBRANCH  18  19
ENDBRANCH  12  18
ENDBRANCH   6  11
BRANCH   5  21
ATOM     21  N   UNL A   1      36.475  34.386  29.249  1.00  0.00    -0.343 N 
ATOM     22  H   UNL A   1      36.996  33.938  30.002  1.00  0.00     0.345 HD
ATOM     23  H   UNL A   1      36.470  35.396  29.392  1.00  0.00     0.345 HD
ATOM     24  H   UNL A   1      36.919  34.172  28.355  1.00  0.00     0.345 HD
ENDBRANCH   5  21
ENDBRANCH   3   5
ENDBRANCH   2   3
ENDBRANCH   1   2
BRANCH   1  25
ATOM     25  C   UNL A   1      35.832  34.872  33.683  1.00  0.00     0.275 C 
BRANCH  25  26
ATOM     26  O   UNL A   1      36.841  34.038  33.087  1.00  0.00    -0.458 OA
BRANCH  26  27
ATOM     27  C   UNL A   1      37.000  32.825  33.653  1.00  0.00     0.338 C 
ATOM     28  O   UNL A   1      36.526  32.446  34.721  1.00  0.00    -0.246 OA
BRANCH  27  29
ATOM     29  C   UNL A   1      37.853  31.960  32.814  1.00  0.00     0.060 A 
ATOM     30  C   UNL A   1      38.890  31.221  33.374  1.00  0.00     0.016 A 
ATOM     31  C   UNL A   1      37.702  31.998  31.425  1.00  0.00     0.016 A 
ATOM     32  C   UNL A   1      39.848  30.642  32.541  1.00  0.00     0.010 A 
ATOM     33  C   UNL A   1      38.610  31.323  30.595  1.00  0.00     0.010 A 
ATOM     34  C   UNL A   1      39.739  30.694  31.137  1.00  0.00    -0.014 A 
BRANCH  34  35
ATOM     35  C   UNL A   1      40.854  30.169  30.281  1.00  0.00     0.031 A 
ATOM     36  C   UNL A   1      40.772  28.801  29.624  1.00  0.00     0.074 A 
ATOM     37  C   UNL A   1      41.897  30.969  29.973  1.00  0.00     0.049 A 
ATOM     38  N   UNL A   1      41.585  28.259  28.745  1.00  0.00    -0.248 NA
ATOM     39  C   UNL A   1      39.622  27.943  29.961  1.00  0.00     0.031 C 
ATOM     40  C   UNL A   1      42.108  32.323  30.492  1.00  0.00     0.029 A 
ATOM     41  N   UNL A   1      42.956  30.778  29.116  1.00  0.00    -0.354 N 
ATOM     42  C   UNL A   1      41.027  27.029  28.409  1.00  0.00     0.074 A 
ATOM     43  C   UNL A   1      39.836  26.873  29.209  1.00  0.00     0.031 C 
ATOM     44  C   UNL A   1      43.184  32.860  29.902  1.00  0.00     0.029 A 
ATOM     45  C   UNL A   1      43.793  31.866  29.024  1.00  0.00     0.049 A 
ATOM     46  H   UNL A   1      43.101  29.942  28.617  1.00  0.00     0.167 HD
ATOM     47  C   UNL A   1      41.440  26.120  27.491  1.00  0.00     0.031 A 
ATOM     48  C   UNL A   1      44.940  32.047  28.342  1.00  0.00     0.031 A 
ATOM     49  C   UNL A   1      42.621  26.249  26.680  1.00  0.00     0.049 A 
ATOM     50  C   UNL A   1      45.481  30.934  27.495  1.00  0.00     0.074 A 
ATOM     51  C   UNL A   1      43.084  25.397  25.689  1.00  0.00     0.029 A 
ATOM     52  N   UNL A   1      43.536  27.281  26.778  1.00  0.00    -0.354 N 
ATOM     53  N   UNL A   1      44.918  29.798  27.168  1.00  0.00    -0.248 NA
ATOM     54  C   UNL A   1      46.834  31.119  26.946  1.00  0.00     0.031 C 
ATOM     55  C   UNL A   1      44.313  25.885  25.230  1.00  0.00     0.029 A 
ATOM     56  C   UNL A   1      44.592  27.058  25.909  1.00  0.00     0.049 A 
ATOM     57  H   UNL A   1      43.450  28.058  27.377  1.00  0.00     0.167 HD
ATOM     58  C   UNL A   1      45.845  29.133  26.377  1.00  0.00     0.074 A 
ATOM     59  C   UNL A   1      46.995  30.002  26.250  1.00  0.00     0.031 C 
ATOM     60  C   UNL A   1      45.749  27.906  25.812  1.00  0.00     0.031 A 
BRANCH  47  61
ATOM     61  C   UNL A   1      40.597  24.892  27.288  1.00  0.00    -0.014 A 
ATOM     62  C   UNL A   1      39.417  24.951  26.531  1.00  0.00     0.009 A 
ATOM     63  C   UNL A   1      41.033  23.648  27.768  1.00  0.00     0.009 A 
ATOM     64  C   UNL A   1      38.698  23.790  26.243  1.00  0.00     0.001 A 
ATOM     65  C   UNL A   1      40.311  22.486  27.478  1.00  0.00     0.001 A 
ATOM     66  C   UNL A   1      39.149  22.558  26.711  1.00  0.00     0.000 A 
ENDBRANCH  47  61
BRANCH  48  67
ATOM     67  C   UNL A   1      45.708  33.310  28.508  1.00  0.00    -0.014 A 
ATOM     68  C   UNL A   1      46.632  33.467  29.550  1.00  0.00     0.009 A 
ATOM     69  C   UNL A   1      45.498  34.377  27.619  1.00  0.00     0.009 A 
ATOM     70  C   UNL A   1      47.323  34.673  29.702  1.00  0.00     0.001 A 
ATOM     71  C   UNL A   1      46.213  35.567  27.753  1.00  0.00     0.001 A 
ATOM     72  C   UNL A   1      47.119  35.717  28.799  1.00  0.00     0.000 A 
ENDBRANCH  48  67
BRANCH  60  73
ATOM     73  C   UNL A   1      46.931  27.431  25.021  1.00  0.00    -0.014 A 
ATOM     74  C   UNL A   1      47.882  26.578  25.604  1.00  0.00     0.009 A 
ATOM     75  C   UNL A   1      47.105  27.840  23.691  1.00  0.00     0.009 A 
ATOM     76  C   UNL A   1      49.005  26.173  24.880  1.00  0.00     0.001 A 
ATOM     77  C   UNL A   1      48.217  27.415  22.963  1.00  0.00     0.001 A 
ATOM     78  C   UNL A   1      49.170  26.591  23.560  1.00  0.00     0.000 A 
ENDBRANCH  60  73
ENDBRANCH  34  35
ENDBRANCH  27  29
ENDBRANCH  26  27
ENDBRANCH  25  26
ENDBRANCH   1  25
TORSDOF 15
ENDMDL
MODEL 2
REMARK VINA RESULT:      -9.9      3.927      9.557
REMARK SMILES COCC1CC[NH+]([C@@H]2CCC[C@@]([NH3+])(C(=O)OCCOC(=O)c3ccc(-c4c5nc(c(-c6ccccc6)c6ccc([nH]6)c(-c6ccccc6)c6nc(c(-c7ccccc7)c7ccc4[nH]7)C=C6)C=C5)cc3)C2)CC1
REMARK SMILES IDX 17 1 16 2 14 3 15 4 12 5 8 6 9 7 70 8 10 9 11 10 7 11 4 12
REMARK SMILES IDX 5 13 72 14 6 15 71 16 3 18 2 19 1 20 13 21 18 25 19 26 20 27
REMARK SMILES IDX 21 28 22 29 23 30 69 31 24 32 68 33 25 34 26 35 27 36 62 37
REMARK SMILES IDX 28 38 67 39 61 40 63 41 29 42 66 43 60 44 59 45 30 47 52 48
REMARK SMILES IDX 37 49 51 50 38 51 41 52 50 53 64 54 39 55 40 56 49 58 65 59
REMARK SMILES IDX 42 60 31 61 32 62 36 63 33 64 35 65 34 66 53 67 54 68 58 69
REMARK SMILES IDX 55 70 57 71 56 72 43 73 44 74 48 75 45 76 47 77 46 78
REMARK H PARENT 7 17 13 22 13 23 13 24 63 46 41 57
REMARK Flexibility Score: inf
ROOT
ATOM      1  C   UNL A   1      36.423  23.371  23.620  1.00  0.00     0.274 C 
ENDROOT
BRANCH   1   2
ATOM      2  O   UNL A   1      35.167  23.468  22.921  1.00  0.00    -0.457 OA
BRANCH   2   3
ATOM      3  C   UNL A   1      34.142  24.020  23.620  1.00  0.00     0.368 C 
ATOM      4  O   UNL A   1      34.272  24.897  24.471  1.00  0.00    -0.245 OA
BRANCH   3   5
ATOM      5  C   UNL A   1      32.763  23.369  23.305  1.00  0.00     0.198 C 
ATOM      6  C   UNL A   1      33.192  21.038  24.332  1.00  0.00     0.190 C 
ATOM      7  C   UNL A   1      32.009  21.250  25.290  1.00  0.00     0.065 C 
ATOM      8  C   UNL A   1      32.969  21.862  23.040  1.00  0.00     0.145 C 
ATOM      9  C   UNL A   1      31.844  22.735  25.616  1.00  0.00     0.013 C 
ATOM     10  C   UNL A   1      31.665  23.587  24.360  1.00  0.00     0.081 C 
BRANCH   6  11
ATOM     11  N   UNL A   1      33.548  19.630  24.050  1.00  0.00    -0.332 N 
ATOM     12  C   UNL A   1      34.168  16.745  24.142  1.00  0.00     0.026 C 
ATOM     13  C   UNL A   1      35.245  17.827  24.256  1.00  0.00     0.067 C 
ATOM     14  C   UNL A   1      32.912  17.330  23.496  1.00  0.00     0.067 C 
ATOM     15  C   UNL A   1      34.736  19.168  24.787  1.00  0.00     0.262 C 
ATOM     16  C   UNL A   1      32.468  18.648  24.135  1.00  0.00     0.262 C 
ATOM     17  H   UNL A   1      33.779  19.675  23.057  1.00  0.00     0.348 HD
BRANCH  12  18
ATOM     18  C   UNL A   1      33.857  16.104  25.502  1.00  0.00     0.163 C 
BRANCH  18  19
ATOM     19  O   UNL A   1      33.523  14.718  25.392  1.00  0.00    -0.384 OA
ATOM     20  C   UNL A   1      32.164  14.446  25.726  1.00  0.00     0.194 C 
ENDBRANCH  18  19
ENDBRANCH  12  18
ENDBRANCH   6  11
BRANCH   5  21
ATOM     21  N   UNL A   1      32.293  24.014  22.044  1.00  0.00    -0.343 N 
ATOM     22  H   UNL A   1      32.526  23.418  21.249  1.00  0.00     0.345 HD
ATOM     23  H   UNL A   1      32.748  24.920  21.935  1.00  0.00     0.345 HD
ATOM     24  H   UNL A   1      31.282  24.145  22.084  1.00  0.00     0.345 HD
ENDBRANCH   5  21
ENDBRANCH   3   5
ENDBRANCH   2   3
ENDBRANCH   1   2
BRANCH   1  25
ATOM     25  C   UNL A   1      36.686  21.931  24.047  1.00  0.00     0.275 C 
BRANCH  25  26
ATOM     26  O   UNL A   1      37.010  21.894  25.448  1.00  0.00    -0.458 OA
BRANCH  26  27
ATOM     27  C   UNL A   1      38.299  21.630  25.740  1.00  0.00     0.338 C 
ATOM     28  O   UNL A   1      38.918  20.605  25.466  1.00  0.00    -0.246 OA
BRANCH  27  29
ATOM     29  C   UNL A   1      38.916  22.758  26.465  1.00  0.00     0.060 A 
ATOM     30  C   UNL A   1      38.357  24.031  26.417  1.00  0.00     0.016 A 
ATOM     31  C   UNL A   1      40.152  22.569  27.091  1.00  0.00     0.016 A 
ATOM     32  C   UNL A   1      39.098  25.124  26.866  1.00  0.00     0.010 A 
ATOM     33  C   UNL A   1      40.843  23.661  27.638  1.00  0.00     0.010 A 
ATOM     34  C   UNL A   1      40.362  24.966  27.470  1.00  0.00    -0.014 A 
BRANCH  34  35
ATOM     35  C   UNL A   1      41.176  26.175  27.824  1.00  0.00     0.031 A 
ATOM     36  C   UNL A   1      42.572  26.385  27.259  1.00  0.00     0.074 A 
ATOM     37  C   UNL A   1      40.620  27.169  28.550  1.00  0.00     0.049 A 
ATOM     38  N   UNL A   1      43.350  27.440  27.354  1.00  0.00    -0.248 NA
ATOM     39  C   UNL A   1      43.160  25.296  26.459  1.00  0.00     0.031 C 
ATOM     40  C   UNL A   1      39.279  27.140  29.137  1.00  0.00     0.029 A 
ATOM     41  N   UNL A   1      41.099  28.414  28.886  1.00  0.00    -0.354 N 
ATOM     42  C   UNL A   1      44.487  27.151  26.606  1.00  0.00     0.074 A 
ATOM     43  C   UNL A   1      44.330  25.807  26.101  1.00  0.00     0.031 C 
ATOM     44  C   UNL A   1      39.018  28.326  29.703  1.00  0.00     0.029 A 
ATOM     45  C   UNL A   1      40.200  29.175  29.597  1.00  0.00     0.049 A 
ATOM     46  H   UNL A   1      41.997  28.730  28.642  1.00  0.00     0.167 HD
ATOM     47  C   UNL A   1      45.554  27.939  26.326  1.00  0.00     0.031 A 
ATOM     48  C   UNL A   1      40.311  30.404  30.137  1.00  0.00     0.031 A 
ATOM     49  C   UNL A   1      45.737  29.280  26.813  1.00  0.00     0.049 A 
ATOM     50  C   UNL A   1      41.592  31.167  29.985  1.00  0.00     0.074 A 
ATOM     51  C   UNL A   1      46.765  30.166  26.535  1.00  0.00     0.029 A 
ATOM     52  N   UNL A   1      44.885  29.921  27.694  1.00  0.00    -0.354 N 
ATOM     53  N   UNL A   1      42.636  30.887  29.245  1.00  0.00    -0.248 NA
ATOM     54  C   UNL A   1      41.721  32.405  30.768  1.00  0.00     0.031 C 
ATOM     55  C   UNL A   1      46.566  31.323  27.296  1.00  0.00     0.029 A 
ATOM     56  C   UNL A   1      45.394  31.169  28.017  1.00  0.00     0.049 A 
ATOM     57  H   UNL A   1      44.043  29.547  28.039  1.00  0.00     0.167 HD
ATOM     58  C   UNL A   1      43.545  31.910  29.473  1.00  0.00     0.074 A 
ATOM     59  C   UNL A   1      42.921  32.833  30.398  1.00  0.00     0.031 C 
ATOM     60  C   UNL A   1      44.789  32.066  28.963  1.00  0.00     0.031 A 
BRANCH  47  61
ATOM     61  C   UNL A   1      46.622  27.383  25.425  1.00  0.00    -0.014 A 
ATOM     62  C   UNL A   1      46.760  27.846  24.108  1.00  0.00     0.009 A 
ATOM     63  C   UNL A   1      47.560  26.467  25.924  1.00  0.00     0.009 A 
ATOM     64  C   UNL A   1      47.823  27.419  23.311  1.00  0.00     0.001 A 
ATOM     65  C   UNL A   1      48.624  26.040  25.123  1.00  0.00     0.001 A 
ATOM     66  C   UNL A   1      48.758  26.521  23.821  1.00  0.00     0.000 A 
ENDBRANCH  47  61
BRANCH  48  67
ATOM     67  C   UNL A   1      39.199  30.955  30.958  1.00  0.00    -0.014 A 
ATOM     68  C   UNL A   1      38.210  31.770  30.391  1.00  0.00     0.009 A 
ATOM     69  C   UNL A   1      39.141  30.673  32.333  1.00  0.00     0.009 A 
ATOM     70  C   UNL A   1      37.190  32.299  31.188  1.00  0.00     0.001 A 
ATOM     71  C   UNL A   1      38.103  31.174  33.120  1.00  0.00     0.001 A 
ATOM     72  C   UNL A   1      37.134  31.993  32.548  1.00  0.00     0.000 A 
ENDBRANCH  48  67
BRANCH  60  73
ATOM     73  C   UNL A   1      45.559  33.271  29.413  1.00  0.00    -0.014 A 
ATOM     74  C   UNL A   1      45.434  34.492  28.730  1.00  0.00     0.009 A 
ATOM     75  C   UNL A   1      46.422  33.191  30.515  1.00  0.00     0.009 A 
ATOM     76  C   UNL A   1      46.185  35.601  29.123  1.00  0.00     0.001 A 
ATOM     77  C   UNL A   1      47.155  34.309  30.920  1.00  0.00     0.001 A 
ATOM     78  C   UNL A   1      47.044  35.508  30.218  1.00  0.00     0.000 A 
ENDBRANCH  60  73
ENDBRANCH  34  35
ENDBRANCH  27  29
ENDBRANCH  26  27
ENDBRANCH  25  26
ENDBRANCH   1  25
TORSDOF 15
ENDMDL
MODEL 3
REMARK VINA RESULT:      -9.9      4.068      9.567
REMARK SMILES COCC1CC[NH+]([C@@H]2CCC[C@@]([NH3+])(C(=O)OCCOC(=O)c3ccc(-c4c5nc(c(-c6ccccc6)c6ccc([nH]6)c(-c6ccccc6)c6nc(c(-c7ccccc7)c7ccc4[nH]7)C=C6)C=C5)cc3)C2)CC1
REMARK SMILES IDX 17 1 16 2 14 3 15 4 12 5 8 6 9 7 70 8 10 9 11 10 7 11 4 12
REMARK SMILES IDX 5 13 72 14 6 15 71 16 3 18 2 19 1 20 13 21 18 25 19 26 20 27
REMARK SMILES IDX 21 28 22 29 23 30 69 31 24 32 68 33 25 34 26 35 27 36 62 37
REMARK SMILES IDX 28 38 67 39 61 40 63 41 29 42 66 43 60 44 59 45 30 47 52 48
REMARK SMILES IDX 37 49 51 50 38 51 41 52 50 53 64 54 39 55 40 56 49 58 65 59
REMARK SMILES IDX 42 60 31 61 32 62 36 63 33 64 35 65 34 66 53 67 54 68 58 69
REMARK SMILES IDX 55 70 57 71 56 72 43 73 44 74 48 75 45 76 47 77 46 78
REMARK H PARENT 7 17 13 22 13 23 13 24 63 46 41 57
REMARK Flexibility Score: inf
ROOT
ATOM      1  C   UNL A   1      37.231  19.940  25.061  1.00  0.00     0.274 C 
ENDROOT
BRANCH   1   2
ATOM      2  O   UNL A   1      36.655  21.148  24.529  1.00  0.00    -0.457 OA
BRANCH   2   3
ATOM      3  C   UNL A   1      36.434  22.143  25.426  1.00  0.00     0.368 C 
ATOM      4  O   UNL A   1      37.313  22.854  25.909  1.00  0.00    -0.245 OA
BRANCH   3   5
ATOM      5  C   UNL A   1      34.944  22.252  25.867  1.00  0.00     0.198 C 
ATOM      6  C   UNL A   1      34.367  24.498  24.730  1.00  0.00     0.190 C 
ATOM      7  C   UNL A   1      33.274  23.795  23.910  1.00  0.00     0.065 C 
ATOM      8  C   UNL A   1      34.586  23.741  26.063  1.00  0.00     0.145 C 
ATOM      9  C   UNL A   1      33.656  22.337  23.648  1.00  0.00     0.013 C 
ATOM     10  C   UNL A   1      33.923  21.568  24.941  1.00  0.00     0.081 C 
BRANCH   6  11
ATOM     11  N   UNL A   1      34.187  25.953  24.929  1.00  0.00    -0.332 N 
ATOM     12  C   UNL A   1      33.198  28.724  25.167  1.00  0.00     0.026 C 
ATOM     13  C   UNL A   1      33.809  28.171  23.877  1.00  0.00     0.067 C 
ATOM     14  C   UNL A   1      33.630  27.865  26.356  1.00  0.00     0.067 C 
ATOM     15  C   UNL A   1      33.701  26.653  23.730  1.00  0.00     0.262 C 
ATOM     16  C   UNL A   1      33.436  26.367  26.114  1.00  0.00     0.262 C 
ATOM     17  H   UNL A   1      35.146  26.251  25.114  1.00  0.00     0.348 HD
BRANCH  12  18
ATOM     18  C   UNL A   1      31.669  28.830  25.073  1.00  0.00     0.163 C 
BRANCH  18  19
ATOM     19  O   UNL A   1      31.231  29.352  23.816  1.00  0.00    -0.384 OA
ATOM     20  C   UNL A   1      30.146  28.616  23.255  1.00  0.00     0.194 C 
ENDBRANCH  18  19
ENDBRANCH  12  18
ENDBRANCH   6  11
BRANCH   5  21
ATOM     21  N   UNL A   1      34.865  21.565  27.190  1.00  0.00    -0.343 N 
ATOM     22  H   UNL A   1      34.673  20.573  27.048  1.00  0.00     0.345 HD
ATOM     23  H   UNL A   1      34.117  21.981  27.744  1.00  0.00     0.345 HD
ATOM     24  H   UNL A   1      35.752  21.672  27.683  1.00  0.00     0.345 HD
ENDBRANCH   5  21
ENDBRANCH   3   5
ENDBRANCH   2   3
ENDBRANCH   1   2
BRANCH   1  25
ATOM     25  C   UNL A   1      38.741  19.931  24.851  1.00  0.00     0.275 C 
BRANCH  25  26
ATOM     26  O   UNL A   1      39.407  19.882  26.124  1.00  0.00    -0.458 OA
BRANCH  26  27
ATOM     27  C   UNL A   1      40.747  19.738  26.074  1.00  0.00     0.338 C 
ATOM     28  O   UNL A   1      41.364  18.773  25.633  1.00  0.00    -0.246 OA
BRANCH  27  29
ATOM     29  C   UNL A   1      41.425  20.920  26.641  1.00  0.00     0.060 A 
ATOM     30  C   UNL A   1      41.513  21.102  28.018  1.00  0.00     0.016 A 
ATOM     31  C   UNL A   1      41.858  21.934  25.781  1.00  0.00     0.016 A 
ATOM     32  C   UNL A   1      41.899  22.344  28.523  1.00  0.00     0.010 A 
ATOM     33  C   UNL A   1      42.347  23.142  26.299  1.00  0.00     0.010 A 
ATOM     34  C   UNL A   1      42.307  23.395  27.677  1.00  0.00    -0.014 A 
BRANCH  34  35
ATOM     35  C   UNL A   1      42.594  24.750  28.255  1.00  0.00     0.031 A 
ATOM     36  C   UNL A   1      44.010  25.185  28.593  1.00  0.00     0.074 A 
ATOM     37  C   UNL A   1      41.600  25.659  28.355  1.00  0.00     0.049 A 
ATOM     38  N   UNL A   1      44.442  26.368  28.966  1.00  0.00    -0.248 NA
ATOM     39  C   UNL A   1      45.085  24.185  28.466  1.00  0.00     0.031 C 
ATOM     40  C   UNL A   1      40.192  25.412  28.039  1.00  0.00     0.029 A 
ATOM     41  N   UNL A   1      41.628  26.986  28.716  1.00  0.00    -0.354 N 
ATOM     42  C   UNL A   1      45.824  26.257  29.083  1.00  0.00     0.074 A 
ATOM     43  C   UNL A   1      46.163  24.884  28.792  1.00  0.00     0.031 C 
ATOM     44  C   UNL A   1      39.505  26.557  28.157  1.00  0.00     0.029 A 
ATOM     45  C   UNL A   1      40.401  27.603  28.639  1.00  0.00     0.049 A 
ATOM     46  H   UNL A   1      42.447  27.449  29.002  1.00  0.00     0.167 HD
ATOM     47  C   UNL A   1      46.742  27.213  29.367  1.00  0.00     0.031 A 
ATOM     48  C   UNL A   1      40.018  28.856  28.948  1.00  0.00     0.031 A 
ATOM     49  C   UNL A   1      46.435  28.588  29.660  1.00  0.00     0.049 A 
ATOM     50  C   UNL A   1      41.031  29.834  29.464  1.00  0.00     0.074 A 
ATOM     51  C   UNL A   1      47.309  29.634  29.909  1.00  0.00     0.029 A 
ATOM     52  N   UNL A   1      45.156  29.104  29.764  1.00  0.00    -0.354 N 
ATOM     53  N   UNL A   1      42.333  29.715  29.531  1.00  0.00    -0.248 NA
ATOM     54  C   UNL A   1      40.513  31.113  29.977  1.00  0.00     0.031 C 
ATOM     55  C   UNL A   1      46.556  30.770  30.223  1.00  0.00     0.029 A 
ATOM     56  C   UNL A   1      45.215  30.439  30.132  1.00  0.00     0.049 A 
ATOM     57  H   UNL A   1      44.327  28.599  29.600  1.00  0.00     0.167 HD
ATOM     58  C   UNL A   1      42.791  30.898  30.092  1.00  0.00     0.074 A 
ATOM     59  C   UNL A   1      41.632  31.735  30.322  1.00  0.00     0.031 C 
ATOM     60  C   UNL A   1      44.062  31.255  30.394  1.00  0.00     0.031 A 
BRANCH  47  61
ATOM     61  C   UNL A   1      48.193  26.820  29.362  1.00  0.00    -0.014 A 
ATOM     62  C   UNL A   1      48.976  26.985  28.210  1.00  0.00     0.009 A 
ATOM     63  C   UNL A   1      48.810  26.377  30.542  1.00  0.00     0.009 A 
ATOM     64  C   UNL A   1      50.348  26.732  28.238  1.00  0.00     0.001 A 
ATOM     65  C   UNL A   1      50.185  26.124  30.569  1.00  0.00     0.001 A 
ATOM     66  C   UNL A   1      50.953  26.308  29.419  1.00  0.00     0.000 A 
ENDBRANCH  47  61
BRANCH  48  67
ATOM     67  C   UNL A   1      38.581  29.233  28.865  1.00  0.00    -0.014 A 
ATOM     68  C   UNL A   1      38.036  29.769  27.690  1.00  0.00     0.009 A 
ATOM     69  C   UNL A   1      37.751  29.070  29.986  1.00  0.00     0.009 A 
ATOM     70  C   UNL A   1      36.689  30.141  27.645  1.00  0.00     0.001 A 
ATOM     71  C   UNL A   1      36.399  29.410  29.928  1.00  0.00     0.001 A 
ATOM     72  C   UNL A   1      35.872  29.953  28.760  1.00  0.00     0.000 A 
ENDBRANCH  48  67
BRANCH  60  73
ATOM     73  C   UNL A   1      44.256  32.603  31.022  1.00  0.00    -0.014 A 
ATOM     74  C   UNL A   1      44.419  33.745  30.221  1.00  0.00     0.009 A 
ATOM     75  C   UNL A   1      44.286  32.737  32.417  1.00  0.00     0.009 A 
ATOM     76  C   UNL A   1      44.643  34.992  30.807  1.00  0.00     0.001 A 
ATOM     77  C   UNL A   1      44.488  33.989  33.000  1.00  0.00     0.001 A 
ATOM     78  C   UNL A   1      44.676  35.112  32.197  1.00  0.00     0.000 A 
ENDBRANCH  60  73
ENDBRANCH  34  35
ENDBRANCH  27  29
ENDBRANCH  26  27
ENDBRANCH  25  26
ENDBRANCH   1  25
TORSDOF 15
ENDMDL
