MODEL 1
REMARK VINA RESULT:      -8.7      0.000      0.000
REMARK SMILES Cc1c(C[C@@H](C)O)c(=O)oc2cc(OCC(=O)OCCOC(=O)c3ccc(-c4c5nc(c(-c6ccccc6)c6ccc([nH]6)c(-c6ccccc6)c6nc(c(-c7ccccc7)c7ccc4[nH]7)C=C6)C=C5)cc3)ccc12
REMARK SMILES IDX 18 1 16 2 17 3 15 4 14 5 13 6 1 7 2 8 3 9 74 10 8 11 11 12
REMARK SMILES IDX 73 13 9 14 10 15 12 16 72 17 4 18 5 19 6 20 7 21 19 23 20 24
REMARK SMILES IDX 21 25 22 26 23 27 24 28 25 29 71 30 26 31 70 32 27 33 28 34
REMARK SMILES IDX 29 35 64 36 30 37 69 38 63 39 65 40 31 41 68 42 62 43 61 44
REMARK SMILES IDX 32 46 54 47 39 48 53 49 40 50 43 51 52 52 66 53 41 54 42 55
REMARK SMILES IDX 51 57 67 58 44 59 33 60 34 61 38 62 35 63 37 64 36 65 55 66
REMARK SMILES IDX 56 67 60 68 57 69 59 70 58 71 45 72 46 73 50 74 47 75 49 76
REMARK SMILES IDX 48 77
REMARK H PARENT 7 22 65 45 43 56
REMARK Flexibility Score: inf
ROOT
ATOM      1  O   UNL A   1      45.206  20.862  24.219  1.00  0.00    -0.460 OA
ENDROOT
BRANCH   1   2
ATOM      2  C   UNL A   1      45.752  21.849  24.981  1.00  0.00     0.344 C 
ATOM      3  O   UNL A   1      46.072  21.731  26.159  1.00  0.00    -0.248 OA
BRANCH   2   4
ATOM      4  C   UNL A   1      45.914  23.165  24.223  1.00  0.00     0.351 C 
BRANCH   4   5
ATOM      5  O   UNL A   1      47.048  23.974  24.481  1.00  0.00    -0.482 OA
BRANCH   5   6
ATOM      6  C   UNL A   1      46.864  25.238  24.964  1.00  0.00     0.123 A 
ATOM      7  C   UNL A   1      47.847  29.834  27.224  1.00  0.00     0.046 C 
ATOM      8  C   UNL A   1      46.584  29.122  26.814  1.00  0.00    -0.030 A 
ATOM      9  C   UNL A   1      45.335  29.581  27.048  1.00  0.00     0.044 A 
ATOM     10  C   UNL A   1      46.738  27.809  26.160  1.00  0.00     0.021 A 
ATOM     11  C   UNL A   1      44.142  28.891  26.474  1.00  0.00     0.339 A 
ATOM     12  C   UNL A   1      45.634  27.225  25.555  1.00  0.00     0.142 A 
ATOM     13  C   UNL A   1      47.930  27.074  26.156  1.00  0.00     0.016 A 
ATOM     14  O   UNL A   1      43.001  29.288  26.686  1.00  0.00    -0.246 OA
ATOM     15  O   UNL A   1      44.378  27.846  25.596  1.00  0.00    -0.422 OA
ATOM     16  C   UNL A   1      45.689  25.973  24.931  1.00  0.00     0.094 A 
ATOM     17  C   UNL A   1      47.985  25.799  25.576  1.00  0.00     0.047 A 
BRANCH   9  18
ATOM     18  C   UNL A   1      44.994  30.820  27.854  1.00  0.00     0.075 C 
BRANCH  18  19
ATOM     19  C   UNL A   1      45.054  32.124  27.035  1.00  0.00     0.116 C 
ATOM     20  C   UNL A   1      46.236  33.022  27.390  1.00  0.00     0.038 C 
BRANCH  19  21
ATOM     21  O   UNL A   1      45.157  31.796  25.646  1.00  0.00    -0.393 OA
ATOM     22  H   UNL A   1      46.089  31.796  25.382  1.00  0.00     0.210 HD
ENDBRANCH  19  21
ENDBRANCH  18  19
ENDBRANCH   9  18
ENDBRANCH   5   6
ENDBRANCH   4   5
ENDBRANCH   2   4
ENDBRANCH   1   2
BRANCH   1  23
ATOM     23  C   UNL A   1      45.481  19.512  24.648  1.00  0.00     0.274 C 
BRANCH  23  24
ATOM     24  C   UNL A   1      44.231  18.876  25.251  1.00  0.00     0.275 C 
BRANCH  24  25
ATOM     25  O   UNL A   1      43.072  19.617  24.835  1.00  0.00    -0.458 OA
BRANCH  25  26
ATOM     26  C   UNL A   1      42.130  19.803  25.785  1.00  0.00     0.338 C 
ATOM     27  O   UNL A   1      41.323  18.969  26.182  1.00  0.00    -0.246 OA
BRANCH  26  28
ATOM     28  C   UNL A   1      42.204  21.177  26.327  1.00  0.00     0.060 A 
ATOM     29  C   UNL A   1      42.321  22.291  25.488  1.00  0.00     0.016 A 
ATOM     30  C   UNL A   1      42.282  21.344  27.710  1.00  0.00     0.016 A 
ATOM     31  C   UNL A   1      42.613  23.546  26.027  1.00  0.00     0.010 A 
ATOM     32  C   UNL A   1      42.485  22.614  28.253  1.00  0.00     0.010 A 
ATOM     33  C   UNL A   1      42.683  23.724  27.418  1.00  0.00    -0.014 A 
BRANCH  33  34
ATOM     34  C   UNL A   1      42.943  25.063  28.010  1.00  0.00     0.031 A 
ATOM     35  C   UNL A   1      44.313  25.434  28.513  1.00  0.00     0.074 A 
ATOM     36  C   UNL A   1      41.929  25.941  28.138  1.00  0.00     0.049 A 
ATOM     37  N   UNL A   1      44.684  26.494  29.190  1.00  0.00    -0.248 NA
ATOM     38  C   UNL A   1      45.408  24.496  28.221  1.00  0.00     0.031 C 
ATOM     39  C   UNL A   1      40.555  25.724  27.679  1.00  0.00     0.029 A 
ATOM     40  N   UNL A   1      41.897  27.191  28.705  1.00  0.00    -0.354 N 
ATOM     41  C   UNL A   1      46.041  26.331  29.438  1.00  0.00     0.074 A 
ATOM     42  C   UNL A   1      46.431  25.072  28.838  1.00  0.00     0.031 C 
ATOM     43  C   UNL A   1      39.820  26.807  27.969  1.00  0.00     0.029 A 
ATOM     44  C   UNL A   1      40.649  27.763  28.693  1.00  0.00     0.049 A 
ATOM     45  H   UNL A   1      42.691  27.634  29.082  1.00  0.00     0.167 HD
ATOM     46  C   UNL A   1      46.886  27.151  30.110  1.00  0.00     0.031 A 
ATOM     47  C   UNL A   1      40.202  28.907  29.241  1.00  0.00     0.031 A 
ATOM     48  C   UNL A   1      46.508  28.407  30.703  1.00  0.00     0.049 A 
ATOM     49  C   UNL A   1      41.144  29.772  30.023  1.00  0.00     0.074 A 
ATOM     50  C   UNL A   1      47.304  29.314  31.381  1.00  0.00     0.029 A 
ATOM     51  N   UNL A   1      45.225  28.931  30.693  1.00  0.00    -0.354 N 
ATOM     52  N   UNL A   1      42.420  29.597  30.260  1.00  0.00    -0.248 NA
ATOM     53  C   UNL A   1      40.577  30.987  30.625  1.00  0.00     0.031 C 
ATOM     54  C   UNL A   1      46.495  30.372  31.814  1.00  0.00     0.029 A 
ATOM     55  C   UNL A   1      45.204  30.140  31.368  1.00  0.00     0.049 A 
ATOM     56  H   UNL A   1      44.446  28.507  30.267  1.00  0.00     0.167 HD
ATOM     57  C   UNL A   1      42.811  30.680  31.033  1.00  0.00     0.074 A 
ATOM     58  C   UNL A   1      41.642  31.517  31.210  1.00  0.00     0.031 C 
ATOM     59  C   UNL A   1      44.032  30.954  31.551  1.00  0.00     0.031 A 
BRANCH  46  60
ATOM     60  C   UNL A   1      48.310  26.701  30.268  1.00  0.00    -0.014 A 
ATOM     61  C   UNL A   1      49.324  27.188  29.429  1.00  0.00     0.009 A 
ATOM     62  C   UNL A   1      48.650  25.826  31.311  1.00  0.00     0.009 A 
ATOM     63  C   UNL A   1      50.649  26.789  29.622  1.00  0.00     0.001 A 
ATOM     64  C   UNL A   1      49.977  25.444  31.512  1.00  0.00     0.001 A 
ATOM     65  C   UNL A   1      50.975  25.923  30.664  1.00  0.00     0.000 A 
ENDBRANCH  46  60
BRANCH  47  66
ATOM     66  C   UNL A   1      38.772  29.273  29.100  1.00  0.00    -0.014 A 
ATOM     67  C   UNL A   1      38.283  29.773  27.885  1.00  0.00     0.009 A 
ATOM     68  C   UNL A   1      37.885  29.095  30.173  1.00  0.00     0.009 A 
ATOM     69  C   UNL A   1      36.931  30.095  27.751  1.00  0.00     0.001 A 
ATOM     70  C   UNL A   1      36.530  29.395  30.028  1.00  0.00     0.001 A 
ATOM     71  C   UNL A   1      36.055  29.899  28.819  1.00  0.00     0.000 A 
ENDBRANCH  47  66
BRANCH  59  72
ATOM     72  C   UNL A   1      44.161  32.221  32.343  1.00  0.00    -0.014 A 
ATOM     73  C   UNL A   1      44.111  32.204  33.745  1.00  0.00     0.009 A 
ATOM     74  C   UNL A   1      44.340  33.444  31.679  1.00  0.00     0.009 A 
ATOM     75  C   UNL A   1      44.207  33.395  34.467  1.00  0.00     0.001 A 
ATOM     76  C   UNL A   1      44.456  34.630  32.404  1.00  0.00     0.001 A 
ATOM     77  C   UNL A   1      44.380  34.606  33.797  1.00  0.00     0.000 A 
ENDBRANCH  59  72
ENDBRANCH  33  34
ENDBRANCH  26  28
ENDBRANCH  25  26
ENDBRANCH  24  25
ENDBRANCH  23  24
ENDBRANCH   1  23
TORSDOF 16
ENDMDL
MODEL 2
REMARK VINA RESULT:      -8.2      4.139      7.496
REMARK SMILES Cc1c(C[C@@H](C)O)c(=O)oc2cc(OCC(=O)OCCOC(=O)c3ccc(-c4c5nc(c(-c6ccccc6)c6ccc([nH]6)c(-c6ccccc6)c6nc(c(-c7ccccc7)c7ccc4[nH]7)C=C6)C=C5)cc3)ccc12
REMARK SMILES IDX 18 1 16 2 17 3 15 4 14 5 13 6 1 7 2 8 3 9 74 10 8 11 11 12
REMARK SMILES IDX 73 13 9 14 10 15 12 16 72 17 4 18 5 19 6 20 7 21 19 23 20 24
REMARK SMILES IDX 21 25 22 26 23 27 24 28 25 29 71 30 26 31 70 32 27 33 28 34
REMARK SMILES IDX 29 35 64 36 30 37 69 38 63 39 65 40 31 41 68 42 62 43 61 44
REMARK SMILES IDX 32 46 54 47 39 48 53 49 40 50 43 51 52 52 66 53 41 54 42 55
REMARK SMILES IDX 51 57 67 58 44 59 33 60 34 61 38 62 35 63 37 64 36 65 55 66
REMARK SMILES IDX 56 67 60 68 57 69 59 70 58 71 45 72 46 73 50 74 47 75 49 76
REMARK SMILES IDX 48 77
REMARK H PARENT 7 22 65 45 43 56
REMARK Flexibility Score: inf
ROOT
ATOM      1  O   UNL A   1      41.571  20.183  25.821  1.00  0.00    -0.460 OA
ENDROOT
BRANCH   1   2
ATOM      2  C   UNL A   1      41.343  21.355  26.471  1.00  0.00     0.344 C 
ATOM      3  O   UNL A   1      42.172  21.958  27.145  1.00  0.00    -0.248 OA
BRANCH   2   4
ATOM      4  C   UNL A   1      39.911  21.861  26.304  1.00  0.00     0.351 C 
BRANCH   4   5
ATOM      5  O   UNL A   1      38.939  21.004  25.733  1.00  0.00    -0.482 OA
BRANCH   5   6
ATOM      6  C   UNL A   1      37.706  21.507  25.435  1.00  0.00     0.123 A 
ATOM      7  C   UNL A   1      33.831  24.916  24.685  1.00  0.00     0.046 C 
ATOM      8  C   UNL A   1      33.891  23.415  24.808  1.00  0.00    -0.030 A 
ATOM      9  C   UNL A   1      32.811  22.604  24.809  1.00  0.00     0.044 A 
ATOM     10  C   UNL A   1      35.224  22.812  24.994  1.00  0.00     0.021 A 
ATOM     11  C   UNL A   1      32.967  21.119  24.781  1.00  0.00     0.339 A 
ATOM     12  C   UNL A   1      35.362  21.436  24.876  1.00  0.00     0.142 A 
ATOM     13  C   UNL A   1      36.369  23.540  25.340  1.00  0.00     0.016 A 
ATOM     14  O   UNL A   1      31.997  20.367  24.792  1.00  0.00    -0.246 OA
ATOM     15  O   UNL A   1      34.249  20.620  24.626  1.00  0.00    -0.422 OA
ATOM     16  C   UNL A   1      36.586  20.781  25.057  1.00  0.00     0.094 A 
ATOM     17  C   UNL A   1      37.589  22.890  25.571  1.00  0.00     0.047 A 
BRANCH   9  18
ATOM     18  C   UNL A   1      31.367  23.066  24.800  1.00  0.00     0.075 C 
BRANCH  18  19
ATOM     19  C   UNL A   1      30.757  23.207  26.210  1.00  0.00     0.116 C 
ATOM     20  C   UNL A   1      29.935  24.479  26.401  1.00  0.00     0.038 C 
BRANCH  19  21
ATOM     21  O   UNL A   1      29.899  22.090  26.458  1.00  0.00    -0.393 OA
ATOM     22  H   UNL A   1      29.321  21.949  25.692  1.00  0.00     0.210 HD
ENDBRANCH  19  21
ENDBRANCH  18  19
ENDBRANCH   9  18
ENDBRANCH   5   6
ENDBRANCH   4   5
ENDBRANCH   2   4
ENDBRANCH   1   2
BRANCH   1  23
ATOM     23  C   UNL A   1      42.254  19.164  26.581  1.00  0.00     0.274 C 
BRANCH  23  24
ATOM     24  C   UNL A   1      43.370  18.534  25.753  1.00  0.00     0.275 C 
BRANCH  24  25
ATOM     25  O   UNL A   1      43.496  19.240  24.507  1.00  0.00    -0.458 OA
BRANCH  25  26
ATOM     26  C   UNL A   1      44.756  19.569  24.151  1.00  0.00     0.338 C 
ATOM     27  O   UNL A   1      45.557  18.850  23.562  1.00  0.00    -0.246 OA
BRANCH  26  28
ATOM     28  C   UNL A   1      45.061  20.961  24.547  1.00  0.00     0.060 A 
ATOM     29  C   UNL A   1      45.624  21.263  25.792  1.00  0.00     0.016 A 
ATOM     30  C   UNL A   1      44.660  21.997  23.701  1.00  0.00     0.016 A 
ATOM     31  C   UNL A   1      45.693  22.588  26.226  1.00  0.00     0.010 A 
ATOM     32  C   UNL A   1      44.813  23.326  24.101  1.00  0.00     0.010 A 
ATOM     33  C   UNL A   1      45.302  23.637  25.378  1.00  0.00    -0.014 A 
BRANCH  33  34
ATOM     34  C   UNL A   1      45.416  25.056  25.807  1.00  0.00     0.031 A 
ATOM     35  C   UNL A   1      46.741  25.771  25.773  1.00  0.00     0.074 A 
ATOM     36  C   UNL A   1      44.327  25.699  26.272  1.00  0.00     0.049 A 
ATOM     37  N   UNL A   1      47.053  26.952  26.248  1.00  0.00    -0.248 NA
ATOM     38  C   UNL A   1      47.862  25.069  25.127  1.00  0.00     0.031 C 
ATOM     39  C   UNL A   1      42.976  25.137  26.345  1.00  0.00     0.029 A 
ATOM     40  N   UNL A   1      44.189  26.964  26.785  1.00  0.00    -0.354 N 
ATOM     41  C   UNL A   1      48.409  27.119  25.993  1.00  0.00     0.074 A 
ATOM     42  C   UNL A   1      48.861  25.919  25.320  1.00  0.00     0.031 C 
ATOM     43  C   UNL A   1      42.146  26.057  26.856  1.00  0.00     0.029 A 
ATOM     44  C   UNL A   1      42.915  27.244  27.212  1.00  0.00     0.049 A 
ATOM     45  H   UNL A   1      44.932  27.609  26.840  1.00  0.00     0.167 HD
ATOM     46  C   UNL A   1      49.206  28.172  26.296  1.00  0.00     0.031 A 
ATOM     47  C   UNL A   1      42.420  28.315  27.858  1.00  0.00     0.031 A 
ATOM     48  C   UNL A   1      48.762  29.371  26.958  1.00  0.00     0.049 A 
ATOM     49  C   UNL A   1      43.333  29.444  28.229  1.00  0.00     0.074 A 
ATOM     50  C   UNL A   1      49.497  30.498  27.283  1.00  0.00     0.029 A 
ATOM     51  N   UNL A   1      47.469  29.596  27.399  1.00  0.00    -0.354 N 
ATOM     52  N   UNL A   1      44.614  29.580  27.993  1.00  0.00    -0.248 NA
ATOM     53  C   UNL A   1      42.731  30.563  28.967  1.00  0.00     0.031 C 
ATOM     54  C   UNL A   1      48.655  31.394  27.955  1.00  0.00     0.029 A 
ATOM     55  C   UNL A   1      47.388  30.837  28.010  1.00  0.00     0.049 A 
ATOM     56  H   UNL A   1      46.718  28.968  27.293  1.00  0.00     0.167 HD
ATOM     57  C   UNL A   1      44.972  30.799  28.548  1.00  0.00     0.074 A 
ATOM     58  C   UNL A   1      43.769  31.374  29.116  1.00  0.00     0.031 C 
ATOM     59  C   UNL A   1      46.190  31.389  28.585  1.00  0.00     0.031 A 
BRANCH  46  60
ATOM     60  C   UNL A   1      50.661  28.066  25.939  1.00  0.00    -0.014 A 
ATOM     61  C   UNL A   1      51.592  27.519  26.836  1.00  0.00     0.009 A 
ATOM     62  C   UNL A   1      51.094  28.462  24.664  1.00  0.00     0.009 A 
ATOM     63  C   UNL A   1      52.933  27.390  26.466  1.00  0.00     0.001 A 
ATOM     64  C   UNL A   1      52.431  28.314  24.292  1.00  0.00     0.001 A 
ATOM     65  C   UNL A   1      53.350  27.783  25.195  1.00  0.00     0.000 A 
ENDBRANCH  46  60
BRANCH  47  66
ATOM     66  C   UNL A   1      40.985  28.341  28.234  1.00  0.00    -0.014 A 
ATOM     67  C   UNL A   1      40.557  27.768  29.440  1.00  0.00     0.009 A 
ATOM     68  C   UNL A   1      40.045  28.966  27.401  1.00  0.00     0.009 A 
ATOM     69  C   UNL A   1      39.209  27.814  29.800  1.00  0.00     0.001 A 
ATOM     70  C   UNL A   1      38.702  29.031  27.775  1.00  0.00     0.001 A 
ATOM     71  C   UNL A   1      38.285  28.452  28.972  1.00  0.00     0.000 A 
ENDBRANCH  47  66
BRANCH  59  72
ATOM     72  C   UNL A   1      46.272  32.731  29.249  1.00  0.00    -0.014 A 
ATOM     73  C   UNL A   1      46.569  32.843  30.615  1.00  0.00     0.009 A 
ATOM     74  C   UNL A   1      46.055  33.896  28.497  1.00  0.00     0.009 A 
ATOM     75  C   UNL A   1      46.616  34.099  31.225  1.00  0.00     0.001 A 
ATOM     76  C   UNL A   1      46.123  35.150  29.104  1.00  0.00     0.001 A 
ATOM     77  C   UNL A   1      46.394  35.250  30.469  1.00  0.00     0.000 A 
ENDBRANCH  59  72
ENDBRANCH  33  34
ENDBRANCH  26  28
ENDBRANCH  25  26
ENDBRANCH  24  25
ENDBRANCH  23  24
ENDBRANCH   1  23
TORSDOF 16
ENDMDL
MODEL 3
REMARK VINA RESULT:      -8.1      5.102     11.482
REMARK SMILES Cc1c(C[C@@H](C)O)c(=O)oc2cc(OCC(=O)OCCOC(=O)c3ccc(-c4c5nc(c(-c6ccccc6)c6ccc([nH]6)c(-c6ccccc6)c6nc(c(-c7ccccc7)c7ccc4[nH]7)C=C6)C=C5)cc3)ccc12
REMARK SMILES IDX 18 1 16 2 17 3 15 4 14 5 13 6 1 7 2 8 3 9 74 10 8 11 11 12
REMARK SMILES IDX 73 13 9 14 10 15 12 16 72 17 4 18 5 19 6 20 7 21 19 23 20 24
REMARK SMILES IDX 21 25 22 26 23 27 24 28 25 29 71 30 26 31 70 32 27 33 28 34
REMARK SMILES IDX 29 35 64 36 30 37 69 38 63 39 65 40 31 41 68 42 62 43 61 44
REMARK SMILES IDX 32 46 54 47 39 48 53 49 40 50 43 51 52 52 66 53 41 54 42 55
REMARK SMILES IDX 51 57 67 58 44 59 33 60 34 61 38 62 35 63 37 64 36 65 55 66
REMARK SMILES IDX 56 67 60 68 57 69 59 70 58 71 45 72 46 73 50 74 47 75 49 76
REMARK SMILES IDX 48 77
REMARK H PARENT 7 22 65 45 43 56
REMARK Flexibility Score: inf
ROOT
ATOM      1  O   UNL A   1      33.735  33.102  29.148  1.00  0.00    -0.460 OA
ENDROOT
BRANCH   1   2
ATOM      2  C   UNL A   1      34.474  32.784  28.051  1.00  0.00     0.344 C 
ATOM      3  O   UNL A   1      35.425  33.435  27.632  1.00  0.00    -0.248 OA
BRANCH   2   4
ATOM      4  C   UNL A   1      33.985  31.518  27.350  1.00  0.00     0.351 C 
BRANCH   4   5
ATOM      5  O   UNL A   1      32.593  31.296  27.218  1.00  0.00    -0.482 OA
BRANCH   5   6
ATOM      6  C   UNL A   1      32.158  30.125  26.666  1.00  0.00     0.123 A 
ATOM      7  C   UNL A   1      30.897  25.090  26.168  1.00  0.00     0.046 C 
ATOM      8  C   UNL A   1      31.091  26.218  25.189  1.00  0.00    -0.030 A 
ATOM      9  C   UNL A   1      31.024  26.086  23.846  1.00  0.00     0.044 A 
ATOM     10  C   UNL A   1      31.427  27.540  25.750  1.00  0.00     0.021 A 
ATOM     11  C   UNL A   1      31.075  27.283  22.954  1.00  0.00     0.339 A 
ATOM     12  C   UNL A   1      31.383  28.653  24.922  1.00  0.00     0.142 A 
ATOM     13  C   UNL A   1      31.849  27.744  27.069  1.00  0.00     0.016 A 
ATOM     14  O   UNL A   1      31.028  27.181  21.732  1.00  0.00    -0.246 OA
ATOM     15  O   UNL A   1      31.065  28.527  23.562  1.00  0.00    -0.422 OA
ATOM     16  C   UNL A   1      31.708  29.940  25.368  1.00  0.00     0.094 A 
ATOM     17  C   UNL A   1      32.222  29.020  27.514  1.00  0.00     0.047 A 
BRANCH   9  18
ATOM     18  C   UNL A   1      30.859  24.776  23.101  1.00  0.00     0.075 C 
BRANCH  18  19
ATOM     19  C   UNL A   1      32.197  24.084  22.769  1.00  0.00     0.116 C 
ATOM     20  C   UNL A   1      32.172  22.570  22.964  1.00  0.00     0.038 C 
BRANCH  19  21
ATOM     21  O   UNL A   1      32.527  24.344  21.402  1.00  0.00    -0.393 OA
ATOM     22  H   UNL A   1      32.718  23.507  20.950  1.00  0.00     0.210 HD
ENDBRANCH  19  21
ENDBRANCH  18  19
ENDBRANCH   9  18
ENDBRANCH   5   6
ENDBRANCH   4   5
ENDBRANCH   2   4
ENDBRANCH   1   2
BRANCH   1  23
ATOM     23  C   UNL A   1      34.099  34.327  29.818  1.00  0.00     0.274 C 
BRANCH  23  24
ATOM     24  C   UNL A   1      34.263  34.090  31.317  1.00  0.00     0.275 C 
BRANCH  24  25
ATOM     25  O   UNL A   1      34.485  32.690  31.556  1.00  0.00    -0.458 OA
BRANCH  25  26
ATOM     26  C   UNL A   1      35.436  32.400  32.470  1.00  0.00     0.338 C 
ATOM     27  O   UNL A   1      35.390  32.646  33.671  1.00  0.00    -0.246 OA
BRANCH  26  28
ATOM     28  C   UNL A   1      36.572  31.701  31.831  1.00  0.00     0.060 A 
ATOM     29  C   UNL A   1      37.464  30.919  32.575  1.00  0.00     0.016 A 
ATOM     30  C   UNL A   1      36.821  31.933  30.478  1.00  0.00     0.016 A 
ATOM     31  C   UNL A   1      38.645  30.457  31.990  1.00  0.00     0.010 A 
ATOM     32  C   UNL A   1      37.958  31.395  29.872  1.00  0.00     0.010 A 
ATOM     33  C   UNL A   1      38.898  30.678  30.627  1.00  0.00    -0.014 A 
BRANCH  33  34
ATOM     34  C   UNL A   1      40.127  30.150  29.977  1.00  0.00     0.031 A 
ATOM     35  C   UNL A   1      41.347  31.016  29.811  1.00  0.00     0.074 A 
ATOM     36  C   UNL A   1      40.135  28.893  29.492  1.00  0.00     0.049 A 
ATOM     37  N   UNL A   1      42.447  30.772  29.140  1.00  0.00    -0.248 NA
ATOM     38  C   UNL A   1      41.333  32.326  30.482  1.00  0.00     0.031 C 
ATOM     39  C   UNL A   1      39.031  27.936  29.598  1.00  0.00     0.029 A 
ATOM     40  N   UNL A   1      41.103  28.209  28.800  1.00  0.00    -0.354 N 
ATOM     41  C   UNL A   1      43.235  31.908  29.275  1.00  0.00     0.074 A 
ATOM     42  C   UNL A   1      42.491  32.843  30.092  1.00  0.00     0.031 C 
ATOM     43  C   UNL A   1      39.389  26.786  29.007  1.00  0.00     0.029 A 
ATOM     44  C   UNL A   1      40.715  26.948  28.422  1.00  0.00     0.049 A 
ATOM     45  H   UNL A   1      41.989  28.586  28.596  1.00  0.00     0.167 HD
ATOM     46  C   UNL A   1      44.464  32.154  28.759  1.00  0.00     0.031 A 
ATOM     47  C   UNL A   1      41.332  26.033  27.652  1.00  0.00     0.031 A 
ATOM     48  C   UNL A   1      45.213  31.228  27.951  1.00  0.00     0.049 A 
ATOM     49  C   UNL A   1      42.667  26.349  27.051  1.00  0.00     0.074 A 
ATOM     50  C   UNL A   1      46.477  31.385  27.407  1.00  0.00     0.029 A 
ATOM     51  N   UNL A   1      44.767  29.974  27.567  1.00  0.00    -0.354 N 
ATOM     52  N   UNL A   1      43.392  27.433  27.177  1.00  0.00    -0.248 NA
ATOM     53  C   UNL A   1      43.263  25.318  26.190  1.00  0.00     0.031 C 
ATOM     54  C   UNL A   1      46.781  30.238  26.663  1.00  0.00     0.029 A 
ATOM     55  C   UNL A   1      45.722  29.354  26.779  1.00  0.00     0.049 A 
ATOM     56  H   UNL A   1      43.900  29.582  27.820  1.00  0.00     0.167 HD
ATOM     57  C   UNL A   1      44.531  27.214  26.416  1.00  0.00     0.074 A 
ATOM     58  C   UNL A   1      44.411  25.886  25.848  1.00  0.00     0.031 C 
ATOM     59  C   UNL A   1      45.583  28.041  26.207  1.00  0.00     0.031 A 
BRANCH  46  60
ATOM     60  C   UNL A   1      45.073  33.501  29.029  1.00  0.00    -0.014 A 
ATOM     61  C   UNL A   1      44.847  34.587  28.171  1.00  0.00     0.009 A 
ATOM     62  C   UNL A   1      45.832  33.698  30.194  1.00  0.00     0.009 A 
ATOM     63  C   UNL A   1      45.388  35.841  28.465  1.00  0.00     0.001 A 
ATOM     64  C   UNL A   1      46.355  34.957  30.494  1.00  0.00     0.001 A 
ATOM     65  C   UNL A   1      46.136  36.026  29.627  1.00  0.00     0.000 A 
ENDBRANCH  46  60
BRANCH  47  66
ATOM     66  C   UNL A   1      40.658  24.741  27.373  1.00  0.00    -0.014 A 
ATOM     67  C   UNL A   1      39.526  24.695  26.547  1.00  0.00     0.009 A 
ATOM     68  C   UNL A   1      41.164  23.547  27.910  1.00  0.00     0.009 A 
ATOM     69  C   UNL A   1      38.908  23.473  26.270  1.00  0.00     0.001 A 
ATOM     70  C   UNL A   1      40.558  22.326  27.611  1.00  0.00     0.001 A 
ATOM     71  C   UNL A   1      39.429  22.291  26.796  1.00  0.00     0.000 A 
ENDBRANCH  47  66
BRANCH  59  72
ATOM     72  C   UNL A   1      46.689  27.521  25.340  1.00  0.00    -0.014 A 
ATOM     73  C   UNL A   1      47.626  26.602  25.838  1.00  0.00     0.009 A 
ATOM     74  C   UNL A   1      46.793  27.949  24.007  1.00  0.00     0.009 A 
ATOM     75  C   UNL A   1      48.666  26.146  25.025  1.00  0.00     0.001 A 
ATOM     76  C   UNL A   1      47.821  27.476  23.192  1.00  0.00     0.001 A 
ATOM     77  C   UNL A   1      48.761  26.582  23.703  1.00  0.00     0.000 A 
ENDBRANCH  59  72
ENDBRANCH  33  34
ENDBRANCH  26  28
ENDBRANCH  25  26
ENDBRANCH  24  25
ENDBRANCH  23  24
ENDBRANCH   1  23
TORSDOF 16
ENDMDL
