MODEL 1
REMARK VINA RESULT:     -10.6      0.000      0.000
REMARK SMILES COc1cc(OC)cc(-c2ccc([C@@H](C)C(=O)OCCOC(=O)c3ccc(-c4c5nc(c(-c6ccccc6)c6ccc([nH]6)c(-c6ccccc6)c6nc(c(-c7ccccc7)c7ccc4[nH]7)C=C6)C=C5)cc3)cc2F)c1
REMARK SMILES IDX 19 1 18 2 16 3 17 4 14 5 15 6 13 7 10 8 11 9 73 10 12 11
REMARK SMILES IDX 72 12 74 13 9 14 3 15 4 16 75 17 5 18 8 19 2 20 1 21 6 22
REMARK SMILES IDX 7 23 20 24 21 25 22 26 23 27 24 28 25 29 71 30 26 31 70 32
REMARK SMILES IDX 27 33 28 34 29 35 64 36 30 37 69 38 63 39 65 40 31 41 68 42
REMARK SMILES IDX 62 43 61 44 32 46 54 47 39 48 53 49 40 50 43 51 52 52 66 53
REMARK SMILES IDX 41 54 42 55 51 57 67 58 44 59 33 60 34 61 38 62 35 63 37 64
REMARK SMILES IDX 36 65 55 66 56 67 60 68 57 69 59 70 58 71 45 72 46 73 50 74
REMARK SMILES IDX 47 75 49 76 48 77
REMARK H PARENT 65 45 43 56
REMARK Flexibility Score: inf
ROOT
ATOM      1  C   UNL A   1      33.461  34.894  28.912  1.00  0.00     0.274 C 
ENDROOT
BRANCH   1   2
ATOM      2  O   UNL A   1      34.716  34.303  29.303  1.00  0.00    -0.462 OA
BRANCH   2   3
ATOM      3  C   UNL A   1      34.693  32.994  29.664  1.00  0.00     0.313 C 
ATOM      4  O   UNL A   1      34.135  32.563  30.669  1.00  0.00    -0.252 OA
BRANCH   3   5
ATOM      5  C   UNL A   1      35.477  32.088  28.722  1.00  0.00     0.126 C 
ATOM      6  C   UNL A   1      36.406  32.927  27.847  1.00  0.00     0.025 C 
BRANCH   5   7
ATOM      7  C   UNL A   1      34.648  31.097  27.918  1.00  0.00    -0.031 A 
ATOM      8  C   UNL A   1      33.031  29.254  26.471  1.00  0.00     0.018 A 
ATOM      9  C   UNL A   1      34.336  28.922  26.868  1.00  0.00     0.012 A 
ATOM     10  C   UNL A   1      32.569  30.536  26.783  1.00  0.00     0.131 A 
ATOM     11  C   UNL A   1      35.131  29.826  27.582  1.00  0.00     0.005 A 
ATOM     12  C   UNL A   1      33.353  31.441  27.501  1.00  0.00     0.044 A 
ATOM     13  F   UNL A   1      31.329  30.914  26.435  1.00  0.00    -0.206 F 
BRANCH   8  14
ATOM     14  C   UNL A   1      32.167  28.250  25.831  1.00  0.00    -0.008 A 
ATOM     15  C   UNL A   1      30.707  26.306  25.922  1.00  0.00     0.123 A 
ATOM     16  C   UNL A   1      30.588  26.338  24.531  1.00  0.00     0.092 A 
ATOM     17  C   UNL A   1      31.507  27.254  26.569  1.00  0.00     0.055 A 
ATOM     18  C   UNL A   1      31.237  27.316  23.778  1.00  0.00     0.123 A 
ATOM     19  C   UNL A   1      32.013  28.269  24.432  1.00  0.00     0.055 A 
BRANCH  15  20
ATOM     20  O   UNL A   1      30.026  25.286  26.530  1.00  0.00    -0.497 OA
ATOM     21  C   UNL A   1      30.623  23.998  26.456  1.00  0.00     0.278 C 
ENDBRANCH  15  20
BRANCH  18  22
ATOM     22  O   UNL A   1      31.036  27.240  22.427  1.00  0.00    -0.497 OA
ATOM     23  C   UNL A   1      31.679  26.168  21.746  1.00  0.00     0.278 C 
ENDBRANCH  18  22
ENDBRANCH   8  14
ENDBRANCH   5   7
ENDBRANCH   3   5
ENDBRANCH   2   3
ENDBRANCH   1   2
BRANCH   1  24
ATOM     24  C   UNL A   1      32.942  35.862  29.979  1.00  0.00     0.275 C 
BRANCH  24  25
ATOM     25  O   UNL A   1      32.568  35.165  31.181  1.00  0.00    -0.458 OA
BRANCH  25  26
ATOM     26  C   UNL A   1      32.947  35.770  32.330  1.00  0.00     0.338 C 
ATOM     27  O   UNL A   1      32.370  36.663  32.923  1.00  0.00    -0.246 OA
BRANCH  26  28
ATOM     28  C   UNL A   1      34.143  35.108  32.874  1.00  0.00     0.060 A 
ATOM     29  C   UNL A   1      35.389  35.640  32.535  1.00  0.00     0.016 A 
ATOM     30  C   UNL A   1      34.051  33.920  33.598  1.00  0.00     0.016 A 
ATOM     31  C   UNL A   1      36.554  34.964  32.877  1.00  0.00     0.010 A 
ATOM     32  C   UNL A   1      35.224  33.245  33.952  1.00  0.00     0.010 A 
ATOM     33  C   UNL A   1      36.480  33.748  33.566  1.00  0.00    -0.014 A 
BRANCH  33  34
ATOM     34  C   UNL A   1      37.719  32.967  33.784  1.00  0.00     0.031 A 
ATOM     35  C   UNL A   1      38.493  33.144  35.059  1.00  0.00     0.074 A 
ATOM     36  C   UNL A   1      38.115  32.059  32.874  1.00  0.00     0.049 A 
ATOM     37  N   UNL A   1      39.602  32.563  35.442  1.00  0.00    -0.248 NA
ATOM     38  C   UNL A   1      37.945  34.100  36.035  1.00  0.00     0.031 C 
ATOM     39  C   UNL A   1      37.423  31.758  31.622  1.00  0.00     0.029 A 
ATOM     40  N   UNL A   1      39.195  31.214  32.876  1.00  0.00    -0.354 N 
ATOM     41  C   UNL A   1      39.894  33.096  36.691  1.00  0.00     0.074 A 
ATOM     42  C   UNL A   1      38.857  34.058  36.996  1.00  0.00     0.031 C 
ATOM     43  C   UNL A   1      38.089  30.784  30.979  1.00  0.00     0.029 A 
ATOM     44  C   UNL A   1      39.270  30.419  31.758  1.00  0.00     0.049 A 
ATOM     45  H   UNL A   1      39.853  31.180  33.607  1.00  0.00     0.167 HD
ATOM     46  C   UNL A   1      40.933  32.809  37.512  1.00  0.00     0.031 A 
ATOM     47  C   UNL A   1      40.192  29.506  31.401  1.00  0.00     0.031 A 
ATOM     48  C   UNL A   1      41.962  31.851  37.217  1.00  0.00     0.049 A 
ATOM     49  C   UNL A   1      41.352  29.231  32.316  1.00  0.00     0.074 A 
ATOM     50  C   UNL A   1      43.062  31.498  37.982  1.00  0.00     0.029 A 
ATOM     51  N   UNL A   1      42.015  31.084  36.064  1.00  0.00    -0.354 N 
ATOM     52  N   UNL A   1      41.624  29.753  33.486  1.00  0.00    -0.248 NA
ATOM     53  C   UNL A   1      42.328  28.230  31.859  1.00  0.00     0.031 C 
ATOM     54  C   UNL A   1      43.796  30.539  37.276  1.00  0.00     0.029 A 
ATOM     55  C   UNL A   1      43.131  30.265  36.093  1.00  0.00     0.049 A 
ATOM     56  H   UNL A   1      41.357  31.116  35.332  1.00  0.00     0.167 HD
ATOM     57  C   UNL A   1      42.789  29.130  33.917  1.00  0.00     0.074 A 
ATOM     58  C   UNL A   1      43.162  28.180  32.888  1.00  0.00     0.031 C 
ATOM     59  C   UNL A   1      43.486  29.324  35.062  1.00  0.00     0.031 A 
BRANCH  46  60
ATOM     60  C   UNL A   1      41.017  33.576  38.800  1.00  0.00    -0.014 A 
ATOM     61  C   UNL A   1      41.695  34.803  38.876  1.00  0.00     0.009 A 
ATOM     62  C   UNL A   1      40.396  33.067  39.952  1.00  0.00     0.009 A 
ATOM     63  C   UNL A   1      41.775  35.491  40.088  1.00  0.00     0.001 A 
ATOM     64  C   UNL A   1      40.459  33.768  41.157  1.00  0.00     0.001 A 
ATOM     65  C   UNL A   1      41.154  34.974  41.227  1.00  0.00     0.000 A 
ENDBRANCH  46  60
BRANCH  47  66
ATOM     66  C   UNL A   1      40.061  28.787  30.109  1.00  0.00    -0.014 A 
ATOM     67  C   UNL A   1      40.557  29.350  28.924  1.00  0.00     0.009 A 
ATOM     68  C   UNL A   1      39.427  27.535  30.056  1.00  0.00     0.009 A 
ATOM     69  C   UNL A   1      40.399  28.684  27.706  1.00  0.00     0.001 A 
ATOM     70  C   UNL A   1      39.294  26.862  28.840  1.00  0.00     0.001 A 
ATOM     71  C   UNL A   1      39.772  27.440  27.667  1.00  0.00     0.000 A 
ENDBRANCH  47  66
BRANCH  59  72
ATOM     72  C   UNL A   1      44.699  28.468  35.276  1.00  0.00    -0.014 A 
ATOM     73  C   UNL A   1      44.613  27.238  35.946  1.00  0.00     0.009 A 
ATOM     74  C   UNL A   1      45.943  28.891  34.783  1.00  0.00     0.009 A 
ATOM     75  C   UNL A   1      45.757  26.463  36.147  1.00  0.00     0.001 A 
ATOM     76  C   UNL A   1      47.081  28.103  34.965  1.00  0.00     0.001 A 
ATOM     77  C   UNL A   1      46.989  26.896  35.655  1.00  0.00     0.000 A 
ENDBRANCH  59  72
ENDBRANCH  33  34
ENDBRANCH  26  28
ENDBRANCH  25  26
ENDBRANCH  24  25
ENDBRANCH   1  24
TORSDOF 15
ENDMDL
MODEL 2
REMARK VINA RESULT:     -10.6      4.900      9.535
REMARK SMILES COc1cc(OC)cc(-c2ccc([C@@H](C)C(=O)OCCOC(=O)c3ccc(-c4c5nc(c(-c6ccccc6)c6ccc([nH]6)c(-c6ccccc6)c6nc(c(-c7ccccc7)c7ccc4[nH]7)C=C6)C=C5)cc3)cc2F)c1
REMARK SMILES IDX 19 1 18 2 16 3 17 4 14 5 15 6 13 7 10 8 11 9 73 10 12 11
REMARK SMILES IDX 72 12 74 13 9 14 3 15 4 16 75 17 5 18 8 19 2 20 1 21 6 22
REMARK SMILES IDX 7 23 20 24 21 25 22 26 23 27 24 28 25 29 71 30 26 31 70 32
REMARK SMILES IDX 27 33 28 34 29 35 64 36 30 37 69 38 63 39 65 40 31 41 68 42
REMARK SMILES IDX 62 43 61 44 32 46 54 47 39 48 53 49 40 50 43 51 52 52 66 53
REMARK SMILES IDX 41 54 42 55 51 57 67 58 44 59 33 60 34 61 38 62 35 63 37 64
REMARK SMILES IDX 36 65 55 66 56 67 60 68 57 69 59 70 58 71 45 72 46 73 50 74
REMARK SMILES IDX 47 75 49 76 48 77
REMARK H PARENT 65 45 43 56
REMARK Flexibility Score: inf
ROOT
ATOM      1  C   UNL A   1      44.139  21.634  24.957  1.00  0.00     0.274 C 
ENDROOT
BRANCH   1   2
ATOM      2  O   UNL A   1      42.738  21.933  25.109  1.00  0.00    -0.462 OA
BRANCH   2   3
ATOM      3  C   UNL A   1      42.082  21.309  26.121  1.00  0.00     0.313 C 
ATOM      4  O   UNL A   1      42.221  20.123  26.408  1.00  0.00    -0.252 OA
BRANCH   3   5
ATOM      5  C   UNL A   1      41.099  22.210  26.858  1.00  0.00     0.126 C 
ATOM      6  C   UNL A   1      41.143  21.913  28.356  1.00  0.00     0.025 C 
BRANCH   5   7
ATOM      7  C   UNL A   1      39.681  22.231  26.304  1.00  0.00    -0.031 A 
ATOM      8  C   UNL A   1      37.060  22.236  25.193  1.00  0.00     0.018 A 
ATOM      9  C   UNL A   1      37.601  23.387  25.789  1.00  0.00     0.012 A 
ATOM     10  C   UNL A   1      37.844  21.079  25.198  1.00  0.00     0.131 A 
ATOM     11  C   UNL A   1      38.890  23.386  26.333  1.00  0.00     0.005 A 
ATOM     12  C   UNL A   1      39.134  21.072  25.732  1.00  0.00     0.044 A 
ATOM     13  F   UNL A   1      37.387  19.947  24.640  1.00  0.00    -0.206 F 
BRANCH   8  14
ATOM     14  C   UNL A   1      35.755  22.288  24.517  1.00  0.00    -0.008 A 
ATOM     15  C   UNL A   1      34.183  23.305  22.963  1.00  0.00     0.123 A 
ATOM     16  C   UNL A   1      33.225  22.354  23.320  1.00  0.00     0.092 A 
ATOM     17  C   UNL A   1      35.442  23.279  23.571  1.00  0.00     0.055 A 
ATOM     18  C   UNL A   1      33.511  21.364  24.258  1.00  0.00     0.123 A 
ATOM     19  C   UNL A   1      34.775  21.331  24.843  1.00  0.00     0.055 A 
BRANCH  15  20
ATOM     20  O   UNL A   1      33.761  24.222  22.039  1.00  0.00    -0.497 OA
ATOM     21  C   UNL A   1      32.438  24.719  22.204  1.00  0.00     0.278 C 
ENDBRANCH  15  20
BRANCH  18  22
ATOM     22  O   UNL A   1      32.490  20.492  24.517  1.00  0.00    -0.497 OA
ATOM     23  C   UNL A   1      32.795  19.105  24.416  1.00  0.00     0.278 C 
ENDBRANCH  18  22
ENDBRANCH   8  14
ENDBRANCH   5   7
ENDBRANCH   3   5
ENDBRANCH   2   3
ENDBRANCH   1   2
BRANCH   1  24
ATOM     24  C   UNL A   1      44.893  22.799  24.310  1.00  0.00     0.275 C 
BRANCH  24  25
ATOM     25  O   UNL A   1      44.129  24.017  24.374  1.00  0.00    -0.458 OA
BRANCH  25  26
ATOM     26  C   UNL A   1      44.773  25.063  24.940  1.00  0.00     0.338 C 
ATOM     27  O   UNL A   1      45.882  25.487  24.667  1.00  0.00    -0.246 OA
BRANCH  26  28
ATOM     28  C   UNL A   1      43.886  25.740  25.897  1.00  0.00     0.060 A 
ATOM     29  C   UNL A   1      44.104  27.099  26.135  1.00  0.00     0.016 A 
ATOM     30  C   UNL A   1      42.940  25.033  26.639  1.00  0.00     0.016 A 
ATOM     31  C   UNL A   1      43.412  27.753  27.148  1.00  0.00     0.010 A 
ATOM     32  C   UNL A   1      42.234  25.693  27.651  1.00  0.00     0.010 A 
ATOM     33  C   UNL A   1      42.490  27.048  27.930  1.00  0.00    -0.014 A 
BRANCH  33  34
ATOM     34  C   UNL A   1      41.880  27.719  29.101  1.00  0.00     0.031 A 
ATOM     35  C   UNL A   1      42.557  27.637  30.440  1.00  0.00     0.074 A 
ATOM     36  C   UNL A   1      40.759  28.449  28.954  1.00  0.00     0.049 A 
ATOM     37  N   UNL A   1      42.187  28.147  31.588  1.00  0.00    -0.248 NA
ATOM     38  C   UNL A   1      43.821  26.885  30.494  1.00  0.00     0.031 C 
ATOM     39  C   UNL A   1      40.037  28.648  27.699  1.00  0.00     0.029 A 
ATOM     40  N   UNL A   1      40.043  29.170  29.875  1.00  0.00    -0.354 N 
ATOM     41  C   UNL A   1      43.159  27.761  32.501  1.00  0.00     0.074 A 
ATOM     42  C   UNL A   1      44.126  26.962  31.781  1.00  0.00     0.031 C 
ATOM     43  C   UNL A   1      38.984  29.451  27.925  1.00  0.00     0.029 A 
ATOM     44  C   UNL A   1      38.941  29.795  29.345  1.00  0.00     0.049 A 
ATOM     45  H   UNL A   1      40.295  29.235  30.825  1.00  0.00     0.167 HD
ATOM     46  C   UNL A   1      43.240  28.048  33.823  1.00  0.00     0.031 A 
ATOM     47  C   UNL A   1      37.999  30.550  29.940  1.00  0.00     0.031 A 
ATOM     48  C   UNL A   1      42.285  28.846  34.542  1.00  0.00     0.049 A 
ATOM     49  C   UNL A   1      38.096  30.825  31.413  1.00  0.00     0.074 A 
ATOM     50  C   UNL A   1      42.276  29.183  35.885  1.00  0.00     0.029 A 
ATOM     51  N   UNL A   1      41.170  29.439  33.974  1.00  0.00    -0.354 N 
ATOM     52  N   UNL A   1      39.011  30.441  32.268  1.00  0.00    -0.248 NA
ATOM     53  C   UNL A   1      37.028  31.648  32.001  1.00  0.00     0.031 C 
ATOM     54  C   UNL A   1      41.137  29.957  36.135  1.00  0.00     0.029 A 
ATOM     55  C   UNL A   1      40.461  30.134  34.939  1.00  0.00     0.049 A 
ATOM     56  H   UNL A   1      40.917  29.376  33.024  1.00  0.00     0.167 HD
ATOM     57  C   UNL A   1      38.644  30.993  33.489  1.00  0.00     0.074 A 
ATOM     58  C   UNL A   1      37.430  31.750  33.259  1.00  0.00     0.031 C 
ATOM     59  C   UNL A   1      39.257  30.885  34.693  1.00  0.00     0.031 A 
BRANCH  46  60
ATOM     60  C   UNL A   1      44.395  27.458  34.580  1.00  0.00    -0.014 A 
ATOM     61  C   UNL A   1      45.581  28.181  34.780  1.00  0.00     0.009 A 
ATOM     62  C   UNL A   1      44.286  26.164  35.113  1.00  0.00     0.009 A 
ATOM     63  C   UNL A   1      46.649  27.606  35.473  1.00  0.00     0.001 A 
ATOM     64  C   UNL A   1      45.347  25.601  35.825  1.00  0.00     0.001 A 
ATOM     65  C   UNL A   1      46.529  26.319  35.997  1.00  0.00     0.000 A 
ENDBRANCH  46  60
BRANCH  47  66
ATOM     66  C   UNL A   1      36.874  31.096  29.140  1.00  0.00    -0.014 A 
ATOM     67  C   UNL A   1      36.867  32.441  28.742  1.00  0.00     0.009 A 
ATOM     68  C   UNL A   1      35.794  30.274  28.782  1.00  0.00     0.009 A 
ATOM     69  C   UNL A   1      35.789  32.958  28.020  1.00  0.00     0.001 A 
ATOM     70  C   UNL A   1      34.730  30.788  28.039  1.00  0.00     0.001 A 
ATOM     71  C   UNL A   1      34.725  32.131  27.666  1.00  0.00     0.000 A 
ENDBRANCH  47  66
BRANCH  59  72
ATOM     72  C   UNL A   1      38.645  31.632  35.840  1.00  0.00    -0.014 A 
ATOM     73  C   UNL A   1      37.978  30.959  36.875  1.00  0.00     0.009 A 
ATOM     74  C   UNL A   1      38.757  33.031  35.895  1.00  0.00     0.009 A 
ATOM     75  C   UNL A   1      37.403  31.677  37.926  1.00  0.00     0.001 A 
ATOM     76  C   UNL A   1      38.201  33.743  36.959  1.00  0.00     0.001 A 
ATOM     77  C   UNL A   1      37.517  33.067  37.968  1.00  0.00     0.000 A 
ENDBRANCH  59  72
ENDBRANCH  33  34
ENDBRANCH  26  28
ENDBRANCH  25  26
ENDBRANCH  24  25
ENDBRANCH   1  24
TORSDOF 15
ENDMDL
MODEL 3
REMARK VINA RESULT:     -10.4      7.397     12.186
REMARK SMILES COc1cc(OC)cc(-c2ccc([C@@H](C)C(=O)OCCOC(=O)c3ccc(-c4c5nc(c(-c6ccccc6)c6ccc([nH]6)c(-c6ccccc6)c6nc(c(-c7ccccc7)c7ccc4[nH]7)C=C6)C=C5)cc3)cc2F)c1
REMARK SMILES IDX 19 1 18 2 16 3 17 4 14 5 15 6 13 7 10 8 11 9 73 10 12 11
REMARK SMILES IDX 72 12 74 13 9 14 3 15 4 16 75 17 5 18 8 19 2 20 1 21 6 22
REMARK SMILES IDX 7 23 20 24 21 25 22 26 23 27 24 28 25 29 71 30 26 31 70 32
REMARK SMILES IDX 27 33 28 34 29 35 64 36 30 37 69 38 63 39 65 40 31 41 68 42
REMARK SMILES IDX 62 43 61 44 32 46 54 47 39 48 53 49 40 50 43 51 52 52 66 53
REMARK SMILES IDX 41 54 42 55 51 57 67 58 44 59 33 60 34 61 38 62 35 63 37 64
REMARK SMILES IDX 36 65 55 66 56 67 60 68 57 69 59 70 58 71 45 72 46 73 50 74
REMARK SMILES IDX 47 75 49 76 48 77
REMARK H PARENT 65 45 43 56
REMARK Flexibility Score: inf
ROOT
ATOM      1  C   UNL A   1      42.807  18.719  26.333  1.00  0.00     0.274 C 
ENDROOT
BRANCH   1   2
ATOM      2  O   UNL A   1      41.941  19.820  25.995  1.00  0.00    -0.462 OA
BRANCH   2   3
ATOM      3  C   UNL A   1      41.286  20.424  27.020  1.00  0.00     0.313 C 
ATOM      4  O   UNL A   1      40.845  19.835  28.002  1.00  0.00    -0.252 OA
BRANCH   3   5
ATOM      5  C   UNL A   1      41.096  21.923  26.822  1.00  0.00     0.126 C 
ATOM      6  C   UNL A   1      41.680  22.683  28.012  1.00  0.00     0.025 C 
BRANCH   5   7
ATOM      7  C   UNL A   1      39.682  22.368  26.477  1.00  0.00    -0.031 A 
ATOM      8  C   UNL A   1      37.053  23.180  25.749  1.00  0.00     0.018 A 
ATOM      9  C   UNL A   1      37.893  24.020  26.497  1.00  0.00     0.012 A 
ATOM     10  C   UNL A   1      37.544  21.917  25.406  1.00  0.00     0.131 A 
ATOM     11  C   UNL A   1      39.187  23.623  26.854  1.00  0.00     0.005 A 
ATOM     12  C   UNL A   1      38.836  21.517  25.751  1.00  0.00     0.044 A 
ATOM     13  F   UNL A   1      36.792  21.069  24.688  1.00  0.00    -0.206 F 
BRANCH   8  14
ATOM     14  C   UNL A   1      35.744  23.660  25.278  1.00  0.00    -0.008 A 
ATOM     15  C   UNL A   1      34.280  24.542  23.546  1.00  0.00     0.123 A 
ATOM     16  C   UNL A   1      33.240  24.619  24.475  1.00  0.00     0.092 A 
ATOM     17  C   UNL A   1      35.534  24.075  23.952  1.00  0.00     0.055 A 
ATOM     18  C   UNL A   1      33.426  24.216  25.796  1.00  0.00     0.123 A 
ATOM     19  C   UNL A   1      34.672  23.731  26.186  1.00  0.00     0.055 A 
BRANCH  15  20
ATOM     20  O   UNL A   1      33.958  24.981  22.291  1.00  0.00    -0.497 OA
ATOM     21  C   UNL A   1      32.572  25.143  22.017  1.00  0.00     0.278 C 
ENDBRANCH  15  20
BRANCH  18  22
ATOM     22  O   UNL A   1      32.328  24.337  26.604  1.00  0.00    -0.497 OA
ATOM     23  C   UNL A   1      31.523  23.174  26.764  1.00  0.00     0.278 C 
ENDBRANCH  18  22
ENDBRANCH   8  14
ENDBRANCH   5   7
ENDBRANCH   3   5
ENDBRANCH   2   3
ENDBRANCH   1   2
BRANCH   1  24
ATOM     24  C   UNL A   1      43.724  18.348  25.165  1.00  0.00     0.275 C 
BRANCH  24  25
ATOM     25  O   UNL A   1      43.901  19.458  24.265  1.00  0.00    -0.458 OA
BRANCH  25  26
ATOM     26  C   UNL A   1      45.132  20.017  24.289  1.00  0.00     0.338 C 
ATOM     27  O   UNL A   1      46.166  19.553  23.843  1.00  0.00    -0.246 OA
BRANCH  26  28
ATOM     28  C   UNL A   1      45.054  21.378  24.840  1.00  0.00     0.060 A 
ATOM     29  C   UNL A   1      44.895  22.434  23.940  1.00  0.00     0.016 A 
ATOM     30  C   UNL A   1      45.258  21.627  26.197  1.00  0.00     0.016 A 
ATOM     31  C   UNL A   1      44.984  23.749  24.381  1.00  0.00     0.010 A 
ATOM     32  C   UNL A   1      45.336  22.951  26.644  1.00  0.00     0.010 A 
ATOM     33  C   UNL A   1      45.231  24.017  25.733  1.00  0.00    -0.014 A 
BRANCH  33  34
ATOM     34  C   UNL A   1      45.477  25.415  26.156  1.00  0.00     0.031 A 
ATOM     35  C   UNL A   1      44.342  26.236  26.700  1.00  0.00     0.074 A 
ATOM     36  C   UNL A   1      46.721  25.925  26.113  1.00  0.00     0.049 A 
ATOM     37  N   UNL A   1      44.345  27.477  27.119  1.00  0.00    -0.248 NA
ATOM     38  C   UNL A   1      43.032  25.573  26.787  1.00  0.00     0.031 C 
ATOM     39  C   UNL A   1      47.913  25.214  25.655  1.00  0.00     0.029 A 
ATOM     40  N   UNL A   1      47.185  27.164  26.476  1.00  0.00    -0.354 N 
ATOM     41  C   UNL A   1      43.037  27.748  27.499  1.00  0.00     0.074 A 
ATOM     42  C   UNL A   1      42.264  26.551  27.246  1.00  0.00     0.031 C 
ATOM     43  C   UNL A   1      48.977  26.024  25.776  1.00  0.00     0.029 A 
ATOM     44  C   UNL A   1      48.536  27.320  26.287  1.00  0.00     0.049 A 
ATOM     45  H   UNL A   1      46.605  27.874  26.836  1.00  0.00     0.167 HD
ATOM     46  C   UNL A   1      42.525  28.891  28.014  1.00  0.00     0.031 A 
ATOM     47  C   UNL A   1      49.325  28.390  26.495  1.00  0.00     0.031 A 
ATOM     48  C   UNL A   1      43.288  30.081  28.272  1.00  0.00     0.049 A 
ATOM     49  C   UNL A   1      48.725  29.656  27.037  1.00  0.00     0.074 A 
ATOM     50  C   UNL A   1      42.856  31.293  28.783  1.00  0.00     0.029 A 
ATOM     51  N   UNL A   1      44.650  30.206  28.045  1.00  0.00    -0.354 N 
ATOM     52  N   UNL A   1      47.484  29.904  27.377  1.00  0.00    -0.248 NA
ATOM     53  C   UNL A   1      49.642  30.790  27.230  1.00  0.00     0.031 C 
ATOM     54  C   UNL A   1      43.952  32.162  28.836  1.00  0.00     0.029 A 
ATOM     55  C   UNL A   1      45.073  31.476  28.397  1.00  0.00     0.049 A 
ATOM     56  H   UNL A   1      45.231  29.497  27.685  1.00  0.00     0.167 HD
ATOM     57  C   UNL A   1      47.474  31.212  27.846  1.00  0.00     0.074 A 
ATOM     58  C   UNL A   1      48.836  31.699  27.759  1.00  0.00     0.031 C 
ATOM     59  C   UNL A   1      46.432  31.943  28.308  1.00  0.00     0.031 A 
BRANCH  46  60
ATOM     60  C   UNL A   1      41.051  28.911  28.300  1.00  0.00    -0.014 A 
ATOM     61  C   UNL A   1      40.547  28.560  29.562  1.00  0.00     0.009 A 
ATOM     62  C   UNL A   1      40.154  29.302  27.292  1.00  0.00     0.009 A 
ATOM     63  C   UNL A   1      39.172  28.570  29.800  1.00  0.00     0.001 A 
ATOM     64  C   UNL A   1      38.781  29.332  27.541  1.00  0.00     0.001 A 
ATOM     65  C   UNL A   1      38.291  28.959  28.791  1.00  0.00     0.000 A 
ENDBRANCH  46  60
BRANCH  47  66
ATOM     66  C   UNL A   1      50.774  28.313  26.183  1.00  0.00    -0.014 A 
ATOM     67  C   UNL A   1      51.245  28.604  24.894  1.00  0.00     0.009 A 
ATOM     68  C   UNL A   1      51.694  27.937  27.175  1.00  0.00     0.009 A 
ATOM     69  C   UNL A   1      52.605  28.496  24.598  1.00  0.00     0.001 A 
ATOM     70  C   UNL A   1      53.056  27.854  26.882  1.00  0.00     0.001 A 
ATOM     71  C   UNL A   1      53.509  28.125  25.592  1.00  0.00     0.000 A 
ENDBRANCH  47  66
BRANCH  59  72
ATOM     72  C   UNL A   1      46.733  33.332  28.789  1.00  0.00    -0.014 A 
ATOM     73  C   UNL A   1      46.603  34.441  27.940  1.00  0.00     0.009 A 
ATOM     74  C   UNL A   1      47.133  33.533  30.119  1.00  0.00     0.009 A 
ATOM     75  C   UNL A   1      46.903  35.723  28.405  1.00  0.00     0.001 A 
ATOM     76  C   UNL A   1      47.410  34.819  30.588  1.00  0.00     0.001 A 
ATOM     77  C   UNL A   1      47.304  35.911  29.728  1.00  0.00     0.000 A 
ENDBRANCH  59  72
ENDBRANCH  33  34
ENDBRANCH  26  28
ENDBRANCH  25  26
ENDBRANCH  24  25
ENDBRANCH   1  24
TORSDOF 15
ENDMDL
