MODEL 1
REMARK VINA RESULT:     -10.3      0.000      0.000
REMARK SMILES CO[C@@H]1C[C@@H](C(=O)OCCOC(=O)c2ccc(-c3c4nc(c(-c5ccccc5)c5ccc([nH]5)c(-c5ccccc5)c5nc(c(-c6ccccc6)c6ccc3[nH]6)C=C5)C=C4)cc2)N(S(=O)(=O)/C=C/c2ccccc2)C1
REMARK SMILES IDX 9 1 8 2 6 3 7 4 5 5 3 6 4 7 74 8 62 9 2 10 1 11 63 12 64 13
REMARK SMILES IDX 65 14 66 15 67 16 68 17 69 18 73 19 70 20 72 21 71 22 10 23
REMARK SMILES IDX 11 24 12 25 13 26 14 27 15 28 61 29 16 30 60 31 17 32 18 33
REMARK SMILES IDX 19 34 54 35 20 36 59 37 53 38 55 39 21 40 58 41 52 42 51 43
REMARK SMILES IDX 22 45 44 46 29 47 43 48 30 49 33 50 42 51 56 52 31 53 32 54
REMARK SMILES IDX 41 56 57 57 34 58 23 59 24 60 28 61 25 62 27 63 26 64 45 65
REMARK SMILES IDX 46 66 50 67 47 68 49 69 48 70 35 71 36 72 40 73 37 74 39 75
REMARK SMILES IDX 38 76
REMARK H PARENT 55 44 33 55
REMARK Flexibility Score: inf
ROOT
ATOM      1  C   UNL A   1      33.653  28.408  25.471  1.00  0.00     0.274 C 
ENDROOT
BRANCH   1   2
ATOM      2  O   UNL A   1      33.357  27.177  26.157  1.00  0.00    -0.461 OA
BRANCH   2   3
ATOM      3  C   UNL A   1      32.423  26.387  25.583  1.00  0.00     0.324 C 
ATOM      4  O   UNL A   1      31.819  25.507  26.196  1.00  0.00    -0.250 OA
BRANCH   3   5
ATOM      5  C   UNL A   1      32.035  26.775  24.185  1.00  0.00     0.185 C 
ATOM      6  C   UNL A   1      30.314  27.488  22.737  1.00  0.00     0.135 C 
ATOM      7  C   UNL A   1      30.507  26.887  24.114  1.00  0.00     0.065 C 
ATOM      8  C   UNL A   1      31.293  26.645  21.902  1.00  0.00     0.135 C 
ATOM      9  N   UNL A   1      32.414  26.243  22.841  1.00  0.00    -0.181 NA
BRANCH   6  10
ATOM     10  O   UNL A   1      30.702  28.869  22.669  1.00  0.00    -0.380 OA
ATOM     11  C   UNL A   1      29.793  29.767  23.295  1.00  0.00     0.195 C 
ENDBRANCH   6  10
BRANCH   9  12
ATOM     12  S   UNL A   1      32.920  24.638  22.648  1.00  0.00     0.237 S 
ATOM     13  O   UNL A   1      31.831  23.829  23.161  1.00  0.00    -0.207 OA
ATOM     14  O   UNL A   1      33.294  24.506  21.251  1.00  0.00    -0.207 OA
BRANCH  12  15
ATOM     15  C   UNL A   1      34.334  24.319  23.588  1.00  0.00     0.123 C 
ATOM     16  C   UNL A   1      34.926  23.112  23.604  1.00  0.00     0.021 C 
BRANCH  16  17
ATOM     17  C   UNL A   1      36.174  22.910  24.357  1.00  0.00    -0.025 A 
ATOM     18  C   UNL A   1      36.627  23.905  25.236  1.00  0.00     0.008 A 
ATOM     19  C   UNL A   1      36.891  21.711  24.272  1.00  0.00     0.008 A 
ATOM     20  C   UNL A   1      37.719  23.671  26.076  1.00  0.00     0.001 A 
ATOM     21  C   UNL A   1      37.998  21.486  25.095  1.00  0.00     0.001 A 
ATOM     22  C   UNL A   1      38.400  22.457  26.011  1.00  0.00     0.000 A 
ENDBRANCH  16  17
ENDBRANCH  12  15
ENDBRANCH   9  12
ENDBRANCH   3   5
ENDBRANCH   2   3
ENDBRANCH   1   2
BRANCH   1  23
ATOM     23  C   UNL A   1      33.388  29.613  26.384  1.00  0.00     0.275 C 
BRANCH  23  24
ATOM     24  O   UNL A   1      33.905  29.479  27.729  1.00  0.00    -0.458 OA
BRANCH  24  25
ATOM     25  C   UNL A   1      34.663  30.512  28.158  1.00  0.00     0.338 C 
ATOM     26  O   UNL A   1      34.314  31.666  28.311  1.00  0.00    -0.246 OA
BRANCH  25  27
ATOM     27  C   UNL A   1      36.042  30.144  28.471  1.00  0.00     0.060 A 
ATOM     28  C   UNL A   1      36.971  30.179  27.425  1.00  0.00     0.016 A 
ATOM     29  C   UNL A   1      36.373  29.584  29.705  1.00  0.00     0.016 A 
ATOM     30  C   UNL A   1      38.249  29.676  27.616  1.00  0.00     0.010 A 
ATOM     31  C   UNL A   1      37.663  29.085  29.900  1.00  0.00     0.010 A 
ATOM     32  C   UNL A   1      38.606  29.141  28.860  1.00  0.00    -0.014 A 
BRANCH  32  33
ATOM     33  C   UNL A   1      40.013  28.762  29.093  1.00  0.00     0.031 A 
ATOM     34  C   UNL A   1      40.981  29.700  29.739  1.00  0.00     0.074 A 
ATOM     35  C   UNL A   1      40.388  27.525  28.721  1.00  0.00     0.049 A 
ATOM     36  N   UNL A   1      42.248  29.510  30.005  1.00  0.00    -0.248 NA
ATOM     37  C   UNL A   1      40.468  31.019  30.135  1.00  0.00     0.031 C 
ATOM     38  C   UNL A   1      39.505  26.530  28.104  1.00  0.00     0.029 A 
ATOM     39  N   UNL A   1      41.597  26.893  28.811  1.00  0.00    -0.354 N 
ATOM     40  C   UNL A   1      42.692  30.687  30.591  1.00  0.00     0.074 A 
ATOM     41  C   UNL A   1      41.559  31.591  30.630  1.00  0.00     0.031 C 
ATOM     42  C   UNL A   1      40.202  25.405  27.887  1.00  0.00     0.029 A 
ATOM     43  C   UNL A   1      41.581  25.616  28.310  1.00  0.00     0.049 A 
ATOM     44  H   UNL A   1      42.400  27.313  29.197  1.00  0.00     0.167 HD
ATOM     45  C   UNL A   1      43.932  30.981  31.047  1.00  0.00     0.031 A 
ATOM     46  C   UNL A   1      42.572  24.717  28.192  1.00  0.00     0.031 A 
ATOM     47  C   UNL A   1      45.051  30.075  30.990  1.00  0.00     0.049 A 
ATOM     48  C   UNL A   1      43.941  25.081  28.680  1.00  0.00     0.074 A 
ATOM     49  C   UNL A   1      46.348  30.275  31.432  1.00  0.00     0.029 A 
ATOM     50  N   UNL A   1      45.006  28.797  30.454  1.00  0.00    -0.354 N 
ATOM     51  N   UNL A   1      44.345  26.194  29.240  1.00  0.00    -0.248 NA
ATOM     52  C   UNL A   1      44.987  24.064  28.523  1.00  0.00     0.031 C 
ATOM     53  C   UNL A   1      47.096  29.131  31.129  1.00  0.00     0.029 A 
ATOM     54  C   UNL A   1      46.255  28.203  30.537  1.00  0.00     0.049 A 
ATOM     55  H   UNL A   1      44.204  28.373  30.072  1.00  0.00     0.167 HD
ATOM     56  C   UNL A   1      45.690  26.011  29.517  1.00  0.00     0.074 A 
ATOM     57  C   UNL A   1      46.028  24.670  29.078  1.00  0.00     0.031 C 
ATOM     58  C   UNL A   1      46.569  26.874  30.082  1.00  0.00     0.031 A 
BRANCH  45  59
ATOM     59  C   UNL A   1      44.154  32.352  31.616  1.00  0.00    -0.014 A 
ATOM     60  C   UNL A   1      44.528  33.429  30.797  1.00  0.00     0.009 A 
ATOM     61  C   UNL A   1      43.942  32.582  32.985  1.00  0.00     0.009 A 
ATOM     62  C   UNL A   1      44.711  34.702  31.344  1.00  0.00     0.001 A 
ATOM     63  C   UNL A   1      44.105  33.858  33.524  1.00  0.00     0.001 A 
ATOM     64  C   UNL A   1      44.495  34.917  32.705  1.00  0.00     0.000 A 
ENDBRANCH  45  59
BRANCH  46  65
ATOM     65  C   UNL A   1      42.291  23.397  27.581  1.00  0.00    -0.014 A 
ATOM     66  C   UNL A   1      41.729  22.364  28.344  1.00  0.00     0.009 A 
ATOM     67  C   UNL A   1      42.540  23.180  26.217  1.00  0.00     0.009 A 
ATOM     68  C   UNL A   1      41.436  21.133  27.755  1.00  0.00     0.001 A 
ATOM     69  C   UNL A   1      42.222  21.957  25.625  1.00  0.00     0.001 A 
ATOM     70  C   UNL A   1      41.676  20.932  26.396  1.00  0.00     0.000 A 
ENDBRANCH  46  65
BRANCH  58  71
ATOM     71  C   UNL A   1      47.971  26.376  30.266  1.00  0.00    -0.014 A 
ATOM     72  C   UNL A   1      48.369  25.758  31.461  1.00  0.00     0.009 A 
ATOM     73  C   UNL A   1      48.903  26.518  29.225  1.00  0.00     0.009 A 
ATOM     74  C   UNL A   1      49.685  25.323  31.624  1.00  0.00     0.001 A 
ATOM     75  C   UNL A   1      50.211  26.061  29.384  1.00  0.00     0.001 A 
ATOM     76  C   UNL A   1      50.603  25.473  30.585  1.00  0.00     0.000 A 
ENDBRANCH  58  71
ENDBRANCH  32  33
ENDBRANCH  25  27
ENDBRANCH  24  25
ENDBRANCH  23  24
ENDBRANCH   1  23
TORSDOF 15
ENDMDL
MODEL 2
REMARK VINA RESULT:     -10.2      2.572      7.877
REMARK SMILES CO[C@@H]1C[C@@H](C(=O)OCCOC(=O)c2ccc(-c3c4nc(c(-c5ccccc5)c5ccc([nH]5)c(-c5ccccc5)c5nc(c(-c6ccccc6)c6ccc3[nH]6)C=C5)C=C4)cc2)N(S(=O)(=O)/C=C/c2ccccc2)C1
REMARK SMILES IDX 9 1 8 2 6 3 7 4 5 5 3 6 4 7 74 8 62 9 2 10 1 11 63 12 64 13
REMARK SMILES IDX 65 14 66 15 67 16 68 17 69 18 73 19 70 20 72 21 71 22 10 23
REMARK SMILES IDX 11 24 12 25 13 26 14 27 15 28 61 29 16 30 60 31 17 32 18 33
REMARK SMILES IDX 19 34 54 35 20 36 59 37 53 38 55 39 21 40 58 41 52 42 51 43
REMARK SMILES IDX 22 45 44 46 29 47 43 48 30 49 33 50 42 51 56 52 31 53 32 54
REMARK SMILES IDX 41 56 57 57 34 58 23 59 24 60 28 61 25 62 27 63 26 64 45 65
REMARK SMILES IDX 46 66 50 67 47 68 49 69 48 70 35 71 36 72 40 73 37 74 39 75
REMARK SMILES IDX 38 76
REMARK H PARENT 55 44 33 55
REMARK Flexibility Score: inf
ROOT
ATOM      1  C   UNL A   1      36.651  23.202  23.710  1.00  0.00     0.274 C 
ENDROOT
BRANCH   1   2
ATOM      2  O   UNL A   1      35.686  24.081  24.319  1.00  0.00    -0.461 OA
BRANCH   2   3
ATOM      3  C   UNL A   1      34.415  23.964  23.878  1.00  0.00     0.324 C 
ATOM      4  O   UNL A   1      33.993  24.550  22.880  1.00  0.00    -0.250 OA
BRANCH   3   5
ATOM      5  C   UNL A   1      33.591  22.923  24.581  1.00  0.00     0.185 C 
ATOM      6  C   UNL A   1      32.498  20.838  24.437  1.00  0.00     0.135 C 
ATOM      7  C   UNL A   1      33.102  21.904  23.546  1.00  0.00     0.065 C 
ATOM      8  C   UNL A   1      31.710  21.697  25.441  1.00  0.00     0.135 C 
ATOM      9  N   UNL A   1      32.461  23.010  25.554  1.00  0.00    -0.181 NA
BRANCH   6  10
ATOM     10  O   UNL A   1      33.486  20.071  25.143  1.00  0.00    -0.380 OA
ATOM     11  C   UNL A   1      33.504  18.687  24.812  1.00  0.00     0.195 C 
ENDBRANCH   6  10
BRANCH   9  12
ATOM     12  S   UNL A   1      31.451  24.368  25.601  1.00  0.00     0.237 S 
ATOM     13  O   UNL A   1      30.935  24.508  24.252  1.00  0.00    -0.207 OA
ATOM     14  O   UNL A   1      30.516  24.131  26.687  1.00  0.00    -0.207 OA
BRANCH  12  15
ATOM     15  C   UNL A   1      32.346  25.791  25.999  1.00  0.00     0.123 C 
ATOM     16  C   UNL A   1      31.745  26.960  26.281  1.00  0.00     0.021 C 
BRANCH  16  17
ATOM     17  C   UNL A   1      32.546  28.124  26.693  1.00  0.00    -0.025 A 
ATOM     18  C   UNL A   1      33.946  28.045  26.682  1.00  0.00     0.008 A 
ATOM     19  C   UNL A   1      31.944  29.341  27.031  1.00  0.00     0.008 A 
ATOM     20  C   UNL A   1      34.726  29.181  26.916  1.00  0.00     0.001 A 
ATOM     21  C   UNL A   1      32.725  30.472  27.288  1.00  0.00     0.001 A 
ATOM     22  C   UNL A   1      34.114  30.397  27.212  1.00  0.00     0.000 A 
ENDBRANCH  16  17
ENDBRANCH  12  15
ENDBRANCH   9  12
ENDBRANCH   3   5
ENDBRANCH   2   3
ENDBRANCH   1   2
BRANCH   1  23
ATOM     23  C   UNL A   1      37.278  22.277  24.763  1.00  0.00     0.275 C 
BRANCH  23  24
ATOM     24  O   UNL A   1      37.681  22.936  25.986  1.00  0.00    -0.458 OA
BRANCH  24  25
ATOM     25  C   UNL A   1      39.010  22.938  26.226  1.00  0.00     0.338 C 
ATOM     26  O   UNL A   1      39.803  22.049  25.979  1.00  0.00    -0.246 OA
BRANCH  25  27
ATOM     27  C   UNL A   1      39.502  24.171  26.836  1.00  0.00     0.060 A 
ATOM     28  C   UNL A   1      39.088  24.452  28.143  1.00  0.00     0.016 A 
ATOM     29  C   UNL A   1      40.181  25.126  26.080  1.00  0.00     0.016 A 
ATOM     30  C   UNL A   1      39.374  25.684  28.712  1.00  0.00     0.010 A 
ATOM     31  C   UNL A   1      40.479  26.363  26.655  1.00  0.00     0.010 A 
ATOM     32  C   UNL A   1      40.085  26.639  27.975  1.00  0.00    -0.014 A 
BRANCH  32  33
ATOM     33  C   UNL A   1      40.521  27.876  28.652  1.00  0.00     0.031 A 
ATOM     34  C   UNL A   1      41.916  28.041  29.162  1.00  0.00     0.074 A 
ATOM     35  C   UNL A   1      39.616  28.865  28.772  1.00  0.00     0.049 A 
ATOM     36  N   UNL A   1      42.443  29.067  29.780  1.00  0.00    -0.248 NA
ATOM     37  C   UNL A   1      42.838  26.914  28.959  1.00  0.00     0.031 C 
ATOM     38  C   UNL A   1      38.236  28.804  28.282  1.00  0.00     0.029 A 
ATOM     39  N   UNL A   1      39.721  30.108  29.331  1.00  0.00    -0.354 N 
ATOM     40  C   UNL A   1      43.757  28.710  30.050  1.00  0.00     0.074 A 
ATOM     41  C   UNL A   1      43.943  27.367  29.539  1.00  0.00     0.031 C 
ATOM     42  C   UNL A   1      37.627  29.968  28.550  1.00  0.00     0.029 A 
ATOM     43  C   UNL A   1      38.559  30.834  29.262  1.00  0.00     0.049 A 
ATOM     44  H   UNL A   1      40.548  30.448  29.744  1.00  0.00     0.167 HD
ATOM     45  C   UNL A   1      44.713  29.441  30.673  1.00  0.00     0.031 A 
ATOM     46  C   UNL A   1      38.271  32.059  29.731  1.00  0.00     0.031 A 
ATOM     47  C   UNL A   1      44.509  30.772  31.186  1.00  0.00     0.049 A 
ATOM     48  C   UNL A   1      39.340  32.831  30.441  1.00  0.00     0.074 A 
ATOM     49  C   UNL A   1      45.416  31.599  31.826  1.00  0.00     0.029 A 
ATOM     50  N   UNL A   1      43.312  31.469  31.119  1.00  0.00    -0.354 N 
ATOM     51  N   UNL A   1      40.581  32.486  30.682  1.00  0.00    -0.248 NA
ATOM     52  C   UNL A   1      38.971  34.162  30.937  1.00  0.00     0.031 C 
ATOM     53  C   UNL A   1      44.756  32.782  32.180  1.00  0.00     0.029 A 
ATOM     54  C   UNL A   1      43.451  32.708  31.723  1.00  0.00     0.049 A 
ATOM     55  H   UNL A   1      42.485  31.133  30.703  1.00  0.00     0.167 HD
ATOM     56  C   UNL A   1      41.149  33.561  31.347  1.00  0.00     0.074 A 
ATOM     57  C   UNL A   1      40.119  34.577  31.455  1.00  0.00     0.031 C 
ATOM     58  C   UNL A   1      42.408  33.696  31.829  1.00  0.00     0.031 A 
BRANCH  45  59
ATOM     59  C   UNL A   1      46.057  28.802  30.865  1.00  0.00    -0.014 A 
ATOM     60  C   UNL A   1      46.342  28.034  32.006  1.00  0.00     0.009 A 
ATOM     61  C   UNL A   1      47.039  28.931  29.870  1.00  0.00     0.009 A 
ATOM     62  C   UNL A   1      47.594  27.431  32.155  1.00  0.00     0.001 A 
ATOM     63  C   UNL A   1      48.281  28.311  30.014  1.00  0.00     0.001 A 
ATOM     64  C   UNL A   1      48.560  27.566  31.159  1.00  0.00     0.000 A 
ENDBRANCH  45  59
BRANCH  46  65
ATOM     65  C   UNL A   1      36.909  32.611  29.543  1.00  0.00    -0.014 A 
ATOM     66  C   UNL A   1      36.568  33.275  28.356  1.00  0.00     0.009 A 
ATOM     67  C   UNL A   1      35.929  32.434  30.533  1.00  0.00     0.009 A 
ATOM     68  C   UNL A   1      35.273  33.763  28.171  1.00  0.00     0.001 A 
ATOM     69  C   UNL A   1      34.630  32.902  30.334  1.00  0.00     0.001 A 
ATOM     70  C   UNL A   1      34.304  33.572  29.156  1.00  0.00     0.000 A 
ENDBRANCH  46  65
BRANCH  58  71
ATOM     71  C   UNL A   1      42.733  34.998  32.498  1.00  0.00    -0.014 A 
ATOM     72  C   UNL A   1      42.366  35.237  33.831  1.00  0.00     0.009 A 
ATOM     73  C   UNL A   1      43.424  35.993  31.788  1.00  0.00     0.009 A 
ATOM     74  C   UNL A   1      42.655  36.464  34.431  1.00  0.00     0.001 A 
ATOM     75  C   UNL A   1      43.730  37.209  32.398  1.00  0.00     0.001 A 
ATOM     76  C   UNL A   1      43.337  37.447  33.714  1.00  0.00     0.000 A 
ENDBRANCH  58  71
ENDBRANCH  32  33
ENDBRANCH  25  27
ENDBRANCH  24  25
ENDBRANCH  23  24
ENDBRANCH   1  23
TORSDOF 15
ENDMDL
MODEL 3
REMARK VINA RESULT:     -10.2      2.654      7.610
REMARK SMILES CO[C@@H]1C[C@@H](C(=O)OCCOC(=O)c2ccc(-c3c4nc(c(-c5ccccc5)c5ccc([nH]5)c(-c5ccccc5)c5nc(c(-c6ccccc6)c6ccc3[nH]6)C=C5)C=C4)cc2)N(S(=O)(=O)/C=C/c2ccccc2)C1
REMARK SMILES IDX 9 1 8 2 6 3 7 4 5 5 3 6 4 7 74 8 62 9 2 10 1 11 63 12 64 13
REMARK SMILES IDX 65 14 66 15 67 16 68 17 69 18 73 19 70 20 72 21 71 22 10 23
REMARK SMILES IDX 11 24 12 25 13 26 14 27 15 28 61 29 16 30 60 31 17 32 18 33
REMARK SMILES IDX 19 34 54 35 20 36 59 37 53 38 55 39 21 40 58 41 52 42 51 43
REMARK SMILES IDX 22 45 44 46 29 47 43 48 30 49 33 50 42 51 56 52 31 53 32 54
REMARK SMILES IDX 41 56 57 57 34 58 23 59 24 60 28 61 25 62 27 63 26 64 45 65
REMARK SMILES IDX 46 66 50 67 47 68 49 69 48 70 35 71 36 72 40 73 37 74 39 75
REMARK SMILES IDX 38 76
REMARK H PARENT 55 44 33 55
REMARK Flexibility Score: inf
ROOT
ATOM      1  C   UNL A   1      36.451  23.197  23.710  1.00  0.00     0.274 C 
ENDROOT
BRANCH   1   2
ATOM      2  O   UNL A   1      35.600  24.058  24.490  1.00  0.00    -0.461 OA
BRANCH   2   3
ATOM      3  C   UNL A   1      34.283  24.017  24.194  1.00  0.00     0.324 C 
ATOM      4  O   UNL A   1      33.740  24.818  23.434  1.00  0.00    -0.250 OA
BRANCH   3   5
ATOM      5  C   UNL A   1      33.551  22.811  24.713  1.00  0.00     0.185 C 
ATOM      6  C   UNL A   1      32.560  20.732  24.206  1.00  0.00     0.135 C 
ATOM      7  C   UNL A   1      33.061  21.985  23.518  1.00  0.00     0.065 C 
ATOM      8  C   UNL A   1      31.784  21.330  25.392  1.00  0.00     0.135 C 
ATOM      9  N   UNL A   1      32.471  22.639  25.730  1.00  0.00    -0.181 NA
BRANCH   6  10
ATOM     10  O   UNL A   1      33.622  19.903  24.705  1.00  0.00    -0.380 OA
ATOM     11  C   UNL A   1      33.286  18.526  24.827  1.00  0.00     0.195 C 
ENDBRANCH   6  10
BRANCH   9  12
ATOM     12  S   UNL A   1      31.397  23.899  26.086  1.00  0.00     0.237 S 
ATOM     13  O   UNL A   1      30.668  24.139  24.855  1.00  0.00    -0.207 OA
ATOM     14  O   UNL A   1      30.662  23.473  27.264  1.00  0.00    -0.207 OA
BRANCH  12  15
ATOM     15  C   UNL A   1      32.252  25.339  26.510  1.00  0.00     0.123 C 
ATOM     16  C   UNL A   1      31.863  26.554  26.086  1.00  0.00     0.021 C 
BRANCH  16  17
ATOM     17  C   UNL A   1      32.576  27.759  26.540  1.00  0.00    -0.025 A 
ATOM     18  C   UNL A   1      33.977  27.796  26.499  1.00  0.00     0.008 A 
ATOM     19  C   UNL A   1      31.884  28.906  26.946  1.00  0.00     0.008 A 
ATOM     20  C   UNL A   1      34.667  28.980  26.774  1.00  0.00     0.001 A 
ATOM     21  C   UNL A   1      32.576  30.084  27.244  1.00  0.00     0.001 A 
ATOM     22  C   UNL A   1      33.965  30.127  27.138  1.00  0.00     0.000 A 
ENDBRANCH  16  17
ENDBRANCH  12  15
ENDBRANCH   9  12
ENDBRANCH   3   5
ENDBRANCH   2   3
ENDBRANCH   1   2
BRANCH   1  23
ATOM     23  C   UNL A   1      37.262  22.267  24.623  1.00  0.00     0.275 C 
BRANCH  23  24
ATOM     24  O   UNL A   1      37.514  22.789  25.950  1.00  0.00    -0.458 OA
BRANCH  24  25
ATOM     25  C   UNL A   1      38.818  22.922  26.276  1.00  0.00     0.338 C 
ATOM     26  O   UNL A   1      39.700  22.099  26.127  1.00  0.00    -0.246 OA
BRANCH  25  27
ATOM     27  C   UNL A   1      39.154  24.221  26.854  1.00  0.00     0.060 A 
ATOM     28  C   UNL A   1      39.916  25.096  26.071  1.00  0.00     0.016 A 
ATOM     29  C   UNL A   1      38.907  24.494  28.199  1.00  0.00     0.016 A 
ATOM     30  C   UNL A   1      40.415  26.266  26.624  1.00  0.00     0.010 A 
ATOM     31  C   UNL A   1      39.400  25.677  28.754  1.00  0.00     0.010 A 
ATOM     32  C   UNL A   1      40.146  26.569  27.964  1.00  0.00    -0.014 A 
BRANCH  32  33
ATOM     33  C   UNL A   1      40.544  27.891  28.487  1.00  0.00     0.031 A 
ATOM     34  C   UNL A   1      39.548  28.986  28.690  1.00  0.00     0.074 A 
ATOM     35  C   UNL A   1      41.841  28.065  28.797  1.00  0.00     0.049 A 
ATOM     36  N   UNL A   1      39.749  30.200  29.136  1.00  0.00    -0.248 NA
ATOM     37  C   UNL A   1      38.150  28.689  28.347  1.00  0.00     0.031 C 
ATOM     38  C   UNL A   1      42.883  27.043  28.656  1.00  0.00     0.029 A 
ATOM     39  N   UNL A   1      42.501  29.152  29.299  1.00  0.00    -0.354 N 
ATOM     40  C   UNL A   1      38.507  30.819  29.120  1.00  0.00     0.074 A 
ATOM     41  C   UNL A   1      37.560  29.850  28.608  1.00  0.00     0.031 C 
ATOM     42  C   UNL A   1      44.050  27.550  29.078  1.00  0.00     0.029 A 
ATOM     43  C   UNL A   1      43.844  28.937  29.479  1.00  0.00     0.049 A 
ATOM     44  H   UNL A   1      42.057  30.006  29.511  1.00  0.00     0.167 HD
ATOM     45  C   UNL A   1      38.196  32.082  29.496  1.00  0.00     0.031 A 
ATOM     46  C   UNL A   1      44.807  29.770  29.907  1.00  0.00     0.031 A 
ATOM     47  C   UNL A   1      39.151  33.039  29.994  1.00  0.00     0.049 A 
ATOM     48  C   UNL A   1      44.436  31.169  30.288  1.00  0.00     0.074 A 
ATOM     49  C   UNL A   1      38.935  34.342  30.408  1.00  0.00     0.029 A 
ATOM     50  N   UNL A   1      40.509  32.794  30.141  1.00  0.00    -0.354 N 
ATOM     51  N   UNL A   1      43.257  31.739  30.278  1.00  0.00    -0.248 NA
ATOM     52  C   UNL A   1      45.528  32.038  30.745  1.00  0.00     0.031 C 
ATOM     53  C   UNL A   1      40.167  34.898  30.769  1.00  0.00     0.029 A 
ATOM     54  C   UNL A   1      41.145  33.928  30.621  1.00  0.00     0.049 A 
ATOM     55  H   UNL A   1      40.955  31.941  29.934  1.00  0.00     0.167 HD
ATOM     56  C   UNL A   1      43.457  33.031  30.738  1.00  0.00     0.074 A 
ATOM     57  C   UNL A   1      44.872  33.153  31.036  1.00  0.00     0.031 C 
ATOM     58  C   UNL A   1      42.554  34.028  30.898  1.00  0.00     0.031 A 
BRANCH  45  59
ATOM     59  C   UNL A   1      36.765  32.515  29.350  1.00  0.00    -0.014 A 
ATOM     60  C   UNL A   1      35.854  32.388  30.410  1.00  0.00     0.009 A 
ATOM     61  C   UNL A   1      36.334  33.101  28.149  1.00  0.00     0.009 A 
ATOM     62  C   UNL A   1      34.532  32.815  30.259  1.00  0.00     0.001 A 
ATOM     63  C   UNL A   1      35.018  33.545  28.009  1.00  0.00     0.001 A 
ATOM     64  C   UNL A   1      34.117  33.397  29.062  1.00  0.00     0.000 A 
ENDBRANCH  45  59
BRANCH  46  65
ATOM     65  C   UNL A   1      46.206  29.287  29.986  1.00  0.00    -0.014 A 
ATOM     66  C   UNL A   1      46.683  28.673  31.152  1.00  0.00     0.009 A 
ATOM     67  C   UNL A   1      47.057  29.398  28.875  1.00  0.00     0.009 A 
ATOM     68  C   UNL A   1      47.992  28.191  31.209  1.00  0.00     0.001 A 
ATOM     69  C   UNL A   1      48.357  28.893  28.927  1.00  0.00     0.001 A 
ATOM     70  C   UNL A   1      48.826  28.295  30.095  1.00  0.00     0.000 A 
ENDBRANCH  46  65
BRANCH  58  71
ATOM     71  C   UNL A   1      43.079  35.326  31.435  1.00  0.00    -0.014 A 
ATOM     72  C   UNL A   1      43.637  36.289  30.581  1.00  0.00     0.009 A 
ATOM     73  C   UNL A   1      43.004  35.592  32.811  1.00  0.00     0.009 A 
ATOM     74  C   UNL A   1      44.143  37.482  31.100  1.00  0.00     0.001 A 
ATOM     75  C   UNL A   1      43.490  36.794  33.323  1.00  0.00     0.001 A 
ATOM     76  C   UNL A   1      44.067  37.733  32.470  1.00  0.00     0.000 A 
ENDBRANCH  58  71
ENDBRANCH  32  33
ENDBRANCH  25  27
ENDBRANCH  24  25
ENDBRANCH  23  24
ENDBRANCH   1  23
TORSDOF 15
ENDMDL
