MODEL 1
REMARK VINA RESULT:     -10.7      0.000      0.000
REMARK SMILES O=C(OCCOC(=O)c1ccccc1Nc1cccc(C(F)(F)F)c1)c1ccc(-c2c3nc(c(-c4ccccc4)c4ccc([nH]4)c(-c4ccccc4)c4nc(c(-c5ccccc5)c5ccc2[nH]5)C=C4)C=C3)cc1
REMARK SMILES IDX 5 1 4 2 3 3 2 4 1 5 26 6 27 7 73 8 28 9 72 10 29 11 30 12
REMARK SMILES IDX 31 13 66 14 32 15 71 16 65 17 67 18 33 19 70 20 64 21 63 22
REMARK SMILES IDX 34 24 56 25 41 26 55 27 42 28 45 29 54 30 68 31 43 32 44 33
REMARK SMILES IDX 53 35 69 36 46 37 35 38 36 39 40 40 37 41 39 42 38 43 57 44
REMARK SMILES IDX 58 45 62 46 59 47 61 48 60 49 47 50 48 51 52 52 49 53 51 54
REMARK SMILES IDX 50 55 6 56 7 57 8 58 9 59 10 60 14 61 11 62 13 63 12 64
REMARK SMILES IDX 15 65 16 67 17 68 25 69 18 70 20 71 19 72 21 73 22 74 23 75
REMARK SMILES IDX 24 76
REMARK H PARENT 67 23 45 34 15 66
REMARK Flexibility Score: inf
ROOT
ATOM      1  C   UNL A   1      33.987  35.193  28.643  1.00  0.00     0.275 C 
ENDROOT
BRANCH   1   2
ATOM      2  C   UNL A   1      32.911  36.076  29.276  1.00  0.00     0.275 C 
BRANCH   2   3
ATOM      3  O   UNL A   1      32.366  35.536  30.494  1.00  0.00    -0.458 OA
BRANCH   3   4
ATOM      4  C   UNL A   1      32.743  35.679  31.783  1.00  0.00     0.338 C 
ATOM      5  O   UNL A   1      32.094  36.447  32.495  1.00  0.00    -0.246 OA
BRANCH   4   6
ATOM      6  C   UNL A   1      33.954  35.043  32.404  1.00  0.00     0.060 A 
ATOM      7  C   UNL A   1      35.256  35.544  32.394  1.00  0.00     0.016 A 
ATOM      8  C   UNL A   1      33.745  33.785  33.011  1.00  0.00     0.016 A 
ATOM      9  C   UNL A   1      36.312  34.822  32.961  1.00  0.00     0.010 A 
ATOM     10  C   UNL A   1      34.796  33.058  33.583  1.00  0.00     0.010 A 
ATOM     11  C   UNL A   1      36.092  33.567  33.540  1.00  0.00    -0.014 A 
BRANCH  11  12
ATOM     12  C   UNL A   1      37.260  32.761  33.960  1.00  0.00     0.031 A 
ATOM     13  C   UNL A   1      37.880  31.838  32.965  1.00  0.00     0.074 A 
ATOM     14  C   UNL A   1      37.798  32.911  35.182  1.00  0.00     0.049 A 
ATOM     15  N   UNL A   1      39.028  31.221  33.018  1.00  0.00    -0.248 NA
ATOM     16  C   UNL A   1      37.097  31.577  31.747  1.00  0.00     0.031 C 
ATOM     17  C   UNL A   1      37.251  33.787  36.202  1.00  0.00     0.029 A 
ATOM     18  N   UNL A   1      38.932  32.399  35.759  1.00  0.00    -0.354 N 
ATOM     19  C   UNL A   1      39.098  30.474  31.852  1.00  0.00     0.074 A 
ATOM     20  C   UNL A   1      37.883  30.728  31.106  1.00  0.00     0.031 C 
ATOM     21  C   UNL A   1      38.090  33.842  37.246  1.00  0.00     0.029 A 
ATOM     22  C   UNL A   1      39.234  32.982  36.970  1.00  0.00     0.049 A 
ATOM     23  H   UNL A   1      39.475  31.687  35.347  1.00  0.00     0.167 HD
ATOM     24  C   UNL A   1      40.075  29.625  31.462  1.00  0.00     0.031 A 
ATOM     25  C   UNL A   1      40.345  32.885  37.728  1.00  0.00     0.031 A 
ATOM     26  C   UNL A   1      41.245  29.345  32.246  1.00  0.00     0.049 A 
ATOM     27  C   UNL A   1      41.454  31.994  37.233  1.00  0.00     0.074 A 
ATOM     28  C   UNL A   1      42.270  28.454  31.988  1.00  0.00     0.029 A 
ATOM     29  N   UNL A   1      41.533  29.951  33.461  1.00  0.00    -0.354 N 
ATOM     30  N   UNL A   1      41.543  31.342  36.098  1.00  0.00    -0.248 NA
ATOM     31  C   UNL A   1      42.615  31.832  38.117  1.00  0.00     0.031 C 
ATOM     32  C   UNL A   1      43.158  28.490  33.071  1.00  0.00     0.029 A 
ATOM     33  C   UNL A   1      42.708  29.437  33.980  1.00  0.00     0.049 A 
ATOM     34  H   UNL A   1      40.983  30.645  33.891  1.00  0.00     0.167 HD
ATOM     35  C   UNL A   1      42.772  30.699  36.126  1.00  0.00     0.074 A 
ATOM     36  C   UNL A   1      43.413  31.082  37.369  1.00  0.00     0.031 C 
ATOM     37  C   UNL A   1      43.317  29.846  35.221  1.00  0.00     0.031 A 
BRANCH  24  38
ATOM     38  C   UNL A   1      39.825  28.874  30.188  1.00  0.00    -0.014 A 
ATOM     39  C   UNL A   1      39.256  27.590  30.189  1.00  0.00     0.009 A 
ATOM     40  C   UNL A   1      40.253  29.430  28.973  1.00  0.00     0.009 A 
ATOM     41  C   UNL A   1      39.170  26.859  29.002  1.00  0.00     0.001 A 
ATOM     42  C   UNL A   1      40.144  28.705  27.786  1.00  0.00     0.001 A 
ATOM     43  C   UNL A   1      39.616  27.415  27.803  1.00  0.00     0.000 A 
ENDBRANCH  24  38
BRANCH  25  44
ATOM     44  C   UNL A   1      40.524  33.748  38.934  1.00  0.00    -0.014 A 
ATOM     45  C   UNL A   1      40.112  33.281  40.195  1.00  0.00     0.009 A 
ATOM     46  C   UNL A   1      41.132  35.011  38.863  1.00  0.00     0.009 A 
ATOM     47  C   UNL A   1      40.306  34.045  41.349  1.00  0.00     0.001 A 
ATOM     48  C   UNL A   1      41.355  35.762  40.023  1.00  0.00     0.001 A 
ATOM     49  C   UNL A   1      40.940  35.280  41.263  1.00  0.00     0.000 A 
ENDBRANCH  25  44
BRANCH  37  50
ATOM     50  C   UNL A   1      44.658  29.266  35.562  1.00  0.00    -0.014 A 
ATOM     51  C   UNL A   1      45.841  29.907  35.158  1.00  0.00     0.009 A 
ATOM     52  C   UNL A   1      44.743  28.095  36.330  1.00  0.00     0.009 A 
ATOM     53  C   UNL A   1      47.084  29.364  35.486  1.00  0.00     0.001 A 
ATOM     54  C   UNL A   1      45.987  27.570  36.678  1.00  0.00     0.001 A 
ATOM     55  C   UNL A   1      47.155  28.199  36.248  1.00  0.00     0.000 A 
ENDBRANCH  37  50
ENDBRANCH  11  12
ENDBRANCH   4   6
ENDBRANCH   3   4
ENDBRANCH   2   3
ENDBRANCH   1   2
BRANCH   1  56
ATOM     56  O   UNL A   1      33.895  33.823  29.060  1.00  0.00    -0.458 OA
BRANCH  56  57
ATOM     57  C   UNL A   1      33.544  32.959  28.066  1.00  0.00     0.340 C 
ATOM     58  O   UNL A   1      32.607  33.089  27.300  1.00  0.00    -0.246 OA
BRANCH  57  59
ATOM     59  C   UNL A   1      34.530  31.860  27.944  1.00  0.00     0.083 A 
ATOM     60  C   UNL A   1      35.878  32.245  28.079  1.00  0.00     0.018 A 
ATOM     61  C   UNL A   1      34.182  30.519  27.689  1.00  0.00     0.053 A 
ATOM     62  C   UNL A   1      36.896  31.307  27.944  1.00  0.00     0.001 A 
ATOM     63  C   UNL A   1      35.236  29.623  27.444  1.00  0.00     0.027 A 
ATOM     64  C   UNL A   1      36.575  30.000  27.603  1.00  0.00     0.002 A 
BRANCH  61  65
ATOM     65  N   UNL A   1      32.833  30.090  27.645  1.00  0.00    -0.355 N 
ATOM     66  H   UNL A   1      32.288  30.311  28.435  1.00  0.00     0.167 HD
BRANCH  65  67
ATOM     67  C   UNL A   1      32.175  29.389  26.621  1.00  0.00     0.039 A 
ATOM     68  C   UNL A   1      31.710  30.052  25.484  1.00  0.00     0.026 A 
ATOM     69  C   UNL A   1      31.967  28.007  26.731  1.00  0.00     0.039 A 
ATOM     70  C   UNL A   1      31.049  29.349  24.473  1.00  0.00     0.003 A 
ATOM     71  C   UNL A   1      31.320  27.282  25.716  1.00  0.00     0.058 A 
ATOM     72  C   UNL A   1      30.859  27.971  24.586  1.00  0.00     0.013 A 
BRANCH  71  73
ATOM     73  C   UNL A   1      31.115  25.790  25.838  1.00  0.00     0.416 C 
ATOM     74  F   UNL A   1      29.794  25.465  25.935  1.00  0.00    -0.166 F 
ATOM     75  F   UNL A   1      31.579  25.094  24.766  1.00  0.00    -0.166 F 
ATOM     76  F   UNL A   1      31.711  25.244  26.934  1.00  0.00    -0.166 F 
ENDBRANCH  71  73
ENDBRANCH  65  67
ENDBRANCH  61  65
ENDBRANCH  57  59
ENDBRANCH  56  57
ENDBRANCH   1  56
TORSDOF 14
ENDMDL
MODEL 2
REMARK VINA RESULT:     -10.5      3.158      7.816
REMARK SMILES O=C(OCCOC(=O)c1ccccc1Nc1cccc(C(F)(F)F)c1)c1ccc(-c2c3nc(c(-c4ccccc4)c4ccc([nH]4)c(-c4ccccc4)c4nc(c(-c5ccccc5)c5ccc2[nH]5)C=C4)C=C3)cc1
REMARK SMILES IDX 5 1 4 2 3 3 2 4 1 5 26 6 27 7 73 8 28 9 72 10 29 11 30 12
REMARK SMILES IDX 31 13 66 14 32 15 71 16 65 17 67 18 33 19 70 20 64 21 63 22
REMARK SMILES IDX 34 24 56 25 41 26 55 27 42 28 45 29 54 30 68 31 43 32 44 33
REMARK SMILES IDX 53 35 69 36 46 37 35 38 36 39 40 40 37 41 39 42 38 43 57 44
REMARK SMILES IDX 58 45 62 46 59 47 61 48 60 49 47 50 48 51 52 52 49 53 51 54
REMARK SMILES IDX 50 55 6 56 7 57 8 58 9 59 10 60 14 61 11 62 13 63 12 64
REMARK SMILES IDX 15 65 16 67 17 68 25 69 18 70 20 71 19 72 21 73 22 74 23 75
REMARK SMILES IDX 24 76
REMARK H PARENT 67 23 45 34 15 66
REMARK Flexibility Score: inf
ROOT
ATOM      1  C   UNL A   1      32.059  28.719  25.715  1.00  0.00     0.275 C 
ENDROOT
BRANCH   1   2
ATOM      2  C   UNL A   1      31.805  30.227  25.697  1.00  0.00     0.275 C 
BRANCH   2   3
ATOM      3  O   UNL A   1      32.069  30.871  26.957  1.00  0.00    -0.458 OA
BRANCH   3   4
ATOM      4  C   UNL A   1      33.081  31.672  27.357  1.00  0.00     0.338 C 
ATOM      5  O   UNL A   1      32.930  32.891  27.253  1.00  0.00    -0.246 OA
BRANCH   4   6
ATOM      6  C   UNL A   1      34.420  31.195  27.840  1.00  0.00     0.060 A 
ATOM      7  C   UNL A   1      34.776  29.882  28.147  1.00  0.00     0.016 A 
ATOM      8  C   UNL A   1      35.392  32.198  28.050  1.00  0.00     0.016 A 
ATOM      9  C   UNL A   1      36.047  29.575  28.647  1.00  0.00     0.010 A 
ATOM     10  C   UNL A   1      36.666  31.900  28.547  1.00  0.00     0.010 A 
ATOM     11  C   UNL A   1      36.991  30.583  28.869  1.00  0.00    -0.014 A 
BRANCH  11  12
ATOM     12  C   UNL A   1      38.250  30.240  29.568  1.00  0.00     0.031 A 
ATOM     13  C   UNL A   1      38.379  30.596  31.011  1.00  0.00     0.074 A 
ATOM     14  C   UNL A   1      39.223  29.558  28.941  1.00  0.00     0.049 A 
ATOM     15  N   UNL A   1      39.265  30.196  31.880  1.00  0.00    -0.248 NA
ATOM     16  C   UNL A   1      37.372  31.527  31.542  1.00  0.00     0.031 C 
ATOM     17  C   UNL A   1      39.169  29.179  27.540  1.00  0.00     0.029 A 
ATOM     18  N   UNL A   1      40.399  29.012  29.386  1.00  0.00    -0.354 N 
ATOM     19  C   UNL A   1      38.942  30.848  33.060  1.00  0.00     0.074 A 
ATOM     20  C   UNL A   1      37.770  31.656  32.798  1.00  0.00     0.031 C 
ATOM     21  C   UNL A   1      40.203  28.378  27.250  1.00  0.00     0.029 A 
ATOM     22  C   UNL A   1      41.008  28.201  28.453  1.00  0.00     0.049 A 
ATOM     23  H   UNL A   1      40.770  29.182  30.283  1.00  0.00     0.167 HD
ATOM     24  C   UNL A   1      39.592  30.801  34.245  1.00  0.00     0.031 A 
ATOM     25  C   UNL A   1      42.051  27.358  28.583  1.00  0.00     0.031 A 
ATOM     26  C   UNL A   1      40.787  30.037  34.467  1.00  0.00     0.049 A 
ATOM     27  C   UNL A   1      42.709  27.263  29.934  1.00  0.00     0.074 A 
ATOM     28  C   UNL A   1      41.572  29.963  35.602  1.00  0.00     0.029 A 
ATOM     29  N   UNL A   1      41.379  29.220  33.513  1.00  0.00    -0.354 N 
ATOM     30  N   UNL A   1      42.359  27.831  31.065  1.00  0.00    -0.248 NA
ATOM     31  C   UNL A   1      43.898  26.408  30.031  1.00  0.00     0.031 C 
ATOM     32  C   UNL A   1      42.665  29.133  35.320  1.00  0.00     0.029 A 
ATOM     33  C   UNL A   1      42.534  28.655  34.024  1.00  0.00     0.049 A 
ATOM     34  H   UNL A   1      41.028  29.064  32.606  1.00  0.00     0.167 HD
ATOM     35  C   UNL A   1      43.277  27.396  32.008  1.00  0.00     0.074 A 
ATOM     36  C   UNL A   1      44.169  26.477  31.328  1.00  0.00     0.031 C 
ATOM     37  C   UNL A   1      43.395  27.742  33.315  1.00  0.00     0.031 A 
BRANCH  24  38
ATOM     38  C   UNL A   1      39.062  31.699  35.323  1.00  0.00    -0.014 A 
ATOM     39  C   UNL A   1      39.519  33.019  35.471  1.00  0.00     0.009 A 
ATOM     40  C   UNL A   1      38.156  31.182  36.260  1.00  0.00     0.009 A 
ATOM     41  C   UNL A   1      39.115  33.783  36.570  1.00  0.00     0.001 A 
ATOM     42  C   UNL A   1      37.738  31.955  37.343  1.00  0.00     0.001 A 
ATOM     43  C   UNL A   1      38.229  33.250  37.505  1.00  0.00     0.000 A 
ENDBRANCH  24  38
BRANCH  25  44
ATOM     44  C   UNL A   1      42.438  26.443  27.467  1.00  0.00    -0.014 A 
ATOM     45  C   UNL A   1      41.869  25.160  27.387  1.00  0.00     0.009 A 
ATOM     46  C   UNL A   1      43.331  26.835  26.458  1.00  0.00     0.009 A 
ATOM     47  C   UNL A   1      42.176  24.297  26.331  1.00  0.00     0.001 A 
ATOM     48  C   UNL A   1      43.614  25.983  25.384  1.00  0.00     0.001 A 
ATOM     49  C   UNL A   1      43.038  24.715  25.323  1.00  0.00     0.000 A 
ENDBRANCH  25  44
BRANCH  37  50
ATOM     50  C   UNL A   1      44.538  27.134  34.075  1.00  0.00    -0.014 A 
ATOM     51  C   UNL A   1      45.787  27.775  34.126  1.00  0.00     0.009 A 
ATOM     52  C   UNL A   1      44.355  25.935  34.781  1.00  0.00     0.009 A 
ATOM     53  C   UNL A   1      46.842  27.207  34.841  1.00  0.00     0.001 A 
ATOM     54  C   UNL A   1      45.405  25.383  35.515  1.00  0.00     0.001 A 
ATOM     55  C   UNL A   1      46.648  26.014  35.537  1.00  0.00     0.000 A 
ENDBRANCH  37  50
ENDBRANCH  11  12
ENDBRANCH   4   6
ENDBRANCH   3   4
ENDBRANCH   2   3
ENDBRANCH   1   2
BRANCH   1  56
ATOM     56  O   UNL A   1      33.419  28.383  25.399  1.00  0.00    -0.458 OA
BRANCH  56  57
ATOM     57  C   UNL A   1      33.666  28.249  24.066  1.00  0.00     0.340 C 
ATOM     58  O   UNL A   1      34.214  29.068  23.353  1.00  0.00    -0.246 OA
BRANCH  57  59
ATOM     59  C   UNL A   1      33.280  26.902  23.587  1.00  0.00     0.083 A 
ATOM     60  C   UNL A   1      33.946  25.829  24.210  1.00  0.00     0.018 A 
ATOM     61  C   UNL A   1      32.334  26.674  22.567  1.00  0.00     0.053 A 
ATOM     62  C   UNL A   1      33.695  24.519  23.815  1.00  0.00     0.001 A 
ATOM     63  C   UNL A   1      32.192  25.351  22.116  1.00  0.00     0.027 A 
ATOM     64  C   UNL A   1      32.836  24.282  22.751  1.00  0.00     0.002 A 
BRANCH  61  65
ATOM     65  N   UNL A   1      31.582  27.726  21.993  1.00  0.00    -0.355 N 
ATOM     66  H   UNL A   1      32.000  28.183  21.228  1.00  0.00     0.167 HD
BRANCH  65  67
ATOM     67  C   UNL A   1      30.316  28.202  22.376  1.00  0.00     0.039 A 
ATOM     68  C   UNL A   1      29.450  27.406  23.126  1.00  0.00     0.026 A 
ATOM     69  C   UNL A   1      29.900  29.486  22.000  1.00  0.00     0.039 A 
ATOM     70  C   UNL A   1      28.190  27.882  23.497  1.00  0.00     0.003 A 
ATOM     71  C   UNL A   1      28.644  29.988  22.379  1.00  0.00     0.058 A 
ATOM     72  C   UNL A   1      27.790  29.168  23.130  1.00  0.00     0.013 A 
BRANCH  71  73
ATOM     73  C   UNL A   1      28.212  31.380  21.982  1.00  0.00     0.416 C 
ATOM     74  F   UNL A   1      27.286  31.891  22.844  1.00  0.00    -0.166 F 
ATOM     75  F   UNL A   1      29.231  32.279  21.975  1.00  0.00    -0.166 F 
ATOM     76  F   UNL A   1      27.640  31.443  20.747  1.00  0.00    -0.166 F 
ENDBRANCH  71  73
ENDBRANCH  65  67
ENDBRANCH  61  65
ENDBRANCH  57  59
ENDBRANCH  56  57
ENDBRANCH   1  56
TORSDOF 14
ENDMDL
MODEL 3
REMARK VINA RESULT:     -10.4      6.120      9.789
REMARK SMILES O=C(OCCOC(=O)c1ccccc1Nc1cccc(C(F)(F)F)c1)c1ccc(-c2c3nc(c(-c4ccccc4)c4ccc([nH]4)c(-c4ccccc4)c4nc(c(-c5ccccc5)c5ccc2[nH]5)C=C4)C=C3)cc1
REMARK SMILES IDX 5 1 4 2 3 3 2 4 1 5 26 6 27 7 73 8 28 9 72 10 29 11 30 12
REMARK SMILES IDX 31 13 66 14 32 15 71 16 65 17 67 18 33 19 70 20 64 21 63 22
REMARK SMILES IDX 34 24 56 25 41 26 55 27 42 28 45 29 54 30 68 31 43 32 44 33
REMARK SMILES IDX 53 35 69 36 46 37 35 38 36 39 40 40 37 41 39 42 38 43 57 44
REMARK SMILES IDX 58 45 62 46 59 47 61 48 60 49 47 50 48 51 52 52 49 53 51 54
REMARK SMILES IDX 50 55 6 56 7 57 8 58 9 59 10 60 14 61 11 62 13 63 12 64
REMARK SMILES IDX 15 65 16 67 17 68 25 69 18 70 20 71 19 72 21 73 22 74 23 75
REMARK SMILES IDX 24 76
REMARK H PARENT 67 23 45 34 15 66
REMARK Flexibility Score: inf
ROOT
ATOM      1  C   UNL A   1      36.783  22.685  23.649  1.00  0.00     0.275 C 
ENDROOT
BRANCH   1   2
ATOM      2  C   UNL A   1      37.088  21.309  24.241  1.00  0.00     0.275 C 
BRANCH   2   3
ATOM      3  O   UNL A   1      37.624  21.362  25.576  1.00  0.00    -0.458 OA
BRANCH   3   4
ATOM      4  C   UNL A   1      38.874  21.603  26.029  1.00  0.00     0.338 C 
ATOM      5  O   UNL A   1      39.682  20.672  26.024  1.00  0.00    -0.246 OA
BRANCH   4   6
ATOM      6  C   UNL A   1      39.341  22.899  26.628  1.00  0.00     0.060 A 
ATOM      7  C   UNL A   1      38.778  24.159  26.426  1.00  0.00     0.016 A 
ATOM      8  C   UNL A   1      40.499  22.824  27.432  1.00  0.00     0.016 A 
ATOM      9  C   UNL A   1      39.346  25.303  26.998  1.00  0.00     0.010 A 
ATOM     10  C   UNL A   1      41.072  23.963  28.010  1.00  0.00     0.010 A 
ATOM     11  C   UNL A   1      40.506  25.215  27.775  1.00  0.00    -0.014 A 
BRANCH  11  12
ATOM     12  C   UNL A   1      41.174  26.464  28.205  1.00  0.00     0.031 A 
ATOM     13  C   UNL A   1      42.473  26.829  27.568  1.00  0.00     0.074 A 
ATOM     14  C   UNL A   1      40.589  27.290  29.089  1.00  0.00     0.049 A 
ATOM     15  N   UNL A   1      43.116  27.963  27.601  1.00  0.00    -0.248 NA
ATOM     16  C   UNL A   1      43.134  25.770  26.791  1.00  0.00     0.031 C 
ATOM     17  C   UNL A   1      39.329  27.002  29.750  1.00  0.00     0.029 A 
ATOM     18  N   UNL A   1      40.923  28.540  29.543  1.00  0.00    -0.354 N 
ATOM     19  C   UNL A   1      44.274  27.750  26.871  1.00  0.00     0.074 A 
ATOM     20  C   UNL A   1      44.238  26.384  26.396  1.00  0.00     0.031 C 
ATOM     21  C   UNL A   1      38.931  28.075  30.447  1.00  0.00     0.029 A 
ATOM     22  C   UNL A   1      39.928  29.127  30.293  1.00  0.00     0.049 A 
ATOM     23  H   UNL A   1      41.786  28.974  29.349  1.00  0.00     0.167 HD
ATOM     24  C   UNL A   1      45.293  28.612  26.652  1.00  0.00     0.031 A 
ATOM     25  C   UNL A   1      39.808  30.394  30.739  1.00  0.00     0.031 A 
ATOM     26  C   UNL A   1      45.335  29.946  27.182  1.00  0.00     0.049 A 
ATOM     27  C   UNL A   1      40.919  31.357  30.413  1.00  0.00     0.074 A 
ATOM     28  C   UNL A   1      46.342  30.888  27.084  1.00  0.00     0.029 A 
ATOM     29  N   UNL A   1      44.316  30.520  27.930  1.00  0.00    -0.354 N 
ATOM     30  N   UNL A   1      41.982  31.170  29.666  1.00  0.00    -0.248 NA
ATOM     31  C   UNL A   1      40.812  32.706  30.984  1.00  0.00     0.031 C 
ATOM     32  C   UNL A   1      45.949  32.018  27.812  1.00  0.00     0.029 A 
ATOM     33  C   UNL A   1      44.678  31.796  28.323  1.00  0.00     0.049 A 
ATOM     34  H   UNL A   1      43.460  30.084  28.149  1.00  0.00     0.167 HD
ATOM     35  C   UNL A   1      42.665  32.377  29.668  1.00  0.00     0.074 A 
ATOM     36  C   UNL A   1      41.869  33.303  30.451  1.00  0.00     0.031 C 
ATOM     37  C   UNL A   1      43.857  32.690  29.100  1.00  0.00     0.031 A 
BRANCH  24  38
ATOM     38  C   UNL A   1      46.471  28.063  25.903  1.00  0.00    -0.014 A 
ATOM     39  C   UNL A   1      47.643  27.664  26.565  1.00  0.00     0.009 A 
ATOM     40  C   UNL A   1      46.435  28.031  24.501  1.00  0.00     0.009 A 
ATOM     41  C   UNL A   1      48.773  27.294  25.831  1.00  0.00     0.001 A 
ATOM     42  C   UNL A   1      47.557  27.639  23.772  1.00  0.00     0.001 A 
ATOM     43  C   UNL A   1      48.731  27.284  24.437  1.00  0.00     0.000 A 
ENDBRANCH  24  38
BRANCH  25  44
ATOM     44  C   UNL A   1      38.550  30.856  31.397  1.00  0.00    -0.014 A 
ATOM     45  C   UNL A   1      38.432  30.800  32.798  1.00  0.00     0.009 A 
ATOM     46  C   UNL A   1      37.477  31.389  30.665  1.00  0.00     0.009 A 
ATOM     47  C   UNL A   1      37.286  31.265  33.448  1.00  0.00     0.001 A 
ATOM     48  C   UNL A   1      36.343  31.885  31.318  1.00  0.00     0.001 A 
ATOM     49  C   UNL A   1      36.248  31.820  32.707  1.00  0.00     0.000 A 
ENDBRANCH  25  44
BRANCH  37  50
ATOM     50  C   UNL A   1      44.367  34.083  29.326  1.00  0.00    -0.014 A 
ATOM     51  C   UNL A   1      45.217  34.370  30.406  1.00  0.00     0.009 A 
ATOM     52  C   UNL A   1      44.033  35.109  28.428  1.00  0.00     0.009 A 
ATOM     53  C   UNL A   1      45.694  35.666  30.604  1.00  0.00     0.001 A 
ATOM     54  C   UNL A   1      44.532  36.398  28.614  1.00  0.00     0.001 A 
ATOM     55  C   UNL A   1      45.354  36.677  29.706  1.00  0.00     0.000 A 
ENDBRANCH  37  50
ENDBRANCH  11  12
ENDBRANCH   4   6
ENDBRANCH   3   4
ENDBRANCH   2   3
ENDBRANCH   1   2
BRANCH   1  56
ATOM     56  O   UNL A   1      35.964  23.489  24.511  1.00  0.00    -0.458 OA
BRANCH  56  57
ATOM     57  C   UNL A   1      34.809  23.928  23.935  1.00  0.00     0.340 C 
ATOM     58  O   UNL A   1      34.640  24.156  22.753  1.00  0.00    -0.246 OA
BRANCH  57  59
ATOM     59  C   UNL A   1      33.712  23.993  24.928  1.00  0.00     0.083 A 
ATOM     60  C   UNL A   1      33.079  25.245  25.044  1.00  0.00     0.018 A 
ATOM     61  C   UNL A   1      33.318  22.905  25.732  1.00  0.00     0.053 A 
ATOM     62  C   UNL A   1      32.061  25.437  25.972  1.00  0.00     0.001 A 
ATOM     63  C   UNL A   1      32.369  23.165  26.736  1.00  0.00     0.027 A 
ATOM     64  C   UNL A   1      31.722  24.403  26.835  1.00  0.00     0.002 A 
BRANCH  61  65
ATOM     65  N   UNL A   1      33.871  21.612  25.568  1.00  0.00    -0.355 N 
ATOM     66  H   UNL A   1      34.652  21.406  26.131  1.00  0.00     0.167 HD
BRANCH  65  67
ATOM     67  C   UNL A   1      33.448  20.586  24.705  1.00  0.00     0.039 A 
ATOM     68  C   UNL A   1      32.534  20.843  23.682  1.00  0.00     0.026 A 
ATOM     69  C   UNL A   1      33.934  19.282  24.867  1.00  0.00     0.039 A 
ATOM     70  C   UNL A   1      32.112  19.817  22.833  1.00  0.00     0.003 A 
ATOM     71  C   UNL A   1      33.535  18.242  24.011  1.00  0.00     0.058 A 
ATOM     72  C   UNL A   1      32.613  18.524  22.993  1.00  0.00     0.013 A 
BRANCH  71  73
ATOM     73  C   UNL A   1      34.077  16.843  24.184  1.00  0.00     0.416 C 
ATOM     74  F   UNL A   1      34.110  16.160  23.003  1.00  0.00    -0.166 F 
ATOM     75  F   UNL A   1      35.353  16.813  24.651  1.00  0.00    -0.166 F 
ATOM     76  F   UNL A   1      33.343  16.073  25.034  1.00  0.00    -0.166 F 
ENDBRANCH  71  73
ENDBRANCH  65  67
ENDBRANCH  61  65
ENDBRANCH  57  59
ENDBRANCH  56  57
ENDBRANCH   1  56
TORSDOF 14
ENDMDL
