MODEL 1
REMARK VINA RESULT:     -11.0      0.000      0.000
REMARK SMILES Cc1ccc(C(=O)N[C@@H]2C=C[C@H](C(=O)OCCOC(=O)c3ccc(-c4c5nc(c(-c6ccccc6)c6ccc([nH]6)c(-c6ccccc6)c6nc(c(-c7ccccc7)c7ccc4[nH]7)C=C6)C=C5)cc3)C2)c(F)c1
REMARK SMILES IDX 16 1 15 2 13 3 14 4 12 5 9 6 10 7 69 8 11 9 8 10 6 11 7 12
REMARK SMILES IDX 5 14 1 15 2 16 3 17 72 18 4 19 70 20 71 21 17 22 18 23 19 24
REMARK SMILES IDX 20 25 21 26 22 27 68 28 23 29 67 30 24 31 25 32 26 33 61 34
REMARK SMILES IDX 27 35 66 36 60 37 62 38 28 39 65 40 59 41 58 42 29 44 51 45
REMARK SMILES IDX 36 46 50 47 37 48 40 49 49 50 63 51 38 52 39 53 48 55 64 56
REMARK SMILES IDX 41 57 30 58 31 59 35 60 32 61 34 62 33 63 52 64 53 65 57 66
REMARK SMILES IDX 54 67 56 68 55 69 42 70 43 71 47 72 44 73 46 74 45 75
REMARK H PARENT 8 13 62 43 40 54
REMARK Flexibility Score: inf
ROOT
ATOM      1  C   UNL A   1      43.793  21.539  25.507  1.00  0.00     0.274 C 
ENDROOT
BRANCH   1   2
ATOM      2  O   UNL A   1      42.359  21.573  25.661  1.00  0.00    -0.462 OA
BRANCH   2   3
ATOM      3  C   UNL A   1      41.789  20.418  26.118  1.00  0.00     0.312 C 
ATOM      4  O   UNL A   1      42.305  19.309  26.060  1.00  0.00    -0.252 OA
BRANCH   3   5
ATOM      5  C   UNL A   1      40.388  20.699  26.652  1.00  0.00     0.124 C 
ATOM      6  C   UNL A   1      38.245  21.430  25.644  1.00  0.00     0.106 C 
ATOM      7  C   UNL A   1      38.975  22.554  26.309  1.00  0.00    -0.006 C 
ATOM      8  C   UNL A   1      39.282  20.291  25.669  1.00  0.00     0.048 C 
ATOM      9  C   UNL A   1      40.135  22.164  26.845  1.00  0.00    -0.014 C 
BRANCH   6  10
ATOM     10  N   UNL A   1      37.806  21.904  24.343  1.00  0.00    -0.346 N 
ATOM     11  C   UNL A   1      36.632  22.479  23.923  1.00  0.00     0.254 C 
ATOM     12  O   UNL A   1      36.556  22.947  22.790  1.00  0.00    -0.269 OA
ATOM     13  H   UNL A   1      38.475  21.791  23.629  1.00  0.00     0.164 HD
BRANCH  11  14
ATOM     14  C   UNL A   1      35.451  22.483  24.796  1.00  0.00     0.075 A 
ATOM     15  C   UNL A   1      31.728  22.951  26.879  1.00  0.00     0.044 C 
ATOM     16  C   UNL A   1      33.053  22.746  26.206  1.00  0.00    -0.048 A 
ATOM     17  C   UNL A   1      33.320  21.578  25.478  1.00  0.00     0.004 A 
ATOM     18  C   UNL A   1      34.044  23.729  26.310  1.00  0.00     0.043 A 
ATOM     19  C   UNL A   1      34.523  21.439  24.781  1.00  0.00     0.017 A 
ATOM     20  C   UNL A   1      35.237  23.592  25.610  1.00  0.00     0.136 A 
ATOM     21  F   UNL A   1      36.143  24.576  25.694  1.00  0.00    -0.206 F 
ENDBRANCH  11  14
ENDBRANCH   6  10
ENDBRANCH   3   5
ENDBRANCH   2   3
ENDBRANCH   1   2
BRANCH   1  22
ATOM     22  C   UNL A   1      44.239  22.525  24.432  1.00  0.00     0.275 C 
BRANCH  22  23
ATOM     23  O   UNL A   1      43.533  23.766  24.594  1.00  0.00    -0.458 OA
BRANCH  23  24
ATOM     24  C   UNL A   1      44.282  24.810  25.013  1.00  0.00     0.338 C 
ATOM     25  O   UNL A   1      45.402  25.113  24.625  1.00  0.00    -0.246 OA
BRANCH  24  26
ATOM     26  C   UNL A   1      43.561  25.568  26.050  1.00  0.00     0.060 A 
ATOM     27  C   UNL A   1      43.862  26.908  26.291  1.00  0.00     0.016 A 
ATOM     28  C   UNL A   1      42.663  24.893  26.878  1.00  0.00     0.016 A 
ATOM     29  C   UNL A   1      43.331  27.548  27.411  1.00  0.00     0.010 A 
ATOM     30  C   UNL A   1      42.068  25.564  27.952  1.00  0.00     0.010 A 
ATOM     31  C   UNL A   1      42.421  26.889  28.252  1.00  0.00    -0.014 A 
BRANCH  31  32
ATOM     32  C   UNL A   1      41.848  27.585  29.437  1.00  0.00     0.031 A 
ATOM     33  C   UNL A   1      40.583  28.396  29.325  1.00  0.00     0.074 A 
ATOM     34  C   UNL A   1      42.458  27.485  30.636  1.00  0.00     0.049 A 
ATOM     35  N   UNL A   1      40.030  29.188  30.214  1.00  0.00    -0.248 NA
ATOM     36  C   UNL A   1      39.848  28.318  28.053  1.00  0.00     0.031 C 
ATOM     37  C   UNL A   1      43.665  26.706  30.913  1.00  0.00     0.029 A 
ATOM     38  N   UNL A   1      42.135  28.038  31.852  1.00  0.00    -0.354 N 
ATOM     39  C   UNL A   1      38.907  29.725  29.597  1.00  0.00     0.074 A 
ATOM     40  C   UNL A   1      38.860  29.181  28.256  1.00  0.00     0.031 C 
ATOM     41  C   UNL A   1      43.956  26.796  32.219  1.00  0.00     0.029 A 
ATOM     42  C   UNL A   1      43.009  27.703  32.856  1.00  0.00     0.049 A 
ATOM     43  H   UNL A   1      41.351  28.618  31.990  1.00  0.00     0.167 HD
ATOM     44  C   UNL A   1      37.991  30.586  30.103  1.00  0.00     0.031 A 
ATOM     45  C   UNL A   1      43.078  28.109  34.138  1.00  0.00     0.031 A 
ATOM     46  C   UNL A   1      37.997  31.097  31.449  1.00  0.00     0.049 A 
ATOM     47  C   UNL A   1      42.091  29.112  34.654  1.00  0.00     0.074 A 
ATOM     48  C   UNL A   1      37.093  31.959  32.047  1.00  0.00     0.029 A 
ATOM     49  N   UNL A   1      38.942  30.780  32.410  1.00  0.00    -0.354 N 
ATOM     50  N   UNL A   1      41.068  29.653  34.040  1.00  0.00    -0.248 NA
ATOM     51  C   UNL A   1      42.285  29.580  36.034  1.00  0.00     0.031 C 
ATOM     52  C   UNL A   1      37.512  32.195  33.362  1.00  0.00     0.029 A 
ATOM     53  C   UNL A   1      38.657  31.449  33.589  1.00  0.00     0.049 A 
ATOM     54  H   UNL A   1      39.703  30.171  32.275  1.00  0.00     0.167 HD
ATOM     55  C   UNL A   1      40.503  30.532  34.954  1.00  0.00     0.074 A 
ATOM     56  C   UNL A   1      41.276  30.429  36.174  1.00  0.00     0.031 C 
ATOM     57  C   UNL A   1      39.443  31.358  34.789  1.00  0.00     0.031 A 
BRANCH  44  58
ATOM     58  C   UNL A   1      36.898  31.062  29.189  1.00  0.00    -0.014 A 
ATOM     59  C   UNL A   1      35.846  30.216  28.812  1.00  0.00     0.009 A 
ATOM     60  C   UNL A   1      36.880  32.403  28.773  1.00  0.00     0.009 A 
ATOM     61  C   UNL A   1      34.800  30.703  28.023  1.00  0.00     0.001 A 
ATOM     62  C   UNL A   1      35.825  32.890  28.000  1.00  0.00     0.001 A 
ATOM     63  C   UNL A   1      34.787  32.040  27.624  1.00  0.00     0.000 A 
ENDBRANCH  44  58
BRANCH  45  64
ATOM     64  C   UNL A   1      44.174  27.610  35.006  1.00  0.00    -0.014 A 
ATOM     65  C   UNL A   1      44.002  26.455  35.781  1.00  0.00     0.009 A 
ATOM     66  C   UNL A   1      45.404  28.285  35.048  1.00  0.00     0.009 A 
ATOM     67  C   UNL A   1      45.043  25.990  36.589  1.00  0.00     0.001 A 
ATOM     68  C   UNL A   1      46.450  27.802  35.835  1.00  0.00     0.001 A 
ATOM     69  C   UNL A   1      46.267  26.658  36.608  1.00  0.00     0.000 A 
ENDBRANCH  45  64
BRANCH  57  70
ATOM     70  C   UNL A   1      39.065  32.219  35.957  1.00  0.00    -0.014 A 
ATOM     71  C   UNL A   1      39.620  33.499  36.111  1.00  0.00     0.009 A 
ATOM     72  C   UNL A   1      38.138  31.757  36.902  1.00  0.00     0.009 A 
ATOM     73  C   UNL A   1      39.271  34.291  37.206  1.00  0.00     0.001 A 
ATOM     74  C   UNL A   1      37.778  32.559  37.987  1.00  0.00     0.001 A 
ATOM     75  C   UNL A   1      38.350  33.821  38.142  1.00  0.00     0.000 A 
ENDBRANCH  57  70
ENDBRANCH  31  32
ENDBRANCH  24  26
ENDBRANCH  23  24
ENDBRANCH  22  23
ENDBRANCH   1  22
TORSDOF 13
ENDMDL
MODEL 2
REMARK VINA RESULT:     -11.0      3.793      7.123
REMARK SMILES Cc1ccc(C(=O)N[C@@H]2C=C[C@H](C(=O)OCCOC(=O)c3ccc(-c4c5nc(c(-c6ccccc6)c6ccc([nH]6)c(-c6ccccc6)c6nc(c(-c7ccccc7)c7ccc4[nH]7)C=C6)C=C5)cc3)C2)c(F)c1
REMARK SMILES IDX 16 1 15 2 13 3 14 4 12 5 9 6 10 7 69 8 11 9 8 10 6 11 7 12
REMARK SMILES IDX 5 14 1 15 2 16 3 17 72 18 4 19 70 20 71 21 17 22 18 23 19 24
REMARK SMILES IDX 20 25 21 26 22 27 68 28 23 29 67 30 24 31 25 32 26 33 61 34
REMARK SMILES IDX 27 35 66 36 60 37 62 38 28 39 65 40 59 41 58 42 29 44 51 45
REMARK SMILES IDX 36 46 50 47 37 48 40 49 49 50 63 51 38 52 39 53 48 55 64 56
REMARK SMILES IDX 41 57 30 58 31 59 35 60 32 61 34 62 33 63 52 64 53 65 57 66
REMARK SMILES IDX 54 67 56 68 55 69 42 70 43 71 47 72 44 73 46 74 45 75
REMARK H PARENT 8 13 62 43 40 54
REMARK Flexibility Score: inf
ROOT
ATOM      1  C   UNL A   1      36.687  22.575  23.665  1.00  0.00     0.274 C 
ENDROOT
BRANCH   1   2
ATOM      2  O   UNL A   1      35.661  23.299  24.374  1.00  0.00    -0.462 OA
BRANCH   2   3
ATOM      3  C   UNL A   1      34.717  23.900  23.590  1.00  0.00     0.312 C 
ATOM      4  O   UNL A   1      34.351  23.494  22.494  1.00  0.00    -0.252 OA
BRANCH   3   5
ATOM      5  C   UNL A   1      34.229  25.187  24.249  1.00  0.00     0.124 C 
ATOM      6  C   UNL A   1      32.471  25.749  25.903  1.00  0.00     0.106 C 
ATOM      7  C   UNL A   1      32.043  26.033  24.498  1.00  0.00    -0.006 C 
ATOM      8  C   UNL A   1      33.793  24.983  25.707  1.00  0.00     0.048 C 
ATOM      9  C   UNL A   1      32.986  25.722  23.604  1.00  0.00    -0.014 C 
BRANCH   6  10
ATOM     10  N   UNL A   1      31.382  25.043  26.557  1.00  0.00    -0.346 N 
ATOM     11  C   UNL A   1      31.152  23.707  26.772  1.00  0.00     0.254 C 
ATOM     12  O   UNL A   1      30.226  23.360  27.500  1.00  0.00    -0.269 OA
ATOM     13  H   UNL A   1      30.678  25.634  26.911  1.00  0.00     0.164 HD
BRANCH  11  14
ATOM     14  C   UNL A   1      31.966  22.692  26.091  1.00  0.00     0.075 A 
ATOM     15  C   UNL A   1      33.986  19.260  24.493  1.00  0.00     0.044 C 
ATOM     16  C   UNL A   1      33.325  20.502  25.012  1.00  0.00    -0.048 A 
ATOM     17  C   UNL A   1      32.355  21.173  24.256  1.00  0.00     0.004 A 
ATOM     18  C   UNL A   1      33.684  21.006  26.268  1.00  0.00     0.043 A 
ATOM     19  C   UNL A   1      31.682  22.276  24.788  1.00  0.00     0.017 A 
ATOM     20  C   UNL A   1      33.007  22.098  26.799  1.00  0.00     0.136 A 
ATOM     21  F   UNL A   1      33.344  22.524  28.025  1.00  0.00    -0.206 F 
ENDBRANCH  11  14
ENDBRANCH   6  10
ENDBRANCH   3   5
ENDBRANCH   2   3
ENDBRANCH   1   2
BRANCH   1  22
ATOM     22  C   UNL A   1      37.014  21.269  24.382  1.00  0.00     0.275 C 
BRANCH  22  23
ATOM     23  O   UNL A   1      37.408  21.549  25.736  1.00  0.00    -0.458 OA
BRANCH  23  24
ATOM     24  C   UNL A   1      38.716  21.356  26.011  1.00  0.00     0.338 C 
ATOM     25  O   UNL A   1      39.350  20.318  25.877  1.00  0.00    -0.246 OA
BRANCH  24  26
ATOM     26  C   UNL A   1      39.315  22.598  26.529  1.00  0.00     0.060 A 
ATOM     27  C   UNL A   1      38.761  23.839  26.218  1.00  0.00     0.016 A 
ATOM     28  C   UNL A   1      40.520  22.526  27.229  1.00  0.00     0.016 A 
ATOM     29  C   UNL A   1      39.456  25.008  26.530  1.00  0.00     0.010 A 
ATOM     30  C   UNL A   1      41.172  23.702  27.614  1.00  0.00     0.010 A 
ATOM     31  C   UNL A   1      40.666  24.957  27.240  1.00  0.00    -0.014 A 
BRANCH  31  32
ATOM     32  C   UNL A   1      41.394  26.210  27.582  1.00  0.00     0.031 A 
ATOM     33  C   UNL A   1      40.800  27.219  28.531  1.00  0.00     0.074 A 
ATOM     34  C   UNL A   1      42.609  26.450  27.048  1.00  0.00     0.049 A 
ATOM     35  N   UNL A   1      41.223  28.427  28.821  1.00  0.00    -0.248 NA
ATOM     36  C   UNL A   1      39.571  26.829  29.239  1.00  0.00     0.031 C 
ATOM     37  C   UNL A   1      43.333  25.553  26.146  1.00  0.00     0.029 A 
ATOM     38  N   UNL A   1      43.455  27.522  27.198  1.00  0.00    -0.354 N 
ATOM     39  C   UNL A   1      40.296  28.949  29.714  1.00  0.00     0.074 A 
ATOM     40  C   UNL A   1      39.281  27.936  29.912  1.00  0.00     0.031 C 
ATOM     41  C   UNL A   1      44.527  26.091  25.857  1.00  0.00     0.029 A 
ATOM     42  C   UNL A   1      44.621  27.405  26.483  1.00  0.00     0.049 A 
ATOM     43  H   UNL A   1      43.246  28.300  27.764  1.00  0.00     0.167 HD
ATOM     44  C   UNL A   1      40.294  30.160  30.323  1.00  0.00     0.031 A 
ATOM     45  C   UNL A   1      45.639  28.267  26.307  1.00  0.00     0.031 A 
ATOM     46  C   UNL A   1      41.321  31.158  30.175  1.00  0.00     0.049 A 
ATOM     47  C   UNL A   1      45.581  29.625  26.939  1.00  0.00     0.074 A 
ATOM     48  C   UNL A   1      41.403  32.405  30.774  1.00  0.00     0.029 A 
ATOM     49  N   UNL A   1      42.450  31.019  29.386  1.00  0.00    -0.354 N 
ATOM     50  N   UNL A   1      44.669  30.125  27.735  1.00  0.00    -0.248 NA
ATOM     51  C   UNL A   1      46.682  30.548  26.626  1.00  0.00     0.031 C 
ATOM     52  C   UNL A   1      42.566  33.036  30.317  1.00  0.00     0.029 A 
ATOM     53  C   UNL A   1      43.223  32.165  29.463  1.00  0.00     0.049 A 
ATOM     54  H   UNL A   1      42.671  30.223  28.851  1.00  0.00     0.167 HD
ATOM     55  C   UNL A   1      45.080  31.421  28.011  1.00  0.00     0.074 A 
ATOM     56  C   UNL A   1      46.338  31.622  27.322  1.00  0.00     0.031 C 
ATOM     57  C   UNL A   1      44.460  32.365  28.759  1.00  0.00     0.031 A 
BRANCH  44  58
ATOM     58  C   UNL A   1      39.124  30.499  31.203  1.00  0.00    -0.014 A 
ATOM     59  C   UNL A   1      39.147  30.228  32.579  1.00  0.00     0.009 A 
ATOM     60  C   UNL A   1      38.022  31.176  30.658  1.00  0.00     0.009 A 
ATOM     61  C   UNL A   1      38.080  30.621  33.390  1.00  0.00     0.001 A 
ATOM     62  C   UNL A   1      36.966  31.583  31.474  1.00  0.00     0.001 A 
ATOM     63  C   UNL A   1      36.995  31.303  32.839  1.00  0.00     0.000 A 
ENDBRANCH  44  58
BRANCH  45  64
ATOM     64  C   UNL A   1      46.776  27.889  25.431  1.00  0.00    -0.014 A 
ATOM     65  C   UNL A   1      46.702  28.074  24.043  1.00  0.00     0.009 A 
ATOM     66  C   UNL A   1      47.948  27.351  25.987  1.00  0.00     0.009 A 
ATOM     67  C   UNL A   1      47.781  27.721  23.228  1.00  0.00     0.001 A 
ATOM     68  C   UNL A   1      49.033  27.025  25.173  1.00  0.00     0.001 A 
ATOM     69  C   UNL A   1      48.947  27.205  23.794  1.00  0.00     0.000 A 
ENDBRANCH  45  64
BRANCH  57  70
ATOM     70  C   UNL A   1      45.135  33.699  28.865  1.00  0.00    -0.014 A 
ATOM     71  C   UNL A   1      46.086  33.943  29.868  1.00  0.00     0.009 A 
ATOM     72  C   UNL A   1      44.832  34.716  27.947  1.00  0.00     0.009 A 
ATOM     73  C   UNL A   1      46.701  35.191  29.967  1.00  0.00     0.001 A 
ATOM     74  C   UNL A   1      45.463  35.958  28.038  1.00  0.00     0.001 A 
ATOM     75  C   UNL A   1      46.392  36.196  29.051  1.00  0.00     0.000 A 
ENDBRANCH  57  70
ENDBRANCH  31  32
ENDBRANCH  24  26
ENDBRANCH  23  24
ENDBRANCH  22  23
ENDBRANCH   1  22
TORSDOF 13
ENDMDL
MODEL 3
REMARK VINA RESULT:     -11.0      4.712     10.152
REMARK SMILES Cc1ccc(C(=O)N[C@@H]2C=C[C@H](C(=O)OCCOC(=O)c3ccc(-c4c5nc(c(-c6ccccc6)c6ccc([nH]6)c(-c6ccccc6)c6nc(c(-c7ccccc7)c7ccc4[nH]7)C=C6)C=C5)cc3)C2)c(F)c1
REMARK SMILES IDX 16 1 15 2 13 3 14 4 12 5 9 6 10 7 69 8 11 9 8 10 6 11 7 12
REMARK SMILES IDX 5 14 1 15 2 16 3 17 72 18 4 19 70 20 71 21 17 22 18 23 19 24
REMARK SMILES IDX 20 25 21 26 22 27 68 28 23 29 67 30 24 31 25 32 26 33 61 34
REMARK SMILES IDX 27 35 66 36 60 37 62 38 28 39 65 40 59 41 58 42 29 44 51 45
REMARK SMILES IDX 36 46 50 47 37 48 40 49 49 50 63 51 38 52 39 53 48 55 64 56
REMARK SMILES IDX 41 57 30 58 31 59 35 60 32 61 34 62 33 63 52 64 53 65 57 66
REMARK SMILES IDX 54 67 56 68 55 69 42 70 43 71 47 72 44 73 46 74 45 75
REMARK H PARENT 8 13 62 43 40 54
REMARK Flexibility Score: inf
ROOT
ATOM      1  C   UNL A   1      33.966  35.401  29.130  1.00  0.00     0.274 C 
ENDROOT
BRANCH   1   2
ATOM      2  O   UNL A   1      33.596  34.048  28.793  1.00  0.00    -0.462 OA
BRANCH   2   3
ATOM      3  C   UNL A   1      34.560  33.104  29.005  1.00  0.00     0.312 C 
ATOM      4  O   UNL A   1      35.261  33.028  30.006  1.00  0.00    -0.252 OA
BRANCH   3   5
ATOM      5  C   UNL A   1      34.682  32.194  27.786  1.00  0.00     0.124 C 
ATOM      6  C   UNL A   1      33.521  30.147  27.007  1.00  0.00     0.106 C 
ATOM      7  C   UNL A   1      34.836  29.846  27.652  1.00  0.00    -0.006 C 
ATOM      8  C   UNL A   1      33.328  31.644  27.314  1.00  0.00     0.048 C 
ATOM      9  C   UNL A   1      35.460  30.947  28.081  1.00  0.00    -0.014 C 
BRANCH   6  10
ATOM     10  N   UNL A   1      32.544  29.223  27.555  1.00  0.00    -0.346 N 
ATOM     11  C   UNL A   1      31.975  28.081  27.049  1.00  0.00     0.254 C 
ATOM     12  O   UNL A   1      31.283  27.374  27.776  1.00  0.00    -0.269 OA
ATOM     13  H   UNL A   1      32.231  29.460  28.458  1.00  0.00     0.164 HD
BRANCH  11  14
ATOM     14  C   UNL A   1      32.138  27.734  25.631  1.00  0.00     0.075 A 
ATOM     15  C   UNL A   1      32.438  26.064  21.689  1.00  0.00     0.044 C 
ATOM     16  C   UNL A   1      32.358  26.711  23.040  1.00  0.00    -0.048 A 
ATOM     17  C   UNL A   1      31.264  27.514  23.392  1.00  0.00     0.004 A 
ATOM     18  C   UNL A   1      33.391  26.519  23.964  1.00  0.00     0.043 A 
ATOM     19  C   UNL A   1      31.157  28.037  24.683  1.00  0.00     0.017 A 
ATOM     20  C   UNL A   1      33.279  27.033  25.251  1.00  0.00     0.136 A 
ATOM     21  F   UNL A   1      34.266  26.788  26.125  1.00  0.00    -0.206 F 
ENDBRANCH  11  14
ENDBRANCH   6  10
ENDBRANCH   3   5
ENDBRANCH   2   3
ENDBRANCH   1   2
BRANCH   1  22
ATOM     22  C   UNL A   1      32.827  36.101  29.863  1.00  0.00     0.275 C 
BRANCH  22  23
ATOM     23  O   UNL A   1      32.412  35.303  30.984  1.00  0.00    -0.458 OA
BRANCH  23  24
ATOM     24  C   UNL A   1      32.755  35.785  32.198  1.00  0.00     0.338 C 
ATOM     25  O   UNL A   1      32.197  36.681  32.818  1.00  0.00    -0.246 OA
BRANCH  24  26
ATOM     26  C   UNL A   1      33.945  35.081  32.706  1.00  0.00     0.060 A 
ATOM     27  C   UNL A   1      35.210  35.657  32.608  1.00  0.00     0.016 A 
ATOM     28  C   UNL A   1      33.807  33.771  33.170  1.00  0.00     0.016 A 
ATOM     29  C   UNL A   1      36.344  34.896  32.892  1.00  0.00     0.010 A 
ATOM     30  C   UNL A   1      34.941  33.039  33.533  1.00  0.00     0.010 A 
ATOM     31  C   UNL A   1      36.226  33.579  33.366  1.00  0.00    -0.014 A 
BRANCH  31  32
ATOM     32  C   UNL A   1      37.442  32.779  33.681  1.00  0.00     0.031 A 
ATOM     33  C   UNL A   1      38.187  32.974  34.976  1.00  0.00     0.074 A 
ATOM     34  C   UNL A   1      37.884  31.855  32.803  1.00  0.00     0.049 A 
ATOM     35  N   UNL A   1      39.343  32.475  35.345  1.00  0.00    -0.248 NA
ATOM     36  C   UNL A   1      37.562  33.845  35.983  1.00  0.00     0.031 C 
ATOM     37  C   UNL A   1      37.250  31.523  31.526  1.00  0.00     0.029 A 
ATOM     38  N   UNL A   1      38.972  31.017  32.860  1.00  0.00    -0.354 N 
ATOM     39  C   UNL A   1      39.597  32.997  36.607  1.00  0.00     0.074 A 
ATOM     40  C   UNL A   1      38.483  33.861  36.938  1.00  0.00     0.031 C 
ATOM     41  C   UNL A   1      37.933  30.527  30.943  1.00  0.00     0.029 A 
ATOM     42  C   UNL A   1      39.098  30.206  31.760  1.00  0.00     0.049 A 
ATOM     43  H   UNL A   1      39.601  30.999  33.618  1.00  0.00     0.167 HD
ATOM     44  C   UNL A   1      40.656  32.772  37.421  1.00  0.00     0.031 A 
ATOM     45  C   UNL A   1      40.060  29.331  31.413  1.00  0.00     0.031 A 
ATOM     46  C   UNL A   1      41.746  31.879  37.127  1.00  0.00     0.049 A 
ATOM     47  C   UNL A   1      41.254  29.149  32.301  1.00  0.00     0.074 A 
ATOM     48  C   UNL A   1      42.850  31.579  37.908  1.00  0.00     0.029 A 
ATOM     49  N   UNL A   1      41.862  31.130  35.968  1.00  0.00    -0.354 N 
ATOM     50  N   UNL A   1      41.506  29.695  33.465  1.00  0.00    -0.248 NA
ATOM     51  C   UNL A   1      42.310  28.250  31.814  1.00  0.00     0.031 C 
ATOM     52  C   UNL A   1      43.655  30.675  37.205  1.00  0.00     0.029 A 
ATOM     53  C   UNL A   1      43.031  30.387  36.002  1.00  0.00     0.049 A 
ATOM     54  H   UNL A   1      41.211  31.125  35.230  1.00  0.00     0.167 HD
ATOM     55  C   UNL A   1      42.751  29.213  33.845  1.00  0.00     0.074 A 
ATOM     56  C   UNL A   1      43.190  28.308  32.803  1.00  0.00     0.031 C 
ATOM     57  C   UNL A   1      43.470  29.507  34.954  1.00  0.00     0.031 A 
BRANCH  44  58
ATOM     58  C   UNL A   1      40.713  33.524  38.720  1.00  0.00    -0.014 A 
ATOM     59  C   UNL A   1      41.324  34.783  38.806  1.00  0.00     0.009 A 
ATOM     60  C   UNL A   1      40.067  32.999  39.851  1.00  0.00     0.009 A 
ATOM     61  C   UNL A   1      41.296  35.497  40.007  1.00  0.00     0.001 A 
ATOM     62  C   UNL A   1      40.026  33.723  41.043  1.00  0.00     0.001 A 
ATOM     63  C   UNL A   1      40.643  34.970  41.121  1.00  0.00     0.000 A 
ENDBRANCH  44  58
BRANCH  45  64
ATOM     64  C   UNL A   1      39.961  28.608  30.121  1.00  0.00    -0.014 A 
ATOM     65  C   UNL A   1      40.464  29.177  28.943  1.00  0.00     0.009 A 
ATOM     66  C   UNL A   1      39.372  27.335  30.068  1.00  0.00     0.009 A 
ATOM     67  C   UNL A   1      40.372  28.484  27.733  1.00  0.00     0.001 A 
ATOM     68  C   UNL A   1      39.306  26.634  28.862  1.00  0.00     0.001 A 
ATOM     69  C   UNL A   1      39.802  27.212  27.695  1.00  0.00     0.000 A 
ENDBRANCH  45  64
BRANCH  57  70
ATOM     70  C   UNL A   1      44.808  28.845  35.091  1.00  0.00    -0.014 A 
ATOM     71  C   UNL A   1      45.970  29.476  34.621  1.00  0.00     0.009 A 
ATOM     72  C   UNL A   1      44.913  27.589  35.708  1.00  0.00     0.009 A 
ATOM     73  C   UNL A   1      47.211  28.849  34.743  1.00  0.00     0.001 A 
ATOM     74  C   UNL A   1      46.158  26.973  35.844  1.00  0.00     0.001 A 
ATOM     75  C   UNL A   1      47.304  27.600  35.355  1.00  0.00     0.000 A 
ENDBRANCH  57  70
ENDBRANCH  31  32
ENDBRANCH  24  26
ENDBRANCH  23  24
ENDBRANCH  22  23
ENDBRANCH   1  22
TORSDOF 13
ENDMDL
