MODEL 1
REMARK VINA RESULT:     -13.3      0.000      0.000
REMARK SMILES O=C(OCCOC(=O)c1ccc(-c2c3nc(c(-c4ccccc4)c4ccc([nH]4)c(-c4ccccc4)c4nc(c(-c5ccccc5)c5ccc2[nH]5)C=C4)C=C3)cc1)C1=Cc2cc(Cl)ccc2O[C@@H]1C(F)(F)F
REMARK SMILES IDX 5 1 4 2 3 3 2 4 1 5 57 6 58 7 67 8 59 9 66 10 60 11 65 12
REMARK SMILES IDX 61 13 64 14 62 15 63 16 68 17 69 18 70 19 71 20 6 21 7 22
REMARK SMILES IDX 8 23 9 24 10 25 56 26 11 27 55 28 12 29 13 30 14 31 49 32
REMARK SMILES IDX 15 33 54 34 48 35 50 36 16 37 53 38 47 39 46 40 17 42 39 43
REMARK SMILES IDX 24 44 38 45 25 46 28 47 37 48 51 49 26 50 27 51 36 53 52 54
REMARK SMILES IDX 29 55 18 56 19 57 23 58 20 59 22 60 21 61 40 62 41 63 45 64
REMARK SMILES IDX 42 65 44 66 43 67 30 68 31 69 35 70 32 71 34 72 33 73
REMARK H PARENT 50 41 28 52
REMARK Flexibility Score: inf
ROOT
ATOM      1  C   UNL A   1      31.333  32.272  26.760  1.00  0.00     0.275 C 
ENDROOT
BRANCH   1   2
ATOM      2  C   UNL A   1      32.038  30.209  26.833  1.00  0.00     0.275 C 
BRANCH   2   3
ATOM      3  O   UNL A   1      32.321  29.299  25.613  1.00  0.00    -0.459 OA
BRANCH   3   4
ATOM      4  C   UNL A   1      31.774  28.082  25.720  1.00  0.00     0.338 C 
ATOM      5  O   UNL A   1      31.563  27.415  26.700  1.00  0.00    -0.246 OA
BRANCH   4   6
ATOM      6  C   UNL A   1      31.979  27.724  24.335  1.00  0.00     0.087 C 
ATOM      7  C   UNL A   1      33.195  26.943  24.113  1.00  0.00     0.027 C 
ATOM      8  C   UNL A   1      30.175  27.103  24.050  1.00  0.00     0.316 C 
ATOM      9  C   UNL A   1      33.181  25.184  23.735  1.00  0.00     0.019 A 
ATOM     10  O   UNL A   1      30.132  25.200  23.709  1.00  0.00    -0.475 OA
ATOM     11  C   UNL A   1      34.369  24.512  23.777  1.00  0.00     0.032 A 
ATOM     12  C   UNL A   1      31.706  24.272  23.615  1.00  0.00     0.128 A 
ATOM     13  C   UNL A   1      34.250  23.115  23.730  1.00  0.00     0.041 A 
ATOM     14  C   UNL A   1      31.682  22.910  23.563  1.00  0.00     0.048 A 
ATOM     15  Cl  UNL A   1      35.732  22.218  23.850  1.00  0.00    -0.084 Cl
ATOM     16  C   UNL A   1      32.996  22.364  23.632  1.00  0.00     0.024 A 
BRANCH   8  17
ATOM     17  C   UNL A   1      29.715  28.392  23.240  1.00  0.00     0.430 C 
ATOM     18  F   UNL A   1      30.291  28.452  22.032  1.00  0.00    -0.167 F 
ATOM     19  F   UNL A   1      28.381  28.279  22.945  1.00  0.00    -0.167 F 
ATOM     20  F   UNL A   1      29.759  29.582  23.860  1.00  0.00    -0.167 F 
ENDBRANCH   8  17
ENDBRANCH   4   6
ENDBRANCH   3   4
ENDBRANCH   2   3
ENDBRANCH   1   2
BRANCH   1  21
ATOM     21  O   UNL A   1      32.270  33.652  27.234  1.00  0.00    -0.458 OA
BRANCH  21  22
ATOM     22  C   UNL A   1      33.043  34.172  28.248  1.00  0.00     0.338 C 
ATOM     23  O   UNL A   1      32.738  34.906  29.170  1.00  0.00    -0.246 OA
BRANCH  22  24
ATOM     24  C   UNL A   1      34.280  33.331  28.278  1.00  0.00     0.060 A 
ATOM     25  C   UNL A   1      35.530  33.970  28.402  1.00  0.00     0.016 A 
ATOM     26  C   UNL A   1      34.169  31.972  28.575  1.00  0.00     0.016 A 
ATOM     27  C   UNL A   1      36.598  33.303  29.031  1.00  0.00     0.010 A 
ATOM     28  C   UNL A   1      35.231  31.315  29.201  1.00  0.00     0.010 A 
ATOM     29  C   UNL A   1      36.431  31.990  29.497  1.00  0.00    -0.014 A 
BRANCH  29  30
ATOM     30  C   UNL A   1      37.580  31.207  30.024  1.00  0.00     0.031 A 
ATOM     31  C   UNL A   1      37.913  31.465  31.465  1.00  0.00     0.074 A 
ATOM     32  C   UNL A   1      38.349  30.376  29.289  1.00  0.00     0.049 A 
ATOM     33  N   UNL A   1      38.889  31.005  32.197  1.00  0.00    -0.248 NA
ATOM     34  C   UNL A   1      37.023  32.414  32.159  1.00  0.00     0.031 C 
ATOM     35  C   UNL A   1      38.156  30.033  27.880  1.00  0.00     0.029 A 
ATOM     36  N   UNL A   1      39.478  29.666  29.643  1.00  0.00    -0.354 N 
ATOM     37  C   UNL A   1      38.726  31.612  33.434  1.00  0.00     0.074 A 
ATOM     38  C   UNL A   1      37.616  32.528  33.329  1.00  0.00     0.031 C 
ATOM     39  C   UNL A   1      39.130  29.180  27.493  1.00  0.00     0.029 A 
ATOM     40  C   UNL A   1      40.028  28.926  28.618  1.00  0.00     0.049 A 
ATOM     41  H   UNL A   1      39.860  29.687  30.551  1.00  0.00     0.167 HD
ATOM     42  C   UNL A   1      39.416  31.409  34.577  1.00  0.00     0.031 A 
ATOM     43  C   UNL A   1      41.125  28.136  28.606  1.00  0.00     0.031 A 
ATOM     44  C   UNL A   1      40.543  30.535  34.681  1.00  0.00     0.049 A 
ATOM     45  C   UNL A   1      41.934  27.981  29.878  1.00  0.00     0.074 A 
ATOM     46  C   UNL A   1      41.320  30.256  35.788  1.00  0.00     0.029 A 
ATOM     47  N   UNL A   1      41.063  29.809  33.621  1.00  0.00    -0.354 N 
ATOM     48  N   UNL A   1      41.722  28.497  31.067  1.00  0.00    -0.248 NA
ATOM     49  C   UNL A   1      43.126  27.117  29.810  1.00  0.00     0.031 C 
ATOM     50  C   UNL A   1      42.346  29.397  35.385  1.00  0.00     0.029 A 
ATOM     51  C   UNL A   1      42.166  29.091  34.044  1.00  0.00     0.049 A 
ATOM     52  H   UNL A   1      40.702  29.804  32.705  1.00  0.00     0.167 HD
ATOM     53  C   UNL A   1      42.719  27.985  31.892  1.00  0.00     0.074 A 
ATOM     54  C   UNL A   1      43.532  27.110  31.072  1.00  0.00     0.031 C 
ATOM     55  C   UNL A   1      42.944  28.210  33.210  1.00  0.00     0.031 A 
BRANCH  42  56
ATOM     56  C   UNL A   1      38.950  32.188  35.772  1.00  0.00    -0.014 A 
ATOM     57  C   UNL A   1      39.447  33.480  36.027  1.00  0.00     0.009 A 
ATOM     58  C   UNL A   1      38.087  31.593  36.700  1.00  0.00     0.009 A 
ATOM     59  C   UNL A   1      39.139  34.130  37.222  1.00  0.00     0.001 A 
ATOM     60  C   UNL A   1      37.750  32.265  37.876  1.00  0.00     0.001 A 
ATOM     61  C   UNL A   1      38.290  33.522  38.144  1.00  0.00     0.000 A 
ENDBRANCH  42  56
BRANCH  43  62
ATOM     62  C   UNL A   1      41.550  27.396  27.376  1.00  0.00    -0.014 A 
ATOM     63  C   UNL A   1      41.131  26.070  27.160  1.00  0.00     0.009 A 
ATOM     64  C   UNL A   1      42.447  27.965  26.459  1.00  0.00     0.009 A 
ATOM     65  C   UNL A   1      41.628  25.324  26.086  1.00  0.00     0.001 A 
ATOM     66  C   UNL A   1      42.922  27.226  25.367  1.00  0.00     0.001 A 
ATOM     67  C   UNL A   1      42.523  25.902  25.190  1.00  0.00     0.000 A 
ENDBRANCH  43  62
BRANCH  55  68
ATOM     68  C   UNL A   1      44.067  27.460  33.872  1.00  0.00    -0.014 A 
ATOM     69  C   UNL A   1      45.352  28.009  33.991  1.00  0.00     0.009 A 
ATOM     70  C   UNL A   1      43.803  26.212  34.461  1.00  0.00     0.009 A 
ATOM     71  C   UNL A   1      46.357  27.310  34.663  1.00  0.00     0.001 A 
ATOM     72  C   UNL A   1      44.798  25.532  35.162  1.00  0.00     0.001 A 
ATOM     73  C   UNL A   1      46.077  26.078  35.255  1.00  0.00     0.000 A 
ENDBRANCH  55  68
ENDBRANCH  29  30
ENDBRANCH  22  24
ENDBRANCH  21  22
ENDBRANCH   1  21
TORSDOF 12
ENDMDL
MODEL 2
REMARK VINA RESULT:     -13.1      5.394     10.100
REMARK SMILES O=C(OCCOC(=O)c1ccc(-c2c3nc(c(-c4ccccc4)c4ccc([nH]4)c(-c4ccccc4)c4nc(c(-c5ccccc5)c5ccc2[nH]5)C=C4)C=C3)cc1)C1=Cc2cc(Cl)ccc2O[C@@H]1C(F)(F)F
REMARK SMILES IDX 5 1 4 2 3 3 2 4 1 5 57 6 58 7 67 8 59 9 66 10 60 11 65 12
REMARK SMILES IDX 61 13 64 14 62 15 63 16 68 17 69 18 70 19 71 20 6 21 7 22
REMARK SMILES IDX 8 23 9 24 10 25 56 26 11 27 55 28 12 29 13 30 14 31 49 32
REMARK SMILES IDX 15 33 54 34 48 35 50 36 16 37 53 38 47 39 46 40 17 42 39 43
REMARK SMILES IDX 24 44 38 45 25 46 28 47 37 48 51 49 26 50 27 51 36 53 52 54
REMARK SMILES IDX 29 55 18 56 19 57 23 58 20 59 22 60 21 61 40 62 41 63 45 64
REMARK SMILES IDX 42 65 44 66 43 67 30 68 31 69 35 70 32 71 34 72 33 73
REMARK H PARENT 50 41 28 52
REMARK Flexibility Score: inf
ROOT
ATOM      1  C   UNL A   1      39.423  20.544  25.799  1.00  0.00     0.275 C 
ENDROOT
BRANCH   1   2
ATOM      2  C   UNL A   1      37.402  20.493  24.980  1.00  0.00     0.275 C 
BRANCH   2   3
ATOM      3  O   UNL A   1      36.154  21.175  25.590  1.00  0.00    -0.459 OA
BRANCH   3   4
ATOM      4  C   UNL A   1      35.405  21.819  24.687  1.00  0.00     0.338 C 
ATOM      5  O   UNL A   1      35.735  22.578  23.812  1.00  0.00    -0.246 OA
BRANCH   4   6
ATOM      6  C   UNL A   1      34.163  21.658  25.408  1.00  0.00     0.087 C 
ATOM      7  C   UNL A   1      33.785  22.842  26.179  1.00  0.00     0.027 C 
ATOM      8  C   UNL A   1      33.188  20.933  23.910  1.00  0.00     0.316 C 
ATOM      9  C   UNL A   1      32.441  23.940  25.704  1.00  0.00     0.019 A 
ATOM     10  O   UNL A   1      31.781  22.131  23.340  1.00  0.00    -0.475 OA
ATOM     11  C   UNL A   1      32.327  25.131  26.362  1.00  0.00     0.032 A 
ATOM     12  C   UNL A   1      31.490  23.678  24.272  1.00  0.00     0.128 A 
ATOM     13  C   UNL A   1      31.432  26.038  25.774  1.00  0.00     0.041 A 
ATOM     14  C   UNL A   1      30.634  24.614  23.774  1.00  0.00     0.048 A 
ATOM     15  Cl  UNL A   1      31.307  27.591  26.538  1.00  0.00    -0.084 Cl
ATOM     16  C   UNL A   1      30.642  25.799  24.563  1.00  0.00     0.024 A 
BRANCH   8  17
ATOM     17  C   UNL A   1      33.231  19.432  24.435  1.00  0.00     0.430 C 
ATOM     18  F   UNL A   1      32.665  19.312  25.643  1.00  0.00    -0.167 F 
ATOM     19  F   UNL A   1      32.428  18.660  23.636  1.00  0.00    -0.167 F 
ATOM     20  F   UNL A   1      34.397  18.771  24.375  1.00  0.00    -0.167 F 
ENDBRANCH   8  17
ENDBRANCH   4   6
ENDBRANCH   3   4
ENDBRANCH   2   3
ENDBRANCH   1   2
BRANCH   1  21
ATOM     21  O   UNL A   1      40.541  19.219  25.748  1.00  0.00    -0.458 OA
BRANCH  21  22
ATOM     22  C   UNL A   1      41.823  18.837  26.075  1.00  0.00     0.338 C 
ATOM     23  O   UNL A   1      42.431  17.817  25.809  1.00  0.00    -0.246 OA
BRANCH  22  24
ATOM     24  C   UNL A   1      42.524  20.098  26.476  1.00  0.00     0.060 A 
ATOM     25  C   UNL A   1      43.044  20.932  25.466  1.00  0.00     0.016 A 
ATOM     26  C   UNL A   1      42.316  20.612  27.755  1.00  0.00     0.016 A 
ATOM     27  C   UNL A   1      43.139  22.320  25.685  1.00  0.00     0.010 A 
ATOM     28  C   UNL A   1      42.409  21.990  27.967  1.00  0.00     0.010 A 
ATOM     29  C   UNL A   1      42.755  22.865  26.919  1.00  0.00    -0.014 A 
BRANCH  29  30
ATOM     30  C   UNL A   1      42.986  24.300  27.234  1.00  0.00     0.031 A 
ATOM     31  C   UNL A   1      44.421  24.737  27.175  1.00  0.00     0.074 A 
ATOM     32  C   UNL A   1      42.029  25.167  27.628  1.00  0.00     0.049 A 
ATOM     33  N   UNL A   1      44.962  25.889  27.461  1.00  0.00    -0.248 NA
ATOM     34  C   UNL A   1      45.381  23.697  26.761  1.00  0.00     0.031 C 
ATOM     35  C   UNL A   1      40.598  24.888  27.743  1.00  0.00     0.029 A 
ATOM     36  N   UNL A   1      42.135  26.486  28.023  1.00  0.00    -0.354 N 
ATOM     37  C   UNL A   1      46.322  25.705  27.263  1.00  0.00     0.074 A 
ATOM     38  C   UNL A   1      46.532  24.321  26.915  1.00  0.00     0.031 C 
ATOM     39  C   UNL A   1      39.962  25.999  28.175  1.00  0.00     0.029 A 
ATOM     40  C   UNL A   1      40.938  27.067  28.386  1.00  0.00     0.049 A 
ATOM     41  H   UNL A   1      42.992  26.970  28.044  1.00  0.00     0.167 HD
ATOM     42  C   UNL A   1      47.320  26.612  27.332  1.00  0.00     0.031 A 
ATOM     43  C   UNL A   1      40.676  28.317  28.829  1.00  0.00     0.031 A 
ATOM     44  C   UNL A   1      47.130  27.976  27.717  1.00  0.00     0.049 A 
ATOM     45  C   UNL A   1      41.820  29.300  28.975  1.00  0.00     0.074 A 
ATOM     46  C   UNL A   1      48.070  28.982  27.825  1.00  0.00     0.029 A 
ATOM     47  N   UNL A   1      45.906  28.518  28.075  1.00  0.00    -0.354 N 
ATOM     48  N   UNL A   1      43.096  29.139  28.706  1.00  0.00    -0.248 NA
ATOM     49  C   UNL A   1      41.484  30.646  29.472  1.00  0.00     0.031 C 
ATOM     50  C   UNL A   1      47.421  30.125  28.300  1.00  0.00     0.029 A 
ATOM     51  C   UNL A   1      46.067  29.847  28.422  1.00  0.00     0.049 A 
ATOM     52  H   UNL A   1      45.050  28.032  28.081  1.00  0.00     0.167 HD
ATOM     53  C   UNL A   1      43.699  30.368  28.952  1.00  0.00     0.074 A 
ATOM     54  C   UNL A   1      42.651  31.270  29.384  1.00  0.00     0.031 C 
ATOM     55  C   UNL A   1      45.001  30.727  28.829  1.00  0.00     0.031 A 
BRANCH  42  56
ATOM     56  C   UNL A   1      48.693  26.104  27.001  1.00  0.00    -0.014 A 
ATOM     57  C   UNL A   1      49.492  25.495  27.987  1.00  0.00     0.009 A 
ATOM     58  C   UNL A   1      49.230  26.321  25.727  1.00  0.00     0.009 A 
ATOM     59  C   UNL A   1      50.823  25.177  27.719  1.00  0.00     0.001 A 
ATOM     60  C   UNL A   1      50.551  25.965  25.451  1.00  0.00     0.001 A 
ATOM     61  C   UNL A   1      51.350  25.411  26.450  1.00  0.00     0.000 A 
ENDBRANCH  42  56
BRANCH  43  62
ATOM     62  C   UNL A   1      39.285  28.761  29.159  1.00  0.00    -0.014 A 
ATOM     63  C   UNL A   1      38.762  28.566  30.451  1.00  0.00     0.009 A 
ATOM     64  C   UNL A   1      38.439  29.293  28.174  1.00  0.00     0.009 A 
ATOM     65  C   UNL A   1      37.422  28.852  30.735  1.00  0.00     0.001 A 
ATOM     66  C   UNL A   1      37.105  29.606  28.469  1.00  0.00     0.001 A 
ATOM     67  C   UNL A   1      36.595  29.373  29.744  1.00  0.00     0.000 A 
ENDBRANCH  43  62
BRANCH  55  68
ATOM     68  C   UNL A   1      45.366  32.160  29.098  1.00  0.00    -0.014 A 
ATOM     69  C   UNL A   1      45.296  33.141  28.098  1.00  0.00     0.009 A 
ATOM     70  C   UNL A   1      45.704  32.546  30.406  1.00  0.00     0.009 A 
ATOM     71  C   UNL A   1      45.585  34.474  28.396  1.00  0.00     0.001 A 
ATOM     72  C   UNL A   1      45.957  33.884  30.710  1.00  0.00     0.001 A 
ATOM     73  C   UNL A   1      45.906  34.845  29.702  1.00  0.00     0.000 A 
ENDBRANCH  55  68
ENDBRANCH  29  30
ENDBRANCH  22  24
ENDBRANCH  21  22
ENDBRANCH   1  21
TORSDOF 12
ENDMDL
MODEL 3
REMARK VINA RESULT:     -13.0      1.065      6.141
REMARK SMILES O=C(OCCOC(=O)c1ccc(-c2c3nc(c(-c4ccccc4)c4ccc([nH]4)c(-c4ccccc4)c4nc(c(-c5ccccc5)c5ccc2[nH]5)C=C4)C=C3)cc1)C1=Cc2cc(Cl)ccc2O[C@@H]1C(F)(F)F
REMARK SMILES IDX 5 1 4 2 3 3 2 4 1 5 57 6 58 7 67 8 59 9 66 10 60 11 65 12
REMARK SMILES IDX 61 13 64 14 62 15 63 16 68 17 69 18 70 19 71 20 6 21 7 22
REMARK SMILES IDX 8 23 9 24 10 25 56 26 11 27 55 28 12 29 13 30 14 31 49 32
REMARK SMILES IDX 15 33 54 34 48 35 50 36 16 37 53 38 47 39 46 40 17 42 39 43
REMARK SMILES IDX 24 44 38 45 25 46 28 47 37 48 51 49 26 50 27 51 36 53 52 54
REMARK SMILES IDX 29 55 18 56 19 57 23 58 20 59 22 60 21 61 40 62 41 63 45 64
REMARK SMILES IDX 42 65 44 66 43 67 30 68 31 69 35 70 32 71 34 72 33 73
REMARK H PARENT 50 41 28 52
REMARK Flexibility Score: inf
ROOT
ATOM      1  C   UNL A   1      31.368  32.071  26.831  1.00  0.00     0.275 C 
ENDROOT
BRANCH   1   2
ATOM      2  C   UNL A   1      32.200  30.057  26.927  1.00  0.00     0.275 C 
BRANCH   2   3
ATOM      3  O   UNL A   1      32.503  29.138  25.719  1.00  0.00    -0.459 OA
BRANCH   3   4
ATOM      4  C   UNL A   1      31.998  27.905  25.850  1.00  0.00     0.338 C 
ATOM      5  O   UNL A   1      31.831  27.242  26.842  1.00  0.00    -0.246 OA
BRANCH   4   6
ATOM      6  C   UNL A   1      32.180  27.540  24.464  1.00  0.00     0.087 C 
ATOM      7  C   UNL A   1      33.421  26.804  24.218  1.00  0.00     0.027 C 
ATOM      8  C   UNL A   1      30.396  26.846  24.233  1.00  0.00     0.316 C 
ATOM      9  C   UNL A   1      33.466  25.042  23.859  1.00  0.00     0.019 A 
ATOM     10  O   UNL A   1      30.419  24.939  23.912  1.00  0.00    -0.475 OA
ATOM     11  C   UNL A   1      34.680  24.417  23.877  1.00  0.00     0.032 A 
ATOM     12  C   UNL A   1      32.025  24.072  23.786  1.00  0.00     0.128 A 
ATOM     13  C   UNL A   1      34.615  23.017  23.847  1.00  0.00     0.041 A 
ATOM     14  C   UNL A   1      32.053  22.709  23.749  1.00  0.00     0.048 A 
ATOM     15  Cl  UNL A   1      36.133  22.179  23.937  1.00  0.00    -0.084 Cl
ATOM     16  C   UNL A   1      33.389  22.216  23.790  1.00  0.00     0.024 A 
BRANCH   8  17
ATOM     17  C   UNL A   1      29.865  28.107  23.422  1.00  0.00     0.430 C 
ATOM     18  F   UNL A   1      30.333  28.124  22.167  1.00  0.00    -0.167 F 
ATOM     19  F   UNL A   1      28.511  27.985  23.249  1.00  0.00    -0.167 F 
ATOM     20  F   UNL A   1      29.962  29.317  23.995  1.00  0.00    -0.167 F 
ENDBRANCH   8  17
ENDBRANCH   4   6
ENDBRANCH   3   4
ENDBRANCH   2   3
ENDBRANCH   1   2
BRANCH   1  21
ATOM     21  O   UNL A   1      32.280  33.527  27.069  1.00  0.00    -0.458 OA
BRANCH  21  22
ATOM     22  C   UNL A   1      32.904  34.301  28.020  1.00  0.00     0.338 C 
ATOM     23  O   UNL A   1      32.461  35.187  28.728  1.00  0.00    -0.246 OA
BRANCH  22  24
ATOM     24  C   UNL A   1      34.170  33.575  28.356  1.00  0.00     0.060 A 
ATOM     25  C   UNL A   1      35.398  34.243  28.181  1.00  0.00     0.016 A 
ATOM     26  C   UNL A   1      34.108  32.449  29.176  1.00  0.00     0.016 A 
ATOM     27  C   UNL A   1      36.496  33.913  28.999  1.00  0.00     0.010 A 
ATOM     28  C   UNL A   1      35.199  32.128  29.988  1.00  0.00     0.010 A 
ATOM     29  C   UNL A   1      36.379  32.896  29.957  1.00  0.00    -0.014 A 
BRANCH  29  30
ATOM     30  C   UNL A   1      37.560  32.421  30.727  1.00  0.00     0.031 A 
ATOM     31  C   UNL A   1      38.305  31.279  30.100  1.00  0.00     0.074 A 
ATOM     32  C   UNL A   1      37.930  32.889  31.938  1.00  0.00     0.049 A 
ATOM     33  N   UNL A   1      39.322  30.594  30.546  1.00  0.00    -0.248 NA
ATOM     34  C   UNL A   1      37.792  30.832  28.792  1.00  0.00     0.031 C 
ATOM     35  C   UNL A   1      37.301  33.985  32.676  1.00  0.00     0.029 A 
ATOM     36  N   UNL A   1      38.946  32.477  32.777  1.00  0.00    -0.354 N 
ATOM     37  C   UNL A   1      39.564  29.638  29.570  1.00  0.00     0.074 A 
ATOM     38  C   UNL A   1      38.546  29.776  28.558  1.00  0.00     0.031 C 
ATOM     39  C   UNL A   1      37.944  34.157  33.851  1.00  0.00     0.029 A 
ATOM     40  C   UNL A   1      39.022  33.175  33.963  1.00  0.00     0.049 A 
ATOM     41  H   UNL A   1      39.563  31.744  32.548  1.00  0.00     0.167 HD
ATOM     42  C   UNL A   1      40.566  28.735  29.497  1.00  0.00     0.031 A 
ATOM     43  C   UNL A   1      39.871  33.032  35.005  1.00  0.00     0.031 A 
ATOM     44  C   UNL A   1      41.556  28.560  30.514  1.00  0.00     0.049 A 
ATOM     45  C   UNL A   1      40.941  31.960  34.940  1.00  0.00     0.074 A 
ATOM     46  C   UNL A   1      42.614  27.673  30.546  1.00  0.00     0.029 A 
ATOM     47  N   UNL A   1      41.593  29.287  31.694  1.00  0.00    -0.354 N 
ATOM     48  N   UNL A   1      41.212  31.113  33.974  1.00  0.00    -0.248 NA
ATOM     49  C   UNL A   1      41.834  31.837  36.105  1.00  0.00     0.031 C 
ATOM     50  C   UNL A   1      43.265  27.828  31.774  1.00  0.00     0.029 A 
ATOM     51  C   UNL A   1      42.651  28.857  32.473  1.00  0.00     0.049 A 
ATOM     52  H   UNL A   1      40.963  30.002  31.940  1.00  0.00     0.167 HD
ATOM     53  C   UNL A   1      42.329  30.397  34.393  1.00  0.00     0.074 A 
ATOM     54  C   UNL A   1      42.692  30.913  35.697  1.00  0.00     0.031 C 
ATOM     55  C   UNL A   1      43.002  29.404  33.759  1.00  0.00     0.031 A 
BRANCH  42  56
ATOM     56  C   UNL A   1      40.582  27.870  28.270  1.00  0.00    -0.014 A 
ATOM     57  C   UNL A   1      39.993  26.592  28.282  1.00  0.00     0.009 A 
ATOM     58  C   UNL A   1      41.272  28.292  27.127  1.00  0.00     0.009 A 
ATOM     59  C   UNL A   1      40.155  25.730  27.197  1.00  0.00     0.001 A 
ATOM     60  C   UNL A   1      41.398  27.442  26.028  1.00  0.00     0.001 A 
ATOM     61  C   UNL A   1      40.856  26.157  26.071  1.00  0.00     0.000 A 
ENDBRANCH  42  56
BRANCH  43  62
ATOM     62  C   UNL A   1      39.795  33.915  36.211  1.00  0.00    -0.014 A 
ATOM     63  C   UNL A   1      38.962  33.574  37.294  1.00  0.00     0.009 A 
ATOM     64  C   UNL A   1      40.471  35.144  36.257  1.00  0.00     0.009 A 
ATOM     65  C   UNL A   1      38.779  34.455  38.365  1.00  0.00     0.001 A 
ATOM     66  C   UNL A   1      40.309  36.011  37.345  1.00  0.00     0.001 A 
ATOM     67  C   UNL A   1      39.453  35.673  38.391  1.00  0.00     0.000 A 
ENDBRANCH  43  62
BRANCH  55  68
ATOM     68  C   UNL A   1      44.231  28.850  34.423  1.00  0.00    -0.014 A 
ATOM     69  C   UNL A   1      45.479  29.483  34.313  1.00  0.00     0.009 A 
ATOM     70  C   UNL A   1      44.114  27.717  35.245  1.00  0.00     0.009 A 
ATOM     71  C   UNL A   1      46.589  28.975  34.992  1.00  0.00     0.001 A 
ATOM     72  C   UNL A   1      45.216  27.232  35.950  1.00  0.00     0.001 A 
ATOM     73  C   UNL A   1      46.454  27.857  35.815  1.00  0.00     0.000 A 
ENDBRANCH  55  68
ENDBRANCH  29  30
ENDBRANCH  22  24
ENDBRANCH  21  22
ENDBRANCH   1  21
TORSDOF 12
ENDMDL
