MODEL 1
REMARK VINA RESULT:     -12.8      0.000      0.000
REMARK SMILES O=C(OCCOC(=O)c1ccc(-c2c3nc(c(-c4ccccc4)c4ccc([nH]4)c(-c4ccccc4)c4nc(c(-c5ccccc5)c5ccc2[nH]5)C=C4)C=C3)cc1)C1=Cc2c(ccc(Cl)c2Sc2ccccc2)O[C@H]1C(F)(F)F
REMARK SMILES IDX 4 1 3 2 2 3 1 4 57 5 58 6 74 7 59 8 73 9 60 10 65 11 61 12
REMARK SMILES IDX 63 13 62 14 64 15 75 16 76 17 77 18 78 19 66 20 67 21 68 22
REMARK SMILES IDX 72 23 69 24 71 25 70 26 5 27 6 28 7 29 8 30 9 31 10 32 56 33
REMARK SMILES IDX 11 34 55 35 12 36 13 37 14 38 49 39 15 40 54 41 48 42 50 43
REMARK SMILES IDX 16 44 53 45 47 46 46 47 17 49 39 50 24 51 38 52 25 53 28 54
REMARK SMILES IDX 37 55 51 56 26 57 27 58 36 60 52 61 29 62 18 63 19 64 23 65
REMARK SMILES IDX 20 66 22 67 21 68 40 69 41 70 45 71 42 72 44 73 43 74 30 75
REMARK SMILES IDX 31 76 35 77 32 78 34 79 33 80
REMARK H PARENT 50 48 28 59
REMARK Flexibility Score: inf
ROOT
ATOM      1  C   UNL A   1      31.574  27.941  27.397  1.00  0.00     0.275 C 
ENDROOT
BRANCH   1   2
ATOM      2  O   UNL A   1      32.010  26.728  26.776  1.00  0.00    -0.459 OA
BRANCH   2   3
ATOM      3  C   UNL A   1      31.223  25.968  26.014  1.00  0.00     0.338 C 
ATOM      4  O   UNL A   1      30.268  25.373  26.499  1.00  0.00    -0.246 OA
BRANCH   3   5
ATOM      5  C   UNL A   1      31.601  25.774  24.605  1.00  0.00     0.087 C 
ATOM      6  C   UNL A   1      31.713  24.648  23.875  1.00  0.00     0.028 C 
ATOM      7  C   UNL A   1      32.405  26.883  24.048  1.00  0.00     0.316 C 
ATOM      8  C   UNL A   1      32.952  23.915  24.167  1.00  0.00     0.033 A 
ATOM      9  O   UNL A   1      33.634  26.264  23.460  1.00  0.00    -0.475 OA
ATOM     10  C   UNL A   1      33.950  24.926  23.846  1.00  0.00     0.129 A 
ATOM     11  C   UNL A   1      33.246  22.500  24.571  1.00  0.00     0.042 A 
ATOM     12  C   UNL A   1      35.267  24.556  23.804  1.00  0.00     0.049 A 
ATOM     13  C   UNL A   1      34.639  22.228  24.484  1.00  0.00     0.055 A 
ATOM     14  C   UNL A   1      35.592  23.225  24.105  1.00  0.00     0.025 A 
ATOM     15  Cl  UNL A   1      35.343  20.665  24.773  1.00  0.00    -0.083 Cl
BRANCH   7  16
ATOM     16  C   UNL A   1      31.430  27.665  23.124  1.00  0.00     0.430 C 
ATOM     17  F   UNL A   1      30.250  27.931  23.757  1.00  0.00    -0.167 F 
ATOM     18  F   UNL A   1      31.920  28.859  22.730  1.00  0.00    -0.167 F 
ATOM     19  F   UNL A   1      31.105  26.961  22.014  1.00  0.00    -0.167 F 
ENDBRANCH   7  16
BRANCH  11  20
ATOM     20  S   UNL A   1      32.232  20.781  25.134  1.00  0.00    -0.088 SA
BRANCH  20  21
ATOM     21  C   UNL A   1      32.483  18.929  24.661  1.00  0.00     0.012 A 
ATOM     22  C   UNL A   1      32.729  18.436  23.350  1.00  0.00     0.015 A 
ATOM     23  C   UNL A   1      32.606  17.948  25.696  1.00  0.00     0.015 A 
ATOM     24  C   UNL A   1      33.378  17.175  23.134  1.00  0.00     0.001 A 
ATOM     25  C   UNL A   1      33.268  16.696  25.474  1.00  0.00     0.001 A 
ATOM     26  C   UNL A   1      33.704  16.336  24.201  1.00  0.00     0.000 A 
ENDBRANCH  20  21
ENDBRANCH  11  20
ENDBRANCH   3   5
ENDBRANCH   2   3
ENDBRANCH   1   2
BRANCH   1  27
ATOM     27  C   UNL A   1      32.160  29.288  26.839  1.00  0.00     0.275 C 
BRANCH  27  28
ATOM     28  O   UNL A   1      33.526  29.414  26.946  1.00  0.00    -0.458 OA
BRANCH  28  29
ATOM     29  C   UNL A   1      33.699  30.667  27.311  1.00  0.00     0.338 C 
ATOM     30  O   UNL A   1      32.931  31.621  27.363  1.00  0.00    -0.246 OA
BRANCH  29  31
ATOM     31  C   UNL A   1      35.026  30.711  27.721  1.00  0.00     0.060 A 
ATOM     32  C   UNL A   1      35.402  29.449  28.119  1.00  0.00     0.016 A 
ATOM     33  C   UNL A   1      35.719  31.931  27.854  1.00  0.00     0.016 A 
ATOM     34  C   UNL A   1      36.472  29.420  28.904  1.00  0.00     0.010 A 
ATOM     35  C   UNL A   1      36.910  31.861  28.485  1.00  0.00     0.010 A 
ATOM     36  C   UNL A   1      37.219  30.611  29.013  1.00  0.00    -0.014 A 
BRANCH  36  37
ATOM     37  C   UNL A   1      38.432  30.423  29.727  1.00  0.00     0.031 A 
ATOM     38  C   UNL A   1      38.391  30.789  31.148  1.00  0.00     0.074 A 
ATOM     39  C   UNL A   1      39.282  29.659  29.033  1.00  0.00     0.049 A 
ATOM     40  N   UNL A   1      39.274  30.512  32.046  1.00  0.00    -0.248 NA
ATOM     41  C   UNL A   1      37.216  31.544  31.638  1.00  0.00     0.031 C 
ATOM     42  C   UNL A   1      39.104  29.235  27.623  1.00  0.00     0.029 A 
ATOM     43  N   UNL A   1      40.356  28.971  29.457  1.00  0.00    -0.354 N 
ATOM     44  C   UNL A   1      38.793  31.089  33.203  1.00  0.00     0.074 A 
ATOM     45  C   UNL A   1      37.541  31.738  32.907  1.00  0.00     0.031 C 
ATOM     46  C   UNL A   1      39.988  28.272  27.348  1.00  0.00     0.029 A 
ATOM     47  C   UNL A   1      40.853  28.130  28.501  1.00  0.00     0.049 A 
ATOM     48  H   UNL A   1      40.742  29.063  30.357  1.00  0.00     0.167 HD
ATOM     49  C   UNL A   1      39.412  31.055  34.395  1.00  0.00     0.031 A 
ATOM     50  C   UNL A   1      41.949  27.372  28.585  1.00  0.00     0.031 A 
ATOM     51  C   UNL A   1      40.671  30.381  34.545  1.00  0.00     0.049 A 
ATOM     52  C   UNL A   1      42.652  27.449  29.903  1.00  0.00     0.074 A 
ATOM     53  C   UNL A   1      41.493  30.311  35.645  1.00  0.00     0.029 A 
ATOM     54  N   UNL A   1      41.285  29.650  33.524  1.00  0.00    -0.354 N 
ATOM     55  N   UNL A   1      42.267  28.061  31.005  1.00  0.00    -0.248 NA
ATOM     56  C   UNL A   1      43.934  26.767  29.993  1.00  0.00     0.031 C 
ATOM     57  C   UNL A   1      42.631  29.588  35.271  1.00  0.00     0.029 A 
ATOM     58  C   UNL A   1      42.488  29.140  33.961  1.00  0.00     0.049 A 
ATOM     59  H   UNL A   1      40.911  29.518  32.623  1.00  0.00     0.167 HD
ATOM     60  C   UNL A   1      43.267  27.846  31.930  1.00  0.00     0.074 A 
ATOM     61  C   UNL A   1      44.244  26.996  31.262  1.00  0.00     0.031 C 
ATOM     62  C   UNL A   1      43.394  28.309  33.201  1.00  0.00     0.031 A 
BRANCH  49  63
ATOM     63  C   UNL A   1      38.792  31.833  35.508  1.00  0.00    -0.014 A 
ATOM     64  C   UNL A   1      38.922  33.228  35.602  1.00  0.00     0.009 A 
ATOM     65  C   UNL A   1      38.095  31.146  36.513  1.00  0.00     0.009 A 
ATOM     66  C   UNL A   1      38.370  33.917  36.684  1.00  0.00     0.001 A 
ATOM     67  C   UNL A   1      37.521  31.839  37.578  1.00  0.00     0.001 A 
ATOM     68  C   UNL A   1      37.661  33.224  37.664  1.00  0.00     0.000 A 
ENDBRANCH  49  63
BRANCH  50  69
ATOM     69  C   UNL A   1      42.449  26.651  27.396  1.00  0.00    -0.014 A 
ATOM     70  C   UNL A   1      42.095  25.320  27.151  1.00  0.00     0.009 A 
ATOM     71  C   UNL A   1      43.285  27.312  26.475  1.00  0.00     0.009 A 
ATOM     72  C   UNL A   1      42.604  24.655  26.033  1.00  0.00     0.001 A 
ATOM     73  C   UNL A   1      43.756  26.659  25.338  1.00  0.00     0.001 A 
ATOM     74  C   UNL A   1      43.431  25.324  25.129  1.00  0.00     0.000 A 
ENDBRANCH  50  69
BRANCH  62  75
ATOM     75  C   UNL A   1      44.625  27.845  33.911  1.00  0.00    -0.014 A 
ATOM     76  C   UNL A   1      45.811  28.591  33.869  1.00  0.00     0.009 A 
ATOM     77  C   UNL A   1      44.580  26.640  34.627  1.00  0.00     0.009 A 
ATOM     78  C   UNL A   1      46.958  28.101  34.486  1.00  0.00     0.001 A 
ATOM     79  C   UNL A   1      45.715  26.180  35.283  1.00  0.00     0.001 A 
ATOM     80  C   UNL A   1      46.906  26.901  35.195  1.00  0.00     0.000 A 
ENDBRANCH  62  75
ENDBRANCH  36  37
ENDBRANCH  29  31
ENDBRANCH  28  29
ENDBRANCH  27  28
ENDBRANCH   1  27
TORSDOF 14
ENDMDL
MODEL 2
REMARK VINA RESULT:     -12.6      3.749      6.835
REMARK SMILES O=C(OCCOC(=O)c1ccc(-c2c3nc(c(-c4ccccc4)c4ccc([nH]4)c(-c4ccccc4)c4nc(c(-c5ccccc5)c5ccc2[nH]5)C=C4)C=C3)cc1)C1=Cc2c(ccc(Cl)c2Sc2ccccc2)O[C@H]1C(F)(F)F
REMARK SMILES IDX 4 1 3 2 2 3 1 4 57 5 58 6 74 7 59 8 73 9 60 10 65 11 61 12
REMARK SMILES IDX 63 13 62 14 64 15 75 16 76 17 77 18 78 19 66 20 67 21 68 22
REMARK SMILES IDX 72 23 69 24 71 25 70 26 5 27 6 28 7 29 8 30 9 31 10 32 56 33
REMARK SMILES IDX 11 34 55 35 12 36 13 37 14 38 49 39 15 40 54 41 48 42 50 43
REMARK SMILES IDX 16 44 53 45 47 46 46 47 17 49 39 50 24 51 38 52 25 53 28 54
REMARK SMILES IDX 37 55 51 56 26 57 27 58 36 60 52 61 29 62 18 63 19 64 23 65
REMARK SMILES IDX 20 66 22 67 21 68 40 69 41 70 45 71 42 72 44 73 43 74 30 75
REMARK SMILES IDX 31 76 35 77 32 78 34 79 33 80
REMARK H PARENT 50 48 28 59
REMARK Flexibility Score: inf
ROOT
ATOM      1  C   UNL A   1      32.542  29.907  26.864  1.00  0.00     0.275 C 
ENDROOT
BRANCH   1   2
ATOM      2  O   UNL A   1      32.199  30.189  25.504  1.00  0.00    -0.459 OA
BRANCH   2   3
ATOM      3  C   UNL A   1      32.447  29.353  24.495  1.00  0.00     0.338 C 
ATOM      4  O   UNL A   1      33.532  29.362  23.926  1.00  0.00    -0.246 OA
BRANCH   3   5
ATOM      5  C   UNL A   1      31.346  28.504  24.013  1.00  0.00     0.087 C 
ATOM      6  C   UNL A   1      31.065  27.209  24.257  1.00  0.00     0.028 C 
ATOM      7  C   UNL A   1      30.739  28.977  22.750  1.00  0.00     0.316 C 
ATOM      8  C   UNL A   1      31.924  26.299  23.488  1.00  0.00     0.033 A 
ATOM      9  O   UNL A   1      30.764  27.818  21.805  1.00  0.00    -0.475 OA
ATOM     10  C   UNL A   1      31.619  26.721  22.128  1.00  0.00     0.129 A 
ATOM     11  C   UNL A   1      32.812  25.149  23.864  1.00  0.00     0.042 A 
ATOM     12  C   UNL A   1      32.086  25.964  21.087  1.00  0.00     0.049 A 
ATOM     13  C   UNL A   1      33.231  24.435  22.708  1.00  0.00     0.055 A 
ATOM     14  C   UNL A   1      32.865  24.835  21.385  1.00  0.00     0.025 A 
ATOM     15  Cl  UNL A   1      34.182  22.980  22.758  1.00  0.00    -0.083 Cl
BRANCH   7  16
ATOM     16  C   UNL A   1      29.374  29.594  23.163  1.00  0.00     0.430 C 
ATOM     17  F   UNL A   1      28.823  30.314  22.143  1.00  0.00    -0.167 F 
ATOM     18  F   UNL A   1      28.456  28.663  23.501  1.00  0.00    -0.167 F 
ATOM     19  F   UNL A   1      29.496  30.455  24.201  1.00  0.00    -0.167 F 
ENDBRANCH   7  16
BRANCH  11  20
ATOM     20  S   UNL A   1      33.548  24.221  25.565  1.00  0.00    -0.088 SA
BRANCH  20  21
ATOM     21  C   UNL A   1      35.184  23.257  25.896  1.00  0.00     0.012 A 
ATOM     22  C   UNL A   1      35.322  21.842  25.916  1.00  0.00     0.015 A 
ATOM     23  C   UNL A   1      36.422  23.973  25.970  1.00  0.00     0.015 A 
ATOM     24  C   UNL A   1      36.587  21.209  25.675  1.00  0.00     0.001 A 
ATOM     25  C   UNL A   1      37.679  23.334  25.716  1.00  0.00     0.001 A 
ATOM     26  C   UNL A   1      37.752  21.959  25.512  1.00  0.00     0.000 A 
ENDBRANCH  20  21
ENDBRANCH  11  20
ENDBRANCH   3   5
ENDBRANCH   2   3
ENDBRANCH   1   2
BRANCH   1  27
ATOM     27  C   UNL A   1      33.859  30.555  27.425  1.00  0.00     0.275 C 
BRANCH  27  28
ATOM     28  O   UNL A   1      34.660  29.704  28.151  1.00  0.00    -0.458 OA
BRANCH  28  29
ATOM     29  C   UNL A   1      35.509  30.508  28.753  1.00  0.00     0.338 C 
ATOM     30  O   UNL A   1      35.360  31.583  29.323  1.00  0.00    -0.246 OA
BRANCH  29  31
ATOM     31  C   UNL A   1      36.721  29.831  28.670  1.00  0.00     0.060 A 
ATOM     32  C   UNL A   1      36.999  29.284  29.901  1.00  0.00     0.016 A 
ATOM     33  C   UNL A   1      37.542  29.920  27.529  1.00  0.00     0.016 A 
ATOM     34  C   UNL A   1      38.277  28.977  30.087  1.00  0.00     0.010 A 
ATOM     35  C   UNL A   1      38.788  29.421  27.665  1.00  0.00     0.010 A 
ATOM     36  C   UNL A   1      39.113  29.001  28.951  1.00  0.00    -0.014 A 
BRANCH  36  37
ATOM     37  C   UNL A   1      40.407  28.487  29.224  1.00  0.00     0.031 A 
ATOM     38  C   UNL A   1      40.667  27.132  28.721  1.00  0.00     0.074 A 
ATOM     39  C   UNL A   1      41.236  29.460  29.616  1.00  0.00     0.049 A 
ATOM     40  N   UNL A   1      41.809  26.538  28.646  1.00  0.00    -0.248 NA
ATOM     41  C   UNL A   1      39.518  26.342  28.225  1.00  0.00     0.031 C 
ATOM     42  C   UNL A   1      40.837  30.850  29.945  1.00  0.00     0.029 A 
ATOM     43  N   UNL A   1      42.580  29.482  29.639  1.00  0.00    -0.354 N 
ATOM     44  C   UNL A   1      41.524  25.290  28.134  1.00  0.00     0.074 A 
ATOM     45  C   UNL A   1      40.103  25.196  27.915  1.00  0.00     0.031 C 
ATOM     46  C   UNL A   1      41.935  31.606  30.028  1.00  0.00     0.029 A 
ATOM     47  C   UNL A   1      43.080  30.727  29.898  1.00  0.00     0.049 A 
ATOM     48  H   UNL A   1      43.141  28.689  29.487  1.00  0.00     0.167 HD
ATOM     49  C   UNL A   1      42.433  24.327  27.902  1.00  0.00     0.031 A 
ATOM     50  C   UNL A   1      44.363  31.063  30.059  1.00  0.00     0.031 A 
ATOM     51  C   UNL A   1      43.823  24.553  28.182  1.00  0.00     0.049 A 
ATOM     52  C   UNL A   1      45.323  29.930  29.884  1.00  0.00     0.074 A 
ATOM     53  C   UNL A   1      44.879  23.676  28.097  1.00  0.00     0.029 A 
ATOM     54  N   UNL A   1      44.338  25.779  28.612  1.00  0.00    -0.354 N 
ATOM     55  N   UNL A   1      45.078  28.699  29.481  1.00  0.00    -0.248 NA
ATOM     56  C   UNL A   1      46.715  30.207  30.204  1.00  0.00     0.031 C 
ATOM     57  C   UNL A   1      46.022  24.356  28.532  1.00  0.00     0.029 A 
ATOM     58  C   UNL A   1      45.696  25.679  28.818  1.00  0.00     0.049 A 
ATOM     59  H   UNL A   1      43.806  26.596  28.748  1.00  0.00     0.167 HD
ATOM     60  C   UNL A   1      46.289  28.042  29.502  1.00  0.00     0.074 A 
ATOM     61  C   UNL A   1      47.271  29.040  29.907  1.00  0.00     0.031 C 
ATOM     62  C   UNL A   1      46.582  26.743  29.236  1.00  0.00     0.031 A 
BRANCH  49  63
ATOM     63  C   UNL A   1      41.920  23.000  27.451  1.00  0.00    -0.014 A 
ATOM     64  C   UNL A   1      41.457  22.035  28.359  1.00  0.00     0.009 A 
ATOM     65  C   UNL A   1      41.942  22.690  26.083  1.00  0.00     0.009 A 
ATOM     66  C   UNL A   1      41.030  20.785  27.905  1.00  0.00     0.001 A 
ATOM     67  C   UNL A   1      41.490  21.452  25.629  1.00  0.00     0.001 A 
ATOM     68  C   UNL A   1      41.037  20.499  26.541  1.00  0.00     0.000 A 
ENDBRANCH  49  63
BRANCH  50  69
ATOM     69  C   UNL A   1      44.726  32.424  30.510  1.00  0.00    -0.014 A 
ATOM     70  C   UNL A   1      45.027  33.436  29.594  1.00  0.00     0.009 A 
ATOM     71  C   UNL A   1      44.755  32.722  31.886  1.00  0.00     0.009 A 
ATOM     72  C   UNL A   1      45.393  34.706  30.048  1.00  0.00     0.001 A 
ATOM     73  C   UNL A   1      45.079  34.001  32.334  1.00  0.00     0.001 A 
ATOM     74  C   UNL A   1      45.417  34.986  31.415  1.00  0.00     0.000 A 
ENDBRANCH  50  69
BRANCH  62  75
ATOM     75  C   UNL A   1      48.031  26.395  29.351  1.00  0.00    -0.014 A 
ATOM     76  C   UNL A   1      48.550  25.831  30.525  1.00  0.00     0.009 A 
ATOM     77  C   UNL A   1      48.875  26.644  28.260  1.00  0.00     0.009 A 
ATOM     78  C   UNL A   1      49.914  25.579  30.625  1.00  0.00     0.001 A 
ATOM     79  C   UNL A   1      50.229  26.343  28.347  1.00  0.00     0.001 A 
ATOM     80  C   UNL A   1      50.749  25.830  29.536  1.00  0.00     0.000 A 
ENDBRANCH  62  75
ENDBRANCH  36  37
ENDBRANCH  29  31
ENDBRANCH  28  29
ENDBRANCH  27  28
ENDBRANCH   1  27
TORSDOF 14
ENDMDL
MODEL 3
REMARK VINA RESULT:     -12.6      3.366      7.195
REMARK SMILES O=C(OCCOC(=O)c1ccc(-c2c3nc(c(-c4ccccc4)c4ccc([nH]4)c(-c4ccccc4)c4nc(c(-c5ccccc5)c5ccc2[nH]5)C=C4)C=C3)cc1)C1=Cc2c(ccc(Cl)c2Sc2ccccc2)O[C@H]1C(F)(F)F
REMARK SMILES IDX 4 1 3 2 2 3 1 4 57 5 58 6 74 7 59 8 73 9 60 10 65 11 61 12
REMARK SMILES IDX 63 13 62 14 64 15 75 16 76 17 77 18 78 19 66 20 67 21 68 22
REMARK SMILES IDX 72 23 69 24 71 25 70 26 5 27 6 28 7 29 8 30 9 31 10 32 56 33
REMARK SMILES IDX 11 34 55 35 12 36 13 37 14 38 49 39 15 40 54 41 48 42 50 43
REMARK SMILES IDX 16 44 53 45 47 46 46 47 17 49 39 50 24 51 38 52 25 53 28 54
REMARK SMILES IDX 37 55 51 56 26 57 27 58 36 60 52 61 29 62 18 63 19 64 23 65
REMARK SMILES IDX 20 66 22 67 21 68 40 69 41 70 45 71 42 72 44 73 43 74 30 75
REMARK SMILES IDX 31 76 35 77 32 78 34 79 33 80
REMARK H PARENT 50 48 28 59
REMARK Flexibility Score: inf
ROOT
ATOM      1  C   UNL A   1      36.878  22.333  24.711  1.00  0.00     0.275 C 
ENDROOT
BRANCH   1   2
ATOM      2  O   UNL A   1      36.053  21.188  24.942  1.00  0.00    -0.459 OA
BRANCH   2   3
ATOM      3  C   UNL A   1      34.884  21.240  25.581  1.00  0.00     0.338 C 
ATOM      4  O   UNL A   1      34.838  21.229  26.805  1.00  0.00    -0.246 OA
BRANCH   3   5
ATOM      5  C   UNL A   1      33.653  21.196  24.776  1.00  0.00     0.087 C 
ATOM      6  C   UNL A   1      33.024  22.163  24.081  1.00  0.00     0.028 C 
ATOM      7  C   UNL A   1      32.740  20.093  25.147  1.00  0.00     0.316 C 
ATOM      8  C   UNL A   1      32.262  23.068  24.951  1.00  0.00     0.033 A 
ATOM      9  O   UNL A   1      31.404  20.714  25.402  1.00  0.00    -0.475 OA
ATOM     10  C   UNL A   1      31.358  22.128  25.599  1.00  0.00     0.129 A 
ATOM     11  C   UNL A   1      32.240  24.558  25.129  1.00  0.00     0.042 A 
ATOM     12  C   UNL A   1      30.332  22.622  26.358  1.00  0.00     0.049 A 
ATOM     13  C   UNL A   1      31.133  24.957  25.928  1.00  0.00     0.055 A 
ATOM     14  C   UNL A   1      30.223  24.014  26.501  1.00  0.00     0.025 A 
ATOM     15  Cl  UNL A   1      30.723  26.613  26.262  1.00  0.00    -0.083 Cl
BRANCH   7  16
ATOM     16  C   UNL A   1      32.888  19.046  24.008  1.00  0.00     0.430 C 
ATOM     17  F   UNL A   1      34.183  18.636  23.873  1.00  0.00    -0.167 F 
ATOM     18  F   UNL A   1      32.163  17.927  24.223  1.00  0.00    -0.167 F 
ATOM     19  F   UNL A   1      32.531  19.549  22.803  1.00  0.00    -0.167 F 
ENDBRANCH   7  16
BRANCH  11  20
ATOM     20  S   UNL A   1      33.281  26.234  24.491  1.00  0.00    -0.088 SA
BRANCH  20  21
ATOM     21  C   UNL A   1      33.438  28.008  25.231  1.00  0.00     0.012 A 
ATOM     22  C   UNL A   1      32.652  29.132  24.858  1.00  0.00     0.015 A 
ATOM     23  C   UNL A   1      34.283  28.226  26.366  1.00  0.00     0.015 A 
ATOM     24  C   UNL A   1      32.468  30.245  25.746  1.00  0.00     0.001 A 
ATOM     25  C   UNL A   1      34.084  29.333  27.253  1.00  0.00     0.001 A 
ATOM     26  C   UNL A   1      33.135  30.312  26.970  1.00  0.00     0.000 A 
ENDBRANCH  20  21
ENDBRANCH  11  20
ENDBRANCH   3   5
ENDBRANCH   2   3
ENDBRANCH   1   2
BRANCH   1  27
ATOM     27  C   UNL A   1      37.051  23.348  25.897  1.00  0.00     0.275 C 
BRANCH  27  28
ATOM     28  O   UNL A   1      38.095  24.234  25.756  1.00  0.00    -0.458 OA
BRANCH  28  29
ATOM     29  C   UNL A   1      39.033  23.743  26.537  1.00  0.00     0.338 C 
ATOM     30  O   UNL A   1      39.363  22.592  26.800  1.00  0.00    -0.246 OA
BRANCH  29  31
ATOM     31  C   UNL A   1      39.687  24.871  27.018  1.00  0.00     0.060 A 
ATOM     32  C   UNL A   1      39.340  25.045  28.339  1.00  0.00     0.016 A 
ATOM     33  C   UNL A   1      40.402  25.733  26.164  1.00  0.00     0.016 A 
ATOM     34  C   UNL A   1      39.544  26.273  28.799  1.00  0.00     0.010 A 
ATOM     35  C   UNL A   1      40.782  26.910  26.705  1.00  0.00     0.010 A 
ATOM     36  C   UNL A   1      40.306  27.142  27.992  1.00  0.00    -0.014 A 
BRANCH  36  37
ATOM     37  C   UNL A   1      40.615  28.360  28.653  1.00  0.00     0.031 A 
ATOM     38  C   UNL A   1      39.502  29.309  28.777  1.00  0.00     0.074 A 
ATOM     39  C   UNL A   1      41.779  28.271  29.303  1.00  0.00     0.049 A 
ATOM     40  N   UNL A   1      39.464  30.368  29.512  1.00  0.00    -0.248 NA
ATOM     41  C   UNL A   1      38.270  29.043  28.000  1.00  0.00     0.031 C 
ATOM     42  C   UNL A   1      42.745  27.151  29.190  1.00  0.00     0.029 A 
ATOM     43  N   UNL A   1      42.264  29.031  30.299  1.00  0.00    -0.354 N 
ATOM     44  C   UNL A   1      38.227  30.925  29.264  1.00  0.00     0.074 A 
ATOM     45  C   UNL A   1      37.533  30.099  28.309  1.00  0.00     0.031 C 
ATOM     46  C   UNL A   1      43.647  27.258  30.168  1.00  0.00     0.029 A 
ATOM     47  C   UNL A   1      43.394  28.506  30.860  1.00  0.00     0.049 A 
ATOM     48  H   UNL A   1      41.851  29.875  30.592  1.00  0.00     0.167 HD
ATOM     49  C   UNL A   1      37.769  32.061  29.818  1.00  0.00     0.031 A 
ATOM     50  C   UNL A   1      44.151  29.055  31.813  1.00  0.00     0.031 A 
ATOM     51  C   UNL A   1      38.577  32.797  30.749  1.00  0.00     0.049 A 
ATOM     52  C   UNL A   1      43.645  30.366  32.324  1.00  0.00     0.074 A 
ATOM     53  C   UNL A   1      38.327  34.009  31.348  1.00  0.00     0.029 A 
ATOM     54  N   UNL A   1      39.821  32.357  31.212  1.00  0.00    -0.354 N 
ATOM     55  N   UNL A   1      42.508  30.973  32.045  1.00  0.00    -0.248 NA
ATOM     56  C   UNL A   1      44.514  31.080  33.247  1.00  0.00     0.031 C 
ATOM     57  C   UNL A   1      39.445  34.329  32.127  1.00  0.00     0.029 A 
ATOM     58  C   UNL A   1      40.363  33.284  32.075  1.00  0.00     0.049 A 
ATOM     59  H   UNL A   1      40.248  31.507  30.958  1.00  0.00     0.167 HD
ATOM     60  C   UNL A   1      42.522  32.154  32.756  1.00  0.00     0.074 A 
ATOM     61  C   UNL A   1      43.763  32.138  33.521  1.00  0.00     0.031 C 
ATOM     62  C   UNL A   1      41.621  33.170  32.777  1.00  0.00     0.031 A 
BRANCH  49  63
ATOM     63  C   UNL A   1      36.448  32.568  29.342  1.00  0.00    -0.014 A 
ATOM     64  C   UNL A   1      35.251  32.262  30.008  1.00  0.00     0.009 A 
ATOM     65  C   UNL A   1      36.396  33.336  28.169  1.00  0.00     0.009 A 
ATOM     66  C   UNL A   1      34.028  32.713  29.507  1.00  0.00     0.001 A 
ATOM     67  C   UNL A   1      35.177  33.807  27.684  1.00  0.00     0.001 A 
ATOM     68  C   UNL A   1      33.994  33.493  28.352  1.00  0.00     0.000 A 
ENDBRANCH  49  63
BRANCH  50  69
ATOM     69  C   UNL A   1      45.442  28.438  32.187  1.00  0.00    -0.014 A 
ATOM     70  C   UNL A   1      46.618  28.738  31.494  1.00  0.00     0.009 A 
ATOM     71  C   UNL A   1      45.502  27.541  33.272  1.00  0.00     0.009 A 
ATOM     72  C   UNL A   1      47.819  28.120  31.852  1.00  0.00     0.001 A 
ATOM     73  C   UNL A   1      46.708  26.959  33.653  1.00  0.00     0.001 A 
ATOM     74  C   UNL A   1      47.863  27.234  32.930  1.00  0.00     0.000 A 
ENDBRANCH  50  69
BRANCH  62  75
ATOM     75  C   UNL A   1      41.975  34.296  33.695  1.00  0.00    -0.014 A 
ATOM     76  C   UNL A   1      42.759  35.372  33.253  1.00  0.00     0.009 A 
ATOM     77  C   UNL A   1      41.511  34.264  35.017  1.00  0.00     0.009 A 
ATOM     78  C   UNL A   1      43.126  36.372  34.148  1.00  0.00     0.001 A 
ATOM     79  C   UNL A   1      41.838  35.291  35.893  1.00  0.00     0.001 A 
ATOM     80  C   UNL A   1      42.661  36.332  35.463  1.00  0.00     0.000 A 
ENDBRANCH  62  75
ENDBRANCH  36  37
ENDBRANCH  29  31
ENDBRANCH  28  29
ENDBRANCH  27  28
ENDBRANCH   1  27
TORSDOF 14
ENDMDL
