MODEL 1
REMARK VINA RESULT:      -8.8      0.000      0.000
REMARK SMILES C[C@H](CNS(=O)(=O)CCC(=O)OCCOC(=O)c1ccc(-c2c3nc(c(-c4ccccc4)c4ccc([nH]4)c(-c4ccccc4)c4nc(c(-c5ccccc5)c5ccc2[nH]5)C=C4)C=C3)cc1)c1ccccc1
REMARK SMILES IDX 10 1 11 2 9 3 8 4 5 5 6 6 7 7 4 8 3 10 2 11 1 12 66 13 67 14
REMARK SMILES IDX 71 15 68 16 70 17 69 18 12 19 13 20 14 21 15 22 16 23 17 24
REMARK SMILES IDX 18 25 19 26 65 27 20 28 64 29 21 30 22 31 23 32 58 33 24 34
REMARK SMILES IDX 63 35 57 36 59 37 25 38 62 39 56 40 55 41 26 43 48 44 33 45
REMARK SMILES IDX 47 46 34 47 37 48 46 49 60 50 35 51 36 52 45 54 61 55 38 56
REMARK SMILES IDX 27 57 28 58 32 59 29 60 31 61 30 62 49 63 50 64 54 65 51 66
REMARK SMILES IDX 53 67 52 68 39 69 40 70 44 71 41 72 43 73 42 74
REMARK H PARENT 4 9 59 42 37 53
REMARK Flexibility Score: inf
ROOT
ATOM      1  C   UNL A   1      33.121  35.614  30.413  1.00  0.00     0.306 C 
ATOM      2  O   UNL A   1      32.485  36.612  30.735  1.00  0.00    -0.252 OA
ENDROOT
BRANCH   1   3
ATOM      3  C   UNL A   1      34.419  35.251  31.084  1.00  0.00     0.140 C 
BRANCH   3   4
ATOM      4  C   UNL A   1      34.317  34.246  32.217  1.00  0.00     0.165 C 
BRANCH   4   5
ATOM      5  S   UNL A   1      35.016  34.800  33.764  1.00  0.00     0.212 S 
ATOM      6  O   UNL A   1      34.925  33.730  34.731  1.00  0.00    -0.212 OA
ATOM      7  O   UNL A   1      34.481  36.112  34.059  1.00  0.00    -0.212 OA
BRANCH   5   8
ATOM      8  N   UNL A   1      36.626  35.052  33.424  1.00  0.00    -0.215 NA
ATOM      9  H   UNL A   1      36.769  34.775  32.454  1.00  0.00     0.141 HD
BRANCH   8  10
ATOM     10  C   UNL A   1      37.668  34.363  34.225  1.00  0.00     0.106 C 
BRANCH  10  11
ATOM     11  C   UNL A   1      38.703  33.642  33.311  1.00  0.00     0.031 C 
ATOM     12  C   UNL A   1      38.885  32.162  33.710  1.00  0.00     0.014 C 
BRANCH  11  13
ATOM     13  C   UNL A   1      38.507  33.777  31.797  1.00  0.00    -0.044 A 
ATOM     14  C   UNL A   1      37.568  32.953  31.142  1.00  0.00     0.004 A 
ATOM     15  C   UNL A   1      39.253  34.656  30.999  1.00  0.00     0.004 A 
ATOM     16  C   UNL A   1      37.331  33.049  29.769  1.00  0.00     0.000 A 
ATOM     17  C   UNL A   1      39.026  34.745  29.618  1.00  0.00     0.000 A 
ATOM     18  C   UNL A   1      38.058  33.953  29.007  1.00  0.00     0.000 A 
ENDBRANCH  11  13
ENDBRANCH  10  11
ENDBRANCH   8  10
ENDBRANCH   5   8
ENDBRANCH   4   5
ENDBRANCH   3   4
ENDBRANCH   1   3
BRANCH   1  19
ATOM     19  O   UNL A   1      32.773  34.774  29.411  1.00  0.00    -0.462 OA
BRANCH  19  20
ATOM     20  C   UNL A   1      33.851  34.335  28.558  1.00  0.00     0.274 C 
BRANCH  20  21
ATOM     21  C   UNL A   1      33.660  32.906  28.046  1.00  0.00     0.275 C 
BRANCH  21  22
ATOM     22  O   UNL A   1      34.648  32.011  28.572  1.00  0.00    -0.458 OA
BRANCH  22  23
ATOM     23  C   UNL A   1      34.593  30.740  28.118  1.00  0.00     0.338 C 
ATOM     24  O   UNL A   1      33.678  30.173  27.545  1.00  0.00    -0.246 OA
BRANCH  23  25
ATOM     25  C   UNL A   1      35.906  30.141  28.342  1.00  0.00     0.060 A 
ATOM     26  C   UNL A   1      36.860  30.198  27.325  1.00  0.00     0.016 A 
ATOM     27  C   UNL A   1      36.192  29.564  29.579  1.00  0.00     0.016 A 
ATOM     28  C   UNL A   1      38.138  29.713  27.559  1.00  0.00     0.010 A 
ATOM     29  C   UNL A   1      37.479  29.097  29.820  1.00  0.00     0.010 A 
ATOM     30  C   UNL A   1      38.460  29.188  28.818  1.00  0.00    -0.014 A 
BRANCH  30  31
ATOM     31  C   UNL A   1      39.848  28.787  29.105  1.00  0.00     0.031 A 
ATOM     32  C   UNL A   1      40.339  27.439  28.686  1.00  0.00     0.074 A 
ATOM     33  C   UNL A   1      40.641  29.652  29.766  1.00  0.00     0.049 A 
ATOM     34  N   UNL A   1      41.506  26.890  28.887  1.00  0.00    -0.248 NA
ATOM     35  C   UNL A   1      39.387  26.592  27.950  1.00  0.00     0.031 C 
ATOM     36  C   UNL A   1      40.242  30.994  30.204  1.00  0.00     0.029 A 
ATOM     37  N   UNL A   1      41.938  29.537  30.182  1.00  0.00    -0.354 N 
ATOM     38  C   UNL A   1      41.428  25.626  28.317  1.00  0.00     0.074 A 
ATOM     39  C   UNL A   1      40.089  25.480  27.788  1.00  0.00     0.031 C 
ATOM     40  C   UNL A   1      41.282  31.583  30.812  1.00  0.00     0.029 A 
ATOM     41  C   UNL A   1      42.398  30.647  30.850  1.00  0.00     0.049 A 
ATOM     42  H   UNL A   1      42.490  28.738  30.019  1.00  0.00     0.167 HD
ATOM     43  C   UNL A   1      42.393  24.680  28.247  1.00  0.00     0.031 A 
ATOM     44  C   UNL A   1      43.584  30.868  31.443  1.00  0.00     0.031 A 
ATOM     45  C   UNL A   1      43.709  24.844  28.805  1.00  0.00     0.049 A 
ATOM     46  C   UNL A   1      44.619  29.781  31.391  1.00  0.00     0.074 A 
ATOM     47  C   UNL A   1      44.773  23.961  28.784  1.00  0.00     0.029 A 
ATOM     48  N   UNL A   1      44.136  25.971  29.495  1.00  0.00    -0.354 N 
ATOM     49  N   UNL A   1      44.548  28.602  30.821  1.00  0.00    -0.248 NA
ATOM     50  C   UNL A   1      45.899  30.055  32.056  1.00  0.00     0.031 C 
ATOM     51  C   UNL A   1      45.823  24.531  29.513  1.00  0.00     0.029 A 
ATOM     52  C   UNL A   1      45.438  25.796  29.929  1.00  0.00     0.049 A 
ATOM     53  H   UNL A   1      43.592  26.777  29.651  1.00  0.00     0.167 HD
ATOM     54  C   UNL A   1      45.778  27.999  31.039  1.00  0.00     0.074 A 
ATOM     55  C   UNL A   1      46.583  28.956  31.774  1.00  0.00     0.031 C 
ATOM     56  C   UNL A   1      46.206  26.767  30.669  1.00  0.00     0.031 A 
BRANCH  43  57
ATOM     57  C   UNL A   1      42.035  23.376  27.585  1.00  0.00    -0.014 A 
ATOM     58  C   UNL A   1      42.337  23.130  26.236  1.00  0.00     0.009 A 
ATOM     59  C   UNL A   1      41.391  22.374  28.327  1.00  0.00     0.009 A 
ATOM     60  C   UNL A   1      41.964  21.926  25.634  1.00  0.00     0.001 A 
ATOM     61  C   UNL A   1      41.047  21.158  27.731  1.00  0.00     0.001 A 
ATOM     62  C   UNL A   1      41.324  20.940  26.382  1.00  0.00     0.000 A 
ENDBRANCH  43  57
BRANCH  44  63
ATOM     63  C   UNL A   1      43.843  32.157  32.138  1.00  0.00    -0.014 A 
ATOM     64  C   UNL A   1      43.511  32.321  33.492  1.00  0.00     0.009 A 
ATOM     65  C   UNL A   1      44.439  33.229  31.455  1.00  0.00     0.009 A 
ATOM     66  C   UNL A   1      43.751  33.536  34.139  1.00  0.00     0.001 A 
ATOM     67  C   UNL A   1      44.707  34.432  32.112  1.00  0.00     0.001 A 
ATOM     68  C   UNL A   1      44.354  34.588  33.450  1.00  0.00     0.000 A 
ENDBRANCH  44  63
BRANCH  56  69
ATOM     69  C   UNL A   1      47.618  26.406  31.034  1.00  0.00    -0.014 A 
ATOM     70  C   UNL A   1      48.679  26.612  30.138  1.00  0.00     0.009 A 
ATOM     71  C   UNL A   1      47.892  25.880  32.306  1.00  0.00     0.009 A 
ATOM     72  C   UNL A   1      49.981  26.261  30.495  1.00  0.00     0.001 A 
ATOM     73  C   UNL A   1      49.199  25.561  32.673  1.00  0.00     0.001 A 
ATOM     74  C   UNL A   1      50.241  25.741  31.763  1.00  0.00     0.000 A 
ENDBRANCH  56  69
ENDBRANCH  30  31
ENDBRANCH  23  25
ENDBRANCH  22  23
ENDBRANCH  21  22
ENDBRANCH  20  21
ENDBRANCH  19  20
ENDBRANCH   1  19
TORSDOF 17
ENDMDL
MODEL 2
REMARK VINA RESULT:      -8.5      3.874      9.107
REMARK SMILES C[C@H](CNS(=O)(=O)CCC(=O)OCCOC(=O)c1ccc(-c2c3nc(c(-c4ccccc4)c4ccc([nH]4)c(-c4ccccc4)c4nc(c(-c5ccccc5)c5ccc2[nH]5)C=C4)C=C3)cc1)c1ccccc1
REMARK SMILES IDX 10 1 11 2 9 3 8 4 5 5 6 6 7 7 4 8 3 10 2 11 1 12 66 13 67 14
REMARK SMILES IDX 71 15 68 16 70 17 69 18 12 19 13 20 14 21 15 22 16 23 17 24
REMARK SMILES IDX 18 25 19 26 65 27 20 28 64 29 21 30 22 31 23 32 58 33 24 34
REMARK SMILES IDX 63 35 57 36 59 37 25 38 62 39 56 40 55 41 26 43 48 44 33 45
REMARK SMILES IDX 47 46 34 47 37 48 46 49 60 50 35 51 36 52 45 54 61 55 38 56
REMARK SMILES IDX 27 57 28 58 32 59 29 60 31 61 30 62 49 63 50 64 54 65 51 66
REMARK SMILES IDX 53 67 52 68 39 69 40 70 44 71 41 72 43 73 42 74
REMARK H PARENT 4 9 59 42 37 53
REMARK Flexibility Score: inf
ROOT
ATOM      1  C   UNL A   1      32.571  27.148  24.340  1.00  0.00     0.306 C 
ATOM      2  O   UNL A   1      31.411  27.387  24.022  1.00  0.00    -0.252 OA
ENDROOT
BRANCH   1   3
ATOM      3  C   UNL A   1      33.036  25.747  24.643  1.00  0.00     0.140 C 
BRANCH   3   4
ATOM      4  C   UNL A   1      32.857  25.291  26.081  1.00  0.00     0.165 C 
BRANCH   4   5
ATOM      5  S   UNL A   1      31.353  24.378  26.385  1.00  0.00     0.212 S 
ATOM      6  O   UNL A   1      30.231  25.287  26.329  1.00  0.00    -0.212 OA
ATOM      7  O   UNL A   1      31.563  23.532  27.540  1.00  0.00    -0.212 OA
BRANCH   5   8
ATOM      8  N   UNL A   1      31.235  23.332  25.095  1.00  0.00    -0.215 NA
ATOM      9  H   UNL A   1      30.240  23.193  24.919  1.00  0.00     0.141 HD
BRANCH   8  10
ATOM     10  C   UNL A   1      31.848  21.983  25.177  1.00  0.00     0.106 C 
BRANCH  10  11
ATOM     11  C   UNL A   1      32.894  21.765  24.044  1.00  0.00     0.031 C 
ATOM     12  C   UNL A   1      32.383  22.287  22.685  1.00  0.00     0.014 C 
BRANCH  11  13
ATOM     13  C   UNL A   1      34.322  22.254  24.312  1.00  0.00    -0.044 A 
ATOM     14  C   UNL A   1      34.855  22.160  25.615  1.00  0.00     0.004 A 
ATOM     15  C   UNL A   1      35.130  22.845  23.330  1.00  0.00     0.004 A 
ATOM     16  C   UNL A   1      36.158  22.569  25.910  1.00  0.00     0.000 A 
ATOM     17  C   UNL A   1      36.434  23.268  23.628  1.00  0.00     0.000 A 
ATOM     18  C   UNL A   1      36.951  23.117  24.913  1.00  0.00     0.000 A 
ENDBRANCH  11  13
ENDBRANCH  10  11
ENDBRANCH   8  10
ENDBRANCH   5   8
ENDBRANCH   4   5
ENDBRANCH   3   4
ENDBRANCH   1   3
BRANCH   1  19
ATOM     19  O   UNL A   1      33.530  28.088  24.505  1.00  0.00    -0.462 OA
BRANCH  19  20
ATOM     20  C   UNL A   1      33.128  29.273  25.223  1.00  0.00     0.274 C 
BRANCH  20  21
ATOM     21  C   UNL A   1      32.825  29.001  26.698  1.00  0.00     0.275 C 
BRANCH  21  22
ATOM     22  O   UNL A   1      34.018  28.943  27.489  1.00  0.00    -0.458 OA
BRANCH  22  23
ATOM     23  C   UNL A   1      34.538  30.134  27.859  1.00  0.00     0.338 C 
ATOM     24  O   UNL A   1      33.978  31.210  27.969  1.00  0.00    -0.246 OA
BRANCH  23  25
ATOM     25  C   UNL A   1      35.934  29.904  28.225  1.00  0.00     0.060 A 
ATOM     26  C   UNL A   1      36.233  29.463  29.515  1.00  0.00     0.016 A 
ATOM     27  C   UNL A   1      36.930  30.088  27.267  1.00  0.00     0.016 A 
ATOM     28  C   UNL A   1      37.545  29.156  29.844  1.00  0.00     0.010 A 
ATOM     29  C   UNL A   1      38.242  29.759  27.592  1.00  0.00     0.010 A 
ATOM     30  C   UNL A   1      38.549  29.275  28.875  1.00  0.00    -0.014 A 
BRANCH  30  31
ATOM     31  C   UNL A   1      39.919  28.832  29.188  1.00  0.00     0.031 A 
ATOM     32  C   UNL A   1      40.858  29.753  29.895  1.00  0.00     0.074 A 
ATOM     33  C   UNL A   1      40.296  27.598  28.803  1.00  0.00     0.049 A 
ATOM     34  N   UNL A   1      42.110  29.563  30.217  1.00  0.00    -0.248 NA
ATOM     35  C   UNL A   1      40.323  31.067  30.286  1.00  0.00     0.031 C 
ATOM     36  C   UNL A   1      39.436  26.630  28.114  1.00  0.00     0.029 A 
ATOM     37  N   UNL A   1      41.491  26.946  28.934  1.00  0.00    -0.354 N 
ATOM     38  C   UNL A   1      42.520  30.737  30.834  1.00  0.00     0.074 A 
ATOM     39  C   UNL A   1      41.392  31.644  30.816  1.00  0.00     0.031 C 
ATOM     40  C   UNL A   1      40.129  25.502  27.900  1.00  0.00     0.029 A 
ATOM     41  C   UNL A   1      41.489  25.685  28.390  1.00  0.00     0.049 A 
ATOM     42  H   UNL A   1      42.277  27.343  29.376  1.00  0.00     0.167 HD
ATOM     43  C   UNL A   1      43.731  31.023  31.365  1.00  0.00     0.031 A 
ATOM     44  C   UNL A   1      42.486  24.788  28.282  1.00  0.00     0.031 A 
ATOM     45  C   UNL A   1      44.843  30.110  31.346  1.00  0.00     0.049 A 
ATOM     46  C   UNL A   1      43.832  25.152  28.839  1.00  0.00     0.074 A 
ATOM     47  C   UNL A   1      46.113  30.283  31.865  1.00  0.00     0.029 A 
ATOM     48  N   UNL A   1      44.815  28.848  30.768  1.00  0.00    -0.354 N 
ATOM     49  N   UNL A   1      44.202  26.253  29.450  1.00  0.00    -0.248 NA
ATOM     50  C   UNL A   1      44.897  24.153  28.697  1.00  0.00     0.031 C 
ATOM     51  C   UNL A   1      46.870  29.150  31.546  1.00  0.00     0.029 A 
ATOM     52  C   UNL A   1      46.053  28.243  30.890  1.00  0.00     0.049 A 
ATOM     53  H   UNL A   1      44.028  28.444  30.334  1.00  0.00     0.167 HD
ATOM     54  C   UNL A   1      45.535  26.072  29.785  1.00  0.00     0.074 A 
ATOM     55  C   UNL A   1      45.901  24.744  29.328  1.00  0.00     0.031 C 
ATOM     56  C   UNL A   1      46.384  26.923  30.412  1.00  0.00     0.031 A 
BRANCH  43  57
ATOM     57  C   UNL A   1      43.918  32.392  31.963  1.00  0.00    -0.014 A 
ATOM     58  C   UNL A   1      43.688  32.635  33.327  1.00  0.00     0.009 A 
ATOM     59  C   UNL A   1      44.337  33.455  31.148  1.00  0.00     0.009 A 
ATOM     60  C   UNL A   1      43.835  33.922  33.852  1.00  0.00     0.001 A 
ATOM     61  C   UNL A   1      44.512  34.734  31.682  1.00  0.00     0.001 A 
ATOM     62  C   UNL A   1      44.250  34.968  33.031  1.00  0.00     0.000 A 
ENDBRANCH  43  57
BRANCH  44  63
ATOM     63  C   UNL A   1      42.245  23.481  27.618  1.00  0.00    -0.014 A 
ATOM     64  C   UNL A   1      41.740  22.390  28.343  1.00  0.00     0.009 A 
ATOM     65  C   UNL A   1      42.502  23.319  26.247  1.00  0.00     0.009 A 
ATOM     66  C   UNL A   1      41.520  21.161  27.714  1.00  0.00     0.001 A 
ATOM     67  C   UNL A   1      42.252  22.099  25.614  1.00  0.00     0.001 A 
ATOM     68  C   UNL A   1      41.771  21.019  26.350  1.00  0.00     0.000 A 
ENDBRANCH  44  63
BRANCH  56  69
ATOM     69  C   UNL A   1      47.779  26.423  30.660  1.00  0.00    -0.014 A 
ATOM     70  C   UNL A   1      48.796  26.591  29.707  1.00  0.00     0.009 A 
ATOM     71  C   UNL A   1      48.085  25.800  31.880  1.00  0.00     0.009 A 
ATOM     72  C   UNL A   1      50.082  26.110  29.957  1.00  0.00     0.001 A 
ATOM     73  C   UNL A   1      49.378  25.350  32.141  1.00  0.00     0.001 A 
ATOM     74  C   UNL A   1      50.373  25.495  31.174  1.00  0.00     0.000 A 
ENDBRANCH  56  69
ENDBRANCH  30  31
ENDBRANCH  23  25
ENDBRANCH  22  23
ENDBRANCH  21  22
ENDBRANCH  20  21
ENDBRANCH  19  20
ENDBRANCH   1  19
TORSDOF 17
ENDMDL
MODEL 3
REMARK VINA RESULT:      -8.4      4.083      9.480
REMARK SMILES C[C@H](CNS(=O)(=O)CCC(=O)OCCOC(=O)c1ccc(-c2c3nc(c(-c4ccccc4)c4ccc([nH]4)c(-c4ccccc4)c4nc(c(-c5ccccc5)c5ccc2[nH]5)C=C4)C=C3)cc1)c1ccccc1
REMARK SMILES IDX 10 1 11 2 9 3 8 4 5 5 6 6 7 7 4 8 3 10 2 11 1 12 66 13 67 14
REMARK SMILES IDX 71 15 68 16 70 17 69 18 12 19 13 20 14 21 15 22 16 23 17 24
REMARK SMILES IDX 18 25 19 26 65 27 20 28 64 29 21 30 22 31 23 32 58 33 24 34
REMARK SMILES IDX 63 35 57 36 59 37 25 38 62 39 56 40 55 41 26 43 48 44 33 45
REMARK SMILES IDX 47 46 34 47 37 48 46 49 60 50 35 51 36 52 45 54 61 55 38 56
REMARK SMILES IDX 27 57 28 58 32 59 29 60 31 61 30 62 49 63 50 64 54 65 51 66
REMARK SMILES IDX 53 67 52 68 39 69 40 70 44 71 41 72 43 73 42 74
REMARK H PARENT 4 9 59 42 37 53
REMARK Flexibility Score: inf
ROOT
ATOM      1  C   UNL A   1      33.852  30.063  27.362  1.00  0.00     0.306 C 
ATOM      2  O   UNL A   1      34.873  29.443  27.643  1.00  0.00    -0.252 OA
ENDROOT
BRANCH   1   3
ATOM      3  C   UNL A   1      32.700  29.408  26.645  1.00  0.00     0.140 C 
BRANCH   3   4
ATOM      4  C   UNL A   1      33.078  28.375  25.599  1.00  0.00     0.165 C 
BRANCH   4   5
ATOM      5  S   UNL A   1      32.426  26.741  25.902  1.00  0.00     0.212 S 
ATOM      6  O   UNL A   1      31.368  26.832  26.884  1.00  0.00    -0.212 OA
ATOM      7  O   UNL A   1      33.539  25.837  26.096  1.00  0.00    -0.212 OA
BRANCH   5   8
ATOM      8  N   UNL A   1      31.745  26.289  24.452  1.00  0.00    -0.215 NA
ATOM      9  H   UNL A   1      32.382  25.617  24.024  1.00  0.00     0.141 HD
BRANCH   8  10
ATOM     10  C   UNL A   1      31.451  27.316  23.421  1.00  0.00     0.106 C 
BRANCH  10  11
ATOM     11  C   UNL A   1      29.922  27.417  23.141  1.00  0.00     0.031 C 
ATOM     12  C   UNL A   1      29.123  26.369  23.944  1.00  0.00     0.014 C 
BRANCH  11  13
ATOM     13  C   UNL A   1      29.282  28.804  23.269  1.00  0.00    -0.044 A 
ATOM     14  C   UNL A   1      27.944  28.992  22.862  1.00  0.00     0.004 A 
ATOM     15  C   UNL A   1      29.975  29.932  23.732  1.00  0.00     0.004 A 
ATOM     16  C   UNL A   1      27.304  30.228  22.978  1.00  0.00     0.000 A 
ATOM     17  C   UNL A   1      29.337  31.177  23.837  1.00  0.00     0.000 A 
ATOM     18  C   UNL A   1      28.000  31.321  23.474  1.00  0.00     0.000 A 
ENDBRANCH  11  13
ENDBRANCH  10  11
ENDBRANCH   8  10
ENDBRANCH   5   8
ENDBRANCH   4   5
ENDBRANCH   3   4
ENDBRANCH   1   3
BRANCH   1  19
ATOM     19  O   UNL A   1      33.665  31.381  27.604  1.00  0.00    -0.462 OA
BRANCH  19  20
ATOM     20  C   UNL A   1      32.418  31.933  27.133  1.00  0.00     0.274 C 
BRANCH  20  21
ATOM     21  C   UNL A   1      32.394  33.463  27.167  1.00  0.00     0.275 C 
BRANCH  21  22
ATOM     22  O   UNL A   1      32.199  33.967  28.494  1.00  0.00    -0.458 OA
BRANCH  22  23
ATOM     23  C   UNL A   1      32.958  35.031  28.837  1.00  0.00     0.338 C 
ATOM     24  O   UNL A   1      32.707  36.217  28.715  1.00  0.00    -0.246 OA
BRANCH  23  25
ATOM     25  C   UNL A   1      34.151  34.517  29.505  1.00  0.00     0.060 A 
ATOM     26  C   UNL A   1      34.038  34.017  30.804  1.00  0.00     0.016 A 
ATOM     27  C   UNL A   1      35.364  34.498  28.819  1.00  0.00     0.016 A 
ATOM     28  C   UNL A   1      35.145  33.445  31.413  1.00  0.00     0.010 A 
ATOM     29  C   UNL A   1      36.467  33.904  29.422  1.00  0.00     0.010 A 
ATOM     30  C   UNL A   1      36.355  33.360  30.713  1.00  0.00    -0.014 A 
BRANCH  30  31
ATOM     31  C   UNL A   1      37.494  32.643  31.313  1.00  0.00     0.031 A 
ATOM     32  C   UNL A   1      38.068  33.106  32.612  1.00  0.00     0.074 A 
ATOM     33  C   UNL A   1      38.005  31.587  30.652  1.00  0.00     0.049 A 
ATOM     34  N   UNL A   1      39.093  32.637  33.272  1.00  0.00    -0.248 NA
ATOM     35  C   UNL A   1      37.409  34.257  33.250  1.00  0.00     0.031 C 
ATOM     36  C   UNL A   1      37.497  31.062  29.380  1.00  0.00     0.029 A 
ATOM     37  N   UNL A   1      39.057  30.767  30.953  1.00  0.00    -0.354 N 
ATOM     38  C   UNL A   1      39.213  33.442  34.397  1.00  0.00     0.074 A 
ATOM     39  C   UNL A   1      38.176  34.447  34.314  1.00  0.00     0.031 C 
ATOM     40  C   UNL A   1      38.229  29.997  29.021  1.00  0.00     0.029 A 
ATOM     41  C   UNL A   1      39.284  29.797  30.007  1.00  0.00     0.049 A 
ATOM     42  H   UNL A   1      39.601  30.863  31.769  1.00  0.00     0.167 HD
ATOM     43  C   UNL A   1      40.113  33.343  35.403  1.00  0.00     0.031 A 
ATOM     44  C   UNL A   1      40.250  28.864  29.939  1.00  0.00     0.031 A 
ATOM     45  C   UNL A   1      41.151  32.347  35.445  1.00  0.00     0.049 A 
ATOM     46  C   UNL A   1      41.263  28.809  31.046  1.00  0.00     0.074 A 
ATOM     47  C   UNL A   1      42.111  32.140  36.419  1.00  0.00     0.029 A 
ATOM     48  N   UNL A   1      41.367  31.392  34.460  1.00  0.00    -0.354 N 
ATOM     49  N   UNL A   1      41.350  29.554  32.122  1.00  0.00    -0.248 NA
ATOM     50  C   UNL A   1      42.308  27.784  30.934  1.00  0.00     0.031 C 
ATOM     51  C   UNL A   1      42.944  31.099  35.993  1.00  0.00     0.029 A 
ATOM     52  C   UNL A   1      42.461  30.613  34.788  1.00  0.00     0.049 A 
ATOM     53  H   UNL A   1      40.820  31.287  33.648  1.00  0.00     0.167 HD
ATOM     54  C   UNL A   1      42.444  29.076  32.828  1.00  0.00     0.074 A 
ATOM     55  C   UNL A   1      42.974  27.961  32.065  1.00  0.00     0.031 C 
ATOM     56  C   UNL A   1      42.968  29.517  33.998  1.00  0.00     0.031 A 
BRANCH  43  57
ATOM     57  C   UNL A   1      40.035  34.367  36.503  1.00  0.00    -0.014 A 
ATOM     58  C   UNL A   1      40.750  35.574  36.436  1.00  0.00     0.009 A 
ATOM     59  C   UNL A   1      39.225  34.123  37.623  1.00  0.00     0.009 A 
ATOM     60  C   UNL A   1      40.689  36.494  37.485  1.00  0.00     0.001 A 
ATOM     61  C   UNL A   1      39.142  35.059  38.657  1.00  0.00     0.001 A 
ATOM     62  C   UNL A   1      39.882  36.238  38.592  1.00  0.00     0.000 A 
ENDBRANCH  43  57
BRANCH  44  63
ATOM     63  C   UNL A   1      40.304  27.928  28.785  1.00  0.00    -0.014 A 
ATOM     64  C   UNL A   1      39.653  26.686  28.838  1.00  0.00     0.009 A 
ATOM     65  C   UNL A   1      40.996  28.279  27.614  1.00  0.00     0.009 A 
ATOM     66  C   UNL A   1      39.712  25.808  27.752  1.00  0.00     0.001 A 
ATOM     67  C   UNL A   1      41.027  27.413  26.519  1.00  0.00     0.001 A 
ATOM     68  C   UNL A   1      40.393  26.175  26.592  1.00  0.00     0.000 A 
ENDBRANCH  44  63
BRANCH  56  69
ATOM     69  C   UNL A   1      44.156  28.767  34.530  1.00  0.00    -0.014 A 
ATOM     70  C   UNL A   1      45.467  29.156  34.214  1.00  0.00     0.009 A 
ATOM     71  C   UNL A   1      43.957  27.671  35.385  1.00  0.00     0.009 A 
ATOM     72  C   UNL A   1      46.555  28.438  34.713  1.00  0.00     0.001 A 
ATOM     73  C   UNL A   1      45.046  26.976  35.909  1.00  0.00     0.001 A 
ATOM     74  C   UNL A   1      46.344  27.353  35.564  1.00  0.00     0.000 A 
ENDBRANCH  56  69
ENDBRANCH  30  31
ENDBRANCH  23  25
ENDBRANCH  22  23
ENDBRANCH  21  22
ENDBRANCH  20  21
ENDBRANCH  19  20
ENDBRANCH   1  19
TORSDOF 17
ENDMDL
