MODEL 1
REMARK VINA RESULT:     -11.5      0.000      0.000
REMARK SMILES [NH3+][C@@H](Cc1cn(-c2nc(Cl)nc(N3CCOCC3)n2)c2ccccc12)C(=O)OCCOC(=O)c1ccc(-c2c3nc(c(-c4ccccc4)c4ccc([nH]4)c(-c4ccccc4)c4nc(c(-c5ccccc5)c5ccc2[nH]5)C=C4)C=C3)cc1
REMARK SMILES IDX 29 1 28 2 26 3 27 4 2 5 1 6 3 10 4 11 5 12 25 13 6 14 20 15
REMARK SMILES IDX 24 16 21 17 23 18 22 19 7 20 8 21 19 22 9 23 12 24 10 25
REMARK SMILES IDX 11 26 13 27 14 28 18 29 15 30 17 31 16 32 30 33 31 34 32 35
REMARK SMILES IDX 33 36 34 37 35 38 81 39 36 40 80 41 37 42 38 43 39 44 74 45
REMARK SMILES IDX 40 46 79 47 73 48 75 49 41 50 78 51 72 52 71 53 42 55 64 56
REMARK SMILES IDX 49 57 63 58 50 59 53 60 62 61 76 62 51 63 52 64 61 66 77 67
REMARK SMILES IDX 54 68 43 69 44 70 48 71 45 72 47 73 46 74 65 75 66 76 70 77
REMARK SMILES IDX 67 78 69 79 68 80 55 81 56 82 60 83 57 84 59 85 58 86
REMARK H PARENT 1 7 1 8 1 9 75 54 53 65
REMARK Flexibility Score: inf
ROOT
ATOM      1  C   UNL A   1      44.979  21.209  24.634  1.00  0.00     0.274 C 
ENDROOT
BRANCH   1   2
ATOM      2  O   UNL A   1      43.873  20.325  24.363  1.00  0.00    -0.458 OA
BRANCH   2   3
ATOM      3  C   UNL A   1      43.797  19.185  25.095  1.00  0.00     0.365 C 
ATOM      4  O   UNL A   1      44.618  18.275  25.031  1.00  0.00    -0.245 OA
BRANCH   3   5
ATOM      5  C   UNL A   1      42.569  19.141  26.028  1.00  0.00     0.296 C 
BRANCH   5   6
ATOM      6  N   UNL A   1      42.427  17.936  26.882  1.00  0.00    -0.346 N 
ATOM      7  H   UNL A   1      42.057  18.207  27.794  1.00  0.00     0.345 HD
ATOM      8  H   UNL A   1      43.340  17.496  27.003  1.00  0.00     0.345 HD
ATOM      9  H   UNL A   1      41.789  17.278  26.437  1.00  0.00     0.345 HD
ENDBRANCH   5   6
BRANCH   5  10
ATOM     10  C   UNL A   1      42.389  20.416  26.822  1.00  0.00     0.115 C 
BRANCH  10  11
ATOM     11  C   UNL A   1      41.122  21.179  26.684  1.00  0.00    -0.015 A 
ATOM     12  C   UNL A   1      40.058  20.597  26.040  1.00  0.00     0.099 A 
ATOM     13  C   UNL A   1      40.688  22.489  27.074  1.00  0.00     0.004 A 
ATOM     14  N   UNL A   1      39.050  21.511  25.903  1.00  0.00    -0.285 N 
ATOM     15  C   UNL A   1      39.432  22.705  26.481  1.00  0.00     0.056 A 
ATOM     16  C   UNL A   1      41.224  23.536  27.857  1.00  0.00     0.010 A 
ATOM     17  C   UNL A   1      38.741  23.923  26.618  1.00  0.00     0.027 A 
ATOM     18  C   UNL A   1      40.541  24.744  28.006  1.00  0.00     0.001 A 
ATOM     19  C   UNL A   1      39.319  24.935  27.385  1.00  0.00     0.002 A 
BRANCH  14  20
ATOM     20  C   UNL A   1      37.807  21.153  25.340  1.00  0.00     0.240 A 
ATOM     21  N   UNL A   1      37.525  19.887  25.087  1.00  0.00    -0.181 NA
ATOM     22  N   UNL A   1      36.957  22.171  25.211  1.00  0.00    -0.176 NA
ATOM     23  C   UNL A   1      36.236  19.725  24.814  1.00  0.00     0.228 A 
ATOM     24  C   UNL A   1      35.732  21.890  24.819  1.00  0.00     0.231 A 
ATOM     25  Cl  UNL A   1      35.722  18.105  24.628  1.00  0.00    -0.041 Cl
ATOM     26  N   UNL A   1      35.288  20.654  24.688  1.00  0.00    -0.182 NA
BRANCH  24  27
ATOM     27  N   UNL A   1      34.944  22.959  24.531  1.00  0.00    -0.336 N 
ATOM     28  C   UNL A   1      34.254  23.660  25.610  1.00  0.00     0.148 C 
ATOM     29  C   UNL A   1      34.748  23.446  23.180  1.00  0.00     0.148 C 
ATOM     30  C   UNL A   1      32.779  23.863  25.251  1.00  0.00     0.181 C 
ATOM     31  C   UNL A   1      33.236  23.638  22.943  1.00  0.00     0.181 C 
ATOM     32  O   UNL A   1      32.634  24.469  23.954  1.00  0.00    -0.378 OA
ENDBRANCH  24  27
ENDBRANCH  14  20
ENDBRANCH  10  11
ENDBRANCH   5  10
ENDBRANCH   3   5
ENDBRANCH   2   3
ENDBRANCH   1   2
BRANCH   1  33
ATOM     33  C   UNL A   1      44.651  22.577  24.029  1.00  0.00     0.275 C 
BRANCH  33  34
ATOM     34  O   UNL A   1      44.085  23.411  25.056  1.00  0.00    -0.458 OA
BRANCH  34  35
ATOM     35  C   UNL A   1      44.705  24.616  25.212  1.00  0.00     0.338 C 
ATOM     36  O   UNL A   1      45.686  24.996  24.625  1.00  0.00    -0.246 OA
BRANCH  35  37
ATOM     37  C   UNL A   1      43.782  25.488  25.996  1.00  0.00     0.060 A 
ATOM     38  C   UNL A   1      42.766  26.223  25.373  1.00  0.00     0.016 A 
ATOM     39  C   UNL A   1      44.127  25.763  27.321  1.00  0.00     0.016 A 
ATOM     40  C   UNL A   1      42.235  27.343  26.005  1.00  0.00     0.010 A 
ATOM     41  C   UNL A   1      43.584  26.880  27.955  1.00  0.00     0.010 A 
ATOM     42  C   UNL A   1      42.707  27.724  27.265  1.00  0.00    -0.014 A 
BRANCH  42  43
ATOM     43  C   UNL A   1      42.090  28.879  27.921  1.00  0.00     0.031 A 
ATOM     44  C   UNL A   1      42.975  30.059  27.910  1.00  0.00     0.074 A 
ATOM     45  C   UNL A   1      40.871  29.005  28.488  1.00  0.00     0.049 A 
ATOM     46  N   UNL A   1      43.595  30.548  28.930  1.00  0.00    -0.248 NA
ATOM     47  C   UNL A   1      43.320  30.669  26.622  1.00  0.00     0.031 C 
ATOM     48  C   UNL A   1      39.743  28.088  28.486  1.00  0.00     0.029 A 
ATOM     49  N   UNL A   1      40.363  30.082  29.164  1.00  0.00    -0.354 N 
ATOM     50  C   UNL A   1      44.330  31.614  28.441  1.00  0.00     0.074 A 
ATOM     51  C   UNL A   1      44.244  31.549  27.003  1.00  0.00     0.031 C 
ATOM     52  C   UNL A   1      38.616  28.725  28.889  1.00  0.00     0.029 A 
ATOM     53  C   UNL A   1      38.992  30.037  29.380  1.00  0.00     0.049 A 
ATOM     54  H   UNL A   1      40.925  30.829  29.472  1.00  0.00     0.167 HD
ATOM     55  C   UNL A   1      44.814  32.585  29.256  1.00  0.00     0.031 A 
ATOM     56  C   UNL A   1      38.222  30.991  29.959  1.00  0.00     0.031 A 
ATOM     57  C   UNL A   1      44.801  32.192  30.640  1.00  0.00     0.049 A 
ATOM     58  C   UNL A   1      39.103  31.807  30.817  1.00  0.00     0.074 A 
ATOM     59  C   UNL A   1      45.422  31.195  31.368  1.00  0.00     0.029 A 
ATOM     60  N   UNL A   1      43.767  32.645  31.422  1.00  0.00    -0.354 N 
ATOM     61  N   UNL A   1      39.642  31.374  31.920  1.00  0.00    -0.248 NA
ATOM     62  C   UNL A   1      39.690  33.013  30.262  1.00  0.00     0.031 C 
ATOM     63  C   UNL A   1      44.469  30.800  32.351  1.00  0.00     0.029 A 
ATOM     64  C   UNL A   1      43.333  31.597  32.195  1.00  0.00     0.049 A 
ATOM     65  H   UNL A   1      43.402  33.559  31.428  1.00  0.00     0.167 HD
ATOM     66  C   UNL A   1      40.890  31.975  31.955  1.00  0.00     0.074 A 
ATOM     67  C   UNL A   1      40.811  33.064  30.985  1.00  0.00     0.031 C 
ATOM     68  C   UNL A   1      41.949  31.366  32.562  1.00  0.00     0.031 A 
BRANCH  55  69
ATOM     69  C   UNL A   1      45.003  34.001  28.801  1.00  0.00    -0.014 A 
ATOM     70  C   UNL A   1      46.228  34.493  28.305  1.00  0.00     0.009 A 
ATOM     71  C   UNL A   1      43.881  34.828  28.650  1.00  0.00     0.009 A 
ATOM     72  C   UNL A   1      46.341  35.754  27.719  1.00  0.00     0.001 A 
ATOM     73  C   UNL A   1      43.979  36.074  28.019  1.00  0.00     0.001 A 
ATOM     74  C   UNL A   1      45.210  36.538  27.561  1.00  0.00     0.000 A 
ENDBRANCH  55  69
BRANCH  56  75
ATOM     75  C   UNL A   1      36.860  31.447  29.604  1.00  0.00    -0.014 A 
ATOM     76  C   UNL A   1      36.611  31.976  28.327  1.00  0.00     0.009 A 
ATOM     77  C   UNL A   1      35.904  31.679  30.608  1.00  0.00     0.009 A 
ATOM     78  C   UNL A   1      35.482  32.766  28.078  1.00  0.00     0.001 A 
ATOM     79  C   UNL A   1      34.774  32.470  30.359  1.00  0.00     0.001 A 
ATOM     80  C   UNL A   1      34.575  33.031  29.100  1.00  0.00     0.000 A 
ENDBRANCH  56  75
BRANCH  68  81
ATOM     81  C   UNL A   1      41.682  30.174  33.457  1.00  0.00    -0.014 A 
ATOM     82  C   UNL A   1      41.616  30.388  34.844  1.00  0.00     0.009 A 
ATOM     83  C   UNL A   1      41.663  28.847  32.992  1.00  0.00     0.009 A 
ATOM     84  C   UNL A   1      41.551  29.315  35.738  1.00  0.00     0.001 A 
ATOM     85  C   UNL A   1      41.569  27.773  33.886  1.00  0.00     0.001 A 
ATOM     86  C   UNL A   1      41.525  28.008  35.259  1.00  0.00     0.000 A 
ENDBRANCH  68  81
ENDBRANCH  42  43
ENDBRANCH  35  37
ENDBRANCH  34  35
ENDBRANCH  33  34
ENDBRANCH   1  33
TORSDOF 16
ENDMDL
MODEL 2
REMARK VINA RESULT:     -11.5      5.669     12.521
REMARK SMILES [NH3+][C@@H](Cc1cn(-c2nc(Cl)nc(N3CCOCC3)n2)c2ccccc12)C(=O)OCCOC(=O)c1ccc(-c2c3nc(c(-c4ccccc4)c4ccc([nH]4)c(-c4ccccc4)c4nc(c(-c5ccccc5)c5ccc2[nH]5)C=C4)C=C3)cc1
REMARK SMILES IDX 29 1 28 2 26 3 27 4 2 5 1 6 3 10 4 11 5 12 25 13 6 14 20 15
REMARK SMILES IDX 24 16 21 17 23 18 22 19 7 20 8 21 19 22 9 23 12 24 10 25
REMARK SMILES IDX 11 26 13 27 14 28 18 29 15 30 17 31 16 32 30 33 31 34 32 35
REMARK SMILES IDX 33 36 34 37 35 38 81 39 36 40 80 41 37 42 38 43 39 44 74 45
REMARK SMILES IDX 40 46 79 47 73 48 75 49 41 50 78 51 72 52 71 53 42 55 64 56
REMARK SMILES IDX 49 57 63 58 50 59 53 60 62 61 76 62 51 63 52 64 61 66 77 67
REMARK SMILES IDX 54 68 43 69 44 70 48 71 45 72 47 73 46 74 65 75 66 76 70 77
REMARK SMILES IDX 67 78 69 79 68 80 55 81 56 82 60 83 57 84 59 85 58 86
REMARK H PARENT 1 7 1 8 1 9 75 54 53 65
REMARK Flexibility Score: inf
ROOT
ATOM      1  C   UNL A   1      34.401  34.680  29.410  1.00  0.00     0.274 C 
ENDROOT
BRANCH   1   2
ATOM      2  O   UNL A   1      33.199  34.653  30.205  1.00  0.00    -0.458 OA
BRANCH   2   3
ATOM      3  C   UNL A   1      32.947  35.736  30.983  1.00  0.00     0.365 C 
ATOM      4  O   UNL A   1      31.971  36.466  30.843  1.00  0.00    -0.245 OA
BRANCH   3   5
ATOM      5  C   UNL A   1      34.014  35.962  32.074  1.00  0.00     0.296 C 
BRANCH   5   6
ATOM      6  N   UNL A   1      34.242  37.366  32.497  1.00  0.00    -0.346 N 
ATOM      7  H   UNL A   1      33.527  37.638  33.172  1.00  0.00     0.345 HD
ATOM      8  H   UNL A   1      34.191  37.979  31.683  1.00  0.00     0.345 HD
ATOM      9  H   UNL A   1      35.163  37.446  32.926  1.00  0.00     0.345 HD
ENDBRANCH   5   6
BRANCH   5  10
ATOM     10  C   UNL A   1      33.846  35.039  33.261  1.00  0.00     0.115 C 
BRANCH  10  11
ATOM     11  C   UNL A   1      34.969  34.145  33.644  1.00  0.00    -0.015 A 
ATOM     12  C   UNL A   1      35.731  34.463  34.741  1.00  0.00     0.099 A 
ATOM     13  C   UNL A   1      35.519  32.935  33.108  1.00  0.00     0.004 A 
ATOM     14  N   UNL A   1      36.784  33.596  34.834  1.00  0.00    -0.285 N 
ATOM     15  C   UNL A   1      36.712  32.675  33.807  1.00  0.00     0.056 A 
ATOM     16  C   UNL A   1      35.153  32.024  32.092  1.00  0.00     0.010 A 
ATOM     17  C   UNL A   1      37.538  31.581  33.493  1.00  0.00     0.027 A 
ATOM     18  C   UNL A   1      35.962  30.931  31.780  1.00  0.00     0.001 A 
ATOM     19  C   UNL A   1      37.145  30.720  32.468  1.00  0.00     0.002 A 
BRANCH  14  20
ATOM     20  C   UNL A   1      37.686  33.650  35.918  1.00  0.00     0.240 A 
ATOM     21  N   UNL A   1      38.875  34.207  35.772  1.00  0.00    -0.181 NA
ATOM     22  N   UNL A   1      37.180  33.204  37.067  1.00  0.00    -0.176 NA
ATOM     23  C   UNL A   1      39.465  34.398  36.946  1.00  0.00     0.228 A 
ATOM     24  C   UNL A   1      37.917  33.350  38.148  1.00  0.00     0.231 A 
ATOM     25  Cl  UNL A   1      40.941  35.259  36.895  1.00  0.00    -0.041 Cl
ATOM     26  N   UNL A   1      39.049  34.028  38.158  1.00  0.00    -0.182 NA
BRANCH  24  27
ATOM     27  N   UNL A   1      37.453  32.734  39.267  1.00  0.00    -0.336 N 
ATOM     28  C   UNL A   1      36.856  31.406  39.167  1.00  0.00     0.148 C 
ATOM     29  C   UNL A   1      37.519  33.344  40.581  1.00  0.00     0.148 C 
ATOM     30  C   UNL A   1      35.521  31.367  39.917  1.00  0.00     0.181 C 
ATOM     31  C   UNL A   1      36.133  33.221  41.248  1.00  0.00     0.181 C 
ATOM     32  O   UNL A   1      35.661  31.861  41.261  1.00  0.00    -0.378 OA
ENDBRANCH  24  27
ENDBRANCH  14  20
ENDBRANCH  10  11
ENDBRANCH   5  10
ENDBRANCH   3   5
ENDBRANCH   2   3
ENDBRANCH   1   2
BRANCH   1  33
ATOM     33  C   UNL A   1      34.101  33.994  28.073  1.00  0.00     0.275 C 
BRANCH  33  34
ATOM     34  O   UNL A   1      35.187  33.104  27.758  1.00  0.00    -0.458 OA
BRANCH  34  35
ATOM     35  C   UNL A   1      35.060  31.850  28.280  1.00  0.00     0.338 C 
ATOM     36  O   UNL A   1      34.030  31.296  28.568  1.00  0.00    -0.246 OA
BRANCH  35  37
ATOM     37  C   UNL A   1      36.384  31.176  28.133  1.00  0.00     0.060 A 
ATOM     38  C   UNL A   1      36.489  29.871  27.639  1.00  0.00     0.016 A 
ATOM     39  C   UNL A   1      37.483  31.776  28.753  1.00  0.00     0.016 A 
ATOM     40  C   UNL A   1      37.616  29.109  27.930  1.00  0.00     0.010 A 
ATOM     41  C   UNL A   1      38.615  31.012  29.033  1.00  0.00     0.010 A 
ATOM     42  C   UNL A   1      38.646  29.653  28.704  1.00  0.00    -0.014 A 
BRANCH  42  43
ATOM     43  C   UNL A   1      39.839  28.838  28.949  1.00  0.00     0.031 A 
ATOM     44  C   UNL A   1      40.089  28.643  30.389  1.00  0.00     0.074 A 
ATOM     45  C   UNL A   1      40.686  28.257  28.074  1.00  0.00     0.049 A 
ATOM     46  N   UNL A   1      41.035  29.190  31.074  1.00  0.00    -0.248 NA
ATOM     47  C   UNL A   1      39.112  27.882  31.177  1.00  0.00     0.031 C 
ATOM     48  C   UNL A   1      40.590  28.129  26.628  1.00  0.00     0.029 A 
ATOM     49  N   UNL A   1      41.839  27.569  28.346  1.00  0.00    -0.354 N 
ATOM     50  C   UNL A   1      40.852  28.753  32.374  1.00  0.00     0.074 A 
ATOM     51  C   UNL A   1      39.577  28.080  32.408  1.00  0.00     0.031 C 
ATOM     52  C   UNL A   1      41.474  27.207  26.176  1.00  0.00     0.029 A 
ATOM     53  C   UNL A   1      42.344  26.839  27.278  1.00  0.00     0.049 A 
ATOM     54  H   UNL A   1      42.274  27.591  29.228  1.00  0.00     0.167 HD
ATOM     55  C   UNL A   1      41.845  28.816  33.298  1.00  0.00     0.031 A 
ATOM     56  C   UNL A   1      43.425  26.021  27.284  1.00  0.00     0.031 A 
ATOM     57  C   UNL A   1      42.913  29.691  32.892  1.00  0.00     0.049 A 
ATOM     58  C   UNL A   1      44.297  26.451  28.394  1.00  0.00     0.074 A 
ATOM     59  C   UNL A   1      43.005  31.042  32.619  1.00  0.00     0.029 A 
ATOM     60  N   UNL A   1      44.036  29.117  32.350  1.00  0.00    -0.354 N 
ATOM     61  N   UNL A   1      44.966  27.567  28.398  1.00  0.00    -0.248 NA
ATOM     62  C   UNL A   1      44.149  25.802  29.684  1.00  0.00     0.031 C 
ATOM     63  C   UNL A   1      43.945  31.147  31.554  1.00  0.00     0.029 A 
ATOM     64  C   UNL A   1      44.403  29.862  31.256  1.00  0.00     0.049 A 
ATOM     65  H   UNL A   1      44.497  28.315  32.685  1.00  0.00     0.167 HD
ATOM     66  C   UNL A   1      44.936  27.985  29.719  1.00  0.00     0.074 A 
ATOM     67  C   UNL A   1      44.535  26.803  30.478  1.00  0.00     0.031 C 
ATOM     68  C   UNL A   1      44.971  29.310  30.041  1.00  0.00     0.031 A 
BRANCH  55  69
ATOM     69  C   UNL A   1      41.965  27.833  34.423  1.00  0.00    -0.014 A 
ATOM     70  C   UNL A   1      41.499  28.093  35.728  1.00  0.00     0.009 A 
ATOM     71  C   UNL A   1      42.356  26.515  34.142  1.00  0.00     0.009 A 
ATOM     72  C   UNL A   1      41.454  27.107  36.713  1.00  0.00     0.001 A 
ATOM     73  C   UNL A   1      42.267  25.511  35.113  1.00  0.00     0.001 A 
ATOM     74  C   UNL A   1      41.822  25.810  36.399  1.00  0.00     0.000 A 
ENDBRANCH  55  69
BRANCH  56  75
ATOM     75  C   UNL A   1      43.626  24.718  26.611  1.00  0.00    -0.014 A 
ATOM     76  C   UNL A   1      44.312  24.662  25.387  1.00  0.00     0.009 A 
ATOM     77  C   UNL A   1      42.863  23.599  26.987  1.00  0.00     0.009 A 
ATOM     78  C   UNL A   1      44.187  23.558  24.536  1.00  0.00     0.001 A 
ATOM     79  C   UNL A   1      42.737  22.493  26.135  1.00  0.00     0.001 A 
ATOM     80  C   UNL A   1      43.382  22.482  24.901  1.00  0.00     0.000 A 
ENDBRANCH  56  75
BRANCH  68  81
ATOM     81  C   UNL A   1      45.347  30.306  28.964  1.00  0.00    -0.014 A 
ATOM     82  C   UNL A   1      44.432  30.533  27.922  1.00  0.00     0.009 A 
ATOM     83  C   UNL A   1      46.624  30.886  28.860  1.00  0.00     0.009 A 
ATOM     84  C   UNL A   1      44.784  31.298  26.806  1.00  0.00     0.001 A 
ATOM     85  C   UNL A   1      46.967  31.677  27.756  1.00  0.00     0.001 A 
ATOM     86  C   UNL A   1      46.051  31.872  26.724  1.00  0.00     0.000 A 
ENDBRANCH  68  81
ENDBRANCH  42  43
ENDBRANCH  35  37
ENDBRANCH  34  35
ENDBRANCH  33  34
ENDBRANCH   1  33
TORSDOF 16
ENDMDL
MODEL 3
REMARK VINA RESULT:     -11.5      2.544      4.274
REMARK SMILES [NH3+][C@@H](Cc1cn(-c2nc(Cl)nc(N3CCOCC3)n2)c2ccccc12)C(=O)OCCOC(=O)c1ccc(-c2c3nc(c(-c4ccccc4)c4ccc([nH]4)c(-c4ccccc4)c4nc(c(-c5ccccc5)c5ccc2[nH]5)C=C4)C=C3)cc1
REMARK SMILES IDX 29 1 28 2 26 3 27 4 2 5 1 6 3 10 4 11 5 12 25 13 6 14 20 15
REMARK SMILES IDX 24 16 21 17 23 18 22 19 7 20 8 21 19 22 9 23 12 24 10 25
REMARK SMILES IDX 11 26 13 27 14 28 18 29 15 30 17 31 16 32 30 33 31 34 32 35
REMARK SMILES IDX 33 36 34 37 35 38 81 39 36 40 80 41 37 42 38 43 39 44 74 45
REMARK SMILES IDX 40 46 79 47 73 48 75 49 41 50 78 51 72 52 71 53 42 55 64 56
REMARK SMILES IDX 49 57 63 58 50 59 53 60 62 61 76 62 51 63 52 64 61 66 77 67
REMARK SMILES IDX 54 68 43 69 44 70 48 71 45 72 47 73 46 74 65 75 66 76 70 77
REMARK SMILES IDX 67 78 69 79 68 80 55 81 56 82 60 83 57 84 59 85 58 86
REMARK H PARENT 1 7 1 8 1 9 75 54 53 65
REMARK Flexibility Score: inf
ROOT
ATOM      1  C   UNL A   1      40.842  21.884  27.733  1.00  0.00     0.274 C 
ENDROOT
BRANCH   1   2
ATOM      2  O   UNL A   1      39.691  21.957  26.867  1.00  0.00    -0.458 OA
BRANCH   2   3
ATOM      3  C   UNL A   1      39.064  23.156  26.770  1.00  0.00     0.365 C 
ATOM      4  O   UNL A   1      39.298  24.111  27.505  1.00  0.00    -0.245 OA
BRANCH   3   5
ATOM      5  C   UNL A   1      38.021  23.207  25.636  1.00  0.00     0.296 C 
BRANCH   5   6
ATOM      6  N   UNL A   1      38.053  22.095  24.655  1.00  0.00    -0.346 N 
ATOM      7  H   UNL A   1      38.931  22.123  24.136  1.00  0.00     0.345 HD
ATOM      8  H   UNL A   1      37.271  22.191  24.005  1.00  0.00     0.345 HD
ATOM      9  H   UNL A   1      37.977  21.205  25.147  1.00  0.00     0.345 HD
ENDBRANCH   5   6
BRANCH   5  10
ATOM     10  C   UNL A   1      36.618  23.472  26.139  1.00  0.00     0.115 C 
BRANCH  10  11
ATOM     11  C   UNL A   1      35.473  23.289  25.211  1.00  0.00    -0.015 A 
ATOM     12  C   UNL A   1      35.013  24.367  24.496  1.00  0.00     0.099 A 
ATOM     13  C   UNL A   1      34.641  22.179  24.846  1.00  0.00     0.004 A 
ATOM     14  N   UNL A   1      33.879  24.016  23.816  1.00  0.00    -0.285 N 
ATOM     15  C   UNL A   1      33.593  22.686  24.059  1.00  0.00     0.056 A 
ATOM     16  C   UNL A   1      34.643  20.790  25.105  1.00  0.00     0.010 A 
ATOM     17  C   UNL A   1      32.559  21.866  23.573  1.00  0.00     0.027 A 
ATOM     18  C   UNL A   1      33.627  19.967  24.620  1.00  0.00     0.001 A 
ATOM     19  C   UNL A   1      32.593  20.503  23.871  1.00  0.00     0.002 A 
BRANCH  14  20
ATOM     20  C   UNL A   1      33.240  24.918  22.940  1.00  0.00     0.240 A 
ATOM     21  N   UNL A   1      33.388  24.800  21.633  1.00  0.00    -0.181 NA
ATOM     22  N   UNL A   1      32.424  25.779  23.549  1.00  0.00    -0.176 NA
ATOM     23  C   UNL A   1      32.515  25.559  20.980  1.00  0.00     0.228 A 
ATOM     24  C   UNL A   1      31.692  26.561  22.785  1.00  0.00     0.231 A 
ATOM     25  Cl  UNL A   1      32.504  25.368  19.281  1.00  0.00    -0.041 Cl
ATOM     26  N   UNL A   1      31.634  26.431  21.473  1.00  0.00    -0.182 NA
BRANCH  24  27
ATOM     27  N   UNL A   1      31.003  27.540  23.429  1.00  0.00    -0.336 N 
ATOM     28  C   UNL A   1      29.865  28.175  22.772  1.00  0.00     0.148 C 
ATOM     29  C   UNL A   1      31.352  27.996  24.760  1.00  0.00     0.148 C 
ATOM     30  C   UNL A   1      29.976  29.698  22.877  1.00  0.00     0.181 C 
ATOM     31  C   UNL A   1      31.406  29.537  24.750  1.00  0.00     0.181 C 
ATOM     32  O   UNL A   1      30.192  30.116  24.236  1.00  0.00    -0.378 OA
ENDBRANCH  24  27
ENDBRANCH  14  20
ENDBRANCH  10  11
ENDBRANCH   5  10
ENDBRANCH   3   5
ENDBRANCH   2   3
ENDBRANCH   1   2
BRANCH   1  33
ATOM     33  C   UNL A   1      42.029  21.387  26.902  1.00  0.00     0.275 C 
BRANCH  33  34
ATOM     34  O   UNL A   1      43.049  22.403  26.903  1.00  0.00    -0.458 OA
BRANCH  34  35
ATOM     35  C   UNL A   1      43.099  23.154  25.766  1.00  0.00     0.338 C 
ATOM     36  O   UNL A   1      43.017  22.746  24.635  1.00  0.00    -0.246 OA
BRANCH  35  37
ATOM     37  C   UNL A   1      42.956  24.582  26.175  1.00  0.00     0.060 A 
ATOM     38  C   UNL A   1      43.538  25.067  27.352  1.00  0.00     0.016 A 
ATOM     39  C   UNL A   1      42.007  25.353  25.499  1.00  0.00     0.016 A 
ATOM     40  C   UNL A   1      43.037  26.220  27.948  1.00  0.00     0.010 A 
ATOM     41  C   UNL A   1      41.516  26.515  26.093  1.00  0.00     0.010 A 
ATOM     42  C   UNL A   1      41.965  26.900  27.362  1.00  0.00    -0.014 A 
BRANCH  42  43
ATOM     43  C   UNL A   1      41.497  28.138  27.989  1.00  0.00     0.031 A 
ATOM     44  C   UNL A   1      42.462  29.241  27.824  1.00  0.00     0.074 A 
ATOM     45  C   UNL A   1      40.348  28.395  28.649  1.00  0.00     0.049 A 
ATOM     46  N   UNL A   1      43.207  29.740  28.751  1.00  0.00    -0.248 NA
ATOM     47  C   UNL A   1      42.733  29.743  26.472  1.00  0.00     0.031 C 
ATOM     48  C   UNL A   1      39.158  27.572  28.806  1.00  0.00     0.029 A 
ATOM     49  N   UNL A   1      39.985  29.548  29.293  1.00  0.00    -0.354 N 
ATOM     50  C   UNL A   1      43.972  30.712  28.130  1.00  0.00     0.074 A 
ATOM     51  C   UNL A   1      43.750  30.568  26.712  1.00  0.00     0.031 C 
ATOM     52  C   UNL A   1      38.124  28.320  29.260  1.00  0.00     0.029 A 
ATOM     53  C   UNL A   1      38.639  29.626  29.628  1.00  0.00     0.049 A 
ATOM     54  H   UNL A   1      40.626  30.265  29.501  1.00  0.00     0.167 HD
ATOM     55  C   UNL A   1      44.598  31.688  28.834  1.00  0.00     0.031 A 
ATOM     56  C   UNL A   1      37.998  30.671  30.206  1.00  0.00     0.031 A 
ATOM     57  C   UNL A   1      44.682  31.382  30.237  1.00  0.00     0.049 A 
ATOM     58  C   UNL A   1      39.011  31.465  30.929  1.00  0.00     0.074 A 
ATOM     59  C   UNL A   1      45.291  30.385  30.974  1.00  0.00     0.029 A 
ATOM     60  N   UNL A   1      43.760  31.963  31.073  1.00  0.00    -0.354 N 
ATOM     61  N   UNL A   1      39.614  31.057  32.007  1.00  0.00    -0.248 NA
ATOM     62  C   UNL A   1      39.633  32.585  30.246  1.00  0.00     0.031 C 
ATOM     63  C   UNL A   1      44.404  30.126  32.060  1.00  0.00     0.029 A 
ATOM     64  C   UNL A   1      43.322  31.001  31.949  1.00  0.00     0.049 A 
ATOM     65  H   UNL A   1      43.466  32.902  31.049  1.00  0.00     0.167 HD
ATOM     66  C   UNL A   1      40.902  31.558  31.895  1.00  0.00     0.074 A 
ATOM     67  C   UNL A   1      40.815  32.589  30.864  1.00  0.00     0.031 C 
ATOM     68  C   UNL A   1      41.963  30.904  32.448  1.00  0.00     0.031 A 
BRANCH  55  69
ATOM     69  C   UNL A   1      44.850  33.055  28.270  1.00  0.00    -0.014 A 
ATOM     70  C   UNL A   1      46.025  33.394  27.569  1.00  0.00     0.009 A 
ATOM     71  C   UNL A   1      43.802  33.986  28.237  1.00  0.00     0.009 A 
ATOM     72  C   UNL A   1      46.167  34.609  26.897  1.00  0.00     0.001 A 
ATOM     73  C   UNL A   1      43.921  35.185  27.524  1.00  0.00     0.001 A 
ATOM     74  C   UNL A   1      45.105  35.498  26.861  1.00  0.00     0.000 A 
ENDBRANCH  55  69
BRANCH  56  75
ATOM     75  C   UNL A   1      36.647  31.213  29.940  1.00  0.00    -0.014 A 
ATOM     76  C   UNL A   1      36.286  31.580  28.633  1.00  0.00     0.009 A 
ATOM     77  C   UNL A   1      35.847  31.681  30.997  1.00  0.00     0.009 A 
ATOM     78  C   UNL A   1      35.208  32.440  28.394  1.00  0.00     0.001 A 
ATOM     79  C   UNL A   1      34.768  32.543  30.758  1.00  0.00     0.001 A 
ATOM     80  C   UNL A   1      34.462  32.939  29.458  1.00  0.00     0.000 A 
ENDBRANCH  56  75
BRANCH  68  81
ATOM     81  C   UNL A   1      41.691  29.793  33.441  1.00  0.00    -0.014 A 
ATOM     82  C   UNL A   1      41.808  30.084  34.810  1.00  0.00     0.009 A 
ATOM     83  C   UNL A   1      41.491  28.453  33.065  1.00  0.00     0.009 A 
ATOM     84  C   UNL A   1      41.747  29.071  35.772  1.00  0.00     0.001 A 
ATOM     85  C   UNL A   1      41.401  27.441  34.030  1.00  0.00     0.001 A 
ATOM     86  C   UNL A   1      41.541  27.750  35.382  1.00  0.00     0.000 A 
ENDBRANCH  68  81
ENDBRANCH  42  43
ENDBRANCH  35  37
ENDBRANCH  34  35
ENDBRANCH  33  34
ENDBRANCH   1  33
TORSDOF 16
ENDMDL
