MODEL 1
REMARK VINA RESULT:     -11.0      0.000      0.000
REMARK SMILES C[C@@H]([NH2+]C[C@H]1CCC[C@@H]1C(=O)OCCOC(=O)c1ccc(-c2c3nc(c(-c4ccccc4)c4ccc([nH]4)c(-c4ccccc4)c4nc(c(-c5ccccc5)c5ccc2[nH]5)C=C4)C=C3)cc1)c1cc(F)ccc1O
REMARK SMILES IDX 12 1 10 2 11 3 9 4 5 5 6 6 7 7 8 8 4 9 3 10 2 13 1 14 66 15
REMARK SMILES IDX 67 16 72 17 68 18 71 19 69 20 70 21 73 22 13 24 14 25 15 26
REMARK SMILES IDX 16 27 17 28 18 29 19 30 65 31 20 32 64 33 21 34 22 35 23 36
REMARK SMILES IDX 58 37 24 38 63 39 57 40 59 41 25 42 62 43 56 44 55 45 26 47
REMARK SMILES IDX 48 48 33 49 47 50 34 51 37 52 46 53 60 54 35 55 36 56 45 58
REMARK SMILES IDX 61 59 38 60 27 61 28 62 32 63 29 64 31 65 30 66 49 67 50 68
REMARK SMILES IDX 54 69 51 70 53 71 52 72 39 73 40 74 44 75 41 76 43 77 42 78
REMARK H PARENT 3 11 3 12 73 23 59 46 37 57
REMARK Flexibility Score: inf
ROOT
ATOM      1  O   UNL A   1      34.966  22.665  25.216  1.00  0.00    -0.462 OA
ENDROOT
BRANCH   1   2
ATOM      2  C   UNL A   1      34.257  23.284  26.200  1.00  0.00     0.309 C 
ATOM      3  O   UNL A   1      34.170  22.874  27.352  1.00  0.00    -0.252 OA
BRANCH   2   4
ATOM      4  C   UNL A   1      33.498  24.497  25.666  1.00  0.00     0.108 C 
ATOM      5  C   UNL A   1      31.990  24.512  26.006  1.00  0.00     0.058 C 
ATOM      6  C   UNL A   1      31.389  23.695  24.865  1.00  0.00     0.010 C 
ATOM      7  C   UNL A   1      32.146  24.145  23.629  1.00  0.00     0.001 C 
ATOM      8  C   UNL A   1      33.536  24.544  24.122  1.00  0.00     0.016 C 
BRANCH   5   9
ATOM      9  C   UNL A   1      31.463  25.964  26.059  1.00  0.00     0.265 C 
BRANCH   9  10
ATOM     10  N   UNL A   1      30.357  26.294  25.148  1.00  0.00    -0.340 N 
ATOM     11  H   UNL A   1      30.005  25.426  24.744  1.00  0.00     0.346 HD
ATOM     12  H   UNL A   1      29.654  26.784  25.703  1.00  0.00     0.346 HD
BRANCH  10  13
ATOM     13  C   UNL A   1      30.736  27.201  24.045  1.00  0.00     0.214 C 
ATOM     14  C   UNL A   1      31.936  28.042  24.500  1.00  0.00     0.081 C 
BRANCH  13  15
ATOM     15  C   UNL A   1      29.593  28.109  23.631  1.00  0.00     0.054 A 
ATOM     16  C   UNL A   1      29.861  29.458  23.354  1.00  0.00     0.053 A 
ATOM     17  C   UNL A   1      28.259  27.672  23.545  1.00  0.00     0.124 A 
ATOM     18  C   UNL A   1      28.826  30.318  22.992  1.00  0.00     0.123 A 
ATOM     19  C   UNL A   1      27.227  28.536  23.188  1.00  0.00     0.050 A 
ATOM     20  F   UNL A   1      29.103  31.601  22.725  1.00  0.00    -0.207 F 
ATOM     21  C   UNL A   1      27.513  29.869  22.906  1.00  0.00     0.043 A 
BRANCH  17  22
ATOM     22  O   UNL A   1      27.915  26.370  23.782  1.00  0.00    -0.507 OA
ATOM     23  H   UNL A   1      27.874  25.759  23.073  1.00  0.00     0.293 HD
ENDBRANCH  17  22
ENDBRANCH  13  15
ENDBRANCH  10  13
ENDBRANCH   9  10
ENDBRANCH   5   9
ENDBRANCH   2   4
ENDBRANCH   1   2
BRANCH   1  24
ATOM     24  C   UNL A   1      34.690  21.257  25.040  1.00  0.00     0.274 C 
BRANCH  24  25
ATOM     25  C   UNL A   1      35.979  20.438  25.079  1.00  0.00     0.275 C 
BRANCH  25  26
ATOM     26  O   UNL A   1      37.101  21.303  24.832  1.00  0.00    -0.458 OA
BRANCH  26  27
ATOM     27  C   UNL A   1      38.253  20.970  25.458  1.00  0.00     0.338 C 
ATOM     28  O   UNL A   1      38.785  19.872  25.471  1.00  0.00    -0.246 OA
BRANCH  27  29
ATOM     29  C   UNL A   1      38.851  22.160  26.107  1.00  0.00     0.060 A 
ATOM     30  C   UNL A   1      38.297  23.429  25.946  1.00  0.00     0.016 A 
ATOM     31  C   UNL A   1      40.073  22.028  26.771  1.00  0.00     0.016 A 
ATOM     32  C   UNL A   1      39.027  24.562  26.308  1.00  0.00     0.010 A 
ATOM     33  C   UNL A   1      40.742  23.163  27.246  1.00  0.00     0.010 A 
ATOM     34  C   UNL A   1      40.256  24.452  26.974  1.00  0.00    -0.014 A 
BRANCH  34  35
ATOM     35  C   UNL A   1      41.048  25.666  27.343  1.00  0.00     0.031 A 
ATOM     36  C   UNL A   1      40.524  26.645  28.369  1.00  0.00     0.074 A 
ATOM     37  C   UNL A   1      42.253  25.909  26.785  1.00  0.00     0.049 A 
ATOM     38  N   UNL A   1      40.938  27.857  28.644  1.00  0.00    -0.248 NA
ATOM     39  C   UNL A   1      39.375  26.210  29.179  1.00  0.00     0.031 C 
ATOM     40  C   UNL A   1      42.946  25.041  25.832  1.00  0.00     0.029 A 
ATOM     41  N   UNL A   1      43.122  26.959  26.963  1.00  0.00    -0.354 N 
ATOM     42  C   UNL A   1      40.047  28.360  29.586  1.00  0.00     0.074 A 
ATOM     43  C   UNL A   1      39.083  27.314  29.853  1.00  0.00     0.031 C 
ATOM     44  C   UNL A   1      44.161  25.547  25.576  1.00  0.00     0.029 A 
ATOM     45  C   UNL A   1      44.286  26.837  26.244  1.00  0.00     0.049 A 
ATOM     46  H   UNL A   1      42.928  27.726  27.550  1.00  0.00     0.167 HD
ATOM     47  C   UNL A   1      40.023  29.587  30.163  1.00  0.00     0.031 A 
ATOM     48  C   UNL A   1      45.322  27.681  26.088  1.00  0.00     0.031 A 
ATOM     49  C   UNL A   1      41.019  30.606  29.958  1.00  0.00     0.049 A 
ATOM     50  C   UNL A   1      45.266  29.043  26.711  1.00  0.00     0.074 A 
ATOM     51  C   UNL A   1      41.083  31.876  30.508  1.00  0.00     0.029 A 
ATOM     52  N   UNL A   1      42.143  30.461  29.161  1.00  0.00    -0.354 N 
ATOM     53  N   UNL A   1      44.352  29.552  27.498  1.00  0.00    -0.248 NA
ATOM     54  C   UNL A   1      46.366  29.961  26.383  1.00  0.00     0.031 C 
ATOM     55  C   UNL A   1      42.230  32.510  30.019  1.00  0.00     0.029 A 
ATOM     56  C   UNL A   1      42.901  31.619  29.197  1.00  0.00     0.049 A 
ATOM     57  H   UNL A   1      42.369  29.654  28.645  1.00  0.00     0.167 HD
ATOM     58  C   UNL A   1      44.759  30.854  27.753  1.00  0.00     0.074 A 
ATOM     59  C   UNL A   1      46.017  31.046  27.060  1.00  0.00     0.031 C 
ATOM     60  C   UNL A   1      44.139  31.808  28.489  1.00  0.00     0.031 A 
BRANCH  47  61
ATOM     61  C   UNL A   1      38.843  29.920  31.032  1.00  0.00    -0.014 A 
ATOM     62  C   UNL A   1      38.852  29.697  32.416  1.00  0.00     0.009 A 
ATOM     63  C   UNL A   1      37.706  30.500  30.444  1.00  0.00     0.009 A 
ATOM     64  C   UNL A   1      37.732  30.018  33.189  1.00  0.00     0.001 A 
ATOM     65  C   UNL A   1      36.598  30.843  31.222  1.00  0.00     0.001 A 
ATOM     66  C   UNL A   1      36.609  30.593  32.593  1.00  0.00     0.000 A 
ENDBRANCH  47  61
BRANCH  48  67
ATOM     67  C   UNL A   1      46.478  27.275  25.250  1.00  0.00    -0.014 A 
ATOM     68  C   UNL A   1      47.325  26.240  25.669  1.00  0.00     0.009 A 
ATOM     69  C   UNL A   1      46.718  27.893  24.012  1.00  0.00     0.009 A 
ATOM     70  C   UNL A   1      48.388  25.827  24.863  1.00  0.00     0.001 A 
ATOM     71  C   UNL A   1      47.764  27.461  23.197  1.00  0.00     0.001 A 
ATOM     72  C   UNL A   1      48.600  26.431  23.624  1.00  0.00     0.000 A 
ENDBRANCH  48  67
BRANCH  60  73
ATOM     73  C   UNL A   1      44.822  33.139  28.587  1.00  0.00    -0.014 A 
ATOM     74  C   UNL A   1      44.520  34.170  27.685  1.00  0.00     0.009 A 
ATOM     75  C   UNL A   1      45.766  33.369  29.598  1.00  0.00     0.009 A 
ATOM     76  C   UNL A   1      45.176  35.399  27.775  1.00  0.00     0.001 A 
ATOM     77  C   UNL A   1      46.406  34.604  29.698  1.00  0.00     0.001 A 
ATOM     78  C   UNL A   1      46.117  35.616  28.783  1.00  0.00     0.000 A 
ENDBRANCH  60  73
ENDBRANCH  34  35
ENDBRANCH  27  29
ENDBRANCH  26  27
ENDBRANCH  25  26
ENDBRANCH  24  25
ENDBRANCH   1  24
TORSDOF 16
ENDMDL
MODEL 2
REMARK VINA RESULT:     -10.8      3.948      9.086
REMARK SMILES C[C@@H]([NH2+]C[C@H]1CCC[C@@H]1C(=O)OCCOC(=O)c1ccc(-c2c3nc(c(-c4ccccc4)c4ccc([nH]4)c(-c4ccccc4)c4nc(c(-c5ccccc5)c5ccc2[nH]5)C=C4)C=C3)cc1)c1cc(F)ccc1O
REMARK SMILES IDX 12 1 10 2 11 3 9 4 5 5 6 6 7 7 8 8 4 9 3 10 2 13 1 14 66 15
REMARK SMILES IDX 67 16 72 17 68 18 71 19 69 20 70 21 73 22 13 24 14 25 15 26
REMARK SMILES IDX 16 27 17 28 18 29 19 30 65 31 20 32 64 33 21 34 22 35 23 36
REMARK SMILES IDX 58 37 24 38 63 39 57 40 59 41 25 42 62 43 56 44 55 45 26 47
REMARK SMILES IDX 48 48 33 49 47 50 34 51 37 52 46 53 60 54 35 55 36 56 45 58
REMARK SMILES IDX 61 59 38 60 27 61 28 62 32 63 29 64 31 65 30 66 49 67 50 68
REMARK SMILES IDX 54 69 51 70 53 71 52 72 39 73 40 74 44 75 41 76 43 77 42 78
REMARK H PARENT 3 11 3 12 73 23 59 46 37 57
REMARK Flexibility Score: inf
ROOT
ATOM      1  O   UNL A   1      31.463  27.753  24.760  1.00  0.00    -0.462 OA
ENDROOT
BRANCH   1   2
ATOM      2  C   UNL A   1      31.539  26.835  25.764  1.00  0.00     0.309 C 
ATOM      3  O   UNL A   1      31.036  26.981  26.872  1.00  0.00    -0.252 OA
BRANCH   2   4
ATOM      4  C   UNL A   1      32.416  25.648  25.374  1.00  0.00     0.108 C 
ATOM      5  C   UNL A   1      32.594  25.453  23.851  1.00  0.00     0.058 C 
ATOM      6  C   UNL A   1      31.375  24.609  23.485  1.00  0.00     0.010 C 
ATOM      7  C   UNL A   1      31.245  23.610  24.619  1.00  0.00     0.001 C 
ATOM      8  C   UNL A   1      31.799  24.316  25.855  1.00  0.00     0.016 C 
BRANCH   5   9
ATOM      9  C   UNL A   1      33.935  24.748  23.550  1.00  0.00     0.265 C 
BRANCH   9  10
ATOM     10  N   UNL A   1      34.912  24.698  24.649  1.00  0.00    -0.340 N 
ATOM     11  H   UNL A   1      35.581  25.457  24.517  1.00  0.00     0.346 HD
ATOM     12  H   UNL A   1      34.383  24.786  25.517  1.00  0.00     0.346 HD
BRANCH  10  13
ATOM     13  C   UNL A   1      35.660  23.428  24.732  1.00  0.00     0.214 C 
ATOM     14  C   UNL A   1      36.254  23.123  23.350  1.00  0.00     0.081 C 
BRANCH  13  15
ATOM     15  C   UNL A   1      34.784  22.275  25.185  1.00  0.00     0.054 A 
ATOM     16  C   UNL A   1      34.282  21.382  24.225  1.00  0.00     0.053 A 
ATOM     17  C   UNL A   1      34.416  22.072  26.526  1.00  0.00     0.124 A 
ATOM     18  C   UNL A   1      33.458  20.328  24.612  1.00  0.00     0.123 A 
ATOM     19  C   UNL A   1      33.587  21.020  26.908  1.00  0.00     0.050 A 
ATOM     20  F   UNL A   1      32.994  19.483  23.681  1.00  0.00    -0.207 F 
ATOM     21  C   UNL A   1      33.107  20.138  25.943  1.00  0.00     0.043 A 
BRANCH  17  22
ATOM     22  O   UNL A   1      34.875  22.885  27.526  1.00  0.00    -0.507 OA
ATOM     23  H   UNL A   1      35.794  23.042  27.618  1.00  0.00     0.293 HD
ENDBRANCH  17  22
ENDBRANCH  13  15
ENDBRANCH  10  13
ENDBRANCH   9  10
ENDBRANCH   5   9
ENDBRANCH   2   4
ENDBRANCH   1   2
BRANCH   1  24
ATOM     24  C   UNL A   1      32.347  28.891  24.887  1.00  0.00     0.274 C 
BRANCH  24  25
ATOM     25  C   UNL A   1      31.602  30.101  25.448  1.00  0.00     0.275 C 
BRANCH  25  26
ATOM     26  O   UNL A   1      31.970  30.292  26.824  1.00  0.00    -0.458 OA
BRANCH  26  27
ATOM     27  C   UNL A   1      32.634  31.437  27.105  1.00  0.00     0.338 C 
ATOM     28  O   UNL A   1      32.190  32.571  27.045  1.00  0.00    -0.246 OA
BRANCH  27  29
ATOM     29  C   UNL A   1      34.009  31.136  27.571  1.00  0.00     0.060 A 
ATOM     30  C   UNL A   1      34.451  29.823  27.722  1.00  0.00     0.016 A 
ATOM     31  C   UNL A   1      34.823  32.185  28.004  1.00  0.00     0.016 A 
ATOM     32  C   UNL A   1      35.622  29.557  28.434  1.00  0.00     0.010 A 
ATOM     33  C   UNL A   1      36.059  31.914  28.606  1.00  0.00     0.010 A 
ATOM     34  C   UNL A   1      36.453  30.595  28.880  1.00  0.00    -0.014 A 
BRANCH  34  35
ATOM     35  C   UNL A   1      37.696  30.311  29.661  1.00  0.00     0.031 A 
ATOM     36  C   UNL A   1      38.855  29.578  29.024  1.00  0.00     0.074 A 
ATOM     37  C   UNL A   1      37.822  30.715  30.943  1.00  0.00     0.049 A 
ATOM     38  N   UNL A   1      39.903  29.033  29.592  1.00  0.00    -0.248 NA
ATOM     39  C   UNL A   1      38.823  29.423  27.561  1.00  0.00     0.031 C 
ATOM     40  C   UNL A   1      36.838  31.493  31.696  1.00  0.00     0.029 A 
ATOM     41  N   UNL A   1      38.853  30.541  31.835  1.00  0.00    -0.354 N 
ATOM     42  C   UNL A   1      40.601  28.394  28.572  1.00  0.00     0.074 A 
ATOM     43  C   UNL A   1      39.871  28.639  27.347  1.00  0.00     0.031 C 
ATOM     44  C   UNL A   1      37.344  31.800  32.899  1.00  0.00     0.029 A 
ATOM     45  C   UNL A   1      38.634  31.137  33.052  1.00  0.00     0.049 A 
ATOM     46  H   UNL A   1      39.672  30.036  31.621  1.00  0.00     0.167 HD
ATOM     47  C   UNL A   1      41.735  27.657  28.651  1.00  0.00     0.031 A 
ATOM     48  C   UNL A   1      39.353  31.117  34.190  1.00  0.00     0.031 A 
ATOM     49  C   UNL A   1      42.507  27.471  29.853  1.00  0.00     0.049 A 
ATOM     50  C   UNL A   1      40.590  30.275  34.268  1.00  0.00     0.074 A 
ATOM     51  C   UNL A   1      43.677  26.749  30.026  1.00  0.00     0.029 A 
ATOM     52  N   UNL A   1      42.202  28.036  31.081  1.00  0.00    -0.354 N 
ATOM     53  N   UNL A   1      41.168  29.572  33.327  1.00  0.00    -0.248 NA
ATOM     54  C   UNL A   1      41.245  30.190  35.580  1.00  0.00     0.031 C 
ATOM     55  C   UNL A   1      44.063  26.854  31.367  1.00  0.00     0.029 A 
ATOM     56  C   UNL A   1      43.155  27.673  32.018  1.00  0.00     0.049 A 
ATOM     57  H   UNL A   1      41.424  28.611  31.260  1.00  0.00     0.167 HD
ATOM     58  C   UNL A   1      42.252  28.952  33.934  1.00  0.00     0.074 A 
ATOM     59  C   UNL A   1      42.265  29.385  35.317  1.00  0.00     0.031 C 
ATOM     60  C   UNL A   1      43.149  28.092  33.394  1.00  0.00     0.031 A 
BRANCH  47  61
ATOM     61  C   UNL A   1      42.185  26.942  27.408  1.00  0.00    -0.014 A 
ATOM     62  C   UNL A   1      42.964  27.573  26.429  1.00  0.00     0.009 A 
ATOM     63  C   UNL A   1      41.837  25.591  27.236  1.00  0.00     0.009 A 
ATOM     64  C   UNL A   1      43.360  26.873  25.285  1.00  0.00     0.001 A 
ATOM     65  C   UNL A   1      42.254  24.888  26.105  1.00  0.00     0.001 A 
ATOM     66  C   UNL A   1      43.008  25.532  25.126  1.00  0.00     0.000 A 
ENDBRANCH  47  61
BRANCH  48  67
ATOM     67  C   UNL A   1      38.876  31.879  35.371  1.00  0.00    -0.014 A 
ATOM     68  C   UNL A   1      38.133  31.239  36.372  1.00  0.00     0.009 A 
ATOM     69  C   UNL A   1      39.193  33.239  35.521  1.00  0.00     0.009 A 
ATOM     70  C   UNL A   1      37.720  31.944  37.504  1.00  0.00     0.001 A 
ATOM     71  C   UNL A   1      38.803  33.934  36.666  1.00  0.00     0.001 A 
ATOM     72  C   UNL A   1      38.063  33.287  37.655  1.00  0.00     0.000 A 
ENDBRANCH  48  67
BRANCH  60  73
ATOM     73  C   UNL A   1      44.223  27.575  34.303  1.00  0.00    -0.014 A 
ATOM     74  C   UNL A   1      44.055  26.371  35.004  1.00  0.00     0.009 A 
ATOM     75  C   UNL A   1      45.420  28.291  34.451  1.00  0.00     0.009 A 
ATOM     76  C   UNL A   1      45.055  25.909  35.860  1.00  0.00     0.001 A 
ATOM     77  C   UNL A   1      46.426  27.817  35.293  1.00  0.00     0.001 A 
ATOM     78  C   UNL A   1      46.241  26.631  36.003  1.00  0.00     0.000 A 
ENDBRANCH  60  73
ENDBRANCH  34  35
ENDBRANCH  27  29
ENDBRANCH  26  27
ENDBRANCH  25  26
ENDBRANCH  24  25
ENDBRANCH   1  24
TORSDOF 16
ENDMDL
MODEL 3
REMARK VINA RESULT:     -10.7      2.948      7.354
REMARK SMILES C[C@@H]([NH2+]C[C@H]1CCC[C@@H]1C(=O)OCCOC(=O)c1ccc(-c2c3nc(c(-c4ccccc4)c4ccc([nH]4)c(-c4ccccc4)c4nc(c(-c5ccccc5)c5ccc2[nH]5)C=C4)C=C3)cc1)c1cc(F)ccc1O
REMARK SMILES IDX 12 1 10 2 11 3 9 4 5 5 6 6 7 7 8 8 4 9 3 10 2 13 1 14 66 15
REMARK SMILES IDX 67 16 72 17 68 18 71 19 69 20 70 21 73 22 13 24 14 25 15 26
REMARK SMILES IDX 16 27 17 28 18 29 19 30 65 31 20 32 64 33 21 34 22 35 23 36
REMARK SMILES IDX 58 37 24 38 63 39 57 40 59 41 25 42 62 43 56 44 55 45 26 47
REMARK SMILES IDX 48 48 33 49 47 50 34 51 37 52 46 53 60 54 35 55 36 56 45 58
REMARK SMILES IDX 61 59 38 60 27 61 28 62 32 63 29 64 31 65 30 66 49 67 50 68
REMARK SMILES IDX 54 69 51 70 53 71 52 72 39 73 40 74 44 75 41 76 43 77 42 78
REMARK H PARENT 3 11 3 12 73 23 59 46 37 57
REMARK Flexibility Score: inf
ROOT
ATOM      1  O   UNL A   1      32.008  29.043  26.049  1.00  0.00    -0.462 OA
ENDROOT
BRANCH   1   2
ATOM      2  C   UNL A   1      31.707  27.821  26.570  1.00  0.00     0.309 C 
ATOM      3  O   UNL A   1      31.182  27.648  27.664  1.00  0.00    -0.252 OA
BRANCH   2   4
ATOM      4  C   UNL A   1      32.197  26.690  25.669  1.00  0.00     0.108 C 
ATOM      5  C   UNL A   1      31.573  26.679  24.255  1.00  0.00     0.058 C 
ATOM      6  C   UNL A   1      30.288  25.883  24.470  1.00  0.00     0.010 C 
ATOM      7  C   UNL A   1      30.686  24.755  25.403  1.00  0.00     0.001 C 
ATOM      8  C   UNL A   1      31.827  25.309  26.255  1.00  0.00     0.016 C 
BRANCH   5   9
ATOM      9  C   UNL A   1      32.538  26.016  23.245  1.00  0.00     0.265 C 
BRANCH   9  10
ATOM     10  N   UNL A   1      33.813  25.520  23.784  1.00  0.00    -0.340 N 
ATOM     11  H   UNL A   1      34.555  26.152  23.484  1.00  0.00     0.346 HD
ATOM     12  H   UNL A   1      33.710  25.486  24.799  1.00  0.00     0.346 HD
BRANCH  10  13
ATOM     13  C   UNL A   1      34.161  24.153  23.346  1.00  0.00     0.214 C 
ATOM     14  C   UNL A   1      33.211  23.753  22.208  1.00  0.00     0.081 C 
BRANCH  13  15
ATOM     15  C   UNL A   1      34.066  23.146  24.478  1.00  0.00     0.054 A 
ATOM     16  C   UNL A   1      33.090  22.140  24.415  1.00  0.00     0.053 A 
ATOM     17  C   UNL A   1      34.891  23.191  25.615  1.00  0.00     0.124 A 
ATOM     18  C   UNL A   1      32.968  21.216  25.450  1.00  0.00     0.123 A 
ATOM     19  C   UNL A   1      34.762  22.269  26.650  1.00  0.00     0.050 A 
ATOM     20  F   UNL A   1      32.035  20.259  25.368  1.00  0.00    -0.207 F 
ATOM     21  C   UNL A   1      33.795  21.271  26.566  1.00  0.00     0.043 A 
BRANCH  17  22
ATOM     22  O   UNL A   1      35.877  24.129  25.748  1.00  0.00    -0.507 OA
ATOM     23  H   UNL A   1      35.661  25.040  25.752  1.00  0.00     0.293 HD
ENDBRANCH  17  22
ENDBRANCH  13  15
ENDBRANCH  10  13
ENDBRANCH   9  10
ENDBRANCH   5   9
ENDBRANCH   2   4
ENDBRANCH   1   2
BRANCH   1  24
ATOM     24  C   UNL A   1      33.301  29.576  26.416  1.00  0.00     0.274 C 
BRANCH  24  25
ATOM     25  C   UNL A   1      33.166  30.624  27.519  1.00  0.00     0.275 C 
BRANCH  25  26
ATOM     26  O   UNL A   1      34.370  31.407  27.583  1.00  0.00    -0.458 OA
BRANCH  26  27
ATOM     27  C   UNL A   1      34.990  31.442  28.785  1.00  0.00     0.338 C 
ATOM     28  O   UNL A   1      34.615  32.036  29.781  1.00  0.00    -0.246 OA
BRANCH  27  29
ATOM     29  C   UNL A   1      36.203  30.589  28.766  1.00  0.00     0.060 A 
ATOM     30  C   UNL A   1      36.716  30.035  29.938  1.00  0.00     0.016 A 
ATOM     31  C   UNL A   1      36.923  30.460  27.577  1.00  0.00     0.016 A 
ATOM     32  C   UNL A   1      38.002  29.494  29.950  1.00  0.00     0.010 A 
ATOM     33  C   UNL A   1      38.159  29.801  27.571  1.00  0.00     0.010 A 
ATOM     34  C   UNL A   1      38.744  29.355  28.767  1.00  0.00    -0.014 A 
BRANCH  34  35
ATOM     35  C   UNL A   1      40.130  28.795  28.783  1.00  0.00     0.031 A 
ATOM     36  C   UNL A   1      41.304  29.658  29.185  1.00  0.00     0.074 A 
ATOM     37  C   UNL A   1      40.365  27.507  28.456  1.00  0.00     0.049 A 
ATOM     38  N   UNL A   1      42.587  29.433  29.035  1.00  0.00    -0.248 NA
ATOM     39  C   UNL A   1      40.997  30.947  29.825  1.00  0.00     0.031 C 
ATOM     40  C   UNL A   1      39.349  26.511  28.111  1.00  0.00     0.029 A 
ATOM     41  N   UNL A   1      41.546  26.807  28.385  1.00  0.00    -0.354 N 
ATOM     42  C   UNL A   1      43.230  30.586  29.472  1.00  0.00     0.074 A 
ATOM     43  C   UNL A   1      42.199  31.499  29.917  1.00  0.00     0.031 C 
ATOM     44  C   UNL A   1      39.937  25.318  27.949  1.00  0.00     0.029 A 
ATOM     45  C   UNL A   1      41.382  25.484  28.053  1.00  0.00     0.049 A 
ATOM     46  H   UNL A   1      42.426  27.215  28.555  1.00  0.00     0.167 HD
ATOM     47  C   UNL A   1      44.556  30.866  29.487  1.00  0.00     0.031 A 
ATOM     48  C   UNL A   1      42.283  24.516  27.804  1.00  0.00     0.031 A 
ATOM     49  C   UNL A   1      45.592  29.937  29.116  1.00  0.00     0.049 A 
ATOM     50  C   UNL A   1      43.743  24.850  27.798  1.00  0.00     0.074 A 
ATOM     51  C   UNL A   1      46.964  30.128  29.109  1.00  0.00     0.029 A 
ATOM     52  N   UNL A   1      45.370  28.629  28.715  1.00  0.00    -0.354 N 
ATOM     53  N   UNL A   1      44.331  25.983  28.091  1.00  0.00    -0.248 NA
ATOM     54  C   UNL A   1      44.661  23.779  27.381  1.00  0.00     0.031 C 
ATOM     55  C   UNL A   1      47.570  28.945  28.674  1.00  0.00     0.029 A 
ATOM     56  C   UNL A   1      46.578  28.005  28.449  1.00  0.00     0.049 A 
ATOM     57  H   UNL A   1      44.485  28.206  28.631  1.00  0.00     0.167 HD
ATOM     58  C   UNL A   1      45.687  25.767  27.885  1.00  0.00     0.074 A 
ATOM     59  C   UNL A   1      45.836  24.386  27.470  1.00  0.00     0.031 C 
ATOM     60  C   UNL A   1      46.714  26.640  28.019  1.00  0.00     0.031 A 
BRANCH  47  61
ATOM     61  C   UNL A   1      44.965  32.262  29.864  1.00  0.00    -0.014 A 
ATOM     62  C   UNL A   1      45.296  32.609  31.182  1.00  0.00     0.009 A 
ATOM     63  C   UNL A   1      45.046  33.243  28.861  1.00  0.00     0.009 A 
ATOM     64  C   UNL A   1      45.669  33.920  31.492  1.00  0.00     0.001 A 
ATOM     65  C   UNL A   1      45.443  34.545  29.170  1.00  0.00     0.001 A 
ATOM     66  C   UNL A   1      45.746  34.885  30.487  1.00  0.00     0.000 A 
ENDBRANCH  47  61
BRANCH  48  67
ATOM     67  C   UNL A   1      41.815  23.146  27.478  1.00  0.00    -0.014 A 
ATOM     68  C   UNL A   1      41.448  22.819  26.165  1.00  0.00     0.009 A 
ATOM     69  C   UNL A   1      41.769  22.150  28.467  1.00  0.00     0.009 A 
ATOM     70  C   UNL A   1      41.047  21.519  25.848  1.00  0.00     0.001 A 
ATOM     71  C   UNL A   1      41.394  20.846  28.142  1.00  0.00     0.001 A 
ATOM     72  C   UNL A   1      41.030  20.533  26.833  1.00  0.00     0.000 A 
ENDBRANCH  48  67
BRANCH  60  73
ATOM     73  C   UNL A   1      48.088  26.118  27.722  1.00  0.00    -0.014 A 
ATOM     74  C   UNL A   1      48.830  25.444  28.704  1.00  0.00     0.009 A 
ATOM     75  C   UNL A   1      48.642  26.290  26.445  1.00  0.00     0.009 A 
ATOM     76  C   UNL A   1      50.115  24.978  28.420  1.00  0.00     0.001 A 
ATOM     77  C   UNL A   1      49.919  25.807  26.158  1.00  0.00     0.001 A 
ATOM     78  C   UNL A   1      50.657  25.158  27.147  1.00  0.00     0.000 A 
ENDBRANCH  60  73
ENDBRANCH  34  35
ENDBRANCH  27  29
ENDBRANCH  26  27
ENDBRANCH  25  26
ENDBRANCH  24  25
ENDBRANCH   1  24
TORSDOF 16
ENDMDL
