MODEL 1
REMARK VINA RESULT:     -11.2      0.000      0.000
REMARK SMILES O=C(CCCCCN1C(=O)/C(=C2\C(=O)Nc3ccccc32)SC1=S)OCCOC(=O)c1ccc(-c2c3nc(c(-c4ccccc4)c4ccc([nH]4)c(-c4ccccc4)c4nc(c(-c5ccccc5)c5ccc2[nH]5)C=C4)C=C3)cc1
REMARK SMILES IDX 25 1 2 2 1 3 3 4 4 5 5 6 6 7 7 8 8 9 9 10 23 11 10 12 11 13
REMARK SMILES IDX 22 14 24 15 12 16 13 17 21 18 14 19 15 20 16 21 20 22 17 24
REMARK SMILES IDX 19 25 18 26 26 27 27 28 28 29 29 30 30 31 31 32 32 33 78 34
REMARK SMILES IDX 33 35 77 36 34 37 35 38 36 39 71 40 37 41 76 42 70 43 72 44
REMARK SMILES IDX 38 45 75 46 69 47 68 48 39 50 61 51 46 52 60 53 47 54 50 55
REMARK SMILES IDX 59 56 73 57 48 58 49 59 58 61 74 62 51 63 40 64 41 65 45 66
REMARK SMILES IDX 42 67 44 68 43 69 62 70 63 71 67 72 64 73 66 74 65 75 52 76
REMARK SMILES IDX 53 77 57 78 54 79 56 80 55 81
REMARK H PARENT 15 23 72 49 50 60
REMARK Flexibility Score: inf
ROOT
ATOM      1  O   UNL A   1      32.189  30.828  26.247  1.00  0.00    -0.462 OA
ENDROOT
BRANCH   1   2
ATOM      2  C   UNL A   1      32.903  29.999  27.054  1.00  0.00     0.305 C 
ATOM      3  O   UNL A   1      34.046  30.274  27.404  1.00  0.00    -0.252 OA
BRANCH   2   4
ATOM      4  C   UNL A   1      32.280  28.645  27.325  1.00  0.00     0.123 C 
BRANCH   4   5
ATOM      5  C   UNL A   1      32.266  27.703  26.129  1.00  0.00     0.012 C 
BRANCH   5   6
ATOM      6  C   UNL A   1      33.657  27.305  25.635  1.00  0.00     0.002 C 
BRANCH   6   7
ATOM      7  C   UNL A   1      34.123  25.867  25.949  1.00  0.00     0.022 C 
BRANCH   7   8
ATOM      8  C   UNL A   1      33.976  24.822  24.833  1.00  0.00     0.127 C 
BRANCH   8   9
ATOM      9  N   UNL A   1      32.739  24.964  24.082  1.00  0.00    -0.293 N 
ATOM     10  C   UNL A   1      32.739  25.714  22.915  1.00  0.00     0.267 C 
ATOM     11  C   UNL A   1      31.541  24.366  24.391  1.00  0.00     0.148 C 
ATOM     12  O   UNL A   1      33.679  25.862  22.154  1.00  0.00    -0.268 OA
ATOM     13  C   UNL A   1      31.360  26.231  22.730  1.00  0.00     0.093 C 
ATOM     14  S   UNL A   1      30.298  24.997  23.316  1.00  0.00    -0.053 SA
ATOM     15  S   UNL A   1      31.210  23.255  25.587  1.00  0.00    -0.052 S 
ATOM     16  C   UNL A   1      31.062  27.520  22.507  1.00  0.00     0.069 C 
ATOM     17  C   UNL A   1      32.085  28.596  22.215  1.00  0.00     0.257 C 
ATOM     18  C   UNL A   1      29.766  28.217  22.647  1.00  0.00     0.012 A 
ATOM     19  O   UNL A   1      33.297  28.508  22.152  1.00  0.00    -0.269 OA
ATOM     20  N   UNL A   1      31.367  29.771  22.115  1.00  0.00    -0.321 N 
ATOM     21  C   UNL A   1      30.022  29.569  22.393  1.00  0.00     0.049 A 
ATOM     22  C   UNL A   1      28.498  27.835  23.052  1.00  0.00     0.011 A 
ATOM     23  H   UNL A   1      31.760  30.642  21.877  1.00  0.00     0.170 HD
ATOM     24  C   UNL A   1      29.059  30.554  22.496  1.00  0.00     0.027 A 
ATOM     25  C   UNL A   1      27.508  28.816  23.185  1.00  0.00     0.001 A 
ATOM     26  C   UNL A   1      27.784  30.163  22.903  1.00  0.00     0.002 A 
ENDBRANCH   8   9
ENDBRANCH   7   8
ENDBRANCH   6   7
ENDBRANCH   5   6
ENDBRANCH   4   5
ENDBRANCH   2   4
ENDBRANCH   1   2
BRANCH   1  27
ATOM     27  C   UNL A   1      31.468  31.919  26.848  1.00  0.00     0.274 C 
BRANCH  27  28
ATOM     28  C   UNL A   1      32.289  33.212  26.918  1.00  0.00     0.275 C 
BRANCH  28  29
ATOM     29  O   UNL A   1      32.200  33.821  28.217  1.00  0.00    -0.458 OA
BRANCH  29  30
ATOM     30  C   UNL A   1      33.232  34.652  28.524  1.00  0.00     0.338 C 
ATOM     31  O   UNL A   1      33.184  35.868  28.601  1.00  0.00    -0.246 OA
BRANCH  30  32
ATOM     32  C   UNL A   1      34.420  33.863  28.929  1.00  0.00     0.060 A 
ATOM     33  C   UNL A   1      35.697  34.100  28.408  1.00  0.00     0.016 A 
ATOM     34  C   UNL A   1      34.228  32.834  29.861  1.00  0.00     0.016 A 
ATOM     35  C   UNL A   1      36.780  33.332  28.851  1.00  0.00     0.010 A 
ATOM     36  C   UNL A   1      35.311  32.074  30.308  1.00  0.00     0.010 A 
ATOM     37  C   UNL A   1      36.601  32.332  29.824  1.00  0.00    -0.014 A 
BRANCH  37  38
ATOM     38  C   UNL A   1      37.776  31.689  30.463  1.00  0.00     0.031 A 
ATOM     39  C   UNL A   1      38.230  32.043  31.848  1.00  0.00     0.074 A 
ATOM     40  C   UNL A   1      38.470  30.784  29.745  1.00  0.00     0.049 A 
ATOM     41  N   UNL A   1      39.187  31.496  32.556  1.00  0.00    -0.248 NA
ATOM     42  C   UNL A   1      37.535  33.146  32.524  1.00  0.00     0.031 C 
ATOM     43  C   UNL A   1      38.155  30.387  28.372  1.00  0.00     0.029 A 
ATOM     44  N   UNL A   1      39.571  30.033  30.068  1.00  0.00    -0.354 N 
ATOM     45  C   UNL A   1      39.200  32.173  33.768  1.00  0.00     0.074 A 
ATOM     46  C   UNL A   1      38.181  33.200  33.684  1.00  0.00     0.031 C 
ATOM     47  C   UNL A   1      39.021  29.440  27.982  1.00  0.00     0.029 A 
ATOM     48  C   UNL A   1      39.966  29.181  29.066  1.00  0.00     0.049 A 
ATOM     49  H   UNL A   1      40.034  30.098  30.935  1.00  0.00     0.167 HD
ATOM     50  C   UNL A   1      39.981  31.947  34.850  1.00  0.00     0.031 A 
ATOM     51  C   UNL A   1      40.964  28.279  29.021  1.00  0.00     0.031 A 
ATOM     52  C   UNL A   1      41.007  30.938  34.926  1.00  0.00     0.049 A 
ATOM     53  C   UNL A   1      41.835  28.073  30.225  1.00  0.00     0.074 A 
ATOM     54  C   UNL A   1      41.800  30.602  36.012  1.00  0.00     0.029 A 
ATOM     55  N   UNL A   1      41.397  30.118  33.880  1.00  0.00    -0.354 N 
ATOM     56  N   UNL A   1      41.767  28.653  31.398  1.00  0.00    -0.248 NA
ATOM     57  C   UNL A   1      42.909  27.076  30.106  1.00  0.00     0.031 C 
ATOM     58  C   UNL A   1      42.710  29.623  35.606  1.00  0.00     0.029 A 
ATOM     59  C   UNL A   1      42.441  29.302  34.286  1.00  0.00     0.049 A 
ATOM     60  H   UNL A   1      40.992  30.115  32.983  1.00  0.00     0.167 HD
ATOM     61  C   UNL A   1      42.766  28.069  32.167  1.00  0.00     0.074 A 
ATOM     62  C   UNL A   1      43.422  27.087  31.330  1.00  0.00     0.031 C 
ATOM     63  C   UNL A   1      43.097  28.326  33.454  1.00  0.00     0.031 A 
BRANCH  50  64
ATOM     64  C   UNL A   1      39.765  32.795  36.073  1.00  0.00    -0.014 A 
ATOM     65  C   UNL A   1      38.811  32.416  37.031  1.00  0.00     0.009 A 
ATOM     66  C   UNL A   1      40.406  34.036  36.206  1.00  0.00     0.009 A 
ATOM     67  C   UNL A   1      38.488  33.270  38.087  1.00  0.00     0.001 A 
ATOM     68  C   UNL A   1      40.097  34.879  37.276  1.00  0.00     0.001 A 
ATOM     69  C   UNL A   1      39.132  34.500  38.209  1.00  0.00     0.000 A 
ENDBRANCH  50  64
BRANCH  51  70
ATOM     70  C   UNL A   1      41.145  27.458  27.798  1.00  0.00    -0.014 A 
ATOM     71  C   UNL A   1      40.534  26.199  27.681  1.00  0.00     0.009 A 
ATOM     72  C   UNL A   1      41.973  27.912  26.761  1.00  0.00     0.009 A 
ATOM     73  C   UNL A   1      40.763  25.404  26.557  1.00  0.00     0.001 A 
ATOM     74  C   UNL A   1      42.180  27.125  25.627  1.00  0.00     0.001 A 
ATOM     75  C   UNL A   1      41.583  25.869  25.530  1.00  0.00     0.000 A 
ENDBRANCH  51  70
BRANCH  63  76
ATOM     76  C   UNL A   1      44.208  27.521  34.068  1.00  0.00    -0.014 A 
ATOM     77  C   UNL A   1      45.540  27.934  33.902  1.00  0.00     0.009 A 
ATOM     78  C   UNL A   1      43.950  26.310  34.730  1.00  0.00     0.009 A 
ATOM     79  C   UNL A   1      46.592  27.148  34.373  1.00  0.00     0.001 A 
ATOM     80  C   UNL A   1      45.005  25.538  35.225  1.00  0.00     0.001 A 
ATOM     81  C   UNL A   1      46.323  25.954  35.039  1.00  0.00     0.000 A 
ENDBRANCH  63  76
ENDBRANCH  37  38
ENDBRANCH  30  32
ENDBRANCH  29  30
ENDBRANCH  28  29
ENDBRANCH  27  28
ENDBRANCH   1  27
TORSDOF 16
ENDMDL
MODEL 2
REMARK VINA RESULT:     -11.1      4.130      9.250
REMARK SMILES O=C(CCCCCN1C(=O)/C(=C2\C(=O)Nc3ccccc32)SC1=S)OCCOC(=O)c1ccc(-c2c3nc(c(-c4ccccc4)c4ccc([nH]4)c(-c4ccccc4)c4nc(c(-c5ccccc5)c5ccc2[nH]5)C=C4)C=C3)cc1
REMARK SMILES IDX 25 1 2 2 1 3 3 4 4 5 5 6 6 7 7 8 8 9 9 10 23 11 10 12 11 13
REMARK SMILES IDX 22 14 24 15 12 16 13 17 21 18 14 19 15 20 16 21 20 22 17 24
REMARK SMILES IDX 19 25 18 26 26 27 27 28 28 29 29 30 30 31 31 32 32 33 78 34
REMARK SMILES IDX 33 35 77 36 34 37 35 38 36 39 71 40 37 41 76 42 70 43 72 44
REMARK SMILES IDX 38 45 75 46 69 47 68 48 39 50 61 51 46 52 60 53 47 54 50 55
REMARK SMILES IDX 59 56 73 57 48 58 49 59 58 61 74 62 51 63 40 64 41 65 45 66
REMARK SMILES IDX 42 67 44 68 43 69 62 70 63 71 67 72 64 73 66 74 65 75 52 76
REMARK SMILES IDX 53 77 57 78 54 79 56 80 55 81
REMARK H PARENT 15 23 72 49 50 60
REMARK Flexibility Score: inf
ROOT
ATOM      1  O   UNL A   1      35.593  21.973  25.616  1.00  0.00    -0.462 OA
ENDROOT
BRANCH   1   2
ATOM      2  C   UNL A   1      35.230  23.032  24.844  1.00  0.00     0.305 C 
ATOM      3  O   UNL A   1      34.908  22.889  23.669  1.00  0.00    -0.252 OA
BRANCH   2   4
ATOM      4  C   UNL A   1      35.435  24.401  25.462  1.00  0.00     0.123 C 
BRANCH   4   5
ATOM      5  C   UNL A   1      34.381  25.431  25.081  1.00  0.00     0.012 C 
BRANCH   5   6
ATOM      6  C   UNL A   1      34.068  26.439  26.187  1.00  0.00     0.002 C 
BRANCH   6   7
ATOM      7  C   UNL A   1      33.518  27.811  25.745  1.00  0.00     0.022 C 
BRANCH   7   8
ATOM      8  C   UNL A   1      31.991  27.977  25.707  1.00  0.00     0.127 C 
BRANCH   8   9
ATOM      9  N   UNL A   1      31.325  26.925  24.958  1.00  0.00    -0.293 N 
ATOM     10  C   UNL A   1      30.685  25.905  25.646  1.00  0.00     0.267 C 
ATOM     11  C   UNL A   1      31.213  26.864  23.589  1.00  0.00     0.148 C 
ATOM     12  O   UNL A   1      30.165  25.993  26.745  1.00  0.00    -0.268 OA
ATOM     13  C   UNL A   1      30.685  24.715  24.760  1.00  0.00     0.093 C 
ATOM     14  S   UNL A   1      30.508  25.314  23.146  1.00  0.00    -0.053 SA
ATOM     15  S   UNL A   1      31.676  27.994  22.455  1.00  0.00    -0.052 S 
ATOM     16  C   UNL A   1      31.109  23.497  25.131  1.00  0.00     0.069 C 
ATOM     17  C   UNL A   1      31.459  23.111  26.551  1.00  0.00     0.257 C 
ATOM     18  C   UNL A   1      31.485  22.341  24.290  1.00  0.00     0.012 A 
ATOM     19  O   UNL A   1      31.446  23.792  27.560  1.00  0.00    -0.269 OA
ATOM     20  N   UNL A   1      31.905  21.806  26.480  1.00  0.00    -0.321 N 
ATOM     21  C   UNL A   1      31.952  21.357  25.168  1.00  0.00     0.049 A 
ATOM     22  C   UNL A   1      31.558  22.118  22.925  1.00  0.00     0.011 A 
ATOM     23  H   UNL A   1      32.157  21.263  27.262  1.00  0.00     0.170 HD
ATOM     24  C   UNL A   1      32.461  20.145  24.744  1.00  0.00     0.027 A 
ATOM     25  C   UNL A   1      32.089  20.906  22.467  1.00  0.00     0.001 A 
ATOM     26  C   UNL A   1      32.531  19.925  23.368  1.00  0.00     0.002 A 
ENDBRANCH   8   9
ENDBRANCH   7   8
ENDBRANCH   6   7
ENDBRANCH   5   6
ENDBRANCH   4   5
ENDBRANCH   2   4
ENDBRANCH   1   2
BRANCH   1  27
ATOM     27  C   UNL A   1      35.849  20.711  24.974  1.00  0.00     0.274 C 
BRANCH  27  28
ATOM     28  C   UNL A   1      37.326  20.304  25.025  1.00  0.00     0.275 C 
BRANCH  28  29
ATOM     29  O   UNL A   1      38.178  21.441  25.252  1.00  0.00    -0.458 OA
BRANCH  29  30
ATOM     30  C   UNL A   1      39.228  21.205  26.082  1.00  0.00     0.338 C 
ATOM     31  O   UNL A   1      39.778  20.132  26.266  1.00  0.00    -0.246 OA
BRANCH  30  32
ATOM     32  C   UNL A   1      39.748  22.484  26.625  1.00  0.00     0.060 A 
ATOM     33  C   UNL A   1      40.790  22.539  27.556  1.00  0.00     0.016 A 
ATOM     34  C   UNL A   1      39.143  23.669  26.184  1.00  0.00     0.016 A 
ATOM     35  C   UNL A   1      41.248  23.781  28.012  1.00  0.00     0.010 A 
ATOM     36  C   UNL A   1      39.606  24.908  26.633  1.00  0.00     0.010 A 
ATOM     37  C   UNL A   1      40.679  24.975  27.533  1.00  0.00    -0.014 A 
BRANCH  37  38
ATOM     38  C   UNL A   1      41.318  26.282  27.830  1.00  0.00     0.031 A 
ATOM     39  C   UNL A   1      42.664  26.658  27.286  1.00  0.00     0.074 A 
ATOM     40  C   UNL A   1      40.667  27.132  28.647  1.00  0.00     0.049 A 
ATOM     41  N   UNL A   1      43.297  27.799  27.397  1.00  0.00    -0.248 NA
ATOM     42  C   UNL A   1      43.397  25.632  26.532  1.00  0.00     0.031 C 
ATOM     43  C   UNL A   1      39.372  26.865  29.274  1.00  0.00     0.029 A 
ATOM     44  N   UNL A   1      40.998  28.390  29.083  1.00  0.00    -0.354 N 
ATOM     45  C   UNL A   1      44.494  27.640  26.713  1.00  0.00     0.074 A 
ATOM     46  C   UNL A   1      44.518  26.275  26.224  1.00  0.00     0.031 C 
ATOM     47  C   UNL A   1      39.002  27.939  29.987  1.00  0.00     0.029 A 
ATOM     48  C   UNL A   1      40.041  28.960  29.887  1.00  0.00     0.049 A 
ATOM     49  H   UNL A   1      41.840  28.841  28.843  1.00  0.00     0.167 HD
ATOM     50  C   UNL A   1      45.473  28.552  26.503  1.00  0.00     0.031 A 
ATOM     51  C   UNL A   1      39.992  30.172  30.470  1.00  0.00     0.031 A 
ATOM     52  C   UNL A   1      45.456  29.903  27.006  1.00  0.00     0.049 A 
ATOM     53  C   UNL A   1      41.106  31.152  30.248  1.00  0.00     0.074 A 
ATOM     54  C   UNL A   1      46.381  30.910  26.783  1.00  0.00     0.029 A 
ATOM     55  N   UNL A   1      44.487  30.430  27.842  1.00  0.00    -0.354 N 
ATOM     56  N   UNL A   1      42.184  31.018  29.514  1.00  0.00    -0.248 NA
ATOM     57  C   UNL A   1      40.990  32.455  30.917  1.00  0.00     0.031 C 
ATOM     58  C   UNL A   1      46.003  32.027  27.532  1.00  0.00     0.029 A 
ATOM     59  C   UNL A   1      44.808  31.738  28.170  1.00  0.00     0.049 A 
ATOM     60  H   UNL A   1      43.687  29.949  28.155  1.00  0.00     0.167 HD
ATOM     61  C   UNL A   1      42.856  32.229  29.607  1.00  0.00     0.074 A 
ATOM     62  C   UNL A   1      42.065  33.087  30.463  1.00  0.00     0.031 C 
ATOM     63  C   UNL A   1      44.024  32.592  29.023  1.00  0.00     0.031 A 
BRANCH  50  64
ATOM     64  C   UNL A   1      46.661  28.144  25.678  1.00  0.00    -0.014 A 
ATOM     65  C   UNL A   1      46.559  28.088  24.279  1.00  0.00     0.009 A 
ATOM     66  C   UNL A   1      47.835  27.683  26.293  1.00  0.00     0.009 A 
ATOM     67  C   UNL A   1      47.601  27.562  23.513  1.00  0.00     0.001 A 
ATOM     68  C   UNL A   1      48.884  27.177  25.523  1.00  0.00     0.001 A 
ATOM     69  C   UNL A   1      48.762  27.108  24.134  1.00  0.00     0.000 A 
ENDBRANCH  50  64
BRANCH  51  70
ATOM     70  C   UNL A   1      38.800  30.540  31.276  1.00  0.00    -0.014 A 
ATOM     71  C   UNL A   1      37.694  31.165  30.677  1.00  0.00     0.009 A 
ATOM     72  C   UNL A   1      38.788  30.313  32.660  1.00  0.00     0.009 A 
ATOM     73  C   UNL A   1      36.607  31.570  31.452  1.00  0.00     0.001 A 
ATOM     74  C   UNL A   1      37.687  30.697  33.428  1.00  0.00     0.001 A 
ATOM     75  C   UNL A   1      36.602  31.332  32.825  1.00  0.00     0.000 A 
ENDBRANCH  51  70
BRANCH  63  76
ATOM     76  C   UNL A   1      44.524  33.989  29.261  1.00  0.00    -0.014 A 
ATOM     77  C   UNL A   1      45.351  34.253  30.366  1.00  0.00     0.009 A 
ATOM     78  C   UNL A   1      44.109  35.059  28.453  1.00  0.00     0.009 A 
ATOM     79  C   UNL A   1      45.741  35.558  30.665  1.00  0.00     0.001 A 
ATOM     80  C   UNL A   1      44.524  36.362  28.740  1.00  0.00     0.001 A 
ATOM     81  C   UNL A   1      45.332  36.611  29.849  1.00  0.00     0.000 A 
ENDBRANCH  63  76
ENDBRANCH  37  38
ENDBRANCH  30  32
ENDBRANCH  29  30
ENDBRANCH  28  29
ENDBRANCH  27  28
ENDBRANCH   1  27
TORSDOF 16
ENDMDL
MODEL 3
REMARK VINA RESULT:     -11.1      0.967      5.742
REMARK SMILES O=C(CCCCCN1C(=O)/C(=C2\C(=O)Nc3ccccc32)SC1=S)OCCOC(=O)c1ccc(-c2c3nc(c(-c4ccccc4)c4ccc([nH]4)c(-c4ccccc4)c4nc(c(-c5ccccc5)c5ccc2[nH]5)C=C4)C=C3)cc1
REMARK SMILES IDX 25 1 2 2 1 3 3 4 4 5 5 6 6 7 7 8 8 9 9 10 23 11 10 12 11 13
REMARK SMILES IDX 22 14 24 15 12 16 13 17 21 18 14 19 15 20 16 21 20 22 17 24
REMARK SMILES IDX 19 25 18 26 26 27 27 28 28 29 29 30 30 31 31 32 32 33 78 34
REMARK SMILES IDX 33 35 77 36 34 37 35 38 36 39 71 40 37 41 76 42 70 43 72 44
REMARK SMILES IDX 38 45 75 46 69 47 68 48 39 50 61 51 46 52 60 53 47 54 50 55
REMARK SMILES IDX 59 56 73 57 48 58 49 59 58 61 74 62 51 63 40 64 41 65 45 66
REMARK SMILES IDX 42 67 44 68 43 69 62 70 63 71 67 72 64 73 66 74 65 75 52 76
REMARK SMILES IDX 53 77 57 78 54 79 56 80 55 81
REMARK H PARENT 15 23 72 49 50 60
REMARK Flexibility Score: inf
ROOT
ATOM      1  O   UNL A   1      32.235  30.842  26.326  1.00  0.00    -0.462 OA
ENDROOT
BRANCH   1   2
ATOM      2  C   UNL A   1      32.941  30.042  27.170  1.00  0.00     0.305 C 
ATOM      3  O   UNL A   1      34.088  30.318  27.505  1.00  0.00    -0.252 OA
BRANCH   2   4
ATOM      4  C   UNL A   1      32.301  28.710  27.506  1.00  0.00     0.123 C 
BRANCH   4   5
ATOM      5  C   UNL A   1      32.176  27.753  26.329  1.00  0.00     0.012 C 
BRANCH   5   6
ATOM      6  C   UNL A   1      33.511  27.390  25.677  1.00  0.00     0.002 C 
BRANCH   6   7
ATOM      7  C   UNL A   1      34.090  25.998  26.004  1.00  0.00     0.022 C 
BRANCH   7   8
ATOM      8  C   UNL A   1      33.937  24.905  24.935  1.00  0.00     0.127 C 
BRANCH   8   9
ATOM      9  N   UNL A   1      32.706  25.027  24.171  1.00  0.00    -0.293 N 
ATOM     10  C   UNL A   1      32.712  25.754  22.990  1.00  0.00     0.267 C 
ATOM     11  C   UNL A   1      31.507  24.430  24.483  1.00  0.00     0.148 C 
ATOM     12  O   UNL A   1      33.657  25.891  22.234  1.00  0.00    -0.268 OA
ATOM     13  C   UNL A   1      31.332  26.261  22.784  1.00  0.00     0.093 C 
ATOM     14  S   UNL A   1      30.270  25.035  23.387  1.00  0.00    -0.053 SA
ATOM     15  S   UNL A   1      31.171  23.342  25.698  1.00  0.00    -0.052 S 
ATOM     16  C   UNL A   1      31.030  27.545  22.533  1.00  0.00     0.069 C 
ATOM     17  C   UNL A   1      32.051  28.619  22.228  1.00  0.00     0.257 C 
ATOM     18  C   UNL A   1      29.731  28.239  22.649  1.00  0.00     0.012 A 
ATOM     19  O   UNL A   1      33.264  28.535  22.176  1.00  0.00    -0.269 OA
ATOM     20  N   UNL A   1      31.329  29.789  22.099  1.00  0.00    -0.321 N 
ATOM     21  C   UNL A   1      29.983  29.587  22.371  1.00  0.00     0.049 A 
ATOM     22  C   UNL A   1      28.461  27.859  23.052  1.00  0.00     0.011 A 
ATOM     23  H   UNL A   1      31.720  30.657  21.847  1.00  0.00     0.170 HD
ATOM     24  C   UNL A   1      29.015  30.569  22.446  1.00  0.00     0.027 A 
ATOM     25  C   UNL A   1      27.465  28.838  23.158  1.00  0.00     0.001 A 
ATOM     26  C   UNL A   1      27.738  30.181  22.851  1.00  0.00     0.002 A 
ENDBRANCH   8   9
ENDBRANCH   7   8
ENDBRANCH   6   7
ENDBRANCH   5   6
ENDBRANCH   4   5
ENDBRANCH   2   4
ENDBRANCH   1   2
BRANCH   1  27
ATOM     27  C   UNL A   1      31.531  31.969  26.877  1.00  0.00     0.274 C 
BRANCH  27  28
ATOM     28  C   UNL A   1      32.402  33.226  26.980  1.00  0.00     0.275 C 
BRANCH  28  29
ATOM     29  O   UNL A   1      32.163  33.933  28.209  1.00  0.00    -0.458 OA
BRANCH  29  30
ATOM     30  C   UNL A   1      33.166  34.771  28.584  1.00  0.00     0.338 C 
ATOM     31  O   UNL A   1      33.078  35.975  28.756  1.00  0.00    -0.246 OA
BRANCH  30  32
ATOM     32  C   UNL A   1      34.379  33.991  28.933  1.00  0.00     0.060 A 
ATOM     33  C   UNL A   1      35.602  34.165  28.276  1.00  0.00     0.016 A 
ATOM     34  C   UNL A   1      34.265  33.038  29.954  1.00  0.00     0.016 A 
ATOM     35  C   UNL A   1      36.714  33.411  28.670  1.00  0.00     0.010 A 
ATOM     36  C   UNL A   1      35.377  32.292  30.352  1.00  0.00     0.010 A 
ATOM     37  C   UNL A   1      36.618  32.490  29.729  1.00  0.00    -0.014 A 
BRANCH  37  38
ATOM     38  C   UNL A   1      37.842  31.873  30.299  1.00  0.00     0.031 A 
ATOM     39  C   UNL A   1      38.419  30.595  29.768  1.00  0.00     0.074 A 
ATOM     40  C   UNL A   1      38.420  32.478  31.355  1.00  0.00     0.049 A 
ATOM     41  N   UNL A   1      39.530  29.996  30.118  1.00  0.00    -0.248 NA
ATOM     42  C   UNL A   1      37.660  29.897  28.722  1.00  0.00     0.031 C 
ATOM     43  C   UNL A   1      37.930  33.702  31.991  1.00  0.00     0.029 A 
ATOM     44  N   UNL A   1      39.544  32.154  32.072  1.00  0.00    -0.354 N 
ATOM     45  C   UNL A   1      39.616  28.860  29.325  1.00  0.00     0.074 A 
ATOM     46  C   UNL A   1      38.423  28.831  28.503  1.00  0.00     0.031 C 
ATOM     47  C   UNL A   1      38.767  34.045  32.981  1.00  0.00     0.029 A 
ATOM     48  C   UNL A   1      39.838  33.055  33.066  1.00  0.00     0.049 A 
ATOM     49  H   UNL A   1      40.088  31.354  31.891  1.00  0.00     0.167 HD
ATOM     50  C   UNL A   1      40.606  27.937  29.281  1.00  0.00     0.031 A 
ATOM     51  C   UNL A   1      40.859  33.095  33.942  1.00  0.00     0.031 A 
ATOM     52  C   UNL A   1      41.783  27.956  30.112  1.00  0.00     0.049 A 
ATOM     53  C   UNL A   1      41.925  32.041  33.892  1.00  0.00     0.074 A 
ATOM     54  C   UNL A   1      42.866  27.091  30.083  1.00  0.00     0.029 A 
ATOM     55  N   UNL A   1      42.027  28.865  31.128  1.00  0.00    -0.354 N 
ATOM     56  N   UNL A   1      42.042  31.029  33.067  1.00  0.00    -0.248 NA
ATOM     57  C   UNL A   1      43.008  32.143  34.880  1.00  0.00     0.031 C 
ATOM     58  C   UNL A   1      43.734  27.440  31.120  1.00  0.00     0.029 A 
ATOM     59  C   UNL A   1      43.226  28.562  31.754  1.00  0.00     0.049 A 
ATOM     60  H   UNL A   1      41.437  29.616  31.368  1.00  0.00     0.167 HD
ATOM     61  C   UNL A   1      43.227  30.394  33.415  1.00  0.00     0.074 A 
ATOM     62  C   UNL A   1      43.794  31.135  34.521  1.00  0.00     0.031 C 
ATOM     63  C   UNL A   1      43.791  29.297  32.855  1.00  0.00     0.031 A 
BRANCH  50  64
ATOM     64  C   UNL A   1      40.487  26.813  28.289  1.00  0.00    -0.014 A 
ATOM     65  C   UNL A   1      41.010  26.961  26.994  1.00  0.00     0.009 A 
ATOM     66  C   UNL A   1      39.739  25.666  28.594  1.00  0.00     0.009 A 
ATOM     67  C   UNL A   1      40.770  25.992  26.018  1.00  0.00     0.001 A 
ATOM     68  C   UNL A   1      39.519  24.688  27.621  1.00  0.00     0.001 A 
ATOM     69  C   UNL A   1      40.025  24.856  26.332  1.00  0.00     0.000 A 
ENDBRANCH  50  64
BRANCH  51  70
ATOM     70  C   UNL A   1      40.944  34.222  34.904  1.00  0.00    -0.014 A 
ATOM     71  C   UNL A   1      40.360  34.125  36.178  1.00  0.00     0.009 A 
ATOM     72  C   UNL A   1      41.568  35.422  34.531  1.00  0.00     0.009 A 
ATOM     73  C   UNL A   1      40.385  35.212  37.052  1.00  0.00     0.001 A 
ATOM     74  C   UNL A   1      41.613  36.499  35.418  1.00  0.00     0.001 A 
ATOM     75  C   UNL A   1      41.014  36.397  36.673  1.00  0.00     0.000 A 
ENDBRANCH  51  70
BRANCH  63  76
ATOM     76  C   UNL A   1      45.109  28.827  33.403  1.00  0.00    -0.014 A 
ATOM     77  C   UNL A   1      46.305  29.286  32.828  1.00  0.00     0.009 A 
ATOM     78  C   UNL A   1      45.172  27.865  34.423  1.00  0.00     0.009 A 
ATOM     79  C   UNL A   1      47.536  28.784  33.252  1.00  0.00     0.001 A 
ATOM     80  C   UNL A   1      46.407  27.384  34.864  1.00  0.00     0.001 A 
ATOM     81  C   UNL A   1      47.587  27.837  34.273  1.00  0.00     0.000 A 
ENDBRANCH  63  76
ENDBRANCH  37  38
ENDBRANCH  30  32
ENDBRANCH  29  30
ENDBRANCH  28  29
ENDBRANCH  27  28
ENDBRANCH   1  27
TORSDOF 16
ENDMDL
