MODEL 1
REMARK VINA RESULT:     -12.1      0.000      0.000
REMARK SMILES CC1=Nc2c(c(C)nn2-c2ccc(F)cc2)[C@H](c2ccc(C(=O)OCCOC(=O)c3ccc(-c4c5nc(c(-c6ccccc6)c6ccc([nH]6)c(-c6ccccc6)c6nc(c(-c7ccccc7)c7ccc4[nH]7)C=C6)C=C5)cc3)cc2)S1
REMARK SMILES IDX 25 1 24 2 22 3 23 4 21 5 18 6 19 7 79 8 20 9 78 10 17 11
REMARK SMILES IDX 1 12 2 13 3 14 80 15 4 16 5 17 9 18 6 19 8 20 7 21 10 22
REMARK SMILES IDX 11 23 16 24 12 25 15 26 13 27 14 28 26 29 27 30 28 31 29 32
REMARK SMILES IDX 30 33 31 34 77 35 32 36 76 37 33 38 34 39 35 40 70 41 36 42
REMARK SMILES IDX 75 43 69 44 71 45 37 46 74 47 68 48 67 49 38 51 60 52 45 53
REMARK SMILES IDX 59 54 46 55 49 56 58 57 72 58 47 59 48 60 57 62 73 63 50 64
REMARK SMILES IDX 39 65 40 66 44 67 41 68 43 69 42 70 61 71 62 72 66 73 63 74
REMARK SMILES IDX 65 75 64 76 51 77 52 78 56 79 53 80 55 81 54 82
REMARK H PARENT 71 50 49 61
REMARK Flexibility Score: inf
ROOT
ATOM      1  C   UNL A   1      34.059  32.152  27.616  1.00  0.00     0.275 C 
ENDROOT
BRANCH   1   2
ATOM      2  O   UNL A   1      33.352  30.907  27.481  1.00  0.00    -0.458 OA
BRANCH   2   3
ATOM      3  C   UNL A   1      32.162  30.983  26.834  1.00  0.00     0.338 C 
ATOM      4  O   UNL A   1      31.462  31.984  26.745  1.00  0.00    -0.246 OA
BRANCH   3   5
ATOM      5  C   UNL A   1      31.823  29.708  26.150  1.00  0.00     0.060 A 
ATOM      6  C   UNL A   1      31.340  27.193  24.926  1.00  0.00    -0.030 A 
ATOM      7  C   UNL A   1      31.791  27.286  26.256  1.00  0.00     0.006 A 
ATOM      8  C   UNL A   1      31.069  28.397  24.249  1.00  0.00     0.006 A 
ATOM      9  C   UNL A   1      32.016  28.522  26.864  1.00  0.00     0.016 A 
ATOM     10  C   UNL A   1      31.322  29.642  24.847  1.00  0.00     0.016 A 
BRANCH   6  11
ATOM     11  C   UNL A   1      31.235  25.812  24.288  1.00  0.00     0.119 C 
ATOM     12  C   UNL A   1      31.014  23.071  27.379  1.00  0.00     0.075 C 
ATOM     13  C   UNL A   1      31.484  23.735  26.112  1.00  0.00     0.074 C 
ATOM     14  N   UNL A   1      32.725  23.592  25.773  1.00  0.00    -0.227 NA
ATOM     15  S   UNL A   1      30.238  24.616  25.241  1.00  0.00    -0.098 SA
ATOM     16  C   UNL A   1      33.173  24.260  24.683  1.00  0.00     0.161 A 
ATOM     17  C   UNL A   1      32.600  25.311  24.003  1.00  0.00     0.038 A 
ATOM     18  N   UNL A   1      34.400  24.023  24.083  1.00  0.00    -0.215 N 
ATOM     19  C   UNL A   1      33.558  25.665  23.016  1.00  0.00     0.067 A 
ATOM     20  N   UNL A   1      34.690  24.960  23.146  1.00  0.00    -0.171 NA
ATOM     21  C   UNL A   1      33.455  26.667  21.926  1.00  0.00     0.069 C 
BRANCH  18  22
ATOM     22  C   UNL A   1      35.279  22.939  24.322  1.00  0.00     0.067 A 
ATOM     23  C   UNL A   1      34.759  21.670  24.625  1.00  0.00     0.031 A 
ATOM     24  C   UNL A   1      36.662  23.142  24.259  1.00  0.00     0.031 A 
ATOM     25  C   UNL A   1      35.627  20.610  24.881  1.00  0.00     0.041 A 
ATOM     26  C   UNL A   1      37.523  22.089  24.571  1.00  0.00     0.041 A 
ATOM     27  C   UNL A   1      37.000  20.835  24.875  1.00  0.00     0.123 A 
ATOM     28  F   UNL A   1      37.830  19.826  25.168  1.00  0.00    -0.207 F 
ENDBRANCH  18  22
ENDBRANCH   6  11
ENDBRANCH   3   5
ENDBRANCH   2   3
ENDBRANCH   1   2
BRANCH   1  29
ATOM     29  C   UNL A   1      34.206  32.548  29.080  1.00  0.00     0.275 C 
BRANCH  29  30
ATOM     30  O   UNL A   1      35.044  31.641  29.798  1.00  0.00    -0.458 OA
BRANCH  30  31
ATOM     31  C   UNL A   1      36.237  32.151  30.180  1.00  0.00     0.338 C 
ATOM     32  O   UNL A   1      36.450  33.245  30.676  1.00  0.00    -0.246 OA
BRANCH  31  33
ATOM     33  C   UNL A   1      37.315  31.289  29.679  1.00  0.00     0.060 A 
ATOM     34  C   UNL A   1      37.015  29.935  29.498  1.00  0.00     0.016 A 
ATOM     35  C   UNL A   1      38.637  31.756  29.690  1.00  0.00     0.016 A 
ATOM     36  C   UNL A   1      38.051  29.024  29.499  1.00  0.00     0.010 A 
ATOM     37  C   UNL A   1      39.668  30.845  29.707  1.00  0.00     0.010 A 
ATOM     38  C   UNL A   1      39.358  29.487  29.686  1.00  0.00    -0.014 A 
BRANCH  38  39
ATOM     39  C   UNL A   1      40.415  28.505  29.802  1.00  0.00     0.031 A 
ATOM     40  C   UNL A   1      40.952  28.344  31.169  1.00  0.00     0.074 A 
ATOM     41  C   UNL A   1      40.785  27.707  28.784  1.00  0.00     0.049 A 
ATOM     42  N   UNL A   1      42.151  28.577  31.582  1.00  0.00    -0.248 NA
ATOM     43  C   UNL A   1      40.000  27.979  32.231  1.00  0.00     0.031 C 
ATOM     44  C   UNL A   1      40.133  27.533  27.484  1.00  0.00     0.029 A 
ATOM     45  N   UNL A   1      41.775  26.776  28.765  1.00  0.00    -0.354 N 
ATOM     46  C   UNL A   1      42.159  28.235  32.929  1.00  0.00     0.074 A 
ATOM     47  C   UNL A   1      40.784  28.018  33.307  1.00  0.00     0.031 C 
ATOM     48  C   UNL A   1      40.596  26.398  26.911  1.00  0.00     0.029 A 
ATOM     49  C   UNL A   1      41.658  25.851  27.740  1.00  0.00     0.049 A 
ATOM     50  H   UNL A   1      42.510  26.760  29.420  1.00  0.00     0.167 HD
ATOM     51  C   UNL A   1      43.310  27.929  33.584  1.00  0.00     0.031 A 
ATOM     52  C   UNL A   1      42.330  24.679  27.640  1.00  0.00     0.031 A 
ATOM     53  C   UNL A   1      44.476  28.381  32.872  1.00  0.00     0.049 A 
ATOM     54  C   UNL A   1      43.510  24.752  28.535  1.00  0.00     0.074 A 
ATOM     55  C   UNL A   1      44.936  29.610  32.438  1.00  0.00     0.029 A 
ATOM     56  N   UNL A   1      45.200  27.443  32.174  1.00  0.00    -0.354 N 
ATOM     57  N   UNL A   1      44.539  25.517  28.313  1.00  0.00    -0.248 NA
ATOM     58  C   UNL A   1      43.369  24.284  29.906  1.00  0.00     0.031 C 
ATOM     59  C   UNL A   1      45.550  29.350  31.177  1.00  0.00     0.029 A 
ATOM     60  C   UNL A   1      45.469  27.977  30.941  1.00  0.00     0.049 A 
ATOM     61  H   UNL A   1      45.472  26.555  32.500  1.00  0.00     0.167 HD
ATOM     62  C   UNL A   1      44.911  25.983  29.566  1.00  0.00     0.074 A 
ATOM     63  C   UNL A   1      44.233  25.103  30.514  1.00  0.00     0.031 C 
ATOM     64  C   UNL A   1      45.499  27.206  29.718  1.00  0.00     0.031 A 
BRANCH  51  65
ATOM     65  C   UNL A   1      43.384  26.870  34.652  1.00  0.00    -0.014 A 
ATOM     66  C   UNL A   1      43.252  25.522  34.279  1.00  0.00     0.009 A 
ATOM     67  C   UNL A   1      43.293  27.159  36.027  1.00  0.00     0.009 A 
ATOM     68  C   UNL A   1      42.966  24.531  35.225  1.00  0.00     0.001 A 
ATOM     69  C   UNL A   1      43.053  26.167  36.980  1.00  0.00     0.001 A 
ATOM     70  C   UNL A   1      42.859  24.856  36.574  1.00  0.00     0.000 A 
ENDBRANCH  51  65
BRANCH  52  71
ATOM     71  C   UNL A   1      41.874  23.408  27.042  1.00  0.00    -0.014 A 
ATOM     72  C   UNL A   1      42.762  22.594  26.324  1.00  0.00     0.009 A 
ATOM     73  C   UNL A   1      40.625  22.864  27.397  1.00  0.00     0.009 A 
ATOM     74  C   UNL A   1      42.428  21.271  26.008  1.00  0.00     0.001 A 
ATOM     75  C   UNL A   1      40.289  21.546  27.076  1.00  0.00     0.001 A 
ATOM     76  C   UNL A   1      41.198  20.743  26.395  1.00  0.00     0.000 A 
ENDBRANCH  52  71
BRANCH  64  77
ATOM     77  C   UNL A   1      45.953  27.932  28.475  1.00  0.00    -0.014 A 
ATOM     78  C   UNL A   1      47.278  27.885  28.004  1.00  0.00     0.009 A 
ATOM     79  C   UNL A   1      44.986  28.562  27.676  1.00  0.00     0.009 A 
ATOM     80  C   UNL A   1      47.630  28.485  26.792  1.00  0.00     0.001 A 
ATOM     81  C   UNL A   1      45.334  29.140  26.454  1.00  0.00     0.001 A 
ATOM     82  C   UNL A   1      46.657  29.109  26.015  1.00  0.00     0.000 A 
ENDBRANCH  64  77
ENDBRANCH  38  39
ENDBRANCH  31  33
ENDBRANCH  30  31
ENDBRANCH  29  30
ENDBRANCH   1  29
TORSDOF 13
ENDMDL
MODEL 2
REMARK VINA RESULT:     -11.9      3.999      8.763
REMARK SMILES CC1=Nc2c(c(C)nn2-c2ccc(F)cc2)[C@H](c2ccc(C(=O)OCCOC(=O)c3ccc(-c4c5nc(c(-c6ccccc6)c6ccc([nH]6)c(-c6ccccc6)c6nc(c(-c7ccccc7)c7ccc4[nH]7)C=C6)C=C5)cc3)cc2)S1
REMARK SMILES IDX 25 1 24 2 22 3 23 4 21 5 18 6 19 7 79 8 20 9 78 10 17 11
REMARK SMILES IDX 1 12 2 13 3 14 80 15 4 16 5 17 9 18 6 19 8 20 7 21 10 22
REMARK SMILES IDX 11 23 16 24 12 25 15 26 13 27 14 28 26 29 27 30 28 31 29 32
REMARK SMILES IDX 30 33 31 34 77 35 32 36 76 37 33 38 34 39 35 40 70 41 36 42
REMARK SMILES IDX 75 43 69 44 71 45 37 46 74 47 68 48 67 49 38 51 60 52 45 53
REMARK SMILES IDX 59 54 46 55 49 56 58 57 72 58 47 59 48 60 57 62 73 63 50 64
REMARK SMILES IDX 39 65 40 66 44 67 41 68 43 69 42 70 61 71 62 72 66 73 63 74
REMARK SMILES IDX 65 75 64 76 51 77 52 78 56 79 53 80 55 81 54 82
REMARK H PARENT 71 50 49 61
REMARK Flexibility Score: inf
ROOT
ATOM      1  C   UNL A   1      39.633  21.591  26.526  1.00  0.00     0.275 C 
ENDROOT
BRANCH   1   2
ATOM      2  O   UNL A   1      38.699  21.878  25.470  1.00  0.00    -0.458 OA
BRANCH   2   3
ATOM      3  C   UNL A   1      37.954  20.824  25.053  1.00  0.00     0.338 C 
ATOM      4  O   UNL A   1      38.331  19.660  25.000  1.00  0.00    -0.246 OA
BRANCH   3   5
ATOM      5  C   UNL A   1      36.558  21.226  24.736  1.00  0.00     0.060 A 
ATOM      6  C   UNL A   1      33.941  22.179  24.190  1.00  0.00    -0.030 A 
ATOM      7  C   UNL A   1      35.079  22.946  23.880  1.00  0.00     0.006 A 
ATOM      8  C   UNL A   1      34.153  20.890  24.717  1.00  0.00     0.006 A 
ATOM      9  C   UNL A   1      36.367  22.474  24.135  1.00  0.00     0.016 A 
ATOM     10  C   UNL A   1      35.446  20.423  25.001  1.00  0.00     0.016 A 
BRANCH   6  11
ATOM     11  C   UNL A   1      32.565  22.807  24.001  1.00  0.00     0.119 C 
ATOM     12  C   UNL A   1      32.903  25.526  20.900  1.00  0.00     0.075 C 
ATOM     13  C   UNL A   1      32.575  24.970  22.260  1.00  0.00     0.074 C 
ATOM     14  N   UNL A   1      32.598  25.777  23.271  1.00  0.00    -0.227 NA
ATOM     15  S   UNL A   1      32.175  23.258  22.275  1.00  0.00    -0.098 SA
ATOM     16  C   UNL A   1      32.392  25.264  24.507  1.00  0.00     0.161 A 
ATOM     17  C   UNL A   1      32.430  23.954  24.930  1.00  0.00     0.038 A 
ATOM     18  N   UNL A   1      32.165  26.036  25.636  1.00  0.00    -0.215 N 
ATOM     19  C   UNL A   1      32.237  24.024  26.335  1.00  0.00     0.067 A 
ATOM     20  N   UNL A   1      32.196  25.291  26.769  1.00  0.00    -0.171 NA
ATOM     21  C   UNL A   1      32.090  22.921  27.317  1.00  0.00     0.069 C 
BRANCH  18  22
ATOM     22  C   UNL A   1      31.882  27.422  25.687  1.00  0.00     0.067 A 
ATOM     23  C   UNL A   1      31.302  28.060  24.578  1.00  0.00     0.031 A 
ATOM     24  C   UNL A   1      32.187  28.150  26.844  1.00  0.00     0.031 A 
ATOM     25  C   UNL A   1      31.045  29.429  24.623  1.00  0.00     0.041 A 
ATOM     26  C   UNL A   1      31.977  29.529  26.859  1.00  0.00     0.041 A 
ATOM     27  C   UNL A   1      31.406  30.154  25.753  1.00  0.00     0.123 A 
ATOM     28  F   UNL A   1      31.200  31.478  25.775  1.00  0.00    -0.207 F 
ENDBRANCH  18  22
ENDBRANCH   6  11
ENDBRANCH   3   5
ENDBRANCH   2   3
ENDBRANCH   1   2
BRANCH   1  29
ATOM     29  C   UNL A   1      41.069  21.809  26.068  1.00  0.00     0.275 C 
BRANCH  29  30
ATOM     30  O   UNL A   1      41.784  22.679  26.947  1.00  0.00    -0.458 OA
BRANCH  30  31
ATOM     31  C   UNL A   1      42.157  23.858  26.399  1.00  0.00     0.338 C 
ATOM     32  O   UNL A   1      43.041  24.048  25.582  1.00  0.00    -0.246 OA
BRANCH  31  33
ATOM     33  C   UNL A   1      41.502  24.956  27.122  1.00  0.00     0.060 A 
ATOM     34  C   UNL A   1      40.655  25.789  26.383  1.00  0.00     0.016 A 
ATOM     35  C   UNL A   1      41.958  25.315  28.398  1.00  0.00     0.016 A 
ATOM     36  C   UNL A   1      40.404  27.061  26.855  1.00  0.00     0.010 A 
ATOM     37  C   UNL A   1      41.720  26.589  28.860  1.00  0.00     0.010 A 
ATOM     38  C   UNL A   1      41.008  27.469  28.050  1.00  0.00    -0.014 A 
BRANCH  38  39
ATOM     39  C   UNL A   1      40.827  28.844  28.464  1.00  0.00     0.031 A 
ATOM     40  C   UNL A   1      42.008  29.707  28.255  1.00  0.00     0.074 A 
ATOM     41  C   UNL A   1      39.642  29.332  28.877  1.00  0.00     0.049 A 
ATOM     42  N   UNL A   1      42.709  30.320  29.148  1.00  0.00    -0.248 NA
ATOM     43  C   UNL A   1      42.538  29.808  26.886  1.00  0.00     0.031 C 
ATOM     44  C   UNL A   1      38.329  28.686  28.829  1.00  0.00     0.029 A 
ATOM     45  N   UNL A   1      39.359  30.587  29.315  1.00  0.00    -0.354 N 
ATOM     46  C   UNL A   1      43.680  31.024  28.445  1.00  0.00     0.074 A 
ATOM     47  C   UNL A   1      43.621  30.558  27.082  1.00  0.00     0.031 C 
ATOM     48  C   UNL A   1      37.372  29.629  28.993  1.00  0.00     0.029 A 
ATOM     49  C   UNL A   1      38.011  30.903  29.284  1.00  0.00     0.049 A 
ATOM     50  H   UNL A   1      40.050  31.216  29.628  1.00  0.00     0.167 HD
ATOM     51  C   UNL A   1      44.308  32.105  28.980  1.00  0.00     0.031 A 
ATOM     52  C   UNL A   1      37.476  32.142  29.402  1.00  0.00     0.031 A 
ATOM     53  C   UNL A   1      44.160  32.167  30.410  1.00  0.00     0.049 A 
ATOM     54  C   UNL A   1      38.501  33.025  30.010  1.00  0.00     0.074 A 
ATOM     55  C   UNL A   1      44.493  31.332  31.460  1.00  0.00     0.029 A 
ATOM     56  N   UNL A   1      43.247  33.060  30.917  1.00  0.00    -0.354 N 
ATOM     57  N   UNL A   1      38.896  32.929  31.246  1.00  0.00    -0.248 NA
ATOM     58  C   UNL A   1      39.401  33.752  29.125  1.00  0.00     0.031 C 
ATOM     59  C   UNL A   1      43.419  31.462  32.389  1.00  0.00     0.029 A 
ATOM     60  C   UNL A   1      42.522  32.398  31.872  1.00  0.00     0.049 A 
ATOM     61  H   UNL A   1      43.135  34.000  30.644  1.00  0.00     0.167 HD
ATOM     62  C   UNL A   1      40.259  33.181  31.204  1.00  0.00     0.074 A 
ATOM     63  C   UNL A   1      40.491  33.793  29.898  1.00  0.00     0.031 C 
ATOM     64  C   UNL A   1      41.111  32.611  32.107  1.00  0.00     0.031 A 
BRANCH  51  65
ATOM     65  C   UNL A   1      44.700  33.308  28.162  1.00  0.00    -0.014 A 
ATOM     66  C   UNL A   1      46.019  33.781  28.247  1.00  0.00     0.009 A 
ATOM     67  C   UNL A   1      43.761  34.153  27.541  1.00  0.00     0.009 A 
ATOM     68  C   UNL A   1      46.360  35.065  27.804  1.00  0.00     0.001 A 
ATOM     69  C   UNL A   1      44.106  35.416  27.056  1.00  0.00     0.001 A 
ATOM     70  C   UNL A   1      45.401  35.884  27.216  1.00  0.00     0.000 A 
ENDBRANCH  51  65
BRANCH  52  71
ATOM     71  C   UNL A   1      36.250  32.676  28.776  1.00  0.00    -0.014 A 
ATOM     72  C   UNL A   1      35.409  31.843  28.023  1.00  0.00     0.009 A 
ATOM     73  C   UNL A   1      35.766  33.948  29.133  1.00  0.00     0.009 A 
ATOM     74  C   UNL A   1      34.115  32.253  27.675  1.00  0.00     0.001 A 
ATOM     75  C   UNL A   1      34.478  34.361  28.779  1.00  0.00     0.001 A 
ATOM     76  C   UNL A   1      33.646  33.507  28.064  1.00  0.00     0.000 A 
ENDBRANCH  52  71
BRANCH  64  77
ATOM     77  C   UNL A   1      40.510  31.899  33.294  1.00  0.00    -0.014 A 
ATOM     78  C   UNL A   1      40.003  30.588  33.221  1.00  0.00     0.009 A 
ATOM     79  C   UNL A   1      40.589  32.510  34.554  1.00  0.00     0.009 A 
ATOM     80  C   UNL A   1      39.552  29.928  34.368  1.00  0.00     0.001 A 
ATOM     81  C   UNL A   1      40.160  31.842  35.703  1.00  0.00     0.001 A 
ATOM     82  C   UNL A   1      39.635  30.554  35.609  1.00  0.00     0.000 A 
ENDBRANCH  64  77
ENDBRANCH  38  39
ENDBRANCH  31  33
ENDBRANCH  30  31
ENDBRANCH  29  30
ENDBRANCH   1  29
TORSDOF 13
ENDMDL
MODEL 3
REMARK VINA RESULT:     -11.9      2.193      3.044
REMARK SMILES CC1=Nc2c(c(C)nn2-c2ccc(F)cc2)[C@H](c2ccc(C(=O)OCCOC(=O)c3ccc(-c4c5nc(c(-c6ccccc6)c6ccc([nH]6)c(-c6ccccc6)c6nc(c(-c7ccccc7)c7ccc4[nH]7)C=C6)C=C5)cc3)cc2)S1
REMARK SMILES IDX 25 1 24 2 22 3 23 4 21 5 18 6 19 7 79 8 20 9 78 10 17 11
REMARK SMILES IDX 1 12 2 13 3 14 80 15 4 16 5 17 9 18 6 19 8 20 7 21 10 22
REMARK SMILES IDX 11 23 16 24 12 25 15 26 13 27 14 28 26 29 27 30 28 31 29 32
REMARK SMILES IDX 30 33 31 34 77 35 32 36 76 37 33 38 34 39 35 40 70 41 36 42
REMARK SMILES IDX 75 43 69 44 71 45 37 46 74 47 68 48 67 49 38 51 60 52 45 53
REMARK SMILES IDX 59 54 46 55 49 56 58 57 72 58 47 59 48 60 57 62 73 63 50 64
REMARK SMILES IDX 39 65 40 66 44 67 41 68 43 69 42 70 61 71 62 72 66 73 63 74
REMARK SMILES IDX 65 75 64 76 51 77 52 78 56 79 53 80 55 81 54 82
REMARK H PARENT 71 50 49 61
REMARK Flexibility Score: inf
ROOT
ATOM      1  C   UNL A   1      32.232  30.335  27.043  1.00  0.00     0.275 C 
ENDROOT
BRANCH   1   2
ATOM      2  O   UNL A   1      31.935  29.149  26.286  1.00  0.00    -0.458 OA
BRANCH   2   3
ATOM      3  C   UNL A   1      31.872  28.002  27.009  1.00  0.00     0.338 C 
ATOM      4  O   UNL A   1      31.332  27.875  28.100  1.00  0.00    -0.246 OA
BRANCH   3   5
ATOM      5  C   UNL A   1      32.473  26.855  26.277  1.00  0.00     0.060 A 
ATOM      6  C   UNL A   1      33.663  24.794  24.731  1.00  0.00    -0.030 A 
ATOM      7  C   UNL A   1      34.229  26.080  24.795  1.00  0.00     0.006 A 
ATOM      8  C   UNL A   1      32.523  24.548  25.521  1.00  0.00     0.006 A 
ATOM      9  C   UNL A   1      33.653  27.092  25.565  1.00  0.00     0.016 A 
ATOM     10  C   UNL A   1      31.924  25.571  26.274  1.00  0.00     0.016 A 
BRANCH   6  11
ATOM     11  C   UNL A   1      34.273  23.776  23.773  1.00  0.00     0.119 C 
ATOM     12  C   UNL A   1      31.126  21.831  21.921  1.00  0.00     0.075 C 
ATOM     13  C   UNL A   1      32.406  22.032  22.687  1.00  0.00     0.074 C 
ATOM     14  N   UNL A   1      32.744  21.137  23.557  1.00  0.00    -0.227 NA
ATOM     15  S   UNL A   1      33.295  23.488  22.259  1.00  0.00    -0.098 SA
ATOM     16  C   UNL A   1      33.848  21.357  24.311  1.00  0.00     0.161 A 
ATOM     17  C   UNL A   1      34.549  22.524  24.516  1.00  0.00     0.038 A 
ATOM     18  N   UNL A   1      34.444  20.392  25.107  1.00  0.00    -0.215 N 
ATOM     19  C   UNL A   1      35.544  22.181  25.470  1.00  0.00     0.067 A 
ATOM     20  N   UNL A   1      35.400  20.924  25.909  1.00  0.00    -0.171 NA
ATOM     21  C   UNL A   1      36.654  23.009  26.004  1.00  0.00     0.069 C 
BRANCH  18  22
ATOM     22  C   UNL A   1      34.184  19.001  25.112  1.00  0.00     0.067 A 
ATOM     23  C   UNL A   1      32.999  18.512  25.686  1.00  0.00     0.031 A 
ATOM     24  C   UNL A   1      35.115  18.120  24.548  1.00  0.00     0.031 A 
ATOM     25  C   UNL A   1      32.757  17.140  25.709  1.00  0.00     0.041 A 
ATOM     26  C   UNL A   1      34.889  16.745  24.625  1.00  0.00     0.041 A 
ATOM     27  C   UNL A   1      33.714  16.269  25.200  1.00  0.00     0.123 A 
ATOM     28  F   UNL A   1      33.499  14.948  25.266  1.00  0.00    -0.207 F 
ENDBRANCH  18  22
ENDBRANCH   6  11
ENDBRANCH   3   5
ENDBRANCH   2   3
ENDBRANCH   1   2
BRANCH   1  29
ATOM     29  C   UNL A   1      33.734  30.572  27.133  1.00  0.00     0.275 C 
BRANCH  29  30
ATOM     30  O   UNL A   1      34.084  31.360  28.272  1.00  0.00    -0.458 OA
BRANCH  30  31
ATOM     31  C   UNL A   1      35.262  32.016  28.169  1.00  0.00     0.338 C 
ATOM     32  O   UNL A   1      35.517  32.970  27.454  1.00  0.00    -0.246 OA
BRANCH  31  33
ATOM     33  C   UNL A   1      36.304  31.255  28.870  1.00  0.00     0.060 A 
ATOM     34  C   UNL A   1      37.409  31.972  29.340  1.00  0.00     0.016 A 
ATOM     35  C   UNL A   1      36.316  29.855  28.782  1.00  0.00     0.016 A 
ATOM     36  C   UNL A   1      38.590  31.293  29.562  1.00  0.00     0.010 A 
ATOM     37  C   UNL A   1      37.499  29.183  28.988  1.00  0.00     0.010 A 
ATOM     38  C   UNL A   1      38.638  29.919  29.303  1.00  0.00    -0.014 A 
BRANCH  38  39
ATOM     39  C   UNL A   1      39.917  29.251  29.428  1.00  0.00     0.031 A 
ATOM     40  C   UNL A   1      40.361  29.037  30.820  1.00  0.00     0.074 A 
ATOM     41  C   UNL A   1      40.582  28.746  28.373  1.00  0.00     0.049 A 
ATOM     42  N   UNL A   1      41.406  29.520  31.401  1.00  0.00    -0.248 NA
ATOM     43  C   UNL A   1      39.467  28.274  31.705  1.00  0.00     0.031 C 
ATOM     44  C   UNL A   1      40.117  28.600  26.992  1.00  0.00     0.029 A 
ATOM     45  N   UNL A   1      41.794  28.130  28.362  1.00  0.00    -0.354 N 
ATOM     46  C   UNL A   1      41.398  28.994  32.688  1.00  0.00     0.074 A 
ATOM     47  C   UNL A   1      40.115  28.361  32.866  1.00  0.00     0.031 C 
ATOM     48  C   UNL A   1      40.929  27.732  26.346  1.00  0.00     0.029 A 
ATOM     49  C   UNL A   1      42.030  27.373  27.226  1.00  0.00     0.049 A 
ATOM     50  H   UNL A   1      42.445  28.214  29.095  1.00  0.00     0.167 HD
ATOM     51  C   UNL A   1      42.530  28.915  33.436  1.00  0.00     0.031 A 
ATOM     52  C   UNL A   1      43.013  26.454  27.068  1.00  0.00     0.031 A 
ATOM     53  C   UNL A   1      43.575  29.766  32.933  1.00  0.00     0.049 A 
ATOM     54  C   UNL A   1      44.045  26.707  28.102  1.00  0.00     0.074 A 
ATOM     55  C   UNL A   1      43.701  31.125  32.710  1.00  0.00     0.029 A 
ATOM     56  N   UNL A   1      44.590  29.175  32.220  1.00  0.00    -0.354 N 
ATOM     57  N   UNL A   1      44.828  27.746  28.102  1.00  0.00    -0.248 NA
ATOM     58  C   UNL A   1      43.928  26.017  29.379  1.00  0.00     0.031 C 
ATOM     59  C   UNL A   1      44.467  31.232  31.512  1.00  0.00     0.029 A 
ATOM     60  C   UNL A   1      44.799  29.940  31.103  1.00  0.00     0.049 A 
ATOM     61  H   UNL A   1      45.076  28.354  32.467  1.00  0.00     0.167 HD
ATOM     62  C   UNL A   1      44.947  28.100  29.438  1.00  0.00     0.074 A 
ATOM     63  C   UNL A   1      44.470  26.937  30.182  1.00  0.00     0.031 C 
ATOM     64  C   UNL A   1      45.149  29.399  29.808  1.00  0.00     0.031 A 
BRANCH  51  65
ATOM     65  C   UNL A   1      42.812  27.767  34.370  1.00  0.00    -0.014 A 
ATOM     66  C   UNL A   1      43.152  26.519  33.823  1.00  0.00     0.009 A 
ATOM     67  C   UNL A   1      42.481  27.791  35.738  1.00  0.00     0.009 A 
ATOM     68  C   UNL A   1      43.087  25.348  34.587  1.00  0.00     0.001 A 
ATOM     69  C   UNL A   1      42.460  26.632  36.517  1.00  0.00     0.001 A 
ATOM     70  C   UNL A   1      42.733  25.405  35.932  1.00  0.00     0.000 A 
ENDBRANCH  51  65
BRANCH  52  71
ATOM     71  C   UNL A   1      42.987  25.212  26.269  1.00  0.00    -0.014 A 
ATOM     72  C   UNL A   1      43.886  25.024  25.208  1.00  0.00     0.009 A 
ATOM     73  C   UNL A   1      42.252  24.097  26.712  1.00  0.00     0.009 A 
ATOM     74  C   UNL A   1      44.070  23.758  24.638  1.00  0.00     0.001 A 
ATOM     75  C   UNL A   1      42.431  22.835  26.139  1.00  0.00     0.001 A 
ATOM     76  C   UNL A   1      43.352  22.661  25.113  1.00  0.00     0.000 A 
ENDBRANCH  52  71
BRANCH  64  77
ATOM     77  C   UNL A   1      45.480  30.399  28.727  1.00  0.00    -0.014 A 
ATOM     78  C   UNL A   1      46.799  30.695  28.339  1.00  0.00     0.009 A 
ATOM     79  C   UNL A   1      44.429  30.950  27.978  1.00  0.00     0.009 A 
ATOM     80  C   UNL A   1      47.056  31.549  27.262  1.00  0.00     0.001 A 
ATOM     81  C   UNL A   1      44.686  31.783  26.888  1.00  0.00     0.001 A 
ATOM     82  C   UNL A   1      45.999  32.088  26.534  1.00  0.00     0.000 A 
ENDBRANCH  64  77
ENDBRANCH  38  39
ENDBRANCH  31  33
ENDBRANCH  30  31
ENDBRANCH  29  30
ENDBRANCH   1  29
TORSDOF 13
ENDMDL
