MODEL 1
REMARK VINA RESULT:     -12.1      0.000      0.000
REMARK SMILES Cc1cc([N+](=O)[O-])ccc1NC(=O)[C@@H]1[C@@H](C(=O)OCCOC(=O)c2ccc(-c3c4nc(c(-c5ccccc5)c5ccc([nH]5)c(-c5ccccc5)c5nc(c(-c6ccccc6)c6ccc3[nH]6)C=C5)C=C4)cc2)[C@H]2C=C[C@@H]1C2
REMARK SMILES IDX 19 1 18 2 16 3 17 4 15 5 14 6 75 7 72 8 74 9 76 10 73 11
REMARK SMILES IDX 12 12 11 13 13 15 10 16 1 17 2 18 3 19 4 20 9 21 8 22 5 23
REMARK SMILES IDX 6 24 7 25 20 26 21 27 22 28 23 29 24 30 25 31 71 32 26 33
REMARK SMILES IDX 70 34 27 35 28 36 29 37 64 38 30 39 69 40 63 41 65 42 31 43
REMARK SMILES IDX 68 44 62 45 61 46 32 48 54 49 39 50 53 51 40 52 43 53 52 54
REMARK SMILES IDX 66 55 41 56 42 57 51 59 67 60 44 61 33 62 34 63 38 64 35 65
REMARK SMILES IDX 37 66 36 67 55 68 56 69 60 70 57 71 59 72 58 73 45 74 46 75
REMARK SMILES IDX 50 76 47 77 49 78 48 79
REMARK H PARENT 11 14 65 47 43 58
REMARK Flexibility Score: inf
ROOT
ATOM      1  C   UNL A   1      32.275  30.961  26.771  1.00  0.00     0.274 C 
ENDROOT
BRANCH   1   2
ATOM      2  O   UNL A   1      31.425  29.879  26.335  1.00  0.00    -0.462 OA
BRANCH   2   3
ATOM      3  C   UNL A   1      32.002  28.659  26.582  1.00  0.00     0.310 C 
ATOM      4  O   UNL A   1      32.951  28.532  27.348  1.00  0.00    -0.252 OA
BRANCH   3   5
ATOM      5  C   UNL A   1      31.462  27.524  25.718  1.00  0.00     0.119 C 
ATOM      6  C   UNL A   1      32.170  26.109  25.718  1.00  0.00     0.100 C 
ATOM      7  C   UNL A   1      32.400  25.864  24.192  1.00  0.00     0.025 C 
ATOM      8  C   UNL A   1      31.646  27.953  24.225  1.00  0.00     0.027 C 
ATOM      9  C   UNL A   1      33.567  26.727  23.801  1.00  0.00    -0.027 C 
ATOM     10  C   UNL A   1      31.270  26.655  23.530  1.00  0.00     0.017 C 
ATOM     11  C   UNL A   1      33.121  27.988  23.834  1.00  0.00    -0.027 C 
BRANCH   6  12
ATOM     12  C   UNL A   1      31.377  24.937  26.273  1.00  0.00     0.228 C 
ATOM     13  N   UNL A   1      31.863  23.649  26.306  1.00  0.00    -0.326 N 
ATOM     14  H   UNL A   1      31.196  23.016  26.659  1.00  0.00     0.169 HD
ATOM     15  O   UNL A   1      30.239  25.114  26.720  1.00  0.00    -0.274 OA
BRANCH  13  16
ATOM     16  C   UNL A   1      33.079  22.998  25.962  1.00  0.00     0.044 A 
ATOM     17  C   UNL A   1      32.126  22.220  23.670  1.00  0.00     0.047 C 
ATOM     18  C   UNL A   1      33.190  22.289  24.738  1.00  0.00    -0.021 A 
ATOM     19  C   UNL A   1      34.388  21.592  24.425  1.00  0.00     0.091 A 
ATOM     20  C   UNL A   1      35.477  21.606  25.299  1.00  0.00     0.269 A 
ATOM     21  C   UNL A   1      34.200  22.990  26.801  1.00  0.00     0.033 A 
ATOM     22  C   UNL A   1      35.394  22.331  26.477  1.00  0.00     0.088 A 
BRANCH  20  23
ATOM     23  N   UNL A   1      36.689  20.836  25.002  1.00  0.00     0.062 N 
ATOM     24  O   UNL A   1      37.724  21.465  24.745  1.00  0.00    -0.258 OA
ATOM     25  O   UNL A   1      36.603  19.599  25.020  1.00  0.00    -0.258 OA
ENDBRANCH  20  23
ENDBRANCH  13  16
ENDBRANCH   6  12
ENDBRANCH   3   5
ENDBRANCH   2   3
ENDBRANCH   1   2
BRANCH   1  26
ATOM     26  C   UNL A   1      31.579  32.307  27.002  1.00  0.00     0.275 C 
BRANCH  26  27
ATOM     27  O   UNL A   1      32.379  33.492  27.247  1.00  0.00    -0.458 OA
BRANCH  27  28
ATOM     28  C   UNL A   1      33.052  33.839  28.362  1.00  0.00     0.338 C 
ATOM     29  O   UNL A   1      32.601  34.616  29.202  1.00  0.00    -0.246 OA
BRANCH  28  30
ATOM     30  C   UNL A   1      34.350  33.209  28.583  1.00  0.00     0.060 A 
ATOM     31  C   UNL A   1      35.484  33.851  28.067  1.00  0.00     0.016 A 
ATOM     32  C   UNL A   1      34.447  32.058  29.365  1.00  0.00     0.016 A 
ATOM     33  C   UNL A   1      36.745  33.411  28.440  1.00  0.00     0.010 A 
ATOM     34  C   UNL A   1      35.701  31.624  29.737  1.00  0.00     0.010 A 
ATOM     35  C   UNL A   1      36.840  32.312  29.291  1.00  0.00    -0.014 A 
BRANCH  35  36
ATOM     36  C   UNL A   1      38.111  31.684  29.597  1.00  0.00     0.031 A 
ATOM     37  C   UNL A   1      38.534  30.423  28.957  1.00  0.00     0.074 A 
ATOM     38  C   UNL A   1      38.860  32.374  30.480  1.00  0.00     0.049 A 
ATOM     39  N   UNL A   1      39.252  29.521  29.541  1.00  0.00    -0.248 NA
ATOM     40  C   UNL A   1      38.113  30.030  27.612  1.00  0.00     0.031 C 
ATOM     41  C   UNL A   1      40.267  32.231  30.792  1.00  0.00     0.029 A 
ATOM     42  N   UNL A   1      38.383  33.279  31.436  1.00  0.00    -0.354 N 
ATOM     43  C   UNL A   1      39.645  28.633  28.558  1.00  0.00     0.074 A 
ATOM     44  C   UNL A   1      38.778  28.881  27.434  1.00  0.00     0.031 C 
ATOM     45  C   UNL A   1      40.486  32.776  32.004  1.00  0.00     0.029 A 
ATOM     46  C   UNL A   1      39.184  33.114  32.565  1.00  0.00     0.049 A 
ATOM     47  H   UNL A   1      37.632  33.908  31.332  1.00  0.00     0.167 HD
ATOM     48  C   UNL A   1      40.825  27.960  28.673  1.00  0.00     0.031 A 
ATOM     49  C   UNL A   1      38.697  32.673  33.763  1.00  0.00     0.031 A 
ATOM     50  C   UNL A   1      41.542  28.416  29.850  1.00  0.00     0.049 A 
ATOM     51  C   UNL A   1      39.433  31.431  34.203  1.00  0.00     0.074 A 
ATOM     52  C   UNL A   1      42.465  29.440  29.986  1.00  0.00     0.029 A 
ATOM     53  N   UNL A   1      41.096  28.091  31.118  1.00  0.00    -0.354 N 
ATOM     54  N   UNL A   1      39.874  30.519  33.379  1.00  0.00    -0.248 NA
ATOM     55  C   UNL A   1      39.780  31.161  35.593  1.00  0.00     0.031 C 
ATOM     56  C   UNL A   1      42.541  29.771  31.356  1.00  0.00     0.029 A 
ATOM     57  C   UNL A   1      41.683  28.928  32.042  1.00  0.00     0.049 A 
ATOM     58  H   UNL A   1      40.457  27.372  31.328  1.00  0.00     0.167 HD
ATOM     59  C   UNL A   1      40.684  29.654  34.078  1.00  0.00     0.074 A 
ATOM     60  C   UNL A   1      40.542  30.059  35.464  1.00  0.00     0.031 C 
ATOM     61  C   UNL A   1      41.470  28.724  33.461  1.00  0.00     0.031 A 
BRANCH  48  62
ATOM     62  C   UNL A   1      41.517  27.238  27.543  1.00  0.00    -0.014 A 
ATOM     63  C   UNL A   1      42.576  27.879  26.867  1.00  0.00     0.009 A 
ATOM     64  C   UNL A   1      41.174  25.954  27.088  1.00  0.00     0.009 A 
ATOM     65  C   UNL A   1      43.195  27.323  25.744  1.00  0.00     0.001 A 
ATOM     66  C   UNL A   1      41.782  25.397  25.949  1.00  0.00     0.001 A 
ATOM     67  C   UNL A   1      42.782  26.087  25.270  1.00  0.00     0.000 A 
ENDBRANCH  48  62
BRANCH  49  68
ATOM     68  C   UNL A   1      37.240  32.911  33.977  1.00  0.00    -0.014 A 
ATOM     69  C   UNL A   1      36.822  34.111  34.591  1.00  0.00     0.009 A 
ATOM     70  C   UNL A   1      36.291  32.177  33.255  1.00  0.00     0.009 A 
ATOM     71  C   UNL A   1      35.521  34.604  34.414  1.00  0.00     0.001 A 
ATOM     72  C   UNL A   1      34.998  32.689  33.074  1.00  0.00     0.001 A 
ATOM     73  C   UNL A   1      34.616  33.904  33.630  1.00  0.00     0.000 A 
ENDBRANCH  49  68
BRANCH  61  74
ATOM     74  C   UNL A   1      42.253  27.594  34.091  1.00  0.00    -0.014 A 
ATOM     75  C   UNL A   1      43.643  27.553  34.202  1.00  0.00     0.009 A 
ATOM     76  C   UNL A   1      41.538  26.557  34.748  1.00  0.00     0.009 A 
ATOM     77  C   UNL A   1      44.283  26.523  34.906  1.00  0.00     0.001 A 
ATOM     78  C   UNL A   1      42.166  25.561  35.492  1.00  0.00     0.001 A 
ATOM     79  C   UNL A   1      43.547  25.539  35.563  1.00  0.00     0.000 A 
ENDBRANCH  61  74
ENDBRANCH  35  36
ENDBRANCH  28  30
ENDBRANCH  27  28
ENDBRANCH  26  27
ENDBRANCH   1  26
TORSDOF 14
ENDMDL
MODEL 2
REMARK VINA RESULT:     -11.9      3.294      9.743
REMARK SMILES Cc1cc([N+](=O)[O-])ccc1NC(=O)[C@@H]1[C@@H](C(=O)OCCOC(=O)c2ccc(-c3c4nc(c(-c5ccccc5)c5ccc([nH]5)c(-c5ccccc5)c5nc(c(-c6ccccc6)c6ccc3[nH]6)C=C5)C=C4)cc2)[C@H]2C=C[C@@H]1C2
REMARK SMILES IDX 19 1 18 2 16 3 17 4 15 5 14 6 75 7 72 8 74 9 76 10 73 11
REMARK SMILES IDX 12 12 11 13 13 15 10 16 1 17 2 18 3 19 4 20 9 21 8 22 5 23
REMARK SMILES IDX 6 24 7 25 20 26 21 27 22 28 23 29 24 30 25 31 71 32 26 33
REMARK SMILES IDX 70 34 27 35 28 36 29 37 64 38 30 39 69 40 63 41 65 42 31 43
REMARK SMILES IDX 68 44 62 45 61 46 32 48 54 49 39 50 53 51 40 52 43 53 52 54
REMARK SMILES IDX 66 55 41 56 42 57 51 59 67 60 44 61 33 62 34 63 38 64 35 65
REMARK SMILES IDX 37 66 36 67 55 68 56 69 60 70 57 71 59 72 58 73 45 74 46 75
REMARK SMILES IDX 50 76 47 77 49 78 48 79
REMARK H PARENT 11 14 65 47 43 58
REMARK Flexibility Score: inf
ROOT
ATOM      1  C   UNL A   1      38.144  20.759  25.104  1.00  0.00     0.274 C 
ENDROOT
BRANCH   1   2
ATOM      2  O   UNL A   1      36.724  20.662  24.860  1.00  0.00    -0.462 OA
BRANCH   2   3
ATOM      3  C   UNL A   1      36.200  21.870  24.476  1.00  0.00     0.310 C 
ATOM      4  O   UNL A   1      36.903  22.863  24.318  1.00  0.00    -0.252 OA
BRANCH   3   5
ATOM      5  C   UNL A   1      34.677  21.900  24.410  1.00  0.00     0.119 C 
ATOM      6  C   UNL A   1      33.896  23.273  24.499  1.00  0.00     0.100 C 
ATOM      7  C   UNL A   1      32.875  22.990  25.647  1.00  0.00     0.025 C 
ATOM      8  C   UNL A   1      34.146  21.168  25.688  1.00  0.00     0.027 C 
ATOM      9  C   UNL A   1      33.657  23.064  26.929  1.00  0.00    -0.027 C 
ATOM     10  C   UNL A   1      32.662  21.477  25.570  1.00  0.00     0.017 C 
ATOM     11  C   UNL A   1      34.434  21.975  26.951  1.00  0.00    -0.027 C 
BRANCH   6  12
ATOM     12  C   UNL A   1      33.118  23.709  23.268  1.00  0.00     0.228 C 
ATOM     13  N   UNL A   1      32.609  24.980  23.110  1.00  0.00    -0.326 N 
ATOM     14  H   UNL A   1      32.099  25.067  22.273  1.00  0.00     0.169 HD
ATOM     15  O   UNL A   1      32.911  22.910  22.349  1.00  0.00    -0.274 OA
BRANCH  13  16
ATOM     16  C   UNL A   1      32.633  26.196  23.845  1.00  0.00     0.044 A 
ATOM     17  C   UNL A   1      30.329  25.689  24.942  1.00  0.00     0.047 C 
ATOM     18  C   UNL A   1      31.540  26.551  24.678  1.00  0.00    -0.021 A 
ATOM     19  C   UNL A   1      31.542  27.795  25.365  1.00  0.00     0.091 A 
ATOM     20  C   UNL A   1      32.619  28.676  25.252  1.00  0.00     0.269 A 
ATOM     21  C   UNL A   1      33.693  27.109  23.771  1.00  0.00     0.033 A 
ATOM     22  C   UNL A   1      33.711  28.320  24.476  1.00  0.00     0.088 A 
BRANCH  20  23
ATOM     23  N   UNL A   1      32.591  29.985  25.913  1.00  0.00     0.062 N 
ATOM     24  O   UNL A   1      31.593  30.697  25.739  1.00  0.00    -0.258 OA
ATOM     25  O   UNL A   1      33.571  30.302  26.602  1.00  0.00    -0.258 OA
ENDBRANCH  20  23
ENDBRANCH  13  16
ENDBRANCH   6  12
ENDBRANCH   3   5
ENDBRANCH   2   3
ENDBRANCH   1   2
BRANCH   1  26
ATOM     26  C   UNL A   1      38.815  19.498  25.660  1.00  0.00     0.275 C 
BRANCH  26  27
ATOM     27  O   UNL A   1      40.214  19.247  25.374  1.00  0.00    -0.458 OA
BRANCH  27  28
ATOM     28  C   UNL A   1      41.298  19.591  26.098  1.00  0.00     0.338 C 
ATOM     29  O   UNL A   1      42.242  18.828  26.293  1.00  0.00    -0.246 OA
BRANCH  28  30
ATOM     30  C   UNL A   1      41.348  20.953  26.620  1.00  0.00     0.060 A 
ATOM     31  C   UNL A   1      41.148  21.134  27.995  1.00  0.00     0.016 A 
ATOM     32  C   UNL A   1      41.681  22.014  25.778  1.00  0.00     0.016 A 
ATOM     33  C   UNL A   1      41.405  22.372  28.563  1.00  0.00     0.010 A 
ATOM     34  C   UNL A   1      41.939  23.244  26.345  1.00  0.00     0.010 A 
ATOM     35  C   UNL A   1      41.820  23.411  27.734  1.00  0.00    -0.014 A 
BRANCH  35  36
ATOM     36  C   UNL A   1      41.950  24.773  28.213  1.00  0.00     0.031 A 
ATOM     37  C   UNL A   1      40.811  25.712  28.219  1.00  0.00     0.074 A 
ATOM     38  C   UNL A   1      43.181  25.074  28.671  1.00  0.00     0.049 A 
ATOM     39  N   UNL A   1      40.921  26.986  28.028  1.00  0.00    -0.248 NA
ATOM     40  C   UNL A   1      39.420  25.279  28.367  1.00  0.00     0.031 C 
ATOM     41  C   UNL A   1      43.605  26.197  29.482  1.00  0.00     0.029 A 
ATOM     42  N   UNL A   1      44.375  24.443  28.302  1.00  0.00    -0.354 N 
ATOM     43  C   UNL A   1      39.699  27.541  28.358  1.00  0.00     0.074 A 
ATOM     44  C   UNL A   1      38.762  26.446  28.382  1.00  0.00     0.031 C 
ATOM     45  C   UNL A   1      44.934  26.351  29.325  1.00  0.00     0.029 A 
ATOM     46  C   UNL A   1      45.349  25.440  28.266  1.00  0.00     0.049 A 
ATOM     47  H   UNL A   1      44.502  23.486  28.106  1.00  0.00     0.167 HD
ATOM     48  C   UNL A   1      39.632  28.813  28.840  1.00  0.00     0.031 A 
ATOM     49  C   UNL A   1      46.005  25.798  27.122  1.00  0.00     0.031 A 
ATOM     50  C   UNL A   1      40.971  29.346  29.021  1.00  0.00     0.049 A 
ATOM     51  C   UNL A   1      45.814  27.270  26.849  1.00  0.00     0.074 A 
ATOM     52  C   UNL A   1      41.804  29.297  30.126  1.00  0.00     0.029 A 
ATOM     53  N   UNL A   1      41.752  29.675  27.929  1.00  0.00    -0.354 N 
ATOM     54  N   UNL A   1      44.718  27.924  27.125  1.00  0.00    -0.248 NA
ATOM     55  C   UNL A   1      46.865  28.122  26.305  1.00  0.00     0.031 C 
ATOM     56  C   UNL A   1      43.119  29.553  29.685  1.00  0.00     0.029 A 
ATOM     57  C   UNL A   1      43.070  29.780  28.321  1.00  0.00     0.049 A 
ATOM     58  H   UNL A   1      41.419  29.811  27.013  1.00  0.00     0.167 HD
ATOM     59  C   UNL A   1      44.959  29.269  26.964  1.00  0.00     0.074 A 
ATOM     60  C   UNL A   1      46.291  29.335  26.391  1.00  0.00     0.031 C 
ATOM     61  C   UNL A   1      44.083  30.228  27.385  1.00  0.00     0.031 A 
BRANCH  48  62
ATOM     62  C   UNL A   1      38.433  29.406  29.538  1.00  0.00    -0.014 A 
ATOM     63  C   UNL A   1      37.667  30.385  28.871  1.00  0.00     0.009 A 
ATOM     64  C   UNL A   1      38.016  29.067  30.835  1.00  0.00     0.009 A 
ATOM     65  C   UNL A   1      36.609  31.059  29.488  1.00  0.00     0.001 A 
ATOM     66  C   UNL A   1      36.963  29.752  31.467  1.00  0.00     0.001 A 
ATOM     67  C   UNL A   1      36.270  30.757  30.798  1.00  0.00     0.000 A 
ENDBRANCH  48  62
BRANCH  49  68
ATOM     68  C   UNL A   1      46.054  24.743  26.068  1.00  0.00    -0.014 A 
ATOM     69  C   UNL A   1      46.674  23.510  26.359  1.00  0.00     0.009 A 
ATOM     70  C   UNL A   1      45.187  24.800  24.970  1.00  0.00     0.009 A 
ATOM     71  C   UNL A   1      46.368  22.352  25.630  1.00  0.00     0.001 A 
ATOM     72  C   UNL A   1      44.880  23.632  24.259  1.00  0.00     0.001 A 
ATOM     73  C   UNL A   1      45.448  22.409  24.594  1.00  0.00     0.000 A 
ENDBRANCH  49  68
BRANCH  61  74
ATOM     74  C   UNL A   1      44.118  31.714  27.109  1.00  0.00    -0.014 A 
ATOM     75  C   UNL A   1      44.116  32.287  25.837  1.00  0.00     0.009 A 
ATOM     76  C   UNL A   1      44.004  32.610  28.204  1.00  0.00     0.009 A 
ATOM     77  C   UNL A   1      44.030  33.677  25.669  1.00  0.00     0.001 A 
ATOM     78  C   UNL A   1      43.866  33.987  28.042  1.00  0.00     0.001 A 
ATOM     79  C   UNL A   1      43.889  34.523  26.767  1.00  0.00     0.000 A 
ENDBRANCH  61  74
ENDBRANCH  35  36
ENDBRANCH  28  30
ENDBRANCH  27  28
ENDBRANCH  26  27
ENDBRANCH   1  26
TORSDOF 14
ENDMDL
MODEL 3
REMARK VINA RESULT:     -11.8      2.487      4.860
REMARK SMILES Cc1cc([N+](=O)[O-])ccc1NC(=O)[C@@H]1[C@@H](C(=O)OCCOC(=O)c2ccc(-c3c4nc(c(-c5ccccc5)c5ccc([nH]5)c(-c5ccccc5)c5nc(c(-c6ccccc6)c6ccc3[nH]6)C=C5)C=C4)cc2)[C@H]2C=C[C@@H]1C2
REMARK SMILES IDX 19 1 18 2 16 3 17 4 15 5 14 6 75 7 72 8 74 9 76 10 73 11
REMARK SMILES IDX 12 12 11 13 13 15 10 16 1 17 2 18 3 19 4 20 9 21 8 22 5 23
REMARK SMILES IDX 6 24 7 25 20 26 21 27 22 28 23 29 24 30 25 31 71 32 26 33
REMARK SMILES IDX 70 34 27 35 28 36 29 37 64 38 30 39 69 40 63 41 65 42 31 43
REMARK SMILES IDX 68 44 62 45 61 46 32 48 54 49 39 50 53 51 40 52 43 53 52 54
REMARK SMILES IDX 66 55 41 56 42 57 51 59 67 60 44 61 33 62 34 63 38 64 35 65
REMARK SMILES IDX 37 66 36 67 55 68 56 69 60 70 57 71 59 72 58 73 45 74 46 75
REMARK SMILES IDX 50 76 47 77 49 78 48 79
REMARK H PARENT 11 14 65 47 43 58
REMARK Flexibility Score: inf
ROOT
ATOM      1  C   UNL A   1      33.344  27.870  25.954  1.00  0.00     0.274 C 
ENDROOT
BRANCH   1   2
ATOM      2  O   UNL A   1      34.127  26.708  25.606  1.00  0.00    -0.462 OA
BRANCH   2   3
ATOM      3  C   UNL A   1      33.352  25.577  25.563  1.00  0.00     0.310 C 
ATOM      4  O   UNL A   1      32.454  25.373  26.373  1.00  0.00    -0.252 OA
BRANCH   3   5
ATOM      5  C   UNL A   1      33.800  24.550  24.529  1.00  0.00     0.119 C 
ATOM      6  C   UNL A   1      33.150  23.108  24.497  1.00  0.00     0.100 C 
ATOM      7  C   UNL A   1      34.411  22.186  24.536  1.00  0.00     0.025 C 
ATOM      8  C   UNL A   1      35.293  24.201  24.841  1.00  0.00     0.027 C 
ATOM      9  C   UNL A   1      34.901  22.207  25.956  1.00  0.00    -0.027 C 
ATOM     10  C   UNL A   1      35.498  23.041  23.881  1.00  0.00     0.017 C 
ATOM     11  C   UNL A   1      35.421  23.425  26.149  1.00  0.00    -0.027 C 
BRANCH   6  12
ATOM     12  C   UNL A   1      32.332  22.743  23.269  1.00  0.00     0.228 C 
ATOM     13  N   UNL A   1      31.436  23.607  22.678  1.00  0.00    -0.326 N 
ATOM     14  H   UNL A   1      30.966  23.185  21.922  1.00  0.00     0.169 HD
ATOM     15  O   UNL A   1      32.449  21.626  22.754  1.00  0.00    -0.274 OA
BRANCH  13  16
ATOM     16  C   UNL A   1      31.015  24.950  22.879  1.00  0.00     0.044 A 
ATOM     17  C   UNL A   1      32.628  25.831  21.038  1.00  0.00     0.047 C 
ATOM     18  C   UNL A   1      31.606  26.004  22.135  1.00  0.00    -0.021 A 
ATOM     19  C   UNL A   1      31.223  27.350  22.380  1.00  0.00     0.091 A 
ATOM     20  C   UNL A   1      30.253  27.659  23.335  1.00  0.00     0.269 A 
ATOM     21  C   UNL A   1      30.041  25.308  23.819  1.00  0.00     0.033 A 
ATOM     22  C   UNL A   1      29.637  26.633  24.036  1.00  0.00     0.088 A 
BRANCH  20  23
ATOM     23  N   UNL A   1      29.905  29.052  23.629  1.00  0.00     0.062 N 
ATOM     24  O   UNL A   1      28.845  29.493  23.162  1.00  0.00    -0.258 OA
ATOM     25  O   UNL A   1      30.694  29.709  24.323  1.00  0.00    -0.258 OA
ENDBRANCH  20  23
ENDBRANCH  13  16
ENDBRANCH   6  12
ENDBRANCH   3   5
ENDBRANCH   2   3
ENDBRANCH   1   2
BRANCH   1  26
ATOM     26  C   UNL A   1      33.689  28.532  27.293  1.00  0.00     0.275 C 
BRANCH  26  27
ATOM     27  O   UNL A   1      34.111  29.920  27.317  1.00  0.00    -0.458 OA
BRANCH  27  28
ATOM     28  C   UNL A   1      35.010  30.513  28.127  1.00  0.00     0.338 C 
ATOM     29  O   UNL A   1      34.750  31.512  28.796  1.00  0.00    -0.246 OA
BRANCH  28  30
ATOM     30  C   UNL A   1      36.327  29.892  28.235  1.00  0.00     0.060 A 
ATOM     31  C   UNL A   1      37.216  30.055  27.163  1.00  0.00     0.016 A 
ATOM     32  C   UNL A   1      36.702  29.244  29.411  1.00  0.00     0.016 A 
ATOM     33  C   UNL A   1      38.540  29.675  27.314  1.00  0.00     0.010 A 
ATOM     34  C   UNL A   1      38.020  28.870  29.560  1.00  0.00     0.010 A 
ATOM     35  C   UNL A   1      38.935  29.106  28.522  1.00  0.00    -0.014 A 
BRANCH  35  36
ATOM     36  C   UNL A   1      40.253  28.530  28.707  1.00  0.00     0.031 A 
ATOM     37  C   UNL A   1      40.607  27.199  28.175  1.00  0.00     0.074 A 
ATOM     38  C   UNL A   1      41.108  29.332  29.371  1.00  0.00     0.049 A 
ATOM     39  N   UNL A   1      41.427  26.384  28.751  1.00  0.00    -0.248 NA
ATOM     40  C   UNL A   1      39.998  26.634  26.970  1.00  0.00     0.031 C 
ATOM     41  C   UNL A   1      42.550  29.239  29.480  1.00  0.00     0.029 A 
ATOM     42  N   UNL A   1      40.759  30.349  30.267  1.00  0.00    -0.354 N 
ATOM     43  C   UNL A   1      41.690  25.379  27.839  1.00  0.00     0.074 A 
ATOM     44  C   UNL A   1      40.657  25.475  26.839  1.00  0.00     0.031 C 
ATOM     45  C   UNL A   1      42.935  29.936  30.566  1.00  0.00     0.029 A 
ATOM     46  C   UNL A   1      41.724  30.336  31.272  1.00  0.00     0.049 A 
ATOM     47  H   UNL A   1      39.985  30.955  30.200  1.00  0.00     0.167 HD
ATOM     48  C   UNL A   1      42.890  24.734  27.857  1.00  0.00     0.031 A 
ATOM     49  C   UNL A   1      41.435  30.050  32.577  1.00  0.00     0.031 A 
ATOM     50  C   UNL A   1      43.765  25.341  28.843  1.00  0.00     0.049 A 
ATOM     51  C   UNL A   1      42.261  28.880  33.052  1.00  0.00     0.074 A 
ATOM     52  C   UNL A   1      44.671  26.380  28.707  1.00  0.00     0.029 A 
ATOM     53  N   UNL A   1      43.524  25.179  30.195  1.00  0.00    -0.354 N 
ATOM     54  N   UNL A   1      42.596  27.871  32.292  1.00  0.00    -0.248 NA
ATOM     55  C   UNL A   1      42.820  28.792  34.395  1.00  0.00     0.031 C 
ATOM     56  C   UNL A   1      44.945  26.885  29.996  1.00  0.00     0.029 A 
ATOM     57  C   UNL A   1      44.222  26.132  30.905  1.00  0.00     0.049 A 
ATOM     58  H   UNL A   1      42.943  24.490  30.589  1.00  0.00     0.167 HD
ATOM     59  C   UNL A   1      43.524  27.108  32.962  1.00  0.00     0.074 A 
ATOM     60  C   UNL A   1      43.581  27.688  34.291  1.00  0.00     0.031 C 
ATOM     61  C   UNL A   1      44.231  26.111  32.355  1.00  0.00     0.031 A 
BRANCH  48  62
ATOM     62  C   UNL A   1      43.422  23.876  26.735  1.00  0.00    -0.014 A 
ATOM     63  C   UNL A   1      43.183  22.486  26.764  1.00  0.00     0.009 A 
ATOM     64  C   UNL A   1      44.166  24.357  25.646  1.00  0.00     0.009 A 
ATOM     65  C   UNL A   1      43.732  21.610  25.822  1.00  0.00     0.001 A 
ATOM     66  C   UNL A   1      44.734  23.480  24.705  1.00  0.00     0.001 A 
ATOM     67  C   UNL A   1      44.528  22.107  24.802  1.00  0.00     0.000 A 
ENDBRANCH  48  62
BRANCH  49  68
ATOM     68  C   UNL A   1      40.021  30.305  32.979  1.00  0.00    -0.014 A 
ATOM     69  C   UNL A   1      39.488  31.603  32.833  1.00  0.00     0.009 A 
ATOM     70  C   UNL A   1      39.125  29.239  33.122  1.00  0.00     0.009 A 
ATOM     71  C   UNL A   1      38.106  31.816  32.745  1.00  0.00     0.001 A 
ATOM     72  C   UNL A   1      37.745  29.465  33.018  1.00  0.00     0.001 A 
ATOM     73  C   UNL A   1      37.234  30.740  32.811  1.00  0.00     0.000 A 
ENDBRANCH  49  68
BRANCH  61  74
ATOM     74  C   UNL A   1      45.128  25.076  32.995  1.00  0.00    -0.014 A 
ATOM     75  C   UNL A   1      46.433  25.312  33.430  1.00  0.00     0.009 A 
ATOM     76  C   UNL A   1      44.578  23.806  33.315  1.00  0.00     0.009 A 
ATOM     77  C   UNL A   1      47.155  24.329  34.122  1.00  0.00     0.001 A 
ATOM     78  C   UNL A   1      45.272  22.845  34.046  1.00  0.00     0.001 A 
ATOM     79  C   UNL A   1      46.571  23.105  34.443  1.00  0.00     0.000 A 
ENDBRANCH  61  74
ENDBRANCH  35  36
ENDBRANCH  28  30
ENDBRANCH  27  28
ENDBRANCH  26  27
ENDBRANCH   1  26
TORSDOF 14
ENDMDL
