MODEL 1
REMARK VINA RESULT:      -9.4      0.000      0.000
REMARK SMILES C#CCNC(=O)[C@H](C)S(=O)(=O)c1ccc(C(=O)OCCOC(=O)c2ccc(-c3c4nc(c(-c5ccccc5)c5ccc([nH]5)c(-c5ccccc5)c5nc(c(-c6ccccc6)c6ccc3[nH]6)C=C5)C=C4)cc2)cc1F
REMARK SMILES IDX 18 1 16 2 17 3 15 4 12 5 13 6 73 7 14 8 72 9 74 10 9 11
REMARK SMILES IDX 10 12 11 13 7 14 8 15 5 16 4 17 6 19 3 20 2 21 1 22 19 23
REMARK SMILES IDX 20 24 21 25 22 26 23 27 24 28 25 29 71 30 26 31 70 32 27 33
REMARK SMILES IDX 28 34 29 35 64 36 30 37 69 38 63 39 65 40 31 41 68 42 62 43
REMARK SMILES IDX 61 44 32 46 54 47 39 48 53 49 40 50 43 51 52 52 66 53 41 54
REMARK SMILES IDX 42 55 51 57 67 58 44 59 33 60 34 61 38 62 35 63 37 64 36 65
REMARK SMILES IDX 55 66 56 67 60 68 57 69 59 70 58 71 45 72 46 73 50 74 47 75
REMARK SMILES IDX 49 76 48 77
REMARK H PARENT 4 18 65 45 43 56
REMARK Flexibility Score: inf
ROOT
ATOM      1  O   UNL A   1      34.758  35.159  32.532  1.00  0.00    -0.458 OA
ENDROOT
BRANCH   1   2
ATOM      2  C   UNL A   1      34.407  33.985  33.108  1.00  0.00     0.338 C 
ATOM      3  O   UNL A   1      33.369  33.369  32.938  1.00  0.00    -0.246 OA
BRANCH   2   4
ATOM      4  C   UNL A   1      35.529  33.448  33.908  1.00  0.00     0.063 A 
ATOM      5  C   UNL A   1      37.613  32.300  35.349  1.00  0.00     0.103 A 
ATOM      6  C   UNL A   1      37.303  31.811  34.085  1.00  0.00     0.024 A 
ATOM      7  C   UNL A   1      36.921  33.387  35.871  1.00  0.00     0.142 A 
ATOM      8  C   UNL A   1      36.216  32.337  33.411  1.00  0.00     0.017 A 
ATOM      9  C   UNL A   1      35.893  33.986  35.141  1.00  0.00     0.056 A 
ATOM     10  F   UNL A   1      37.186  33.869  37.090  1.00  0.00    -0.206 F 
BRANCH   5  11
ATOM     11  S   UNL A   1      38.888  31.483  36.242  1.00  0.00     0.192 S 
ATOM     12  O   UNL A   1      38.578  30.069  36.320  1.00  0.00    -0.223 OA
ATOM     13  O   UNL A   1      39.028  32.221  37.485  1.00  0.00    -0.223 OA
BRANCH  11  14
ATOM     14  C   UNL A   1      40.372  31.667  35.249  1.00  0.00     0.199 C 
ATOM     15  C   UNL A   1      41.398  32.504  36.031  1.00  0.00     0.036 C 
BRANCH  14  16
ATOM     16  C   UNL A   1      41.015  30.353  34.827  1.00  0.00     0.239 C 
ATOM     17  N   UNL A   1      40.663  29.687  33.690  1.00  0.00    -0.344 N 
ATOM     18  H   UNL A   1      41.329  29.049  33.343  1.00  0.00     0.164 HD
ATOM     19  O   UNL A   1      41.954  29.869  35.468  1.00  0.00    -0.274 OA
BRANCH  17  20
ATOM     20  C   UNL A   1      39.443  29.796  32.925  1.00  0.00     0.206 C 
BRANCH  20  21
ATOM     21  C   UNL A   1      38.923  28.507  32.474  1.00  0.00    -0.085 C 
ATOM     22  C   UNL A   1      38.573  27.481  31.965  1.00  0.00     0.006 C 
ENDBRANCH  20  21
ENDBRANCH  17  20
ENDBRANCH  14  16
ENDBRANCH  11  14
ENDBRANCH   5  11
ENDBRANCH   2   4
ENDBRANCH   1   2
BRANCH   1  23
ATOM     23  C   UNL A   1      33.698  35.862  31.851  1.00  0.00     0.275 C 
BRANCH  23  24
ATOM     24  C   UNL A   1      33.748  35.625  30.339  1.00  0.00     0.275 C 
BRANCH  24  25
ATOM     25  O   UNL A   1      32.683  34.758  29.899  1.00  0.00    -0.458 OA
BRANCH  25  26
ATOM     26  C   UNL A   1      32.918  34.126  28.729  1.00  0.00     0.338 C 
ATOM     27  O   UNL A   1      32.227  34.143  27.723  1.00  0.00    -0.246 OA
BRANCH  26  28
ATOM     28  C   UNL A   1      34.235  33.476  28.741  1.00  0.00     0.060 A 
ATOM     29  C   UNL A   1      34.441  32.507  29.711  1.00  0.00     0.016 A 
ATOM     30  C   UNL A   1      35.310  33.956  28.004  1.00  0.00     0.016 A 
ATOM     31  C   UNL A   1      35.725  32.148  30.091  1.00  0.00     0.010 A 
ATOM     32  C   UNL A   1      36.595  33.457  28.267  1.00  0.00     0.010 A 
ATOM     33  C   UNL A   1      36.828  32.582  29.348  1.00  0.00    -0.014 A 
BRANCH  33  34
ATOM     34  C   UNL A   1      38.198  32.107  29.704  1.00  0.00     0.031 A 
ATOM     35  C   UNL A   1      38.707  30.776  29.206  1.00  0.00     0.074 A 
ATOM     36  C   UNL A   1      39.000  32.875  30.471  1.00  0.00     0.049 A 
ATOM     37  N   UNL A   1      39.800  30.134  29.537  1.00  0.00    -0.248 NA
ATOM     38  C   UNL A   1      37.874  30.067  28.221  1.00  0.00     0.031 C 
ATOM     39  C   UNL A   1      38.668  34.208  30.987  1.00  0.00     0.029 A 
ATOM     40  N   UNL A   1      40.268  32.652  30.951  1.00  0.00    -0.354 N 
ATOM     41  C   UNL A   1      39.759  28.928  28.845  1.00  0.00     0.074 A 
ATOM     42  C   UNL A   1      38.523  28.919  28.091  1.00  0.00     0.031 C 
ATOM     43  C   UNL A   1      39.716  34.699  31.661  1.00  0.00     0.029 A 
ATOM     44  C   UNL A   1      40.748  33.676  31.735  1.00  0.00     0.049 A 
ATOM     45  H   UNL A   1      40.785  31.838  30.753  1.00  0.00     0.167 HD
ATOM     46  C   UNL A   1      40.665  27.920  28.839  1.00  0.00     0.031 A 
ATOM     47  C   UNL A   1      41.862  33.771  32.483  1.00  0.00     0.031 A 
ATOM     48  C   UNL A   1      41.902  27.941  29.578  1.00  0.00     0.049 A 
ATOM     49  C   UNL A   1      42.804  32.605  32.530  1.00  0.00     0.074 A 
ATOM     50  C   UNL A   1      42.894  26.975  29.625  1.00  0.00     0.029 A 
ATOM     51  N   UNL A   1      42.316  28.978  30.400  1.00  0.00    -0.354 N 
ATOM     52  N   UNL A   1      42.743  31.466  31.883  1.00  0.00    -0.248 NA
ATOM     53  C   UNL A   1      43.968  32.734  33.417  1.00  0.00     0.031 C 
ATOM     54  C   UNL A   1      43.871  27.396  30.532  1.00  0.00     0.029 A 
ATOM     55  C   UNL A   1      43.530  28.660  30.987  1.00  0.00     0.049 A 
ATOM     56  H   UNL A   1      41.820  29.816  30.546  1.00  0.00     0.167 HD
ATOM     57  C   UNL A   1      43.871  30.755  32.265  1.00  0.00     0.074 A 
ATOM     58  C   UNL A   1      44.611  31.602  33.177  1.00  0.00     0.031 C 
ATOM     59  C   UNL A   1      44.258  29.511  31.894  1.00  0.00     0.031 A 
BRANCH  46  60
ATOM     60  C   UNL A   1      40.333  26.683  28.046  1.00  0.00    -0.014 A 
ATOM     61  C   UNL A   1      40.837  26.473  26.752  1.00  0.00     0.009 A 
ATOM     62  C   UNL A   1      39.527  25.687  28.625  1.00  0.00     0.009 A 
ATOM     63  C   UNL A   1      40.508  25.314  26.042  1.00  0.00     0.001 A 
ATOM     64  C   UNL A   1      39.230  24.515  27.928  1.00  0.00     0.001 A 
ATOM     65  C   UNL A   1      39.710  24.335  26.632  1.00  0.00     0.000 A 
ENDBRANCH  46  60
BRANCH  47  66
ATOM     66  C   UNL A   1      42.115  34.990  33.300  1.00  0.00    -0.014 A 
ATOM     67  C   UNL A   1      41.404  35.216  34.488  1.00  0.00     0.009 A 
ATOM     68  C   UNL A   1      43.062  35.943  32.889  1.00  0.00     0.009 A 
ATOM     69  C   UNL A   1      41.612  36.383  35.227  1.00  0.00     0.001 A 
ATOM     70  C   UNL A   1      43.299  37.089  33.650  1.00  0.00     0.001 A 
ATOM     71  C   UNL A   1      42.564  37.315  34.812  1.00  0.00     0.000 A 
ENDBRANCH  47  66
BRANCH  59  72
ATOM     72  C   UNL A   1      45.567  29.009  32.438  1.00  0.00    -0.014 A 
ATOM     73  C   UNL A   1      45.654  28.400  33.700  1.00  0.00     0.009 A 
ATOM     74  C   UNL A   1      46.729  29.124  31.658  1.00  0.00     0.009 A 
ATOM     75  C   UNL A   1      46.886  27.954  34.184  1.00  0.00     0.001 A 
ATOM     76  C   UNL A   1      47.951  28.642  32.128  1.00  0.00     0.001 A 
ATOM     77  C   UNL A   1      48.030  28.069  33.397  1.00  0.00     0.000 A 
ENDBRANCH  59  72
ENDBRANCH  33  34
ENDBRANCH  26  28
ENDBRANCH  25  26
ENDBRANCH  24  25
ENDBRANCH  23  24
ENDBRANCH   1  23
TORSDOF 16
ENDMDL
MODEL 2
REMARK VINA RESULT:      -8.8      4.352      9.010
REMARK SMILES C#CCNC(=O)[C@H](C)S(=O)(=O)c1ccc(C(=O)OCCOC(=O)c2ccc(-c3c4nc(c(-c5ccccc5)c5ccc([nH]5)c(-c5ccccc5)c5nc(c(-c6ccccc6)c6ccc3[nH]6)C=C5)C=C4)cc2)cc1F
REMARK SMILES IDX 18 1 16 2 17 3 15 4 12 5 13 6 73 7 14 8 72 9 74 10 9 11
REMARK SMILES IDX 10 12 11 13 7 14 8 15 5 16 4 17 6 19 3 20 2 21 1 22 19 23
REMARK SMILES IDX 20 24 21 25 22 26 23 27 24 28 25 29 71 30 26 31 70 32 27 33
REMARK SMILES IDX 28 34 29 35 64 36 30 37 69 38 63 39 65 40 31 41 68 42 62 43
REMARK SMILES IDX 61 44 32 46 54 47 39 48 53 49 40 50 43 51 52 52 66 53 41 54
REMARK SMILES IDX 42 55 51 57 67 58 44 59 33 60 34 61 38 62 35 63 37 64 36 65
REMARK SMILES IDX 55 66 56 67 60 68 57 69 59 70 58 71 45 72 46 73 50 74 47 75
REMARK SMILES IDX 49 76 48 77
REMARK H PARENT 4 18 65 45 43 56
REMARK Flexibility Score: inf
ROOT
ATOM      1  O   UNL A   1      33.749  33.696  28.635  1.00  0.00    -0.458 OA
ENDROOT
BRANCH   1   2
ATOM      2  C   UNL A   1      34.767  32.878  28.277  1.00  0.00     0.338 C 
ATOM      3  O   UNL A   1      35.958  33.072  28.454  1.00  0.00    -0.246 OA
BRANCH   2   4
ATOM      4  C   UNL A   1      34.240  31.608  27.733  1.00  0.00     0.063 A 
ATOM      5  C   UNL A   1      33.393  29.181  26.670  1.00  0.00     0.103 A 
ATOM      6  C   UNL A   1      34.662  29.277  27.231  1.00  0.00     0.024 A 
ATOM      7  C   UNL A   1      32.534  30.273  26.683  1.00  0.00     0.142 A 
ATOM      8  C   UNL A   1      35.101  30.507  27.685  1.00  0.00     0.017 A 
ATOM      9  C   UNL A   1      32.941  31.486  27.241  1.00  0.00     0.056 A 
ATOM     10  F   UNL A   1      31.314  30.215  26.137  1.00  0.00    -0.206 F 
BRANCH   5  11
ATOM     11  S   UNL A   1      32.945  27.644  25.945  1.00  0.00     0.192 S 
ATOM     12  O   UNL A   1      31.736  27.156  26.581  1.00  0.00    -0.223 OA
ATOM     13  O   UNL A   1      34.135  26.816  26.018  1.00  0.00    -0.223 OA
BRANCH  11  14
ATOM     14  C   UNL A   1      32.556  28.009  24.231  1.00  0.00     0.199 C 
ATOM     15  C   UNL A   1      33.865  28.233  23.456  1.00  0.00     0.036 C 
BRANCH  14  16
ATOM     16  C   UNL A   1      31.735  26.936  23.528  1.00  0.00     0.239 C 
ATOM     17  N   UNL A   1      30.493  27.171  23.015  1.00  0.00    -0.344 N 
ATOM     18  H   UNL A   1      30.189  26.540  22.322  1.00  0.00     0.164 HD
ATOM     19  O   UNL A   1      32.201  25.811  23.320  1.00  0.00    -0.274 OA
BRANCH  17  20
ATOM     20  C   UNL A   1      29.564  28.224  23.353  1.00  0.00     0.206 C 
BRANCH  20  21
ATOM     21  C   UNL A   1      29.493  29.282  22.348  1.00  0.00    -0.085 C 
ATOM     22  C   UNL A   1      29.418  30.251  21.648  1.00  0.00     0.006 C 
ENDBRANCH  20  21
ENDBRANCH  17  20
ENDBRANCH  14  16
ENDBRANCH  11  14
ENDBRANCH   5  11
ENDBRANCH   2   4
ENDBRANCH   1   2
BRANCH   1  23
ATOM     23  C   UNL A   1      34.038  35.108  28.591  1.00  0.00     0.275 C 
BRANCH  23  24
ATOM     24  C   UNL A   1      32.996  35.920  29.365  1.00  0.00     0.275 C 
BRANCH  24  25
ATOM     25  O   UNL A   1      32.464  35.180  30.481  1.00  0.00    -0.458 OA
BRANCH  25  26
ATOM     26  C   UNL A   1      32.702  35.734  31.690  1.00  0.00     0.338 C 
ATOM     27  O   UNL A   1      32.079  36.632  32.232  1.00  0.00    -0.246 OA
BRANCH  26  28
ATOM     28  C   UNL A   1      33.777  35.018  32.390  1.00  0.00     0.060 A 
ATOM     29  C   UNL A   1      35.050  35.557  32.290  1.00  0.00     0.016 A 
ATOM     30  C   UNL A   1      33.605  33.744  32.915  1.00  0.00     0.016 A 
ATOM     31  C   UNL A   1      36.171  34.774  32.526  1.00  0.00     0.010 A 
ATOM     32  C   UNL A   1      34.732  33.017  33.326  1.00  0.00     0.010 A 
ATOM     33  C   UNL A   1      36.035  33.502  33.091  1.00  0.00    -0.014 A 
BRANCH  33  34
ATOM     34  C   UNL A   1      37.252  32.709  33.437  1.00  0.00     0.031 A 
ATOM     35  C   UNL A   1      37.965  32.922  34.750  1.00  0.00     0.074 A 
ATOM     36  C   UNL A   1      37.721  31.782  32.575  1.00  0.00     0.049 A 
ATOM     37  N   UNL A   1      39.115  32.441  35.153  1.00  0.00    -0.248 NA
ATOM     38  C   UNL A   1      37.310  33.801  35.733  1.00  0.00     0.031 C 
ATOM     39  C   UNL A   1      37.111  31.426  31.289  1.00  0.00     0.029 A 
ATOM     40  N   UNL A   1      38.818  30.958  32.649  1.00  0.00    -0.354 N 
ATOM     41  C   UNL A   1      39.345  32.999  36.406  1.00  0.00     0.074 A 
ATOM     42  C   UNL A   1      38.224  33.870  36.689  1.00  0.00     0.031 C 
ATOM     43  C   UNL A   1      37.808  30.431  30.724  1.00  0.00     0.029 A 
ATOM     44  C   UNL A   1      38.981  30.159  31.541  1.00  0.00     0.049 A 
ATOM     45  H   UNL A   1      39.429  30.941  33.420  1.00  0.00     0.167 HD
ATOM     46  C   UNL A   1      40.393  32.806  37.243  1.00  0.00     0.031 A 
ATOM     47  C   UNL A   1      39.986  29.339  31.181  1.00  0.00     0.031 A 
ATOM     48  C   UNL A   1      41.498  31.924  36.964  1.00  0.00     0.049 A 
ATOM     49  C   UNL A   1      41.176  29.213  32.084  1.00  0.00     0.074 A 
ATOM     50  C   UNL A   1      42.601  31.648  37.756  1.00  0.00     0.029 A 
ATOM     51  N   UNL A   1      41.644  31.179  35.805  1.00  0.00    -0.354 N 
ATOM     52  N   UNL A   1      41.385  29.759  33.257  1.00  0.00    -0.248 NA
ATOM     53  C   UNL A   1      42.275  28.361  31.609  1.00  0.00     0.031 C 
ATOM     54  C   UNL A   1      43.448  30.794  37.043  1.00  0.00     0.029 A 
ATOM     55  C   UNL A   1      42.835  30.471  35.843  1.00  0.00     0.049 A 
ATOM     56  H   UNL A   1      40.997  31.156  35.063  1.00  0.00     0.167 HD
ATOM     57  C   UNL A   1      42.625  29.297  33.672  1.00  0.00     0.074 A 
ATOM     58  C   UNL A   1      43.108  28.405  32.638  1.00  0.00     0.031 C 
ATOM     59  C   UNL A   1      43.305  29.587  34.808  1.00  0.00     0.031 A 
BRANCH  46  60
ATOM     60  C   UNL A   1      40.424  33.599  38.525  1.00  0.00    -0.014 A 
ATOM     61  C   UNL A   1      41.015  34.871  38.597  1.00  0.00     0.009 A 
ATOM     62  C   UNL A   1      39.813  33.073  39.676  1.00  0.00     0.009 A 
ATOM     63  C   UNL A   1      41.028  35.577  39.803  1.00  0.00     0.001 A 
ATOM     64  C   UNL A   1      39.796  33.797  40.869  1.00  0.00     0.001 A 
ATOM     65  C   UNL A   1      40.414  35.043  40.936  1.00  0.00     0.000 A 
ENDBRANCH  46  60
BRANCH  47  66
ATOM     66  C   UNL A   1      39.939  28.625  29.875  1.00  0.00    -0.014 A 
ATOM     67  C   UNL A   1      39.450  27.313  29.793  1.00  0.00     0.009 A 
ATOM     68  C   UNL A   1      40.397  29.248  28.702  1.00  0.00     0.009 A 
ATOM     69  C   UNL A   1      39.451  26.630  28.574  1.00  0.00     0.001 A 
ATOM     70  C   UNL A   1      40.358  28.580  27.476  1.00  0.00     0.001 A 
ATOM     71  C   UNL A   1      39.898  27.267  27.416  1.00  0.00     0.000 A 
ENDBRANCH  47  66
BRANCH  59  72
ATOM     72  C   UNL A   1      44.624  28.894  35.014  1.00  0.00    -0.014 A 
ATOM     73  C   UNL A   1      44.705  27.638  35.637  1.00  0.00     0.009 A 
ATOM     74  C   UNL A   1      45.802  29.498  34.548  1.00  0.00     0.009 A 
ATOM     75  C   UNL A   1      45.944  27.023  35.825  1.00  0.00     0.001 A 
ATOM     76  C   UNL A   1      47.035  28.862  34.702  1.00  0.00     0.001 A 
ATOM     77  C   UNL A   1      47.106  27.631  35.352  1.00  0.00     0.000 A 
ENDBRANCH  59  72
ENDBRANCH  33  34
ENDBRANCH  26  28
ENDBRANCH  25  26
ENDBRANCH  24  25
ENDBRANCH  23  24
ENDBRANCH   1  23
TORSDOF 16
ENDMDL
MODEL 3
REMARK VINA RESULT:      -8.7      4.487      7.333
REMARK SMILES C#CCNC(=O)[C@H](C)S(=O)(=O)c1ccc(C(=O)OCCOC(=O)c2ccc(-c3c4nc(c(-c5ccccc5)c5ccc([nH]5)c(-c5ccccc5)c5nc(c(-c6ccccc6)c6ccc3[nH]6)C=C5)C=C4)cc2)cc1F
REMARK SMILES IDX 18 1 16 2 17 3 15 4 12 5 13 6 73 7 14 8 72 9 74 10 9 11
REMARK SMILES IDX 10 12 11 13 7 14 8 15 5 16 4 17 6 19 3 20 2 21 1 22 19 23
REMARK SMILES IDX 20 24 21 25 22 26 23 27 24 28 25 29 71 30 26 31 70 32 27 33
REMARK SMILES IDX 28 34 29 35 64 36 30 37 69 38 63 39 65 40 31 41 68 42 62 43
REMARK SMILES IDX 61 44 32 46 54 47 39 48 53 49 40 50 43 51 52 52 66 53 41 54
REMARK SMILES IDX 42 55 51 57 67 58 44 59 33 60 34 61 38 62 35 63 37 64 36 65
REMARK SMILES IDX 55 66 56 67 60 68 57 69 59 70 58 71 45 72 46 73 50 74 47 75
REMARK SMILES IDX 49 76 48 77
REMARK H PARENT 4 18 65 45 43 56
REMARK Flexibility Score: inf
ROOT
ATOM      1  O   UNL A   1      33.975  33.795  28.045  1.00  0.00    -0.458 OA
ENDROOT
BRANCH   1   2
ATOM      2  C   UNL A   1      34.315  32.618  28.622  1.00  0.00     0.338 C 
ATOM      3  O   UNL A   1      34.840  32.463  29.712  1.00  0.00    -0.246 OA
BRANCH   2   4
ATOM      4  C   UNL A   1      33.843  31.485  27.798  1.00  0.00     0.063 A 
ATOM      5  C   UNL A   1      33.101  29.317  26.219  1.00  0.00     0.103 A 
ATOM      6  C   UNL A   1      34.280  29.259  26.954  1.00  0.00     0.024 A 
ATOM      7  C   UNL A   1      32.272  30.430  26.309  1.00  0.00     0.142 A 
ATOM      8  C   UNL A   1      34.677  30.371  27.673  1.00  0.00     0.017 A 
ATOM      9  C   UNL A   1      32.623  31.509  27.122  1.00  0.00     0.056 A 
ATOM     10  F   UNL A   1      31.140  30.521  25.602  1.00  0.00    -0.206 F 
BRANCH   5  11
ATOM     11  S   UNL A   1      32.726  27.949  25.181  1.00  0.00     0.192 S 
ATOM     12  O   UNL A   1      31.403  27.455  25.511  1.00  0.00    -0.223 OA
ATOM     13  O   UNL A   1      33.848  27.038  25.317  1.00  0.00    -0.223 OA
BRANCH  11  14
ATOM     14  C   UNL A   1      32.668  28.606  23.513  1.00  0.00     0.199 C 
ATOM     15  C   UNL A   1      34.096  28.663  22.945  1.00  0.00     0.036 C 
BRANCH  14  16
ATOM     16  C   UNL A   1      31.780  27.822  22.556  1.00  0.00     0.239 C 
ATOM     17  N   UNL A   1      30.621  28.323  22.039  1.00  0.00    -0.344 N 
ATOM     18  H   UNL A   1      30.299  27.893  21.214  1.00  0.00     0.164 HD
ATOM     19  O   UNL A   1      32.119  26.709  22.140  1.00  0.00    -0.274 OA
BRANCH  17  20
ATOM     20  C   UNL A   1      29.806  29.403  22.544  1.00  0.00     0.206 C 
BRANCH  20  21
ATOM     21  C   UNL A   1      28.431  29.005  22.837  1.00  0.00    -0.085 C 
ATOM     22  C   UNL A   1      27.271  28.836  23.089  1.00  0.00     0.006 C 
ENDBRANCH  20  21
ENDBRANCH  17  20
ENDBRANCH  14  16
ENDBRANCH  11  14
ENDBRANCH   5  11
ENDBRANCH   2   4
ENDBRANCH   1   2
BRANCH   1  23
ATOM     23  C   UNL A   1      34.268  34.977  28.818  1.00  0.00     0.275 C 
BRANCH  23  24
ATOM     24  C   UNL A   1      33.009  35.541  29.483  1.00  0.00     0.275 C 
BRANCH  24  25
ATOM     25  O   UNL A   1      32.683  34.833  30.695  1.00  0.00    -0.458 OA
BRANCH  25  26
ATOM     26  C   UNL A   1      32.993  35.492  31.833  1.00  0.00     0.338 C 
ATOM     27  O   UNL A   1      32.384  36.415  32.347  1.00  0.00    -0.246 OA
BRANCH  26  28
ATOM     28  C   UNL A   1      34.141  34.865  32.502  1.00  0.00     0.060 A 
ATOM     29  C   UNL A   1      35.348  35.542  32.431  1.00  0.00     0.016 A 
ATOM     30  C   UNL A   1      34.107  33.557  32.969  1.00  0.00     0.016 A 
ATOM     31  C   UNL A   1      36.546  34.874  32.635  1.00  0.00     0.010 A 
ATOM     32  C   UNL A   1      35.307  32.937  33.350  1.00  0.00     0.010 A 
ATOM     33  C   UNL A   1      36.550  33.570  33.141  1.00  0.00    -0.014 A 
BRANCH  33  34
ATOM     34  C   UNL A   1      37.846  32.898  33.454  1.00  0.00     0.031 A 
ATOM     35  C   UNL A   1      38.447  31.897  32.499  1.00  0.00     0.074 A 
ATOM     36  C   UNL A   1      38.498  33.191  34.600  1.00  0.00     0.049 A 
ATOM     37  N   UNL A   1      39.476  31.104  32.672  1.00  0.00    -0.248 NA
ATOM     38  C   UNL A   1      37.800  31.755  31.184  1.00  0.00     0.031 C 
ATOM     39  C   UNL A   1      38.068  34.175  35.600  1.00  0.00     0.029 A 
ATOM     40  N   UNL A   1      39.669  32.696  35.120  1.00  0.00    -0.354 N 
ATOM     41  C   UNL A   1      39.566  30.336  31.516  1.00  0.00     0.074 A 
ATOM     42  C   UNL A   1      38.475  30.744  30.656  1.00  0.00     0.031 C 
ATOM     43  C   UNL A   1      38.981  34.245  36.577  1.00  0.00     0.029 A 
ATOM     44  C   UNL A   1      39.997  33.231  36.344  1.00  0.00     0.049 A 
ATOM     45  H   UNL A   1      40.221  32.022  34.661  1.00  0.00     0.167 HD
ATOM     46  C   UNL A   1      40.472  29.379  31.200  1.00  0.00     0.031 A 
ATOM     47  C   UNL A   1      40.968  32.910  37.219  1.00  0.00     0.031 A 
ATOM     48  C   UNL A   1      41.566  28.988  32.053  1.00  0.00     0.049 A 
ATOM     49  C   UNL A   1      41.902  31.786  36.884  1.00  0.00     0.074 A 
ATOM     50  C   UNL A   1      42.547  28.039  31.816  1.00  0.00     0.029 A 
ATOM     51  N   UNL A   1      41.823  29.522  33.306  1.00  0.00    -0.354 N 
ATOM     52  N   UNL A   1      41.964  31.060  35.794  1.00  0.00    -0.248 NA
ATOM     53  C   UNL A   1      42.898  31.431  37.904  1.00  0.00     0.031 C 
ATOM     54  C   UNL A   1      43.351  27.948  32.956  1.00  0.00     0.029 A 
ATOM     55  C   UNL A   1      42.924  28.898  33.870  1.00  0.00     0.049 A 
ATOM     56  H   UNL A   1      41.300  30.239  33.733  1.00  0.00     0.167 HD
ATOM     57  C   UNL A   1      43.020  30.180  35.987  1.00  0.00     0.074 A 
ATOM     58  C   UNL A   1      43.586  30.483  37.285  1.00  0.00     0.031 C 
ATOM     59  C   UNL A   1      43.478  29.208  35.163  1.00  0.00     0.031 A 
BRANCH  46  60
ATOM     60  C   UNL A   1      40.294  28.647  29.895  1.00  0.00    -0.014 A 
ATOM     61  C   UNL A   1      40.871  29.107  28.700  1.00  0.00     0.009 A 
ATOM     62  C   UNL A   1      39.561  27.447  29.871  1.00  0.00     0.009 A 
ATOM     63  C   UNL A   1      40.683  28.405  27.506  1.00  0.00     0.001 A 
ATOM     64  C   UNL A   1      39.406  26.729  28.684  1.00  0.00     0.001 A 
ATOM     65  C   UNL A   1      39.957  27.215  27.500  1.00  0.00     0.000 A 
ENDBRANCH  46  60
BRANCH  47  66
ATOM     66  C   UNL A   1      41.066  33.620  38.524  1.00  0.00    -0.014 A 
ATOM     67  C   UNL A   1      41.862  34.768  38.658  1.00  0.00     0.009 A 
ATOM     68  C   UNL A   1      40.372  33.146  39.650  1.00  0.00     0.009 A 
ATOM     69  C   UNL A   1      41.986  35.404  39.895  1.00  0.00     0.001 A 
ATOM     70  C   UNL A   1      40.464  33.807  40.876  1.00  0.00     0.001 A 
ATOM     71  C   UNL A   1      41.282  34.928  41.001  1.00  0.00     0.000 A 
ENDBRANCH  47  66
BRANCH  59  72
ATOM     72  C   UNL A   1      44.683  28.432  35.621  1.00  0.00    -0.014 A 
ATOM     73  C   UNL A   1      45.988  28.868  35.342  1.00  0.00     0.009 A 
ATOM     74  C   UNL A   1      44.504  27.259  36.372  1.00  0.00     0.009 A 
ATOM     75  C   UNL A   1      47.087  28.122  35.771  1.00  0.00     0.001 A 
ATOM     76  C   UNL A   1      45.606  26.536  36.832  1.00  0.00     0.001 A 
ATOM     77  C   UNL A   1      46.896  26.962  36.520  1.00  0.00     0.000 A 
ENDBRANCH  59  72
ENDBRANCH  33  34
ENDBRANCH  26  28
ENDBRANCH  25  26
ENDBRANCH  24  25
ENDBRANCH  23  24
ENDBRANCH   1  23
TORSDOF 16
ENDMDL
