MODEL 1
REMARK VINA RESULT:     -10.2      0.000      0.000
REMARK SMILES O=C(CSc1nc2ccc(Cl)cc2c(=O)n1CC1CCCCC1)OCCOC(=O)c1ccc(-c2c3nc(c(-c4ccccc4)c4ccc([nH]4)c(-c4ccccc4)c4nc(c(-c5ccccc5)c5ccc2[nH]5)C=C4)C=C3)cc1
REMARK SMILES IDX 25 1 24 2 2 3 1 4 3 5 4 6 5 7 6 8 16 9 7 10 14 11 8 12 13 13
REMARK SMILES IDX 15 14 9 15 12 16 10 17 11 18 17 19 18 20 19 21 23 22 20 23
REMARK SMILES IDX 22 24 21 25 26 26 27 27 28 28 29 29 30 30 31 31 77 32 32 33
REMARK SMILES IDX 76 34 33 35 34 36 35 37 70 38 36 39 75 40 69 41 71 42 37 43
REMARK SMILES IDX 74 44 68 45 67 46 38 48 60 49 45 50 59 51 46 52 49 53 58 54
REMARK SMILES IDX 72 55 47 56 48 57 57 59 73 60 50 61 39 62 40 63 44 64 41 65
REMARK SMILES IDX 43 66 42 67 61 68 62 69 66 70 63 71 65 72 64 73 51 74 52 75
REMARK SMILES IDX 56 76 53 77 55 78 54 79
REMARK H PARENT 71 47 49 58
REMARK Flexibility Score: inf
ROOT
ATOM      1  C   UNL A   1      35.927  21.506  24.688  1.00  0.00     0.274 C 
ENDROOT
BRANCH   1   2
ATOM      2  O   UNL A   1      35.544  21.222  26.054  1.00  0.00    -0.461 OA
BRANCH   2   3
ATOM      3  C   UNL A   1      34.308  21.453  26.565  1.00  0.00     0.316 C 
ATOM      4  O   UNL A   1      33.419  20.614  26.440  1.00  0.00    -0.251 OA
BRANCH   3   5
ATOM      5  C   UNL A   1      34.023  22.830  27.099  1.00  0.00     0.200 C 
BRANCH   5   6
ATOM      6  S   UNL A   1      32.379  23.464  26.824  1.00  0.00    -0.076 SA
BRANCH   6   7
ATOM      7  C   UNL A   1      32.508  24.322  25.308  1.00  0.00     0.171 A 
ATOM      8  N   UNL A   1      32.893  23.584  24.319  1.00  0.00    -0.224 NA
ATOM      9  N   UNL A   1      32.024  25.617  25.185  1.00  0.00    -0.287 N 
ATOM     10  C   UNL A   1      32.817  24.108  23.031  1.00  0.00     0.079 A 
ATOM     11  C   UNL A   1      31.604  26.026  23.922  1.00  0.00     0.262 A 
ATOM     12  C   UNL A   1      33.339  23.382  21.959  1.00  0.00     0.031 A 
ATOM     13  C   UNL A   1      32.145  25.296  22.770  1.00  0.00     0.067 A 
ATOM     14  O   UNL A   1      30.778  26.913  23.718  1.00  0.00    -0.269 OA
ATOM     15  C   UNL A   1      33.181  23.844  20.649  1.00  0.00     0.023 A 
ATOM     16  C   UNL A   1      31.972  25.771  21.467  1.00  0.00     0.036 A 
ATOM     17  C   UNL A   1      32.494  25.036  20.410  1.00  0.00     0.042 A 
ATOM     18  Cl  UNL A   1      32.284  25.592  18.797  1.00  0.00    -0.084 Cl
BRANCH   9  19
ATOM     19  C   UNL A   1      31.688  26.518  26.297  1.00  0.00     0.131 C 
BRANCH  19  20
ATOM     20  C   UNL A   1      32.425  27.892  26.329  1.00  0.00     0.009 C 
ATOM     21  C   UNL A   1      31.775  28.936  27.250  1.00  0.00     0.005 C 
ATOM     22  C   UNL A   1      33.927  27.787  26.634  1.00  0.00     0.005 C 
ATOM     23  C   UNL A   1      32.486  30.289  27.169  1.00  0.00     0.000 C 
ATOM     24  C   UNL A   1      34.627  29.139  26.520  1.00  0.00     0.000 C 
ATOM     25  C   UNL A   1      33.981  30.168  27.440  1.00  0.00     0.000 C 
ENDBRANCH  19  20
ENDBRANCH   9  19
ENDBRANCH   6   7
ENDBRANCH   5   6
ENDBRANCH   3   5
ENDBRANCH   2   3
ENDBRANCH   1   2
BRANCH   1  26
ATOM     26  C   UNL A   1      37.191  22.372  24.618  1.00  0.00     0.275 C 
BRANCH  26  27
ATOM     27  O   UNL A   1      37.540  22.880  25.922  1.00  0.00    -0.458 OA
BRANCH  27  28
ATOM     28  C   UNL A   1      38.850  22.842  26.268  1.00  0.00     0.338 C 
ATOM     29  O   UNL A   1      39.638  21.946  26.017  1.00  0.00    -0.246 OA
BRANCH  28  30
ATOM     30  C   UNL A   1      39.263  24.172  26.798  1.00  0.00     0.060 A 
ATOM     31  C   UNL A   1      40.061  25.059  26.066  1.00  0.00     0.016 A 
ATOM     32  C   UNL A   1      38.908  24.489  28.117  1.00  0.00     0.016 A 
ATOM     33  C   UNL A   1      40.521  26.242  26.659  1.00  0.00     0.010 A 
ATOM     34  C   UNL A   1      39.380  25.663  28.712  1.00  0.00     0.010 A 
ATOM     35  C   UNL A   1      40.198  26.544  27.990  1.00  0.00    -0.014 A 
BRANCH  35  36
ATOM     36  C   UNL A   1      40.618  27.830  28.599  1.00  0.00     0.031 A 
ATOM     37  C   UNL A   1      41.999  28.033  29.148  1.00  0.00     0.074 A 
ATOM     38  C   UNL A   1      39.709  28.819  28.697  1.00  0.00     0.049 A 
ATOM     39  N   UNL A   1      42.506  29.093  29.726  1.00  0.00    -0.248 NA
ATOM     40  C   UNL A   1      42.928  26.900  29.052  1.00  0.00     0.031 C 
ATOM     41  C   UNL A   1      38.327  28.734  28.226  1.00  0.00     0.029 A 
ATOM     42  N   UNL A   1      39.809  30.076  29.237  1.00  0.00    -0.354 N 
ATOM     43  C   UNL A   1      43.809  28.755  30.069  1.00  0.00     0.074 A 
ATOM     44  C   UNL A   1      44.004  27.377  29.669  1.00  0.00     0.031 C 
ATOM     45  C   UNL A   1      37.702  29.888  28.508  1.00  0.00     0.029 A 
ATOM     46  C   UNL A   1      38.636  30.786  29.187  1.00  0.00     0.049 A 
ATOM     47  H   UNL A   1      40.641  30.434  29.623  1.00  0.00     0.167 HD
ATOM     48  C   UNL A   1      44.756  29.534  30.645  1.00  0.00     0.031 A 
ATOM     49  C   UNL A   1      38.336  32.020  29.634  1.00  0.00     0.031 A 
ATOM     50  C   UNL A   1      44.567  30.916  31.010  1.00  0.00     0.049 A 
ATOM     51  C   UNL A   1      39.407  32.868  30.258  1.00  0.00     0.074 A 
ATOM     52  C   UNL A   1      45.508  31.806  31.502  1.00  0.00     0.029 A 
ATOM     53  N   UNL A   1      43.368  31.604  30.930  1.00  0.00    -0.354 N 
ATOM     54  N   UNL A   1      40.661  32.566  30.488  1.00  0.00    -0.248 NA
ATOM     55  C   UNL A   1      39.032  34.232  30.660  1.00  0.00     0.031 C 
ATOM     56  C   UNL A   1      44.866  33.014  31.777  1.00  0.00     0.029 A 
ATOM     57  C   UNL A   1      43.540  32.898  31.394  1.00  0.00     0.049 A 
ATOM     58  H   UNL A   1      42.521  31.231  30.595  1.00  0.00     0.167 HD
ATOM     59  C   UNL A   1      41.229  33.707  31.040  1.00  0.00     0.074 A 
ATOM     60  C   UNL A   1      40.189  34.711  31.099  1.00  0.00     0.031 C 
ATOM     61  C   UNL A   1      42.504  33.896  31.459  1.00  0.00     0.031 A 
BRANCH  48  62
ATOM     62  C   UNL A   1      46.120  28.951  30.899  1.00  0.00    -0.014 A 
ATOM     63  C   UNL A   1      46.426  28.424  32.165  1.00  0.00     0.009 A 
ATOM     64  C   UNL A   1      47.147  29.084  29.952  1.00  0.00     0.009 A 
ATOM     65  C   UNL A   1      47.738  28.069  32.488  1.00  0.00     0.001 A 
ATOM     66  C   UNL A   1      48.453  28.705  30.270  1.00  0.00     0.001 A 
ATOM     67  C   UNL A   1      48.751  28.211  31.541  1.00  0.00     0.000 A 
ENDBRANCH  48  62
BRANCH  49  68
ATOM     68  C   UNL A   1      36.952  32.527  29.462  1.00  0.00    -0.014 A 
ATOM     69  C   UNL A   1      35.989  32.310  30.463  1.00  0.00     0.009 A 
ATOM     70  C   UNL A   1      36.568  33.162  28.273  1.00  0.00     0.009 A 
ATOM     71  C   UNL A   1      34.664  32.701  30.265  1.00  0.00     0.001 A 
ATOM     72  C   UNL A   1      35.247  33.576  28.090  1.00  0.00     0.001 A 
ATOM     73  C   UNL A   1      34.295  33.338  29.081  1.00  0.00     0.000 A 
ENDBRANCH  49  68
BRANCH  61  74
ATOM     74  C   UNL A   1      42.875  35.240  32.021  1.00  0.00    -0.014 A 
ATOM     75  C   UNL A   1      43.517  36.186  31.205  1.00  0.00     0.009 A 
ATOM     76  C   UNL A   1      42.702  35.525  33.383  1.00  0.00     0.009 A 
ATOM     77  C   UNL A   1      43.996  37.380  31.745  1.00  0.00     0.001 A 
ATOM     78  C   UNL A   1      43.158  36.733  33.915  1.00  0.00     0.001 A 
ATOM     79  C   UNL A   1      43.814  37.654  33.099  1.00  0.00     0.000 A 
ENDBRANCH  61  74
ENDBRANCH  35  36
ENDBRANCH  28  30
ENDBRANCH  27  28
ENDBRANCH  26  27
ENDBRANCH   1  26
TORSDOF 15
ENDMDL
MODEL 2
REMARK VINA RESULT:     -10.1      3.619      5.133
REMARK SMILES O=C(CSc1nc2ccc(Cl)cc2c(=O)n1CC1CCCCC1)OCCOC(=O)c1ccc(-c2c3nc(c(-c4ccccc4)c4ccc([nH]4)c(-c4ccccc4)c4nc(c(-c5ccccc5)c5ccc2[nH]5)C=C4)C=C3)cc1
REMARK SMILES IDX 25 1 24 2 2 3 1 4 3 5 4 6 5 7 6 8 16 9 7 10 14 11 8 12 13 13
REMARK SMILES IDX 15 14 9 15 12 16 10 17 11 18 17 19 18 20 19 21 23 22 20 23
REMARK SMILES IDX 22 24 21 25 26 26 27 27 28 28 29 29 30 30 31 31 77 32 32 33
REMARK SMILES IDX 76 34 33 35 34 36 35 37 70 38 36 39 75 40 69 41 71 42 37 43
REMARK SMILES IDX 74 44 68 45 67 46 38 48 60 49 45 50 59 51 46 52 49 53 58 54
REMARK SMILES IDX 72 55 47 56 48 57 57 59 73 60 50 61 39 62 40 63 44 64 41 65
REMARK SMILES IDX 43 66 42 67 61 68 62 69 66 70 63 71 65 72 64 73 51 74 52 75
REMARK SMILES IDX 56 76 53 77 55 78 54 79
REMARK H PARENT 71 47 49 58
REMARK Flexibility Score: inf
ROOT
ATOM      1  C   UNL A   1      42.707  21.127  26.143  1.00  0.00     0.274 C 
ENDROOT
BRANCH   1   2
ATOM      2  O   UNL A   1      41.426  21.565  25.634  1.00  0.00    -0.461 OA
BRANCH   2   3
ATOM      3  C   UNL A   1      40.323  21.757  26.402  1.00  0.00     0.316 C 
ATOM      4  O   UNL A   1      40.438  22.043  27.592  1.00  0.00    -0.251 OA
BRANCH   3   5
ATOM      5  C   UNL A   1      38.989  21.413  25.799  1.00  0.00     0.200 C 
BRANCH   5   6
ATOM      6  S   UNL A   1      37.757  22.702  25.807  1.00  0.00    -0.076 SA
BRANCH   6   7
ATOM      7  C   UNL A   1      36.274  21.868  25.414  1.00  0.00     0.171 A 
ATOM      8  N   UNL A   1      36.442  20.633  25.070  1.00  0.00    -0.224 NA
ATOM      9  N   UNL A   1      35.043  22.454  25.674  1.00  0.00    -0.287 N 
ATOM     10  C   UNL A   1      35.319  19.818  24.951  1.00  0.00     0.079 A 
ATOM     11  C   UNL A   1      33.966  21.603  25.914  1.00  0.00     0.262 A 
ATOM     12  C   UNL A   1      35.459  18.518  24.462  1.00  0.00     0.031 A 
ATOM     13  C   UNL A   1      34.071  20.233  25.400  1.00  0.00     0.067 A 
ATOM     14  O   UNL A   1      32.972  21.909  26.568  1.00  0.00    -0.269 OA
ATOM     15  C   UNL A   1      34.361  17.652  24.432  1.00  0.00     0.023 A 
ATOM     16  C   UNL A   1      32.964  19.380  25.383  1.00  0.00     0.036 A 
ATOM     17  C   UNL A   1      33.119  18.088  24.897  1.00  0.00     0.042 A 
ATOM     18  Cl  UNL A   1      31.775  17.016  24.878  1.00  0.00    -0.084 Cl
BRANCH   9  19
ATOM     19  C   UNL A   1      34.811  23.878  25.955  1.00  0.00     0.131 C 
BRANCH  19  20
ATOM     20  C   UNL A   1      34.479  24.786  24.733  1.00  0.00     0.009 C 
ATOM     21  C   UNL A   1      33.547  24.138  23.698  1.00  0.00     0.005 C 
ATOM     22  C   UNL A   1      33.951  26.178  25.114  1.00  0.00     0.005 C 
ATOM     23  C   UNL A   1      33.333  25.038  22.479  1.00  0.00     0.000 C 
ATOM     24  C   UNL A   1      33.771  27.073  23.890  1.00  0.00     0.000 C 
ATOM     25  C   UNL A   1      32.841  26.426  22.871  1.00  0.00     0.000 C 
ENDBRANCH  19  20
ENDBRANCH   9  19
ENDBRANCH   6   7
ENDBRANCH   5   6
ENDBRANCH   3   5
ENDBRANCH   2   3
ENDBRANCH   1   2
BRANCH   1  26
ATOM     26  C   UNL A   1      43.871  21.867  25.472  1.00  0.00     0.275 C 
BRANCH  26  27
ATOM     27  O   UNL A   1      43.440  23.145  24.958  1.00  0.00    -0.458 OA
BRANCH  27  28
ATOM     28  C   UNL A   1      44.285  24.192  25.123  1.00  0.00     0.338 C 
ATOM     29  O   UNL A   1      45.218  24.489  24.396  1.00  0.00    -0.246 OA
BRANCH  28  30
ATOM     30  C   UNL A   1      43.768  25.083  26.199  1.00  0.00     0.060 A 
ATOM     31  C   UNL A   1      44.350  26.321  26.496  1.00  0.00     0.016 A 
ATOM     32  C   UNL A   1      42.718  24.604  26.996  1.00  0.00     0.016 A 
ATOM     33  C   UNL A   1      43.900  27.062  27.597  1.00  0.00     0.010 A 
ATOM     34  C   UNL A   1      42.281  25.338  28.103  1.00  0.00     0.010 A 
ATOM     35  C   UNL A   1      42.875  26.568  28.417  1.00  0.00    -0.014 A 
BRANCH  35  36
ATOM     36  C   UNL A   1      42.344  27.381  29.538  1.00  0.00     0.031 A 
ATOM     37  C   UNL A   1      42.978  27.367  30.898  1.00  0.00     0.074 A 
ATOM     38  C   UNL A   1      41.232  28.111  29.328  1.00  0.00     0.049 A 
ATOM     39  N   UNL A   1      42.616  28.010  31.980  1.00  0.00    -0.248 NA
ATOM     40  C   UNL A   1      44.160  26.514  31.074  1.00  0.00     0.031 C 
ATOM     41  C   UNL A   1      40.508  28.187  28.060  1.00  0.00     0.029 A 
ATOM     42  N   UNL A   1      40.515  28.914  30.179  1.00  0.00    -0.354 N 
ATOM     43  C   UNL A   1      43.519  27.634  32.967  1.00  0.00     0.074 A 
ATOM     44  C   UNL A   1      44.424  26.678  32.366  1.00  0.00     0.031 C 
ATOM     45  C   UNL A   1      39.439  28.983  28.218  1.00  0.00     0.029 A 
ATOM     46  C   UNL A   1      39.399  29.464  29.598  1.00  0.00     0.049 A 
ATOM     47  H   UNL A   1      40.774  29.078  31.115  1.00  0.00     0.167 HD
ATOM     48  C   UNL A   1      43.593  28.069  34.248  1.00  0.00     0.031 A 
ATOM     49  C   UNL A   1      38.448  30.267  30.111  1.00  0.00     0.031 A 
ATOM     50  C   UNL A   1      42.709  29.047  34.832  1.00  0.00     0.049 A 
ATOM     51  C   UNL A   1      38.559  30.744  31.531  1.00  0.00     0.074 A 
ATOM     52  C   UNL A   1      42.781  29.619  36.092  1.00  0.00     0.029 A 
ATOM     53  N   UNL A   1      41.600  29.593  34.208  1.00  0.00    -0.354 N 
ATOM     54  N   UNL A   1      39.474  30.454  32.423  1.00  0.00    -0.248 NA
ATOM     55  C   UNL A   1      37.526  31.675  32.008  1.00  0.00     0.031 C 
ATOM     56  C   UNL A   1      41.683  30.464  36.253  1.00  0.00     0.029 A 
ATOM     57  C   UNL A   1      40.963  30.470  35.069  1.00  0.00     0.049 A 
ATOM     58  H   UNL A   1      41.308  29.387  33.290  1.00  0.00     0.167 HD
ATOM     59  C   UNL A   1      39.140  31.183  33.557  1.00  0.00     0.074 A 
ATOM     60  C   UNL A   1      37.947  31.938  33.239  1.00  0.00     0.031 C 
ATOM     61  C   UNL A   1      39.773  31.217  34.755  1.00  0.00     0.031 A 
BRANCH  48  62
ATOM     62  C   UNL A   1      44.686  27.534  35.134  1.00  0.00    -0.014 A 
ATOM     63  C   UNL A   1      44.428  26.435  35.971  1.00  0.00     0.009 A 
ATOM     64  C   UNL A   1      45.901  28.222  35.271  1.00  0.00     0.009 A 
ATOM     65  C   UNL A   1      45.352  26.053  36.946  1.00  0.00     0.001 A 
ATOM     66  C   UNL A   1      46.834  27.821  36.231  1.00  0.00     0.001 A 
ATOM     67  C   UNL A   1      46.554  26.747  37.076  1.00  0.00     0.000 A 
ENDBRANCH  48  62
BRANCH  49  68
ATOM     68  C   UNL A   1      37.324  30.692  29.240  1.00  0.00    -0.014 A 
ATOM     69  C   UNL A   1      37.239  32.021  28.792  1.00  0.00     0.009 A 
ATOM     70  C   UNL A   1      36.297  29.796  28.914  1.00  0.00     0.009 A 
ATOM     71  C   UNL A   1      36.136  32.448  28.052  1.00  0.00     0.001 A 
ATOM     72  C   UNL A   1      35.207  30.220  28.151  1.00  0.00     0.001 A 
ATOM     73  C   UNL A   1      35.123  31.547  27.728  1.00  0.00     0.000 A 
ENDBRANCH  49  68
BRANCH  61  74
ATOM     74  C   UNL A   1      39.208  32.101  35.832  1.00  0.00    -0.014 A 
ATOM     75  C   UNL A   1      38.242  31.593  36.717  1.00  0.00     0.009 A 
ATOM     76  C   UNL A   1      39.538  33.462  35.896  1.00  0.00     0.009 A 
ATOM     77  C   UNL A   1      37.603  32.434  37.629  1.00  0.00     0.001 A 
ATOM     78  C   UNL A   1      38.917  34.296  36.828  1.00  0.00     0.001 A 
ATOM     79  C   UNL A   1      37.943  33.785  37.685  1.00  0.00     0.000 A 
ENDBRANCH  61  74
ENDBRANCH  35  36
ENDBRANCH  28  30
ENDBRANCH  27  28
ENDBRANCH  26  27
ENDBRANCH   1  26
TORSDOF 15
ENDMDL
MODEL 3
REMARK VINA RESULT:     -10.0      3.304      7.665
REMARK SMILES O=C(CSc1nc2ccc(Cl)cc2c(=O)n1CC1CCCCC1)OCCOC(=O)c1ccc(-c2c3nc(c(-c4ccccc4)c4ccc([nH]4)c(-c4ccccc4)c4nc(c(-c5ccccc5)c5ccc2[nH]5)C=C4)C=C3)cc1
REMARK SMILES IDX 25 1 24 2 2 3 1 4 3 5 4 6 5 7 6 8 16 9 7 10 14 11 8 12 13 13
REMARK SMILES IDX 15 14 9 15 12 16 10 17 11 18 17 19 18 20 19 21 23 22 20 23
REMARK SMILES IDX 22 24 21 25 26 26 27 27 28 28 29 29 30 30 31 31 77 32 32 33
REMARK SMILES IDX 76 34 33 35 34 36 35 37 70 38 36 39 75 40 69 41 71 42 37 43
REMARK SMILES IDX 74 44 68 45 67 46 38 48 60 49 45 50 59 51 46 52 49 53 58 54
REMARK SMILES IDX 72 55 47 56 48 57 57 59 73 60 50 61 39 62 40 63 44 64 41 65
REMARK SMILES IDX 43 66 42 67 61 68 62 69 66 70 63 71 65 72 64 73 51 74 52 75
REMARK SMILES IDX 56 76 53 77 55 78 54 79
REMARK H PARENT 71 47 49 58
REMARK Flexibility Score: inf
ROOT
ATOM      1  C   UNL A   1      38.750  20.816  25.408  1.00  0.00     0.274 C 
ENDROOT
BRANCH   1   2
ATOM      2  O   UNL A   1      38.904  22.013  26.206  1.00  0.00    -0.461 OA
BRANCH   2   3
ATOM      3  C   UNL A   1      38.164  23.139  26.045  1.00  0.00     0.316 C 
ATOM      4  O   UNL A   1      38.182  24.021  26.901  1.00  0.00    -0.251 OA
BRANCH   3   5
ATOM      5  C   UNL A   1      37.188  23.171  24.900  1.00  0.00     0.200 C 
BRANCH   5   6
ATOM      6  S   UNL A   1      35.499  23.572  25.307  1.00  0.00    -0.076 SA
BRANCH   6   7
ATOM      7  C   UNL A   1      34.614  22.122  24.900  1.00  0.00     0.171 A 
ATOM      8  N   UNL A   1      35.341  21.054  24.874  1.00  0.00    -0.224 NA
ATOM      9  N   UNL A   1      33.227  22.135  24.835  1.00  0.00    -0.287 N 
ATOM     10  C   UNL A   1      34.703  19.819  24.780  1.00  0.00     0.079 A 
ATOM     11  C   UNL A   1      32.562  20.941  25.101  1.00  0.00     0.262 A 
ATOM     12  C   UNL A   1      35.465  18.660  24.626  1.00  0.00     0.031 A 
ATOM     13  C   UNL A   1      33.327  19.700  24.934  1.00  0.00     0.067 A 
ATOM     14  O   UNL A   1      31.408  20.866  25.514  1.00  0.00    -0.269 OA
ATOM     15  C   UNL A   1      34.850  17.404  24.631  1.00  0.00     0.023 A 
ATOM     16  C   UNL A   1      32.696  18.453  24.948  1.00  0.00     0.036 A 
ATOM     17  C   UNL A   1      33.467  17.308  24.797  1.00  0.00     0.042 A 
ATOM     18  Cl  UNL A   1      32.715  15.762  24.824  1.00  0.00    -0.084 Cl
BRANCH   9  19
ATOM     19  C   UNL A   1      32.382  23.335  24.748  1.00  0.00     0.131 C 
BRANCH  19  20
ATOM     20  C   UNL A   1      32.873  24.468  23.797  1.00  0.00     0.009 C 
ATOM     21  C   UNL A   1      32.180  24.487  22.426  1.00  0.00     0.005 C 
ATOM     22  C   UNL A   1      32.833  25.870  24.424  1.00  0.00     0.005 C 
ATOM     23  C   UNL A   1      32.768  25.558  21.504  1.00  0.00     0.000 C 
ATOM     24  C   UNL A   1      33.450  26.922  23.504  1.00  0.00     0.000 C 
ATOM     25  C   UNL A   1      32.753  26.939  22.149  1.00  0.00     0.000 C 
ENDBRANCH  19  20
ENDBRANCH   9  19
ENDBRANCH   6   7
ENDBRANCH   5   6
ENDBRANCH   3   5
ENDBRANCH   2   3
ENDBRANCH   1   2
BRANCH   1  26
ATOM     26  C   UNL A   1      39.483  19.620  26.027  1.00  0.00     0.275 C 
BRANCH  26  27
ATOM     27  O   UNL A   1      40.695  19.327  25.300  1.00  0.00    -0.458 OA
BRANCH  27  28
ATOM     28  C   UNL A   1      41.832  19.191  26.026  1.00  0.00     0.338 C 
ATOM     29  O   UNL A   1      42.482  18.169  26.165  1.00  0.00    -0.246 OA
BRANCH  28  30
ATOM     30  C   UNL A   1      42.317  20.536  26.445  1.00  0.00     0.060 A 
ATOM     31  C   UNL A   1      42.355  20.938  27.786  1.00  0.00     0.016 A 
ATOM     32  C   UNL A   1      42.654  21.452  25.439  1.00  0.00     0.016 A 
ATOM     33  C   UNL A   1      42.703  22.255  28.113  1.00  0.00     0.010 A 
ATOM     34  C   UNL A   1      42.987  22.770  25.767  1.00  0.00     0.010 A 
ATOM     35  C   UNL A   1      43.005  23.184  27.106  1.00  0.00    -0.014 A 
BRANCH  35  36
ATOM     36  C   UNL A   1      43.448  24.557  27.450  1.00  0.00     0.031 A 
ATOM     37  C   UNL A   1      42.478  25.619  27.877  1.00  0.00     0.074 A 
ATOM     38  C   UNL A   1      44.754  24.858  27.325  1.00  0.00     0.049 A 
ATOM     39  N   UNL A   1      42.713  26.868  28.191  1.00  0.00    -0.248 NA
ATOM     40  C   UNL A   1      41.061  25.240  27.947  1.00  0.00     0.031 C 
ATOM     41  C   UNL A   1      45.791  23.922  26.893  1.00  0.00     0.029 A 
ATOM     42  N   UNL A   1      45.425  26.036  27.536  1.00  0.00    -0.354 N 
ATOM     43  C   UNL A   1      41.476  27.427  28.489  1.00  0.00     0.074 A 
ATOM     44  C   UNL A   1      40.487  26.390  28.282  1.00  0.00     0.031 C 
ATOM     45  C   UNL A   1      46.968  24.565  26.859  1.00  0.00     0.029 A 
ATOM     46  C   UNL A   1      46.767  25.957  27.256  1.00  0.00     0.049 A 
ATOM     47  H   UNL A   1      44.988  26.858  27.856  1.00  0.00     0.167 HD
ATOM     48  C   UNL A   1      41.202  28.683  28.917  1.00  0.00     0.031 A 
ATOM     49  C   UNL A   1      47.732  26.894  27.311  1.00  0.00     0.031 A 
ATOM     50  C   UNL A   1      42.195  29.700  29.154  1.00  0.00     0.049 A 
ATOM     51  C   UNL A   1      47.404  28.276  27.800  1.00  0.00     0.074 A 
ATOM     52  C   UNL A   1      42.010  30.966  29.688  1.00  0.00     0.029 A 
ATOM     53  N   UNL A   1      43.545  29.578  28.873  1.00  0.00    -0.354 N 
ATOM     54  N   UNL A   1      46.244  28.760  28.170  1.00  0.00    -0.248 NA
ATOM     55  C   UNL A   1      48.517  29.231  27.904  1.00  0.00     0.031 C 
ATOM     56  C   UNL A   1      43.237  31.631  29.673  1.00  0.00     0.029 A 
ATOM     57  C   UNL A   1      44.198  30.757  29.193  1.00  0.00     0.049 A 
ATOM     58  H   UNL A   1      43.976  28.775  28.501  1.00  0.00     0.167 HD
ATOM     59  C   UNL A   1      46.490  30.067  28.570  1.00  0.00     0.074 A 
ATOM     60  C   UNL A   1      47.910  30.297  28.411  1.00  0.00     0.031 C 
ATOM     61  C   UNL A   1      45.610  30.989  29.029  1.00  0.00     0.031 A 
BRANCH  48  62
ATOM     62  C   UNL A   1      39.772  29.055  29.205  1.00  0.00    -0.014 A 
ATOM     63  C   UNL A   1      39.209  28.739  30.452  1.00  0.00     0.009 A 
ATOM     64  C   UNL A   1      38.941  29.552  28.190  1.00  0.00     0.009 A 
ATOM     65  C   UNL A   1      37.837  28.885  30.669  1.00  0.00     0.001 A 
ATOM     66  C   UNL A   1      37.573  29.720  28.418  1.00  0.00     0.001 A 
ATOM     67  C   UNL A   1      37.019  29.374  29.651  1.00  0.00     0.000 A 
ENDBRANCH  48  62
BRANCH  49  68
ATOM     68  C   UNL A   1      49.114  26.522  26.919  1.00  0.00    -0.014 A 
ATOM     69  C   UNL A   1      49.544  26.693  25.592  1.00  0.00     0.009 A 
ATOM     70  C   UNL A   1      49.982  25.929  27.845  1.00  0.00     0.009 A 
ATOM     71  C   UNL A   1      50.809  26.257  25.197  1.00  0.00     0.001 A 
ATOM     72  C   UNL A   1      51.258  25.518  27.453  1.00  0.00     0.001 A 
ATOM     73  C   UNL A   1      51.667  25.674  26.128  1.00  0.00     0.000 A 
ENDBRANCH  49  68
BRANCH  61  74
ATOM     74  C   UNL A   1      46.134  32.347  29.406  1.00  0.00    -0.014 A 
ATOM     75  C   UNL A   1      46.523  32.602  30.731  1.00  0.00     0.009 A 
ATOM     76  C   UNL A   1      46.129  33.403  28.484  1.00  0.00     0.009 A 
ATOM     77  C   UNL A   1      46.876  33.892  31.131  1.00  0.00     0.001 A 
ATOM     78  C   UNL A   1      46.509  34.688  28.880  1.00  0.00     0.001 A 
ATOM     79  C   UNL A   1      46.871  34.933  30.204  1.00  0.00     0.000 A 
ENDBRANCH  61  74
ENDBRANCH  35  36
ENDBRANCH  28  30
ENDBRANCH  27  28
ENDBRANCH  26  27
ENDBRANCH   1  26
TORSDOF 15
ENDMDL
