MODEL 1
REMARK VINA RESULT:     -10.1      0.000      0.000
REMARK SMILES CC1(C)[C@H](C(=O)OCCOC(=O)c2ccc(-c3c4nc(c(-c5ccccc5)c5ccc([nH]5)c(-c5ccccc5)c5nc(c(-c6ccccc6)c6ccc3[nH]6)C=C5)C=C4)cc2)[C@@H]1C(=O)Nc1ccc(Cl)c(Br)c1
REMARK SMILES IDX 8 1 7 2 5 3 6 4 4 5 1 6 2 7 3 8 61 9 62 10 63 11 64 12 65 14
REMARK SMILES IDX 66 15 72 16 67 17 70 18 68 19 71 20 69 21 9 22 10 23 11 24
REMARK SMILES IDX 12 25 13 26 14 27 60 28 15 29 59 30 16 31 17 32 18 33 53 34
REMARK SMILES IDX 19 35 58 36 52 37 54 38 20 39 57 40 51 41 50 42 21 44 43 45
REMARK SMILES IDX 28 46 42 47 29 48 32 49 41 50 55 51 30 52 31 53 40 55 56 56
REMARK SMILES IDX 33 57 22 58 23 59 27 60 24 61 26 62 25 63 44 64 45 65 49 66
REMARK SMILES IDX 46 67 48 68 47 69 34 70 35 71 39 72 36 73 38 74 37 75
REMARK H PARENT 64 13 54 43 32 54
REMARK Flexibility Score: inf
ROOT
ATOM      1  C   UNL A   1      33.944  33.520  28.278  1.00  0.00     0.274 C 
ENDROOT
BRANCH   1   2
ATOM      2  O   UNL A   1      33.394  33.969  29.533  1.00  0.00    -0.462 OA
BRANCH   2   3
ATOM      3  C   UNL A   1      33.159  35.305  29.596  1.00  0.00     0.310 C 
ATOM      4  O   UNL A   1      32.408  35.907  28.849  1.00  0.00    -0.252 OA
BRANCH   3   5
ATOM      5  C   UNL A   1      33.816  36.039  30.706  1.00  0.00     0.118 C 
ATOM      6  C   UNL A   1      33.486  37.778  32.527  1.00  0.00     0.013 C 
ATOM      7  C   UNL A   1      33.250  36.355  32.068  1.00  0.00    -0.009 C 
ATOM      8  C   UNL A   1      31.906  35.823  32.500  1.00  0.00     0.013 C 
ATOM      9  C   UNL A   1      34.456  35.405  31.918  1.00  0.00     0.100 C 
BRANCH   9  10
ATOM     10  C   UNL A   1      34.358  33.970  32.278  1.00  0.00     0.228 C 
ATOM     11  O   UNL A   1      33.334  33.560  32.818  1.00  0.00    -0.274 OA
ATOM     12  N   UNL A   1      35.371  33.086  31.997  1.00  0.00    -0.326 N 
ATOM     13  H   UNL A   1      35.139  32.141  32.154  1.00  0.00     0.169 HD
BRANCH  12  14
ATOM     14  C   UNL A   1      36.677  33.288  31.529  1.00  0.00     0.042 A 
ATOM     15  C   UNL A   1      36.863  33.216  30.146  1.00  0.00     0.028 A 
ATOM     16  C   UNL A   1      37.759  33.612  32.351  1.00  0.00     0.043 A 
ATOM     17  C   UNL A   1      38.082  33.596  29.577  1.00  0.00     0.024 A 
ATOM     18  C   UNL A   1      38.987  33.988  31.782  1.00  0.00     0.038 A 
ATOM     19  C   UNL A   1      39.140  34.007  30.392  1.00  0.00     0.055 A 
ATOM     20  Br  UNL A   1      40.367  34.539  32.969  1.00  0.00    -0.049 Br
ATOM     21  Cl  UNL A   1      40.583  34.549  29.611  1.00  0.00    -0.083 Cl
ENDBRANCH  12  14
ENDBRANCH   9  10
ENDBRANCH   3   5
ENDBRANCH   2   3
ENDBRANCH   1   2
BRANCH   1  22
ATOM     22  C   UNL A   1      33.562  32.074  27.928  1.00  0.00     0.275 C 
BRANCH  22  23
ATOM     23  O   UNL A   1      34.622  31.347  27.275  1.00  0.00    -0.458 OA
BRANCH  23  24
ATOM     24  C   UNL A   1      34.792  30.075  27.708  1.00  0.00     0.338 C 
ATOM     25  O   UNL A   1      34.007  29.147  27.579  1.00  0.00    -0.246 OA
BRANCH  24  26
ATOM     26  C   UNL A   1      36.149  29.881  28.247  1.00  0.00     0.060 A 
ATOM     27  C   UNL A   1      37.223  30.065  27.370  1.00  0.00     0.016 A 
ATOM     28  C   UNL A   1      36.372  29.406  29.539  1.00  0.00     0.016 A 
ATOM     29  C   UNL A   1      38.522  29.772  27.761  1.00  0.00     0.010 A 
ATOM     30  C   UNL A   1      37.678  29.085  29.928  1.00  0.00     0.010 A 
ATOM     31  C   UNL A   1      38.753  29.245  29.031  1.00  0.00    -0.014 A 
BRANCH  31  32
ATOM     32  C   UNL A   1      40.095  28.719  29.361  1.00  0.00     0.031 A 
ATOM     33  C   UNL A   1      41.021  29.571  30.179  1.00  0.00     0.074 A 
ATOM     34  C   UNL A   1      40.462  27.484  28.980  1.00  0.00     0.049 A 
ATOM     35  N   UNL A   1      42.285  29.387  30.460  1.00  0.00    -0.248 NA
ATOM     36  C   UNL A   1      40.444  30.792  30.763  1.00  0.00     0.031 C 
ATOM     37  C   UNL A   1      39.608  26.521  28.284  1.00  0.00     0.029 A 
ATOM     38  N   UNL A   1      41.660  26.832  29.124  1.00  0.00    -0.354 N 
ATOM     39  C   UNL A   1      42.663  30.486  31.219  1.00  0.00     0.074 A 
ATOM     40  C   UNL A   1      41.497  31.331  31.359  1.00  0.00     0.031 C 
ATOM     41  C   UNL A   1      40.317  25.405  28.046  1.00  0.00     0.029 A 
ATOM     42  C   UNL A   1      41.686  25.601  28.519  1.00  0.00     0.049 A 
ATOM     43  H   UNL A   1      42.426  27.211  29.612  1.00  0.00     0.167 HD
ATOM     44  C   UNL A   1      43.879  30.770  31.740  1.00  0.00     0.031 A 
ATOM     45  C   UNL A   1      42.712  24.751  28.329  1.00  0.00     0.031 A 
ATOM     46  C   UNL A   1      45.031  29.922  31.595  1.00  0.00     0.049 A 
ATOM     47  C   UNL A   1      44.078  25.131  28.832  1.00  0.00     0.074 A 
ATOM     48  C   UNL A   1      46.318  30.126  32.062  1.00  0.00     0.029 A 
ATOM     49  N   UNL A   1      45.029  28.704  30.935  1.00  0.00    -0.354 N 
ATOM     50  N   UNL A   1      44.446  26.199  29.498  1.00  0.00    -0.248 NA
ATOM     51  C   UNL A   1      45.174  24.192  28.548  1.00  0.00     0.031 C 
ATOM     52  C   UNL A   1      47.105  29.046  31.646  1.00  0.00     0.029 A 
ATOM     53  C   UNL A   1      46.296  28.149  30.967  1.00  0.00     0.049 A 
ATOM     54  H   UNL A   1      44.243  28.293  30.508  1.00  0.00     0.167 HD
ATOM     55  C   UNL A   1      45.805  26.049  29.737  1.00  0.00     0.074 A 
ATOM     56  C   UNL A   1      46.196  24.783  29.150  1.00  0.00     0.031 C 
ATOM     57  C   UNL A   1      46.655  26.882  30.386  1.00  0.00     0.031 A 
BRANCH  44  58
ATOM     58  C   UNL A   1      44.034  32.080  32.458  1.00  0.00    -0.014 A 
ATOM     59  C   UNL A   1      43.862  32.182  33.848  1.00  0.00     0.009 A 
ATOM     60  C   UNL A   1      44.372  33.231  31.728  1.00  0.00     0.009 A 
ATOM     61  C   UNL A   1      43.995  33.417  34.485  1.00  0.00     0.001 A 
ATOM     62  C   UNL A   1      44.529  34.459  32.372  1.00  0.00     0.001 A 
ATOM     63  C   UNL A   1      44.332  34.553  33.748  1.00  0.00     0.000 A 
ENDBRANCH  44  58
BRANCH  45  64
ATOM     64  C   UNL A   1      42.501  23.486  27.577  1.00  0.00    -0.014 A 
ATOM     65  C   UNL A   1      42.122  22.311  28.242  1.00  0.00     0.009 A 
ATOM     66  C   UNL A   1      42.684  23.449  26.185  1.00  0.00     0.009 A 
ATOM     67  C   UNL A   1      41.949  21.121  27.530  1.00  0.00     0.001 A 
ATOM     68  C   UNL A   1      42.484  22.265  25.473  1.00  0.00     0.001 A 
ATOM     69  C   UNL A   1      42.124  21.101  26.148  1.00  0.00     0.000 A 
ENDBRANCH  45  64
BRANCH  57  70
ATOM     70  C   UNL A   1      48.078  26.427  30.543  1.00  0.00    -0.014 A 
ATOM     71  C   UNL A   1      49.060  26.768  29.603  1.00  0.00     0.009 A 
ATOM     72  C   UNL A   1      48.445  25.696  31.684  1.00  0.00     0.009 A 
ATOM     73  C   UNL A   1      50.384  26.363  29.792  1.00  0.00     0.001 A 
ATOM     74  C   UNL A   1      49.772  25.314  31.881  1.00  0.00     0.001 A 
ATOM     75  C   UNL A   1      50.739  25.643  30.933  1.00  0.00     0.000 A 
ENDBRANCH  57  70
ENDBRANCH  31  32
ENDBRANCH  24  26
ENDBRANCH  23  24
ENDBRANCH  22  23
ENDBRANCH   1  22
TORSDOF 13
ENDMDL
MODEL 2
REMARK VINA RESULT:     -10.0      4.712      9.185
REMARK SMILES CC1(C)[C@H](C(=O)OCCOC(=O)c2ccc(-c3c4nc(c(-c5ccccc5)c5ccc([nH]5)c(-c5ccccc5)c5nc(c(-c6ccccc6)c6ccc3[nH]6)C=C5)C=C4)cc2)[C@@H]1C(=O)Nc1ccc(Cl)c(Br)c1
REMARK SMILES IDX 8 1 7 2 5 3 6 4 4 5 1 6 2 7 3 8 61 9 62 10 63 11 64 12 65 14
REMARK SMILES IDX 66 15 72 16 67 17 70 18 68 19 71 20 69 21 9 22 10 23 11 24
REMARK SMILES IDX 12 25 13 26 14 27 60 28 15 29 59 30 16 31 17 32 18 33 53 34
REMARK SMILES IDX 19 35 58 36 52 37 54 38 20 39 57 40 51 41 50 42 21 44 43 45
REMARK SMILES IDX 28 46 42 47 29 48 32 49 41 50 55 51 30 52 31 53 40 55 56 56
REMARK SMILES IDX 33 57 22 58 23 59 27 60 24 61 26 62 25 63 44 64 45 65 49 66
REMARK SMILES IDX 46 67 48 68 47 69 34 70 35 71 39 72 36 73 38 74 37 75
REMARK H PARENT 64 13 54 43 32 54
REMARK Flexibility Score: inf
ROOT
ATOM      1  C   UNL A   1      31.307  29.119  24.661  1.00  0.00     0.274 C 
ENDROOT
BRANCH   1   2
ATOM      2  O   UNL A   1      31.152  27.890  25.397  1.00  0.00    -0.462 OA
BRANCH   2   3
ATOM      3  C   UNL A   1      30.633  26.865  24.674  1.00  0.00     0.310 C 
ATOM      4  O   UNL A   1      29.446  26.722  24.438  1.00  0.00    -0.252 OA
BRANCH   3   5
ATOM      5  C   UNL A   1      31.607  25.915  24.080  1.00  0.00     0.118 C 
ATOM      6  C   UNL A   1      33.986  25.637  23.238  1.00  0.00     0.013 C 
ATOM      7  C   UNL A   1      33.063  25.743  24.433  1.00  0.00    -0.009 C 
ATOM      8  C   UNL A   1      33.686  26.501  25.579  1.00  0.00     0.013 C 
ATOM      9  C   UNL A   1      32.050  24.613  24.701  1.00  0.00     0.100 C 
BRANCH   9  10
ATOM     10  C   UNL A   1      31.728  24.176  26.081  1.00  0.00     0.228 C 
ATOM     11  O   UNL A   1      30.741  24.648  26.640  1.00  0.00    -0.274 OA
ATOM     12  N   UNL A   1      32.489  23.239  26.737  1.00  0.00    -0.326 N 
ATOM     13  H   UNL A   1      32.101  22.926  27.587  1.00  0.00     0.169 HD
BRANCH  12  14
ATOM     14  C   UNL A   1      33.718  22.649  26.412  1.00  0.00     0.042 A 
ATOM     15  C   UNL A   1      33.670  21.363  25.867  1.00  0.00     0.028 A 
ATOM     16  C   UNL A   1      34.951  23.291  26.546  1.00  0.00     0.043 A 
ATOM     17  C   UNL A   1      34.822  20.779  25.334  1.00  0.00     0.024 A 
ATOM     18  C   UNL A   1      36.112  22.704  26.017  1.00  0.00     0.038 A 
ATOM     19  C   UNL A   1      36.042  21.458  25.385  1.00  0.00     0.055 A 
ATOM     20  Br  UNL A   1      37.725  23.705  26.126  1.00  0.00    -0.049 Br
ATOM     21  Cl  UNL A   1      37.402  20.711  24.624  1.00  0.00    -0.083 Cl
ENDBRANCH  12  14
ENDBRANCH   9  10
ENDBRANCH   3   5
ENDBRANCH   2   3
ENDBRANCH   1   2
BRANCH   1  22
ATOM     22  C   UNL A   1      31.471  30.352  25.563  1.00  0.00     0.275 C 
BRANCH  22  23
ATOM     23  O   UNL A   1      32.433  30.162  26.619  1.00  0.00    -0.458 OA
BRANCH  23  24
ATOM     24  C   UNL A   1      32.986  31.302  27.098  1.00  0.00     0.338 C 
ATOM     25  O   UNL A   1      32.429  32.379  27.251  1.00  0.00    -0.246 OA
BRANCH  24  26
ATOM     26  C   UNL A   1      34.358  31.058  27.577  1.00  0.00     0.060 A 
ATOM     27  C   UNL A   1      34.720  29.734  27.846  1.00  0.00     0.016 A 
ATOM     28  C   UNL A   1      35.232  32.100  27.882  1.00  0.00     0.016 A 
ATOM     29  C   UNL A   1      35.945  29.433  28.426  1.00  0.00     0.010 A 
ATOM     30  C   UNL A   1      36.457  31.803  28.491  1.00  0.00     0.010 A 
ATOM     31  C   UNL A   1      36.805  30.470  28.786  1.00  0.00    -0.014 A 
BRANCH  31  32
ATOM     32  C   UNL A   1      37.996  30.166  29.608  1.00  0.00     0.031 A 
ATOM     33  C   UNL A   1      39.076  29.303  29.021  1.00  0.00     0.074 A 
ATOM     34  C   UNL A   1      38.135  30.691  30.837  1.00  0.00     0.049 A 
ATOM     35  N   UNL A   1      40.128  28.784  29.599  1.00  0.00    -0.248 NA
ATOM     36  C   UNL A   1      38.956  28.988  27.588  1.00  0.00     0.031 C 
ATOM     37  C   UNL A   1      37.211  31.634  31.467  1.00  0.00     0.029 A 
ATOM     38  N   UNL A   1      39.114  30.495  31.778  1.00  0.00    -0.354 N 
ATOM     39  C   UNL A   1      40.772  28.050  28.612  1.00  0.00     0.074 A 
ATOM     40  C   UNL A   1      39.998  28.193  27.399  1.00  0.00     0.031 C 
ATOM     41  C   UNL A   1      37.659  31.922  32.700  1.00  0.00     0.029 A 
ATOM     42  C   UNL A   1      38.865  31.139  32.963  1.00  0.00     0.049 A 
ATOM     43  H   UNL A   1      39.915  29.946  31.619  1.00  0.00     0.167 HD
ATOM     44  C   UNL A   1      41.902  27.313  28.716  1.00  0.00     0.031 A 
ATOM     45  C   UNL A   1      39.512  31.065  34.142  1.00  0.00     0.031 A 
ATOM     46  C   UNL A   1      42.663  27.179  29.928  1.00  0.00     0.049 A 
ATOM     47  C   UNL A   1      40.710  30.163  34.262  1.00  0.00     0.074 A 
ATOM     48  C   UNL A   1      43.810  26.436  30.151  1.00  0.00     0.029 A 
ATOM     49  N   UNL A   1      42.353  27.810  31.122  1.00  0.00    -0.354 N 
ATOM     50  N   UNL A   1      41.283  29.423  33.343  1.00  0.00    -0.248 NA
ATOM     51  C   UNL A   1      41.345  30.076  35.585  1.00  0.00     0.031 C 
ATOM     52  C   UNL A   1      44.169  26.587  31.495  1.00  0.00     0.029 A 
ATOM     53  C   UNL A   1      43.276  27.463  32.093  1.00  0.00     0.049 A 
ATOM     54  H   UNL A   1      41.589  28.416  31.260  1.00  0.00     0.167 HD
ATOM     55  C   UNL A   1      42.359  28.807  33.967  1.00  0.00     0.074 A 
ATOM     56  C   UNL A   1      42.364  29.264  35.342  1.00  0.00     0.031 C 
ATOM     57  C   UNL A   1      43.265  27.942  33.449  1.00  0.00     0.031 A 
BRANCH  44  58
ATOM     58  C   UNL A   1      42.339  26.546  27.501  1.00  0.00    -0.014 A 
ATOM     59  C   UNL A   1      41.873  25.248  27.242  1.00  0.00     0.009 A 
ATOM     60  C   UNL A   1      43.226  27.144  26.591  1.00  0.00     0.009 A 
ATOM     61  C   UNL A   1      42.311  24.554  26.113  1.00  0.00     0.001 A 
ATOM     62  C   UNL A   1      43.642  26.458  25.449  1.00  0.00     0.001 A 
ATOM     63  C   UNL A   1      43.192  25.160  25.216  1.00  0.00     0.000 A 
ENDBRANCH  44  58
BRANCH  45  64
ATOM     64  C   UNL A   1      39.006  31.820  35.317  1.00  0.00    -0.014 A 
ATOM     65  C   UNL A   1      39.367  33.160  35.519  1.00  0.00     0.009 A 
ATOM     66  C   UNL A   1      38.159  31.198  36.250  1.00  0.00     0.009 A 
ATOM     67  C   UNL A   1      38.905  33.855  36.640  1.00  0.00     0.001 A 
ATOM     68  C   UNL A   1      37.677  31.904  37.354  1.00  0.00     0.001 A 
ATOM     69  C   UNL A   1      38.057  33.229  37.552  1.00  0.00     0.000 A 
ENDBRANCH  45  64
BRANCH  57  70
ATOM     70  C   UNL A   1      44.367  27.476  34.356  1.00  0.00    -0.014 A 
ATOM     71  C   UNL A   1      45.572  28.186  34.464  1.00  0.00     0.009 A 
ATOM     72  C   UNL A   1      44.166  26.341  35.158  1.00  0.00     0.009 A 
ATOM     73  C   UNL A   1      46.567  27.751  35.343  1.00  0.00     0.001 A 
ATOM     74  C   UNL A   1      45.152  25.924  36.052  1.00  0.00     0.001 A 
ATOM     75  C   UNL A   1      46.354  26.625  36.140  1.00  0.00     0.000 A 
ENDBRANCH  57  70
ENDBRANCH  31  32
ENDBRANCH  24  26
ENDBRANCH  23  24
ENDBRANCH  22  23
ENDBRANCH   1  22
TORSDOF 13
ENDMDL
MODEL 3
REMARK VINA RESULT:     -10.0      5.148      8.907
REMARK SMILES CC1(C)[C@H](C(=O)OCCOC(=O)c2ccc(-c3c4nc(c(-c5ccccc5)c5ccc([nH]5)c(-c5ccccc5)c5nc(c(-c6ccccc6)c6ccc3[nH]6)C=C5)C=C4)cc2)[C@@H]1C(=O)Nc1ccc(Cl)c(Br)c1
REMARK SMILES IDX 8 1 7 2 5 3 6 4 4 5 1 6 2 7 3 8 61 9 62 10 63 11 64 12 65 14
REMARK SMILES IDX 66 15 72 16 67 17 70 18 68 19 71 20 69 21 9 22 10 23 11 24
REMARK SMILES IDX 12 25 13 26 14 27 60 28 15 29 59 30 16 31 17 32 18 33 53 34
REMARK SMILES IDX 19 35 58 36 52 37 54 38 20 39 57 40 51 41 50 42 21 44 43 45
REMARK SMILES IDX 28 46 42 47 29 48 32 49 41 50 55 51 30 52 31 53 40 55 56 56
REMARK SMILES IDX 33 57 22 58 23 59 27 60 24 61 26 62 25 63 44 64 45 65 49 66
REMARK SMILES IDX 46 67 48 68 47 69 34 70 35 71 39 72 36 73 38 74 37 75
REMARK H PARENT 64 13 54 43 32 54
REMARK Flexibility Score: inf
ROOT
ATOM      1  C   UNL A   1      35.105  20.314  25.219  1.00  0.00     0.274 C 
ENDROOT
BRANCH   1   2
ATOM      2  O   UNL A   1      33.916  21.118  25.339  1.00  0.00    -0.462 OA
BRANCH   2   3
ATOM      3  C   UNL A   1      33.834  21.830  26.492  1.00  0.00     0.310 C 
ATOM      4  O   UNL A   1      33.691  21.334  27.597  1.00  0.00    -0.252 OA
BRANCH   3   5
ATOM      5  C   UNL A   1      34.013  23.298  26.377  1.00  0.00     0.118 C 
ATOM      6  C   UNL A   1      34.678  25.193  24.822  1.00  0.00     0.013 C 
ATOM      7  C   UNL A   1      33.618  24.190  25.226  1.00  0.00    -0.009 C 
ATOM      8  C   UNL A   1      32.853  23.649  24.043  1.00  0.00     0.013 C 
ATOM      9  C   UNL A   1      32.936  24.331  26.601  1.00  0.00     0.100 C 
BRANCH   9  10
ATOM     10  C   UNL A   1      31.495  24.032  26.782  1.00  0.00     0.228 C 
ATOM     11  O   UNL A   1      31.170  23.010  27.381  1.00  0.00    -0.274 OA
ATOM     12  N   UNL A   1      30.518  24.881  26.321  1.00  0.00    -0.326 N 
ATOM     13  H   UNL A   1      29.608  24.651  26.620  1.00  0.00     0.169 HD
BRANCH  12  14
ATOM     14  C   UNL A   1      30.586  26.016  25.501  1.00  0.00     0.042 A 
ATOM     15  C   UNL A   1      29.884  25.958  24.294  1.00  0.00     0.028 A 
ATOM     16  C   UNL A   1      31.252  27.193  25.852  1.00  0.00     0.043 A 
ATOM     17  C   UNL A   1      29.734  27.105  23.510  1.00  0.00     0.024 A 
ATOM     18  C   UNL A   1      31.108  28.345  25.063  1.00  0.00     0.038 A 
ATOM     19  C   UNL A   1      30.324  28.308  23.905  1.00  0.00     0.055 A 
ATOM     20  Br  UNL A   1      31.940  29.939  25.682  1.00  0.00    -0.049 Br
ATOM     21  Cl  UNL A   1      30.016  29.704  22.932  1.00  0.00    -0.083 Cl
ENDBRANCH  12  14
ENDBRANCH   9  10
ENDBRANCH   3   5
ENDBRANCH   2   3
ENDBRANCH   1   2
BRANCH   1  22
ATOM     22  C   UNL A   1      36.317  21.095  24.687  1.00  0.00     0.275 C 
BRANCH  22  23
ATOM     23  O   UNL A   1      36.971  21.888  25.697  1.00  0.00    -0.458 OA
BRANCH  23  24
ATOM     24  C   UNL A   1      38.291  21.631  25.857  1.00  0.00     0.338 C 
ATOM     25  O   UNL A   1      38.911  20.676  25.413  1.00  0.00    -0.246 OA
BRANCH  24  26
ATOM     26  C   UNL A   1      38.966  22.754  26.531  1.00  0.00     0.060 A 
ATOM     27  C   UNL A   1      38.473  24.040  26.291  1.00  0.00     0.016 A 
ATOM     28  C   UNL A   1      40.130  22.577  27.278  1.00  0.00     0.016 A 
ATOM     29  C   UNL A   1      39.131  25.160  26.778  1.00  0.00     0.010 A 
ATOM     30  C   UNL A   1      40.812  23.706  27.750  1.00  0.00     0.010 A 
ATOM     31  C   UNL A   1      40.326  25.001  27.480  1.00  0.00    -0.014 A 
BRANCH  31  32
ATOM     32  C   UNL A   1      41.142  26.193  27.795  1.00  0.00     0.031 A 
ATOM     33  C   UNL A   1      40.573  27.233  28.716  1.00  0.00     0.074 A 
ATOM     34  C   UNL A   1      42.388  26.322  27.308  1.00  0.00     0.049 A 
ATOM     35  N   UNL A   1      41.036  28.420  29.013  1.00  0.00    -0.248 NA
ATOM     36  C   UNL A   1      39.315  26.886  29.398  1.00  0.00     0.031 C 
ATOM     37  C   UNL A   1      43.091  25.325  26.500  1.00  0.00     0.029 A 
ATOM     38  N   UNL A   1      43.281  27.356  27.423  1.00  0.00    -0.354 N 
ATOM     39  C   UNL A   1      40.108  28.975  29.884  1.00  0.00     0.074 A 
ATOM     40  C   UNL A   1      39.058  27.998  30.072  1.00  0.00     0.031 C 
ATOM     41  C   UNL A   1      44.303  25.805  26.177  1.00  0.00     0.029 A 
ATOM     42  C   UNL A   1      44.434  27.162  26.704  1.00  0.00     0.049 A 
ATOM     43  H   UNL A   1      43.111  28.160  27.966  1.00  0.00     0.167 HD
ATOM     44  C   UNL A   1      40.126  30.198  30.463  1.00  0.00     0.031 A 
ATOM     45  C   UNL A   1      45.456  28.004  26.462  1.00  0.00     0.031 A 
ATOM     46  C   UNL A   1      41.175  31.161  30.270  1.00  0.00     0.049 A 
ATOM     47  C   UNL A   1      45.409  29.394  27.036  1.00  0.00     0.074 A 
ATOM     48  C   UNL A   1      41.281  32.440  30.789  1.00  0.00     0.029 A 
ATOM     49  N   UNL A   1      42.305  30.945  29.497  1.00  0.00    -0.354 N 
ATOM     50  N   UNL A   1      44.501  29.937  27.812  1.00  0.00    -0.248 NA
ATOM     51  C   UNL A   1      46.523  30.290  26.695  1.00  0.00     0.031 C 
ATOM     52  C   UNL A   1      42.458  33.012  30.293  1.00  0.00     0.029 A 
ATOM     53  C   UNL A   1      43.108  32.072  29.510  1.00  0.00     0.049 A 
ATOM     54  H   UNL A   1      42.506  30.113  29.010  1.00  0.00     0.167 HD
ATOM     55  C   UNL A   1      44.947  31.226  28.073  1.00  0.00     0.074 A 
ATOM     56  C   UNL A   1      46.209  31.381  27.378  1.00  0.00     0.031 C 
ATOM     57  C   UNL A   1      44.365  32.195  28.821  1.00  0.00     0.031 A 
BRANCH  44  58
ATOM     58  C   UNL A   1      38.943  30.579  31.307  1.00  0.00    -0.014 A 
ATOM     59  C   UNL A   1      38.932  30.371  32.695  1.00  0.00     0.009 A 
ATOM     60  C   UNL A   1      37.824  31.170  30.699  1.00  0.00     0.009 A 
ATOM     61  C   UNL A   1      37.812  30.720  33.451  1.00  0.00     0.001 A 
ATOM     62  C   UNL A   1      36.715  31.541  31.461  1.00  0.00     0.001 A 
ATOM     63  C   UNL A   1      36.706  31.308  32.834  1.00  0.00     0.000 A 
ENDBRANCH  44  58
BRANCH  45  64
ATOM     64  C   UNL A   1      46.580  27.578  25.588  1.00  0.00    -0.014 A 
ATOM     65  C   UNL A   1      46.591  27.904  24.224  1.00  0.00     0.009 A 
ATOM     66  C   UNL A   1      47.647  26.834  26.117  1.00  0.00     0.009 A 
ATOM     67  C   UNL A   1      47.641  27.478  23.405  1.00  0.00     0.001 A 
ATOM     68  C   UNL A   1      48.708  26.434  25.302  1.00  0.00     0.001 A 
ATOM     69  C   UNL A   1      48.699  26.749  23.945  1.00  0.00     0.000 A 
ENDBRANCH  45  64
BRANCH  57  70
ATOM     70  C   UNL A   1      45.113  33.488  28.974  1.00  0.00    -0.014 A 
ATOM     71  C   UNL A   1      46.050  33.672  30.001  1.00  0.00     0.009 A 
ATOM     72  C   UNL A   1      44.916  34.513  28.035  1.00  0.00     0.009 A 
ATOM     73  C   UNL A   1      46.759  34.872  30.098  1.00  0.00     0.001 A 
ATOM     74  C   UNL A   1      45.643  35.700  28.121  1.00  0.00     0.001 A 
ATOM     75  C   UNL A   1      46.559  35.881  29.155  1.00  0.00     0.000 A 
ENDBRANCH  57  70
ENDBRANCH  31  32
ENDBRANCH  24  26
ENDBRANCH  23  24
ENDBRANCH  22  23
ENDBRANCH   1  22
TORSDOF 13
ENDMDL
