MODEL 1
REMARK VINA RESULT:      -9.1      0.000      0.000
REMARK SMILES CCc1cc(OC(F)(F)F)cc2c1O[C@@H](C(F)(F)F)C(C(=O)OCCOC(=O)c1ccc(-c3c4nc(c(-c5ccccc5)c5ccc([nH]5)c(-c5ccccc5)c5nc(c(-c6ccccc6)c6ccc3[nH]6)C=C5)C=C4)cc1)=C2
REMARK SMILES IDX 24 1 23 2 21 3 22 4 20 5 3 6 4 7 13 8 5 9 12 10 14 11 11 12
REMARK SMILES IDX 77 13 15 14 2 15 1 16 6 17 7 18 8 19 9 20 10 21 16 22 17 23
REMARK SMILES IDX 18 24 19 25 25 26 26 27 27 28 28 29 29 30 30 31 76 32 31 33
REMARK SMILES IDX 75 34 32 35 33 36 34 37 69 38 35 39 74 40 68 41 70 42 36 43
REMARK SMILES IDX 73 44 67 45 66 46 37 48 59 49 44 50 58 51 45 52 48 53 57 54
REMARK SMILES IDX 71 55 46 56 47 57 56 59 72 60 49 61 38 62 39 63 43 64 40 65
REMARK SMILES IDX 42 66 41 67 60 68 61 69 65 70 62 71 64 72 63 73 50 74 51 75
REMARK SMILES IDX 55 76 52 77 54 78 53 79
REMARK H PARENT 70 47 48 58
REMARK Flexibility Score: inf
ROOT
ATOM      1  C   UNL A   1      33.422  34.337  29.030  1.00  0.00     0.275 C 
ENDROOT
BRANCH   1   2
ATOM      2  O   UNL A   1      34.688  34.475  29.710  1.00  0.00    -0.459 OA
BRANCH   2   3
ATOM      3  C   UNL A   1      34.882  33.651  30.773  1.00  0.00     0.338 C 
ATOM      4  O   UNL A   1      34.121  32.773  31.130  1.00  0.00    -0.246 OA
BRANCH   3   5
ATOM      5  C   UNL A   1      36.184  33.906  31.436  1.00  0.00     0.087 C 
ATOM      6  C   UNL A   1      39.746  34.669  33.518  1.00  0.00    -0.002 A 
ATOM      7  C   UNL A   1      40.965  34.599  32.824  1.00  0.00     0.054 A 
ATOM      8  C   UNL A   1      38.557  34.510  32.786  1.00  0.00     0.131 A 
ATOM      9  C   UNL A   1      40.994  34.415  31.437  1.00  0.00     0.130 A 
ATOM     10  C   UNL A   1      38.569  34.253  31.411  1.00  0.00     0.021 A 
ATOM     11  O   UNL A   1      37.380  34.695  33.456  1.00  0.00    -0.475 OA
ATOM     12  C   UNL A   1      39.795  34.213  30.742  1.00  0.00     0.058 A 
ATOM     13  C   UNL A   1      37.304  34.049  30.705  1.00  0.00     0.027 C 
ATOM     14  C   UNL A   1      36.223  33.980  32.951  1.00  0.00     0.316 C 
BRANCH   6  15
ATOM     15  C   UNL A   1      39.700  34.796  35.029  1.00  0.00     0.036 C 
ATOM     16  C   UNL A   1      40.220  36.105  35.609  1.00  0.00     0.009 C 
ENDBRANCH   6  15
BRANCH   9  17
ATOM     17  O   UNL A   1      42.120  34.390  30.661  1.00  0.00    -0.406 OA
BRANCH  17  18
ATOM     18  C   UNL A   1      42.655  33.116  30.332  1.00  0.00     0.573 C 
ATOM     19  F   UNL A   1      41.699  32.280  29.873  1.00  0.00    -0.132 F 
ATOM     20  F   UNL A   1      43.634  33.230  29.409  1.00  0.00    -0.132 F 
ATOM     21  F   UNL A   1      43.189  32.568  31.446  1.00  0.00    -0.132 F 
ENDBRANCH  17  18
ENDBRANCH   9  17
BRANCH  14  22
ATOM     22  C   UNL A   1      34.995  34.539  33.699  1.00  0.00     0.430 C 
ATOM     23  F   UNL A   1      34.068  33.583  33.939  1.00  0.00    -0.167 F 
ATOM     24  F   UNL A   1      35.362  34.999  34.926  1.00  0.00    -0.167 F 
ATOM     25  F   UNL A   1      34.412  35.570  33.053  1.00  0.00    -0.167 F 
ENDBRANCH  14  22
ENDBRANCH   3   5
ENDBRANCH   2   3
ENDBRANCH   1   2
BRANCH   1  26
ATOM     26  C   UNL A   1      33.551  33.521  27.741  1.00  0.00     0.275 C 
BRANCH  26  27
ATOM     27  O   UNL A   1      34.747  32.721  27.742  1.00  0.00    -0.458 OA
BRANCH  27  28
ATOM     28  C   UNL A   1      34.546  31.396  27.930  1.00  0.00     0.338 C 
ATOM     29  O   UNL A   1      33.589  30.739  27.552  1.00  0.00    -0.246 OA
BRANCH  28  30
ATOM     30  C   UNL A   1      35.756  30.777  28.508  1.00  0.00     0.060 A 
ATOM     31  C   UNL A   1      36.981  31.152  27.949  1.00  0.00     0.016 A 
ATOM     32  C   UNL A   1      35.715  29.853  29.554  1.00  0.00     0.016 A 
ATOM     33  C   UNL A   1      38.175  30.665  28.476  1.00  0.00     0.010 A 
ATOM     34  C   UNL A   1      36.913  29.320  30.049  1.00  0.00     0.010 A 
ATOM     35  C   UNL A   1      38.147  29.733  29.520  1.00  0.00    -0.014 A 
BRANCH  35  36
ATOM     36  C   UNL A   1      39.419  29.124  29.974  1.00  0.00     0.031 A 
ATOM     37  C   UNL A   1      40.109  29.685  31.183  1.00  0.00     0.074 A 
ATOM     38  C   UNL A   1      39.929  28.048  29.348  1.00  0.00     0.049 A 
ATOM     39  N   UNL A   1      41.215  29.294  31.762  1.00  0.00    -0.248 NA
ATOM     40  C   UNL A   1      39.457  30.832  31.836  1.00  0.00     0.031 C 
ATOM     41  C   UNL A   1      39.317  27.359  28.213  1.00  0.00     0.029 A 
ATOM     42  N   UNL A   1      41.084  27.347  29.587  1.00  0.00    -0.354 N 
ATOM     43  C   UNL A   1      41.385  30.134  32.854  1.00  0.00     0.074 A 
ATOM     44  C   UNL A   1      40.279  31.069  32.847  1.00  0.00     0.031 C 
ATOM     45  C   UNL A   1      40.114  26.341  27.843  1.00  0.00     0.029 A 
ATOM     46  C   UNL A   1      41.301  26.324  28.698  1.00  0.00     0.049 A 
ATOM     47  H   UNL A   1      41.698  27.557  30.327  1.00  0.00     0.167 HD
ATOM     48  C   UNL A   1      42.374  30.132  33.777  1.00  0.00     0.031 A 
ATOM     49  C   UNL A   1      42.349  25.486  28.573  1.00  0.00     0.031 A 
ATOM     50  C   UNL A   1      43.504  29.243  33.758  1.00  0.00     0.049 A 
ATOM     51  C   UNL A   1      43.502  25.593  29.538  1.00  0.00     0.074 A 
ATOM     52  C   UNL A   1      44.569  29.184  34.641  1.00  0.00     0.029 A 
ATOM     53  N   UNL A   1      43.726  28.270  32.797  1.00  0.00    -0.354 N 
ATOM     54  N   UNL A   1      43.643  26.376  30.579  1.00  0.00    -0.248 NA
ATOM     55  C   UNL A   1      44.643  24.694  29.307  1.00  0.00     0.031 C 
ATOM     56  C   UNL A   1      45.465  28.214  34.180  1.00  0.00     0.029 A 
ATOM     57  C   UNL A   1      44.928  27.629  33.044  1.00  0.00     0.049 A 
ATOM     58  H   UNL A   1      43.120  28.067  32.049  1.00  0.00     0.167 HD
ATOM     59  C   UNL A   1      44.868  26.044  31.144  1.00  0.00     0.074 A 
ATOM     60  C   UNL A   1      45.427  24.980  30.338  1.00  0.00     0.031 C 
ATOM     61  C   UNL A   1      45.474  26.571  32.236  1.00  0.00     0.031 A 
BRANCH  48  62
ATOM     62  C   UNL A   1      42.299  31.169  34.859  1.00  0.00    -0.014 A 
ATOM     63  C   UNL A   1      41.500  30.976  35.997  1.00  0.00     0.009 A 
ATOM     64  C   UNL A   1      43.056  32.345  34.749  1.00  0.00     0.009 A 
ATOM     65  C   UNL A   1      41.437  31.956  36.989  1.00  0.00     0.001 A 
ATOM     66  C   UNL A   1      43.009  33.313  35.753  1.00  0.00     0.001 A 
ATOM     67  C   UNL A   1      42.195  33.121  36.867  1.00  0.00     0.000 A 
ENDBRANCH  48  62
BRANCH  49  68
ATOM     68  C   UNL A   1      42.390  24.492  27.469  1.00  0.00    -0.014 A 
ATOM     69  C   UNL A   1      41.874  23.198  27.646  1.00  0.00     0.009 A 
ATOM     70  C   UNL A   1      42.994  24.820  26.246  1.00  0.00     0.009 A 
ATOM     71  C   UNL A   1      41.993  22.245  26.631  1.00  0.00     0.001 A 
ATOM     72  C   UNL A   1      43.086  23.873  25.223  1.00  0.00     0.001 A 
ATOM     73  C   UNL A   1      42.596  22.584  25.420  1.00  0.00     0.000 A 
ENDBRANCH  49  68
BRANCH  61  74
ATOM     74  C   UNL A   1      46.795  25.981  32.648  1.00  0.00    -0.014 A 
ATOM     75  C   UNL A   1      48.002  26.429  32.090  1.00  0.00     0.009 A 
ATOM     76  C   UNL A   1      46.833  24.997  33.649  1.00  0.00     0.009 A 
ATOM     77  C   UNL A   1      49.218  25.882  32.505  1.00  0.00     0.001 A 
ATOM     78  C   UNL A   1      48.052  24.472  34.082  1.00  0.00     0.001 A 
ATOM     79  C   UNL A   1      49.242  24.908  33.504  1.00  0.00     0.000 A 
ENDBRANCH  61  74
ENDBRANCH  35  36
ENDBRANCH  28  30
ENDBRANCH  27  28
ENDBRANCH  26  27
ENDBRANCH   1  26
TORSDOF 15
ENDMDL
MODEL 2
REMARK VINA RESULT:      -9.0      5.484     10.465
REMARK SMILES CCc1cc(OC(F)(F)F)cc2c1O[C@@H](C(F)(F)F)C(C(=O)OCCOC(=O)c1ccc(-c3c4nc(c(-c5ccccc5)c5ccc([nH]5)c(-c5ccccc5)c5nc(c(-c6ccccc6)c6ccc3[nH]6)C=C5)C=C4)cc1)=C2
REMARK SMILES IDX 24 1 23 2 21 3 22 4 20 5 3 6 4 7 13 8 5 9 12 10 14 11 11 12
REMARK SMILES IDX 77 13 15 14 2 15 1 16 6 17 7 18 8 19 9 20 10 21 16 22 17 23
REMARK SMILES IDX 18 24 19 25 25 26 26 27 27 28 28 29 29 30 30 31 76 32 31 33
REMARK SMILES IDX 75 34 32 35 33 36 34 37 69 38 35 39 74 40 68 41 70 42 36 43
REMARK SMILES IDX 73 44 67 45 66 46 37 48 59 49 44 50 58 51 45 52 48 53 57 54
REMARK SMILES IDX 71 55 46 56 47 57 56 59 72 60 49 61 38 62 39 63 43 64 40 65
REMARK SMILES IDX 42 66 41 67 60 68 61 69 65 70 62 71 64 72 63 73 50 74 51 75
REMARK SMILES IDX 55 76 52 77 54 78 53 79
REMARK H PARENT 70 47 48 58
REMARK Flexibility Score: inf
ROOT
ATOM      1  C   UNL A   1      36.000  21.672  25.608  1.00  0.00     0.275 C 
ENDROOT
BRANCH   1   2
ATOM      2  O   UNL A   1      35.247  21.686  24.377  1.00  0.00    -0.459 OA
BRANCH   2   3
ATOM      3  C   UNL A   1      35.232  22.866  23.705  1.00  0.00     0.338 C 
ATOM      4  O   UNL A   1      35.939  23.143  22.756  1.00  0.00    -0.246 OA
BRANCH   3   5
ATOM      5  C   UNL A   1      34.193  23.785  24.229  1.00  0.00     0.087 C 
ATOM      6  C   UNL A   1      31.089  26.259  25.589  1.00  0.00    -0.002 A 
ATOM      7  C   UNL A   1      31.403  27.342  26.427  1.00  0.00     0.054 A 
ATOM      8  C   UNL A   1      32.148  25.501  25.062  1.00  0.00     0.131 A 
ATOM      9  C   UNL A   1      32.733  27.681  26.696  1.00  0.00     0.130 A 
ATOM     10  C   UNL A   1      33.481  25.780  25.379  1.00  0.00     0.021 A 
ATOM     11  O   UNL A   1      31.830  24.524  24.159  1.00  0.00    -0.475 OA
ATOM     12  C   UNL A   1      33.765  26.879  26.194  1.00  0.00     0.058 A 
ATOM     13  C   UNL A   1      34.544  24.931  24.840  1.00  0.00     0.027 C 
ATOM     14  C   UNL A   1      32.735  23.393  24.077  1.00  0.00     0.316 C 
BRANCH   6  15
ATOM     15  C   UNL A   1      29.652  25.836  25.344  1.00  0.00     0.036 C 
ATOM     16  C   UNL A   1      28.987  26.406  24.100  1.00  0.00     0.009 C 
ENDBRANCH   6  15
BRANCH   9  17
ATOM     17  O   UNL A   1      33.146  28.745  27.449  1.00  0.00    -0.406 OA
BRANCH  17  18
ATOM     18  C   UNL A   1      33.657  29.874  26.755  1.00  0.00     0.573 C 
ATOM     19  F   UNL A   1      33.285  31.030  27.345  1.00  0.00    -0.132 F 
ATOM     20  F   UNL A   1      35.005  29.821  26.679  1.00  0.00    -0.132 F 
ATOM     21  F   UNL A   1      33.165  29.869  25.496  1.00  0.00    -0.132 F 
ENDBRANCH  17  18
ENDBRANCH   9  17
BRANCH  14  22
ATOM     22  C   UNL A   1      32.311  22.575  22.840  1.00  0.00     0.430 C 
ATOM     23  F   UNL A   1      32.548  21.252  22.999  1.00  0.00    -0.167 F 
ATOM     24  F   UNL A   1      30.967  22.678  22.647  1.00  0.00    -0.167 F 
ATOM     25  F   UNL A   1      32.903  22.998  21.704  1.00  0.00    -0.167 F 
ENDBRANCH  14  22
ENDBRANCH   3   5
ENDBRANCH   2   3
ENDBRANCH   1   2
BRANCH   1  26
ATOM     26  C   UNL A   1      37.510  21.722  25.356  1.00  0.00     0.275 C 
BRANCH  26  27
ATOM     27  O   UNL A   1      38.067  22.990  25.746  1.00  0.00    -0.458 OA
BRANCH  27  28
ATOM     28  C   UNL A   1      39.353  22.944  26.162  1.00  0.00     0.338 C 
ATOM     29  O   UNL A   1      40.165  22.060  25.937  1.00  0.00    -0.246 OA
BRANCH  28  30
ATOM     30  C   UNL A   1      39.729  24.227  26.789  1.00  0.00     0.060 A 
ATOM     31  C   UNL A   1      39.278  24.445  28.094  1.00  0.00     0.016 A 
ATOM     32  C   UNL A   1      40.490  25.201  26.138  1.00  0.00     0.016 A 
ATOM     33  C   UNL A   1      39.641  25.600  28.783  1.00  0.00     0.010 A 
ATOM     34  C   UNL A   1      40.810  26.387  26.810  1.00  0.00     0.010 A 
ATOM     35  C   UNL A   1      40.397  26.586  28.139  1.00  0.00    -0.014 A 
BRANCH  35  36
ATOM     36  C   UNL A   1      40.657  27.865  28.840  1.00  0.00     0.031 A 
ATOM     37  C   UNL A   1      41.993  28.088  29.485  1.00  0.00     0.074 A 
ATOM     38  C   UNL A   1      39.730  28.840  28.857  1.00  0.00     0.049 A 
ATOM     39  N   UNL A   1      42.437  29.136  30.130  1.00  0.00    -0.248 NA
ATOM     40  C   UNL A   1      42.964  26.988  29.377  1.00  0.00     0.031 C 
ATOM     41  C   UNL A   1      38.424  28.781  28.202  1.00  0.00     0.029 A 
ATOM     42  N   UNL A   1      39.755  30.076  29.453  1.00  0.00    -0.354 N 
ATOM     43  C   UNL A   1      43.742  28.831  30.491  1.00  0.00     0.074 A 
ATOM     44  C   UNL A   1      44.013  27.492  30.011  1.00  0.00     0.031 C 
ATOM     45  C   UNL A   1      37.765  29.927  28.447  1.00  0.00     0.029 A 
ATOM     46  C   UNL A   1      38.590  30.787  29.295  1.00  0.00     0.049 A 
ATOM     47  H   UNL A   1      40.534  30.422  29.945  1.00  0.00     0.167 HD
ATOM     48  C   UNL A   1      44.634  29.592  31.166  1.00  0.00     0.031 A 
ATOM     49  C   UNL A   1      38.225  31.982  29.797  1.00  0.00     0.031 A 
ATOM     50  C   UNL A   1      44.353  30.900  31.693  1.00  0.00     0.049 A 
ATOM     51  C   UNL A   1      39.194  32.753  30.657  1.00  0.00     0.074 A 
ATOM     52  C   UNL A   1      45.191  31.737  32.412  1.00  0.00     0.029 A 
ATOM     53  N   UNL A   1      43.137  31.553  31.577  1.00  0.00    -0.354 N 
ATOM     54  N   UNL A   1      40.432  32.464  30.974  1.00  0.00    -0.248 NA
ATOM     55  C   UNL A   1      38.709  34.020  31.228  1.00  0.00     0.031 C 
ATOM     56  C   UNL A   1      44.461  32.872  32.781  1.00  0.00     0.029 A 
ATOM     57  C   UNL A   1      43.189  32.767  32.240  1.00  0.00     0.049 A 
ATOM     58  H   UNL A   1      42.353  31.205  31.096  1.00  0.00     0.167 HD
ATOM     59  C   UNL A   1      40.883  33.524  31.752  1.00  0.00     0.074 A 
ATOM     60  C   UNL A   1      39.791  34.468  31.850  1.00  0.00     0.031 C 
ATOM     61  C   UNL A   1      42.097  33.700  32.330  1.00  0.00     0.031 A 
BRANCH  48  62
ATOM     62  C   UNL A   1      45.988  28.996  31.417  1.00  0.00    -0.014 A 
ATOM     63  C   UNL A   1      47.042  29.177  30.508  1.00  0.00     0.009 A 
ATOM     64  C   UNL A   1      46.217  28.262  32.590  1.00  0.00     0.009 A 
ATOM     65  C   UNL A   1      48.292  28.607  30.755  1.00  0.00     0.001 A 
ATOM     66  C   UNL A   1      47.474  27.712  32.847  1.00  0.00     0.001 A 
ATOM     67  C   UNL A   1      48.507  27.879  31.926  1.00  0.00     0.000 A 
ENDBRANCH  48  62
BRANCH  49  68
ATOM     68  C   UNL A   1      36.863  32.521  29.541  1.00  0.00    -0.014 A 
ATOM     69  C   UNL A   1      36.596  33.288  28.396  1.00  0.00     0.009 A 
ATOM     70  C   UNL A   1      35.835  32.311  30.473  1.00  0.00     0.009 A 
ATOM     71  C   UNL A   1      35.334  33.860  28.208  1.00  0.00     0.001 A 
ATOM     72  C   UNL A   1      34.567  32.861  30.268  1.00  0.00     0.001 A 
ATOM     73  C   UNL A   1      34.321  33.643  29.142  1.00  0.00     0.000 A 
ENDBRANCH  49  68
BRANCH  61  74
ATOM     74  C   UNL A   1      42.323  34.978  33.091  1.00  0.00    -0.014 A 
ATOM     75  C   UNL A   1      43.043  36.044  32.532  1.00  0.00     0.009 A 
ATOM     76  C   UNL A   1      41.761  35.133  34.368  1.00  0.00     0.009 A 
ATOM     77  C   UNL A   1      43.220  37.230  33.248  1.00  0.00     0.001 A 
ATOM     78  C   UNL A   1      41.916  36.329  35.071  1.00  0.00     0.001 A 
ATOM     79  C   UNL A   1      42.653  37.372  34.515  1.00  0.00     0.000 A 
ENDBRANCH  61  74
ENDBRANCH  35  36
ENDBRANCH  28  30
ENDBRANCH  27  28
ENDBRANCH  26  27
ENDBRANCH   1  26
TORSDOF 15
ENDMDL
MODEL 3
REMARK VINA RESULT:      -8.9      4.991     10.948
REMARK SMILES CCc1cc(OC(F)(F)F)cc2c1O[C@@H](C(F)(F)F)C(C(=O)OCCOC(=O)c1ccc(-c3c4nc(c(-c5ccccc5)c5ccc([nH]5)c(-c5ccccc5)c5nc(c(-c6ccccc6)c6ccc3[nH]6)C=C5)C=C4)cc1)=C2
REMARK SMILES IDX 24 1 23 2 21 3 22 4 20 5 3 6 4 7 13 8 5 9 12 10 14 11 11 12
REMARK SMILES IDX 77 13 15 14 2 15 1 16 6 17 7 18 8 19 9 20 10 21 16 22 17 23
REMARK SMILES IDX 18 24 19 25 25 26 26 27 27 28 28 29 29 30 30 31 76 32 31 33
REMARK SMILES IDX 75 34 32 35 33 36 34 37 69 38 35 39 74 40 68 41 70 42 36 43
REMARK SMILES IDX 73 44 67 45 66 46 37 48 59 49 44 50 58 51 45 52 48 53 57 54
REMARK SMILES IDX 71 55 46 56 47 57 56 59 72 60 49 61 38 62 39 63 43 64 40 65
REMARK SMILES IDX 42 66 41 67 60 68 61 69 65 70 62 71 64 72 63 73 50 74 51 75
REMARK SMILES IDX 55 76 52 77 54 78 53 79
REMARK H PARENT 70 47 48 58
REMARK Flexibility Score: inf
ROOT
ATOM      1  C   UNL A   1      42.279  20.124  27.151  1.00  0.00     0.275 C 
ENDROOT
BRANCH   1   2
ATOM      2  O   UNL A   1      43.190  20.549  26.116  1.00  0.00    -0.459 OA
BRANCH   2   3
ATOM      3  C   UNL A   1      43.116  21.859  25.762  1.00  0.00     0.338 C 
ATOM      4  O   UNL A   1      42.309  22.332  24.986  1.00  0.00    -0.246 OA
BRANCH   3   5
ATOM      5  C   UNL A   1      44.113  22.683  26.487  1.00  0.00     0.087 C 
ATOM      6  C   UNL A   1      47.083  24.989  28.349  1.00  0.00    -0.002 A 
ATOM      7  C   UNL A   1      46.842  25.491  29.639  1.00  0.00     0.054 A 
ATOM      8  C   UNL A   1      46.121  24.137  27.780  1.00  0.00     0.131 A 
ATOM      9  C   UNL A   1      45.696  25.122  30.352  1.00  0.00     0.130 A 
ATOM     10  C   UNL A   1      44.936  23.815  28.449  1.00  0.00     0.021 A 
ATOM     11  O   UNL A   1      46.425  23.567  26.575  1.00  0.00    -0.475 OA
ATOM     12  C   UNL A   1      44.734  24.308  29.742  1.00  0.00     0.058 A 
ATOM     13  C   UNL A   1      43.947  22.960  27.793  1.00  0.00     0.027 C 
ATOM     14  C   UNL A   1      45.306  23.219  25.719  1.00  0.00     0.316 C 
BRANCH   6  15
ATOM     15  C   UNL A   1      48.283  25.435  27.536  1.00  0.00     0.036 C 
ATOM     16  C   UNL A   1      49.647  25.002  28.057  1.00  0.00     0.009 C 
ENDBRANCH   6  15
BRANCH   9  17
ATOM     17  O   UNL A   1      45.396  25.507  31.630  1.00  0.00    -0.406 OA
BRANCH  17  18
ATOM     18  C   UNL A   1      44.605  26.677  31.788  1.00  0.00     0.573 C 
ATOM     19  F   UNL A   1      43.485  26.624  31.037  1.00  0.00    -0.132 F 
ATOM     20  F   UNL A   1      44.270  26.857  33.084  1.00  0.00    -0.132 F 
ATOM     21  F   UNL A   1      45.327  27.746  31.388  1.00  0.00    -0.132 F 
ENDBRANCH  17  18
ENDBRANCH   9  17
BRANCH  14  22
ATOM     22  C   UNL A   1      45.880  22.378  24.559  1.00  0.00     0.430 C 
ATOM     23  F   UNL A   1      45.003  22.257  23.537  1.00  0.00    -0.167 F 
ATOM     24  F   UNL A   1      46.969  22.998  24.025  1.00  0.00    -0.167 F 
ATOM     25  F   UNL A   1      46.281  21.151  24.949  1.00  0.00    -0.167 F 
ENDBRANCH  14  22
ENDBRANCH   3   5
ENDBRANCH   2   3
ENDBRANCH   1   2
BRANCH   1  26
ATOM     26  C   UNL A   1      40.819  20.391  26.773  1.00  0.00     0.275 C 
BRANCH  26  27
ATOM     27  O   UNL A   1      40.291  21.525  27.484  1.00  0.00    -0.458 OA
BRANCH  27  28
ATOM     28  C   UNL A   1      39.599  22.403  26.722  1.00  0.00     0.338 C 
ATOM     29  O   UNL A   1      38.664  22.152  25.978  1.00  0.00    -0.246 OA
BRANCH  28  30
ATOM     30  C   UNL A   1      40.003  23.786  27.050  1.00  0.00     0.060 A 
ATOM     31  C   UNL A   1      40.398  24.029  28.368  1.00  0.00     0.016 A 
ATOM     32  C   UNL A   1      39.995  24.824  26.116  1.00  0.00     0.016 A 
ATOM     33  C   UNL A   1      40.855  25.290  28.747  1.00  0.00     0.010 A 
ATOM     34  C   UNL A   1      40.403  26.106  26.509  1.00  0.00     0.010 A 
ATOM     35  C   UNL A   1      40.846  26.340  27.822  1.00  0.00    -0.014 A 
BRANCH  35  36
ATOM     36  C   UNL A   1      41.205  27.703  28.279  1.00  0.00     0.031 A 
ATOM     37  C   UNL A   1      42.648  28.113  28.293  1.00  0.00     0.074 A 
ATOM     38  C   UNL A   1      40.251  28.585  28.628  1.00  0.00     0.049 A 
ATOM     39  N   UNL A   1      43.180  29.259  28.635  1.00  0.00    -0.248 NA
ATOM     40  C   UNL A   1      43.621  27.102  27.850  1.00  0.00     0.031 C 
ATOM     41  C   UNL A   1      38.811  28.339  28.582  1.00  0.00     0.029 A 
ATOM     42  N   UNL A   1      40.360  29.873  29.089  1.00  0.00    -0.354 N 
ATOM     43  C   UNL A   1      44.546  29.113  28.435  1.00  0.00     0.074 A 
ATOM     44  C   UNL A   1      44.764  27.763  27.960  1.00  0.00     0.031 C 
ATOM     45  C   UNL A   1      38.169  29.438  29.017  1.00  0.00     0.029 A 
ATOM     46  C   UNL A   1      39.153  30.452  29.393  1.00  0.00     0.049 A 
ATOM     47  H   UNL A   1      41.222  30.337  29.191  1.00  0.00     0.167 HD
ATOM     48  C   UNL A   1      45.532  30.019  28.632  1.00  0.00     0.031 A 
ATOM     49  C   UNL A   1      38.877  31.655  29.936  1.00  0.00     0.031 A 
ATOM     50  C   UNL A   1      45.328  31.343  29.155  1.00  0.00     0.049 A 
ATOM     51  C   UNL A   1      40.007  32.595  30.268  1.00  0.00     0.074 A 
ATOM     52  C   UNL A   1      46.273  32.322  29.411  1.00  0.00     0.029 A 
ATOM     53  N   UNL A   1      44.099  31.866  29.522  1.00  0.00    -0.354 N 
ATOM     54  N   UNL A   1      41.292  32.456  30.055  1.00  0.00    -0.248 NA
ATOM     55  C   UNL A   1      39.642  33.864  30.919  1.00  0.00     0.031 C 
ATOM     56  C   UNL A   1      45.620  33.418  29.988  1.00  0.00     0.029 A 
ATOM     57  C   UNL A   1      44.263  33.141  30.035  1.00  0.00     0.049 A 
ATOM     58  H   UNL A   1      43.237  31.399  29.433  1.00  0.00     0.167 HD
ATOM     59  C   UNL A   1      41.883  33.627  30.514  1.00  0.00     0.074 A 
ATOM     60  C   UNL A   1      40.817  34.472  31.007  1.00  0.00     0.031 C 
ATOM     61  C   UNL A   1      43.195  33.973  30.522  1.00  0.00     0.031 A 
BRANCH  48  62
ATOM     62  C   UNL A   1      46.934  29.579  28.327  1.00  0.00    -0.014 A 
ATOM     63  C   UNL A   1      47.782  29.100  29.338  1.00  0.00     0.009 A 
ATOM     64  C   UNL A   1      47.404  29.625  27.006  1.00  0.00     0.009 A 
ATOM     65  C   UNL A   1      49.085  28.703  29.035  1.00  0.00     0.001 A 
ATOM     66  C   UNL A   1      48.700  29.206  26.702  1.00  0.00     0.001 A 
ATOM     67  C   UNL A   1      49.541  28.753  27.718  1.00  0.00     0.000 A 
ENDBRANCH  48  62
BRANCH  49  68
ATOM     68  C   UNL A   1      37.474  32.036  30.243  1.00  0.00    -0.014 A 
ATOM     69  C   UNL A   1      36.880  31.675  31.463  1.00  0.00     0.009 A 
ATOM     70  C   UNL A   1      36.703  32.722  29.290  1.00  0.00     0.009 A 
ATOM     71  C   UNL A   1      35.535  31.966  31.707  1.00  0.00     0.001 A 
ATOM     72  C   UNL A   1      35.368  33.036  29.550  1.00  0.00     0.001 A 
ATOM     73  C   UNL A   1      34.781  32.648  30.753  1.00  0.00     0.000 A 
ENDBRANCH  49  68
BRANCH  61  74
ATOM     74  C   UNL A   1      43.548  35.338  31.046  1.00  0.00    -0.014 A 
ATOM     75  C   UNL A   1      43.655  36.445  30.191  1.00  0.00     0.009 A 
ATOM     76  C   UNL A   1      43.726  35.525  32.427  1.00  0.00     0.009 A 
ATOM     77  C   UNL A   1      43.962  37.707  30.705  1.00  0.00     0.001 A 
ATOM     78  C   UNL A   1      44.005  36.792  32.940  1.00  0.00     0.001 A 
ATOM     79  C   UNL A   1      44.132  37.880  32.079  1.00  0.00     0.000 A 
ENDBRANCH  61  74
ENDBRANCH  35  36
ENDBRANCH  28  30
ENDBRANCH  27  28
ENDBRANCH  26  27
ENDBRANCH   1  26
TORSDOF 15
ENDMDL
