MODEL 1
REMARK VINA RESULT:      -8.8      0.000      0.000
REMARK SMILES CCN(CC(C)(C)O)C(=O)NCCCC(=O)OCCOC(=O)c1ccc(-c2c3nc(c(-c4ccccc4)c4ccc([nH]4)c(-c4ccccc4)c4nc(c(-c5ccccc5)c5ccc2[nH]5)C=C4)C=C3)cc1
REMARK SMILES IDX 15 1 16 2 14 3 13 4 12 5 11 6 9 7 10 8 3 10 2 11 1 12 4 13
REMARK SMILES IDX 5 14 6 15 7 16 8 17 17 19 18 20 19 21 20 22 21 23 22 24
REMARK SMILES IDX 23 25 24 26 70 27 25 28 69 29 26 30 27 31 28 32 63 33 29 34
REMARK SMILES IDX 68 35 62 36 64 37 30 38 67 39 61 40 60 41 31 43 53 44 38 45
REMARK SMILES IDX 52 46 39 47 42 48 51 49 65 50 40 51 41 52 50 54 66 55 43 56
REMARK SMILES IDX 32 57 33 58 37 59 34 60 36 61 35 62 54 63 55 64 59 65 56 66
REMARK SMILES IDX 58 67 57 68 44 69 45 70 49 71 46 72 48 73 47 74
REMARK H PARENT 11 9 8 18 64 42 42 53
REMARK Flexibility Score: inf
ROOT
ATOM      1  C   UNL A   1      37.268  22.933  25.499  1.00  0.00     0.305 C 
ATOM      2  O   UNL A   1      37.486  23.985  26.083  1.00  0.00    -0.252 OA
ENDROOT
BRANCH   1   3
ATOM      3  C   UNL A   1      35.913  22.544  24.957  1.00  0.00     0.124 C 
BRANCH   3   4
ATOM      4  C   UNL A   1      34.768  23.000  25.852  1.00  0.00     0.033 C 
BRANCH   4   5
ATOM      5  C   UNL A   1      33.499  23.412  25.107  1.00  0.00     0.118 C 
BRANCH   5   6
ATOM      6  N   UNL A   1      32.347  23.254  25.968  1.00  0.00    -0.338 N 
ATOM      7  C   UNL A   1      31.358  24.006  26.465  1.00  0.00     0.317 C 
ATOM      8  O   UNL A   1      30.639  23.400  27.271  1.00  0.00    -0.249 OA
ATOM      9  H   UNL A   1      32.267  22.324  26.277  1.00  0.00     0.165 HD
BRANCH   7  10
ATOM     10  N   UNL A   1      31.119  25.305  26.123  1.00  0.00    -0.322 N 
BRANCH  10  11
ATOM     11  C   UNL A   1      32.258  26.219  26.290  1.00  0.00     0.118 C 
ATOM     12  C   UNL A   1      31.810  27.586  26.800  1.00  0.00     0.027 C 
ENDBRANCH  10  11
BRANCH  10  13
ATOM     13  C   UNL A   1      29.873  25.950  25.677  1.00  0.00     0.155 C 
BRANCH  13  14
ATOM     14  C   UNL A   1      29.680  26.015  24.130  1.00  0.00     0.077 C 
ATOM     15  C   UNL A   1      30.233  27.277  23.465  1.00  0.00     0.043 C 
ATOM     16  C   UNL A   1      30.332  24.784  23.489  1.00  0.00     0.043 C 
BRANCH  14  17
ATOM     17  O   UNL A   1      28.274  25.937  23.839  1.00  0.00    -0.389 OA
ATOM     18  H   UNL A   1      28.043  26.602  23.172  1.00  0.00     0.211 HD
ENDBRANCH  14  17
ENDBRANCH  13  14
ENDBRANCH  10  13
ENDBRANCH   7  10
ENDBRANCH   5   6
ENDBRANCH   4   5
ENDBRANCH   3   4
ENDBRANCH   1   3
BRANCH   1  19
ATOM     19  O   UNL A   1      38.188  21.965  25.255  1.00  0.00    -0.462 OA
BRANCH  19  20
ATOM     20  C   UNL A   1      37.691  20.633  25.033  1.00  0.00     0.274 C 
BRANCH  20  21
ATOM     21  C   UNL A   1      38.832  19.615  24.967  1.00  0.00     0.275 C 
BRANCH  21  22
ATOM     22  O   UNL A   1      39.555  19.566  26.212  1.00  0.00    -0.458 OA
BRANCH  22  23
ATOM     23  C   UNL A   1      40.902  19.621  26.112  1.00  0.00     0.338 C 
ATOM     24  O   UNL A   1      41.637  18.779  25.613  1.00  0.00    -0.246 OA
BRANCH  23  25
ATOM     25  C   UNL A   1      41.392  20.922  26.605  1.00  0.00     0.060 A 
ATOM     26  C   UNL A   1      41.189  21.244  27.952  1.00  0.00     0.016 A 
ATOM     27  C   UNL A   1      41.990  21.847  25.746  1.00  0.00     0.016 A 
ATOM     28  C   UNL A   1      41.563  22.493  28.441  1.00  0.00     0.010 A 
ATOM     29  C   UNL A   1      42.372  23.100  26.240  1.00  0.00     0.010 A 
ATOM     30  C   UNL A   1      42.145  23.435  27.586  1.00  0.00    -0.014 A 
BRANCH  30  31
ATOM     31  C   UNL A   1      42.464  24.788  28.101  1.00  0.00     0.031 A 
ATOM     32  C   UNL A   1      43.882  25.140  28.447  1.00  0.00     0.074 A 
ATOM     33  C   UNL A   1      41.491  25.708  28.222  1.00  0.00     0.049 A 
ATOM     34  N   UNL A   1      44.360  26.260  28.930  1.00  0.00    -0.248 NA
ATOM     35  C   UNL A   1      44.896  24.098  28.221  1.00  0.00     0.031 C 
ATOM     36  C   UNL A   1      40.084  25.504  27.878  1.00  0.00     0.029 A 
ATOM     37  N   UNL A   1      41.544  27.005  28.669  1.00  0.00    -0.354 N 
ATOM     38  C   UNL A   1      45.726  26.051  29.078  1.00  0.00     0.074 A 
ATOM     39  C   UNL A   1      45.997  24.695  28.654  1.00  0.00     0.031 C 
ATOM     40  C   UNL A   1      39.407  26.639  28.120  1.00  0.00     0.029 A 
ATOM     41  C   UNL A   1      40.323  27.634  28.670  1.00  0.00     0.049 A 
ATOM     42  H   UNL A   1      42.377  27.442  28.960  1.00  0.00     0.167 HD
ATOM     43  C   UNL A   1      46.670  26.915  29.525  1.00  0.00     0.031 A 
ATOM     44  C   UNL A   1      39.979  28.868  29.085  1.00  0.00     0.031 A 
ATOM     45  C   UNL A   1      46.403  28.263  29.951  1.00  0.00     0.049 A 
ATOM     46  C   UNL A   1      41.036  29.784  29.634  1.00  0.00     0.074 A 
ATOM     47  C   UNL A   1      47.298  29.214  30.412  1.00  0.00     0.029 A 
ATOM     48  N   UNL A   1      45.148  28.850  29.972  1.00  0.00    -0.354 N 
ATOM     49  N   UNL A   1      42.325  29.579  29.760  1.00  0.00    -0.248 NA
ATOM     50  C   UNL A   1      40.589  31.108  30.094  1.00  0.00     0.031 C 
ATOM     51  C   UNL A   1      46.576  30.364  30.753  1.00  0.00     0.029 A 
ATOM     52  C   UNL A   1      45.241  30.144  30.456  1.00  0.00     0.049 A 
ATOM     53  H   UNL A   1      44.314  28.412  29.685  1.00  0.00     0.167 HD
ATOM     54  C   UNL A   1      42.846  30.754  30.287  1.00  0.00     0.074 A 
ATOM     55  C   UNL A   1      41.736  31.671  30.447  1.00  0.00     0.031 C 
ATOM     56  C   UNL A   1      44.129  31.046  30.608  1.00  0.00     0.031 A 
BRANCH  43  57
ATOM     57  C   UNL A   1      48.081  26.409  29.606  1.00  0.00    -0.014 A 
ATOM     58  C   UNL A   1      48.567  25.788  30.766  1.00  0.00     0.009 A 
ATOM     59  C   UNL A   1      48.926  26.525  28.491  1.00  0.00     0.009 A 
ATOM     60  C   UNL A   1      49.882  25.321  30.820  1.00  0.00     0.001 A 
ATOM     61  C   UNL A   1      50.232  26.036  28.538  1.00  0.00     0.001 A 
ATOM     62  C   UNL A   1      50.712  25.443  29.705  1.00  0.00     0.000 A 
ENDBRANCH  43  57
BRANCH  44  63
ATOM     63  C   UNL A   1      38.562  29.306  29.013  1.00  0.00    -0.014 A 
ATOM     64  C   UNL A   1      37.731  29.225  30.140  1.00  0.00     0.009 A 
ATOM     65  C   UNL A   1      38.032  29.800  27.811  1.00  0.00     0.009 A 
ATOM     66  C   UNL A   1      36.391  29.608  30.058  1.00  0.00     0.001 A 
ATOM     67  C   UNL A   1      36.698  30.207  27.739  1.00  0.00     0.001 A 
ATOM     68  C   UNL A   1      35.877  30.103  28.860  1.00  0.00     0.000 A 
ENDBRANCH  44  63
BRANCH  56  69
ATOM     69  C   UNL A   1      44.409  32.428  31.127  1.00  0.00    -0.014 A 
ATOM     70  C   UNL A   1      44.406  32.705  32.502  1.00  0.00     0.009 A 
ATOM     71  C   UNL A   1      44.717  33.458  30.225  1.00  0.00     0.009 A 
ATOM     72  C   UNL A   1      44.675  33.996  32.961  1.00  0.00     0.001 A 
ATOM     73  C   UNL A   1      45.011  34.741  30.688  1.00  0.00     0.001 A 
ATOM     74  C   UNL A   1      44.981  35.011  32.055  1.00  0.00     0.000 A 
ENDBRANCH  56  69
ENDBRANCH  30  31
ENDBRANCH  23  25
ENDBRANCH  22  23
ENDBRANCH  21  22
ENDBRANCH  20  21
ENDBRANCH  19  20
ENDBRANCH   1  19
TORSDOF 19
ENDMDL
MODEL 2
REMARK VINA RESULT:      -8.8      2.655      7.069
REMARK SMILES CCN(CC(C)(C)O)C(=O)NCCCC(=O)OCCOC(=O)c1ccc(-c2c3nc(c(-c4ccccc4)c4ccc([nH]4)c(-c4ccccc4)c4nc(c(-c5ccccc5)c5ccc2[nH]5)C=C4)C=C3)cc1
REMARK SMILES IDX 15 1 16 2 14 3 13 4 12 5 11 6 9 7 10 8 3 10 2 11 1 12 4 13
REMARK SMILES IDX 5 14 6 15 7 16 8 17 17 19 18 20 19 21 20 22 21 23 22 24
REMARK SMILES IDX 23 25 24 26 70 27 25 28 69 29 26 30 27 31 28 32 63 33 29 34
REMARK SMILES IDX 68 35 62 36 64 37 30 38 67 39 61 40 60 41 31 43 53 44 38 45
REMARK SMILES IDX 52 46 39 47 42 48 51 49 65 50 40 51 41 52 50 54 66 55 43 56
REMARK SMILES IDX 32 57 33 58 37 59 34 60 36 61 35 62 54 63 55 64 59 65 56 66
REMARK SMILES IDX 58 67 57 68 44 69 45 70 49 71 46 72 48 73 47 74
REMARK H PARENT 11 9 8 18 64 42 42 53
REMARK Flexibility Score: inf
ROOT
ATOM      1  C   UNL A   1      37.396  23.291  25.676  1.00  0.00     0.305 C 
ATOM      2  O   UNL A   1      37.805  24.093  26.504  1.00  0.00    -0.252 OA
ENDROOT
BRANCH   1   3
ATOM      3  C   UNL A   1      35.947  23.180  25.266  1.00  0.00     0.124 C 
BRANCH   3   4
ATOM      4  C   UNL A   1      35.010  23.009  26.455  1.00  0.00     0.033 C 
BRANCH   4   5
ATOM      5  C   UNL A   1      34.248  21.685  26.482  1.00  0.00     0.118 C 
BRANCH   5   6
ATOM      6  N   UNL A   1      34.955  20.692  25.702  1.00  0.00    -0.338 N 
ATOM      7  C   UNL A   1      34.683  19.567  25.030  1.00  0.00     0.317 C 
ATOM      8  O   UNL A   1      35.693  19.002  24.592  1.00  0.00    -0.249 OA
ATOM      9  H   UNL A   1      35.913  20.906  25.650  1.00  0.00     0.165 HD
BRANCH   7  10
ATOM     10  N   UNL A   1      33.430  19.075  24.808  1.00  0.00    -0.322 N 
BRANCH  10  11
ATOM     11  C   UNL A   1      32.572  19.903  23.948  1.00  0.00     0.118 C 
ATOM     12  C   UNL A   1      32.201  19.175  22.659  1.00  0.00     0.027 C 
ENDBRANCH  10  11
BRANCH  10  13
ATOM     13  C   UNL A   1      32.776  17.874  25.354  1.00  0.00     0.155 C 
BRANCH  13  14
ATOM     14  C   UNL A   1      33.509  16.529  25.055  1.00  0.00     0.077 C 
ATOM     15  C   UNL A   1      32.727  15.271  25.441  1.00  0.00     0.043 C 
ATOM     16  C   UNL A   1      33.856  16.466  23.563  1.00  0.00     0.043 C 
BRANCH  14  17
ATOM     17  O   UNL A   1      34.755  16.517  25.771  1.00  0.00    -0.389 OA
ATOM     18  H   UNL A   1      35.484  16.692  25.156  1.00  0.00     0.211 HD
ENDBRANCH  14  17
ENDBRANCH  13  14
ENDBRANCH  10  13
ENDBRANCH   7  10
ENDBRANCH   5   6
ENDBRANCH   4   5
ENDBRANCH   3   4
ENDBRANCH   1   3
BRANCH   1  19
ATOM     19  O   UNL A   1      38.162  22.388  25.012  1.00  0.00    -0.462 OA
BRANCH  19  20
ATOM     20  C   UNL A   1      38.301  21.086  25.610  1.00  0.00     0.274 C 
BRANCH  20  21
ATOM     21  C   UNL A   1      39.689  20.902  26.228  1.00  0.00     0.275 C 
BRANCH  21  22
ATOM     22  O   UNL A   1      40.321  19.705  25.736  1.00  0.00    -0.458 OA
BRANCH  22  23
ATOM     23  C   UNL A   1      41.639  19.580  26.012  1.00  0.00     0.338 C 
ATOM     24  O   UNL A   1      42.327  18.577  25.870  1.00  0.00    -0.246 OA
BRANCH  23  25
ATOM     25  C   UNL A   1      42.195  20.883  26.422  1.00  0.00     0.060 A 
ATOM     26  C   UNL A   1      42.252  21.183  27.789  1.00  0.00     0.016 A 
ATOM     27  C   UNL A   1      42.601  21.831  25.480  1.00  0.00     0.016 A 
ATOM     28  C   UNL A   1      42.694  22.431  28.218  1.00  0.00     0.010 A 
ATOM     29  C   UNL A   1      43.051  23.084  25.912  1.00  0.00     0.010 A 
ATOM     30  C   UNL A   1      43.085  23.395  27.282  1.00  0.00    -0.014 A 
BRANCH  30  31
ATOM     31  C   UNL A   1      43.476  24.747  27.749  1.00  0.00     0.031 A 
ATOM     32  C   UNL A   1      42.418  25.765  28.063  1.00  0.00     0.074 A 
ATOM     33  C   UNL A   1      44.775  25.048  27.925  1.00  0.00     0.049 A 
ATOM     34  N   UNL A   1      42.557  27.004  28.461  1.00  0.00    -0.248 NA
ATOM     35  C   UNL A   1      41.020  25.333  27.908  1.00  0.00     0.031 C 
ATOM     36  C   UNL A   1      45.895  24.134  27.698  1.00  0.00     0.029 A 
ATOM     37  N   UNL A   1      45.370  26.213  28.340  1.00  0.00    -0.354 N 
ATOM     38  C   UNL A   1      41.267  27.503  28.591  1.00  0.00     0.074 A 
ATOM     39  C   UNL A   1      40.361  26.442  28.210  1.00  0.00     0.031 C 
ATOM     40  C   UNL A   1      47.042  24.772  27.983  1.00  0.00     0.029 A 
ATOM     41  C   UNL A   1      46.741  26.145  28.376  1.00  0.00     0.049 A 
ATOM     42  H   UNL A   1      44.863  27.019  28.589  1.00  0.00     0.167 HD
ATOM     43  C   UNL A   1      40.874  28.736  28.995  1.00  0.00     0.031 A 
ATOM     44  C   UNL A   1      47.653  27.090  28.674  1.00  0.00     0.031 A 
ATOM     45  C   UNL A   1      41.772  29.795  29.371  1.00  0.00     0.049 A 
ATOM     46  C   UNL A   1      47.191  28.468  29.059  1.00  0.00     0.074 A 
ATOM     47  C   UNL A   1      41.464  31.074  29.801  1.00  0.00     0.029 A 
ATOM     48  N   UNL A   1      43.154  29.698  29.358  1.00  0.00    -0.354 N 
ATOM     49  N   UNL A   1      45.968  28.924  29.188  1.00  0.00    -0.248 NA
ATOM     50  C   UNL A   1      48.237  29.460  29.346  1.00  0.00     0.031 C 
ATOM     51  C   UNL A   1      42.663  31.766  30.007  1.00  0.00     0.029 A 
ATOM     52  C   UNL A   1      43.715  30.901  29.754  1.00  0.00     0.049 A 
ATOM     53  H   UNL A   1      43.662  28.893  29.105  1.00  0.00     0.167 HD
ATOM     54  C   UNL A   1      46.098  30.245  29.595  1.00  0.00     0.074 A 
ATOM     55  C   UNL A   1      47.517  30.514  29.703  1.00  0.00     0.031 C 
ATOM     56  C   UNL A   1      45.128  31.154  29.858  1.00  0.00     0.031 A 
BRANCH  43  57
ATOM     57  C   UNL A   1      39.397  29.012  29.018  1.00  0.00    -0.014 A 
ATOM     58  C   UNL A   1      38.724  29.472  27.876  1.00  0.00     0.009 A 
ATOM     59  C   UNL A   1      38.665  28.777  30.192  1.00  0.00     0.009 A 
ATOM     60  C   UNL A   1      37.351  29.720  27.918  1.00  0.00     0.001 A 
ATOM     61  C   UNL A   1      37.288  29.003  30.224  1.00  0.00     0.001 A 
ATOM     62  C   UNL A   1      36.634  29.482  29.090  1.00  0.00     0.000 A 
ENDBRANCH  43  57
BRANCH  44  63
ATOM     63  C   UNL A   1      49.102  26.772  28.603  1.00  0.00    -0.014 A 
ATOM     64  C   UNL A   1      49.790  26.324  29.740  1.00  0.00     0.009 A 
ATOM     65  C   UNL A   1      49.804  26.925  27.398  1.00  0.00     0.009 A 
ATOM     66  C   UNL A   1      51.159  26.056  29.676  1.00  0.00     0.001 A 
ATOM     67  C   UNL A   1      51.168  26.632  27.331  1.00  0.00     0.001 A 
ATOM     68  C   UNL A   1      51.845  26.207  28.472  1.00  0.00     0.000 A 
ENDBRANCH  44  63
BRANCH  56  69
ATOM     69  C   UNL A   1      45.568  32.511  30.328  1.00  0.00    -0.014 A 
ATOM     70  C   UNL A   1      45.771  32.781  31.690  1.00  0.00     0.009 A 
ATOM     71  C   UNL A   1      45.817  33.523  29.388  1.00  0.00     0.009 A 
ATOM     72  C   UNL A   1      46.186  34.048  32.102  1.00  0.00     0.001 A 
ATOM     73  C   UNL A   1      46.256  34.782  29.802  1.00  0.00     0.001 A 
ATOM     74  C   UNL A   1      46.431  35.046  31.159  1.00  0.00     0.000 A 
ENDBRANCH  56  69
ENDBRANCH  30  31
ENDBRANCH  23  25
ENDBRANCH  22  23
ENDBRANCH  21  22
ENDBRANCH  20  21
ENDBRANCH  19  20
ENDBRANCH   1  19
TORSDOF 19
ENDMDL
MODEL 3
REMARK VINA RESULT:      -8.7      1.462      1.999
REMARK SMILES CCN(CC(C)(C)O)C(=O)NCCCC(=O)OCCOC(=O)c1ccc(-c2c3nc(c(-c4ccccc4)c4ccc([nH]4)c(-c4ccccc4)c4nc(c(-c5ccccc5)c5ccc2[nH]5)C=C4)C=C3)cc1
REMARK SMILES IDX 15 1 16 2 14 3 13 4 12 5 11 6 9 7 10 8 3 10 2 11 1 12 4 13
REMARK SMILES IDX 5 14 6 15 7 16 8 17 17 19 18 20 19 21 20 22 21 23 22 24
REMARK SMILES IDX 23 25 24 26 70 27 25 28 69 29 26 30 27 31 28 32 63 33 29 34
REMARK SMILES IDX 68 35 62 36 64 37 30 38 67 39 61 40 60 41 31 43 53 44 38 45
REMARK SMILES IDX 52 46 39 47 42 48 51 49 65 50 40 51 41 52 50 54 66 55 43 56
REMARK SMILES IDX 32 57 33 58 37 59 34 60 36 61 35 62 54 63 55 64 59 65 56 66
REMARK SMILES IDX 58 67 57 68 44 69 45 70 49 71 46 72 48 73 47 74
REMARK H PARENT 11 9 8 18 64 42 42 53
REMARK Flexibility Score: inf
ROOT
ATOM      1  C   UNL A   1      36.428  21.244  25.159  1.00  0.00     0.305 C 
ATOM      2  O   UNL A   1      35.624  20.337  24.993  1.00  0.00    -0.252 OA
ENDROOT
BRANCH   1   3
ATOM      3  C   UNL A   1      36.116  22.504  25.932  1.00  0.00     0.124 C 
BRANCH   3   4
ATOM      4  C   UNL A   1      34.725  22.483  26.554  1.00  0.00     0.033 C 
BRANCH   4   5
ATOM      5  C   UNL A   1      33.716  23.421  25.894  1.00  0.00     0.118 C 
BRANCH   5   6
ATOM      6  N   UNL A   1      34.101  23.674  24.522  1.00  0.00    -0.338 N 
ATOM      7  C   UNL A   1      33.724  24.457  23.505  1.00  0.00     0.317 C 
ATOM      8  O   UNL A   1      34.334  24.223  22.454  1.00  0.00    -0.249 OA
ATOM      9  H   UNL A   1      34.862  23.108  24.263  1.00  0.00     0.165 HD
BRANCH   7  10
ATOM     10  N   UNL A   1      32.783  25.441  23.586  1.00  0.00    -0.322 N 
BRANCH  10  11
ATOM     11  C   UNL A   1      31.418  25.040  23.213  1.00  0.00     0.118 C 
ATOM     12  C   UNL A   1      30.454  25.173  24.388  1.00  0.00     0.027 C 
ENDBRANCH  10  11
BRANCH  10  13
ATOM     13  C   UNL A   1      32.933  26.867  23.922  1.00  0.00     0.155 C 
BRANCH  13  14
ATOM     14  C   UNL A   1      33.005  27.831  22.697  1.00  0.00     0.077 C 
ATOM     15  C   UNL A   1      31.711  28.593  22.402  1.00  0.00     0.043 C 
ATOM     16  C   UNL A   1      34.142  28.837  22.913  1.00  0.00     0.043 C 
BRANCH  14  17
ATOM     17  O   UNL A   1      33.347  27.064  21.530  1.00  0.00    -0.389 OA
ATOM     18  H   UNL A   1      32.566  26.969  20.963  1.00  0.00     0.211 HD
ENDBRANCH  14  17
ENDBRANCH  13  14
ENDBRANCH  10  13
ENDBRANCH   7  10
ENDBRANCH   5   6
ENDBRANCH   4   5
ENDBRANCH   3   4
ENDBRANCH   1   3
BRANCH   1  19
ATOM     19  O   UNL A   1      37.698  21.267  24.679  1.00  0.00    -0.462 OA
BRANCH  19  20
ATOM     20  C   UNL A   1      38.759  21.078  25.633  1.00  0.00     0.274 C 
BRANCH  20  21
ATOM     21  C   UNL A   1      39.414  19.705  25.474  1.00  0.00     0.275 C 
BRANCH  21  22
ATOM     22  O   UNL A   1      40.474  19.521  26.431  1.00  0.00    -0.458 OA
BRANCH  22  23
ATOM     23  C   UNL A   1      41.718  19.824  25.997  1.00  0.00     0.338 C 
ATOM     24  O   UNL A   1      42.405  19.171  25.221  1.00  0.00    -0.246 OA
BRANCH  23  25
ATOM     25  C   UNL A   1      42.124  21.146  26.510  1.00  0.00     0.060 A 
ATOM     26  C   UNL A   1      42.043  21.380  27.888  1.00  0.00     0.016 A 
ATOM     27  C   UNL A   1      42.523  22.170  25.648  1.00  0.00     0.016 A 
ATOM     28  C   UNL A   1      42.339  22.637  28.407  1.00  0.00     0.010 A 
ATOM     29  C   UNL A   1      42.826  23.432  26.171  1.00  0.00     0.010 A 
ATOM     30  C   UNL A   1      42.720  23.677  27.551  1.00  0.00    -0.014 A 
BRANCH  30  31
ATOM     31  C   UNL A   1      42.954  25.031  28.107  1.00  0.00     0.031 A 
ATOM     32  C   UNL A   1      44.345  25.453  28.484  1.00  0.00     0.074 A 
ATOM     33  C   UNL A   1      41.928  25.890  28.240  1.00  0.00     0.049 A 
ATOM     34  N   UNL A   1      44.752  26.584  29.005  1.00  0.00    -0.248 NA
ATOM     35  C   UNL A   1      45.420  24.477  28.245  1.00  0.00     0.031 C 
ATOM     36  C   UNL A   1      40.540  25.616  27.868  1.00  0.00     0.029 A 
ATOM     37  N   UNL A   1      41.901  27.174  28.722  1.00  0.00    -0.354 N 
ATOM     38  C   UNL A   1      46.125  26.449  29.168  1.00  0.00     0.074 A 
ATOM     39  C   UNL A   1      46.479  25.123  28.711  1.00  0.00     0.031 C 
ATOM     40  C   UNL A   1      39.796  26.703  28.132  1.00  0.00     0.029 A 
ATOM     41  C   UNL A   1      40.646  27.733  28.723  1.00  0.00     0.049 A 
ATOM     42  H   UNL A   1      42.703  27.650  29.037  1.00  0.00     0.167 HD
ATOM     43  C   UNL A   1      47.012  27.353  29.652  1.00  0.00     0.031 A 
ATOM     44  C   UNL A   1      40.226  28.933  29.166  1.00  0.00     0.031 A 
ATOM     45  C   UNL A   1      46.663  28.670  30.111  1.00  0.00     0.049 A 
ATOM     46  C   UNL A   1      41.222  29.892  29.756  1.00  0.00     0.074 A 
ATOM     47  C   UNL A   1      47.495  29.657  30.611  1.00  0.00     0.029 A 
ATOM     48  N   UNL A   1      45.376  29.185  30.129  1.00  0.00    -0.354 N 
ATOM     49  N   UNL A   1      42.518  29.757  29.895  1.00  0.00    -0.248 NA
ATOM     50  C   UNL A   1      40.694  31.174  30.245  1.00  0.00     0.031 C 
ATOM     51  C   UNL A   1      46.704  30.754  30.973  1.00  0.00     0.029 A 
ATOM     52  C   UNL A   1      45.388  30.467  30.650  1.00  0.00     0.049 A 
ATOM     53  H   UNL A   1      44.572  28.708  29.818  1.00  0.00     0.167 HD
ATOM     54  C   UNL A   1      42.964  30.944  30.462  1.00  0.00     0.074 A 
ATOM     55  C   UNL A   1      41.802  31.791  30.631  1.00  0.00     0.031 C 
ATOM     56  C   UNL A   1      44.225  31.300  30.811  1.00  0.00     0.031 A 
BRANCH  43  57
ATOM     57  C   UNL A   1      48.449  26.925  29.740  1.00  0.00    -0.014 A 
ATOM     58  C   UNL A   1      49.350  27.179  28.695  1.00  0.00     0.009 A 
ATOM     59  C   UNL A   1      48.913  26.287  30.901  1.00  0.00     0.009 A 
ATOM     60  C   UNL A   1      50.683  26.775  28.798  1.00  0.00     0.001 A 
ATOM     61  C   UNL A   1      50.251  25.906  31.011  1.00  0.00     0.001 A 
ATOM     62  C   UNL A   1      51.132  26.142  29.957  1.00  0.00     0.000 A 
ENDBRANCH  43  57
BRANCH  44  63
ATOM     63  C   UNL A   1      38.788  29.292  29.085  1.00  0.00    -0.014 A 
ATOM     64  C   UNL A   1      37.931  29.056  30.170  1.00  0.00     0.009 A 
ATOM     65  C   UNL A   1      38.264  29.865  27.916  1.00  0.00     0.009 A 
ATOM     66  C   UNL A   1      36.573  29.366  30.077  1.00  0.00     0.001 A 
ATOM     67  C   UNL A   1      36.910  30.197  27.835  1.00  0.00     0.001 A 
ATOM     68  C   UNL A   1      36.065  29.939  28.912  1.00  0.00     0.000 A 
ENDBRANCH  44  63
BRANCH  56  69
ATOM     69  C   UNL A   1      44.418  32.680  31.371  1.00  0.00    -0.014 A 
ATOM     70  C   UNL A   1      44.653  33.780  30.533  1.00  0.00     0.009 A 
ATOM     71  C   UNL A   1      44.327  32.885  32.756  1.00  0.00     0.009 A 
ATOM     72  C   UNL A   1      44.823  35.055  31.076  1.00  0.00     0.001 A 
ATOM     73  C   UNL A   1      44.472  34.165  33.294  1.00  0.00     0.001 A 
ATOM     74  C   UNL A   1      44.730  35.247  32.454  1.00  0.00     0.000 A 
ENDBRANCH  56  69
ENDBRANCH  30  31
ENDBRANCH  23  25
ENDBRANCH  22  23
ENDBRANCH  21  22
ENDBRANCH  20  21
ENDBRANCH  19  20
ENDBRANCH   1  19
TORSDOF 19
ENDMDL
