MODEL 1
REMARK VINA RESULT:     -12.6      0.000      0.000
REMARK SMILES C/C(=N\Nc1nc(-c2ccc(Cl)cc2)cs1)c1nnn(-c2ccc(C(=O)OCCOC(=O)c3ccc(-c4c5nc(c(-c6ccccc6)c6ccc([nH]6)c(-c6ccccc6)c6nc(c(-c7ccccc7)c7ccc4[nH]7)C=C6)C=C5)cc3)cc2)c1C
REMARK SMILES IDX 27 1 25 2 26 3 24 4 21 5 22 6 82 7 23 8 81 9 20 10 17 11
REMARK SMILES IDX 18 12 83 13 19 14 84 15 2 16 1 17 3 18 4 19 5 21 6 22 16 23
REMARK SMILES IDX 7 24 15 25 8 26 9 27 14 28 10 29 13 30 11 31 12 32 28 33
REMARK SMILES IDX 29 34 30 35 31 36 32 37 33 38 34 39 80 40 35 41 79 42 36 43
REMARK SMILES IDX 37 44 38 45 73 46 39 47 78 48 72 49 74 50 40 51 77 52 71 53
REMARK SMILES IDX 70 54 41 56 63 57 48 58 62 59 49 60 52 61 61 62 75 63 50 64
REMARK SMILES IDX 51 65 60 67 76 68 53 69 42 70 43 71 47 72 44 73 46 74 45 75
REMARK SMILES IDX 64 76 65 77 69 78 66 79 68 80 67 81 54 82 55 83 59 84 56 85
REMARK SMILES IDX 58 86 57 87
REMARK H PARENT 4 20 74 55 52 66
REMARK Flexibility Score: inf
ROOT
ATOM      1  O   UNL A   1      33.507  34.201  28.124  1.00  0.00    -0.458 OA
ENDROOT
BRANCH   1   2
ATOM      2  C   UNL A   1      34.364  33.227  27.724  1.00  0.00     0.338 C 
ATOM      3  O   UNL A   1      35.567  33.350  27.539  1.00  0.00    -0.246 OA
BRANCH   2   4
ATOM      4  C   UNL A   1      33.647  31.930  27.620  1.00  0.00     0.060 A 
ATOM      5  C   UNL A   1      32.431  29.481  27.143  1.00  0.00     0.067 A 
ATOM      6  C   UNL A   1      33.731  29.499  27.657  1.00  0.00     0.029 A 
ATOM      7  C   UNL A   1      31.689  30.661  27.020  1.00  0.00     0.029 A 
ATOM      8  C   UNL A   1      34.344  30.736  27.878  1.00  0.00     0.018 A 
ATOM      9  C   UNL A   1      32.298  31.885  27.256  1.00  0.00     0.018 A 
BRANCH   5  10
ATOM     10  N   UNL A   1      31.954  28.317  26.507  1.00  0.00    -0.217 N 
ATOM     11  C   UNL A   1      31.848  26.572  25.206  1.00  0.00     0.132 A 
ATOM     12  N   UNL A   1      31.086  26.336  26.316  1.00  0.00    -0.128 NA
ATOM     13  C   UNL A   1      32.410  27.835  25.291  1.00  0.00     0.071 A 
ATOM     14  N   UNL A   1      31.228  27.370  27.139  1.00  0.00    -0.061 NA
ATOM     15  C   UNL A   1      33.460  28.480  24.454  1.00  0.00     0.069 C 
BRANCH  11  16
ATOM     16  C   UNL A   1      32.211  25.572  24.215  1.00  0.00     0.087 C 
ATOM     17  C   UNL A   1      31.325  25.561  22.989  1.00  0.00     0.071 C 
ATOM     18  N   UNL A   1      33.174  24.756  24.540  1.00  0.00    -0.176 NA
BRANCH  18  19
ATOM     19  N   UNL A   1      33.513  23.652  23.792  1.00  0.00    -0.252 N 
ATOM     20  H   UNL A   1      33.207  23.679  22.856  1.00  0.00     0.193 HD
BRANCH  19  21
ATOM     21  C   UNL A   1      34.200  22.532  24.133  1.00  0.00     0.203 A 
ATOM     22  N   UNL A   1      33.847  21.299  23.856  1.00  0.00    -0.219 NA
ATOM     23  S   UNL A   1      35.615  22.643  25.121  1.00  0.00    -0.103 S 
ATOM     24  C   UNL A   1      34.493  20.412  24.690  1.00  0.00     0.084 A 
ATOM     25  C   UNL A   1      35.494  20.961  25.463  1.00  0.00     0.097 A 
BRANCH  24  26
ATOM     26  C   UNL A   1      34.022  19.043  24.769  1.00  0.00     0.001 A 
ATOM     27  C   UNL A   1      32.852  18.763  25.486  1.00  0.00     0.012 A 
ATOM     28  C   UNL A   1      34.792  17.985  24.265  1.00  0.00     0.012 A 
ATOM     29  C   UNL A   1      32.440  17.442  25.678  1.00  0.00     0.021 A 
ATOM     30  C   UNL A   1      34.386  16.662  24.469  1.00  0.00     0.021 A 
ATOM     31  C   UNL A   1      33.210  16.398  25.171  1.00  0.00     0.041 A 
ATOM     32  Cl  UNL A   1      32.720  14.770  25.433  1.00  0.00    -0.084 Cl
ENDBRANCH  24  26
ENDBRANCH  19  21
ENDBRANCH  18  19
ENDBRANCH  11  16
ENDBRANCH   5  10
ENDBRANCH   2   4
ENDBRANCH   1   2
BRANCH   1  33
ATOM     33  C   UNL A   1      34.041  35.219  28.985  1.00  0.00     0.275 C 
BRANCH  33  34
ATOM     34  C   UNL A   1      32.944  35.833  29.840  1.00  0.00     0.275 C 
BRANCH  34  35
ATOM     35  O   UNL A   1      32.619  34.968  30.926  1.00  0.00    -0.458 OA
BRANCH  35  36
ATOM     36  C   UNL A   1      32.840  35.475  32.159  1.00  0.00     0.338 C 
ATOM     37  O   UNL A   1      32.324  36.461  32.659  1.00  0.00    -0.246 OA
BRANCH  36  38
ATOM     38  C   UNL A   1      33.987  34.784  32.754  1.00  0.00     0.060 A 
ATOM     39  C   UNL A   1      35.092  35.575  33.088  1.00  0.00     0.016 A 
ATOM     40  C   UNL A   1      34.077  33.393  32.614  1.00  0.00     0.016 A 
ATOM     41  C   UNL A   1      36.338  34.997  33.036  1.00  0.00     0.010 A 
ATOM     42  C   UNL A   1      35.320  32.826  32.536  1.00  0.00     0.010 A 
ATOM     43  C   UNL A   1      36.431  33.657  32.653  1.00  0.00    -0.014 A 
BRANCH  43  44
ATOM     44  C   UNL A   1      37.742  33.104  32.407  1.00  0.00     0.031 A 
ATOM     45  C   UNL A   1      38.615  33.104  33.596  1.00  0.00     0.074 A 
ATOM     46  C   UNL A   1      38.046  32.503  31.242  1.00  0.00     0.049 A 
ATOM     47  N   UNL A   1      39.735  33.723  33.758  1.00  0.00    -0.248 NA
ATOM     48  C   UNL A   1      38.099  32.442  34.805  1.00  0.00     0.031 C 
ATOM     49  C   UNL A   1      37.149  32.182  30.127  1.00  0.00     0.029 A 
ATOM     50  N   UNL A   1      39.217  31.921  30.875  1.00  0.00    -0.354 N 
ATOM     51  C   UNL A   1      40.162  33.377  35.034  1.00  0.00     0.074 A 
ATOM     52  C   UNL A   1      39.041  32.753  35.691  1.00  0.00     0.031 C 
ATOM     53  C   UNL A   1      37.743  31.258  29.338  1.00  0.00     0.029 A 
ATOM     54  C   UNL A   1      39.095  31.029  29.821  1.00  0.00     0.049 A 
ATOM     55  H   UNL A   1      40.075  32.116  31.318  1.00  0.00     0.167 HD
ATOM     56  C   UNL A   1      41.480  33.364  35.363  1.00  0.00     0.031 A 
ATOM     57  C   UNL A   1      40.014  30.106  29.446  1.00  0.00     0.031 A 
ATOM     58  C   UNL A   1      42.274  34.138  34.446  1.00  0.00     0.049 A 
ATOM     59  C   UNL A   1      41.314  30.496  30.044  1.00  0.00     0.074 A 
ATOM     60  C   UNL A   1      42.284  35.459  34.044  1.00  0.00     0.029 A 
ATOM     61  N   UNL A   1      42.992  33.450  33.496  1.00  0.00    -0.354 N 
ATOM     62  N   UNL A   1      41.980  31.555  29.687  1.00  0.00    -0.248 NA
ATOM     63  C   UNL A   1      41.662  29.955  31.350  1.00  0.00     0.031 C 
ATOM     64  C   UNL A   1      42.593  35.420  32.652  1.00  0.00     0.029 A 
ATOM     65  C   UNL A   1      42.801  34.086  32.296  1.00  0.00     0.049 A 
ATOM     66  H   UNL A   1      43.543  32.649  33.649  1.00  0.00     0.167 HD
ATOM     67  C   UNL A   1      42.499  32.065  30.868  1.00  0.00     0.074 A 
ATOM     68  C   UNL A   1      42.370  30.979  31.838  1.00  0.00     0.031 C 
ATOM     69  C   UNL A   1      42.715  33.405  31.023  1.00  0.00     0.031 A 
BRANCH  56  70
ATOM     70  C   UNL A   1      42.071  32.292  36.242  1.00  0.00    -0.014 A 
ATOM     71  C   UNL A   1      42.790  32.675  37.384  1.00  0.00     0.009 A 
ATOM     72  C   UNL A   1      42.188  30.946  35.840  1.00  0.00     0.009 A 
ATOM     73  C   UNL A   1      43.634  31.773  38.043  1.00  0.00     0.001 A 
ATOM     74  C   UNL A   1      42.992  30.032  36.521  1.00  0.00     0.001 A 
ATOM     75  C   UNL A   1      43.740  30.455  37.608  1.00  0.00     0.000 A 
ENDBRANCH  56  70
BRANCH  57  76
ATOM     76  C   UNL A   1      39.770  28.765  28.876  1.00  0.00    -0.014 A 
ATOM     77  C   UNL A   1      40.300  28.405  27.628  1.00  0.00     0.009 A 
ATOM     78  C   UNL A   1      39.225  27.742  29.676  1.00  0.00     0.009 A 
ATOM     79  C   UNL A   1      40.310  27.066  27.212  1.00  0.00     0.001 A 
ATOM     80  C   UNL A   1      39.231  26.408  29.259  1.00  0.00     0.001 A 
ATOM     81  C   UNL A   1      39.787  26.069  28.031  1.00  0.00     0.000 A 
ENDBRANCH  57  76
BRANCH  69  82
ATOM     82  C   UNL A   1      42.572  34.282  29.801  1.00  0.00    -0.014 A 
ATOM     83  C   UNL A   1      41.333  34.800  29.380  1.00  0.00     0.009 A 
ATOM     84  C   UNL A   1      43.731  34.720  29.147  1.00  0.00     0.009 A 
ATOM     85  C   UNL A   1      41.255  35.704  28.315  1.00  0.00     0.001 A 
ATOM     86  C   UNL A   1      43.656  35.638  28.097  1.00  0.00     0.001 A 
ATOM     87  C   UNL A   1      42.419  36.126  27.677  1.00  0.00     0.000 A 
ENDBRANCH  69  82
ENDBRANCH  43  44
ENDBRANCH  36  38
ENDBRANCH  35  36
ENDBRANCH  34  35
ENDBRANCH  33  34
ENDBRANCH   1  33
TORSDOF 16
ENDMDL
MODEL 2
REMARK VINA RESULT:     -12.1      1.856      2.438
REMARK SMILES C/C(=N\Nc1nc(-c2ccc(Cl)cc2)cs1)c1nnn(-c2ccc(C(=O)OCCOC(=O)c3ccc(-c4c5nc(c(-c6ccccc6)c6ccc([nH]6)c(-c6ccccc6)c6nc(c(-c7ccccc7)c7ccc4[nH]7)C=C6)C=C5)cc3)cc2)c1C
REMARK SMILES IDX 27 1 25 2 26 3 24 4 21 5 22 6 82 7 23 8 81 9 20 10 17 11
REMARK SMILES IDX 18 12 83 13 19 14 84 15 2 16 1 17 3 18 4 19 5 21 6 22 16 23
REMARK SMILES IDX 7 24 15 25 8 26 9 27 14 28 10 29 13 30 11 31 12 32 28 33
REMARK SMILES IDX 29 34 30 35 31 36 32 37 33 38 34 39 80 40 35 41 79 42 36 43
REMARK SMILES IDX 37 44 38 45 73 46 39 47 78 48 72 49 74 50 40 51 77 52 71 53
REMARK SMILES IDX 70 54 41 56 63 57 48 58 62 59 49 60 52 61 61 62 75 63 50 64
REMARK SMILES IDX 51 65 60 67 76 68 53 69 42 70 43 71 47 72 44 73 46 74 45 75
REMARK SMILES IDX 64 76 65 77 69 78 66 79 68 80 67 81 54 82 55 83 59 84 56 85
REMARK SMILES IDX 58 86 57 87
REMARK H PARENT 4 20 74 55 52 66
REMARK Flexibility Score: inf
ROOT
ATOM      1  O   UNL A   1      32.862  35.105  28.632  1.00  0.00    -0.458 OA
ENDROOT
BRANCH   1   2
ATOM      2  C   UNL A   1      33.815  34.139  28.572  1.00  0.00     0.338 C 
ATOM      3  O   UNL A   1      34.950  34.210  29.022  1.00  0.00    -0.246 OA
BRANCH   2   4
ATOM      4  C   UNL A   1      33.256  32.913  27.946  1.00  0.00     0.060 A 
ATOM      5  C   UNL A   1      32.384  30.690  26.531  1.00  0.00     0.067 A 
ATOM      6  C   UNL A   1      33.568  30.597  27.268  1.00  0.00     0.029 A 
ATOM      7  C   UNL A   1      31.564  31.819  26.626  1.00  0.00     0.029 A 
ATOM      8  C   UNL A   1      34.011  31.726  27.965  1.00  0.00     0.018 A 
ATOM      9  C   UNL A   1      32.000  32.931  27.332  1.00  0.00     0.018 A 
BRANCH   5  10
ATOM     10  N   UNL A   1      32.140  29.766  25.495  1.00  0.00    -0.217 N 
ATOM     11  C   UNL A   1      32.055  27.903  24.369  1.00  0.00     0.132 A 
ATOM     12  N   UNL A   1      31.028  28.706  23.960  1.00  0.00    -0.128 NA
ATOM     13  C   UNL A   1      32.793  28.555  25.343  1.00  0.00     0.071 A 
ATOM     14  N   UNL A   1      31.039  29.801  24.713  1.00  0.00    -0.061 NA
ATOM     15  C   UNL A   1      33.870  28.045  26.237  1.00  0.00     0.069 C 
BRANCH  11  16
ATOM     16  C   UNL A   1      32.207  26.499  24.019  1.00  0.00     0.087 C 
ATOM     17  C   UNL A   1      32.817  26.260  22.656  1.00  0.00     0.071 C 
ATOM     18  N   UNL A   1      31.716  25.635  24.863  1.00  0.00    -0.176 NA
BRANCH  18  19
ATOM     19  N   UNL A   1      31.622  24.288  24.596  1.00  0.00    -0.252 N 
ATOM     20  H   UNL A   1      30.758  24.002  24.221  1.00  0.00     0.193 HD
BRANCH  19  21
ATOM     21  C   UNL A   1      32.526  23.290  24.765  1.00  0.00     0.203 A 
ATOM     22  N   UNL A   1      33.701  23.405  25.338  1.00  0.00    -0.219 NA
ATOM     23  S   UNL A   1      32.234  21.724  24.091  1.00  0.00    -0.103 S 
ATOM     24  C   UNL A   1      34.524  22.363  24.967  1.00  0.00     0.084 A 
ATOM     25  C   UNL A   1      33.903  21.346  24.276  1.00  0.00     0.097 A 
BRANCH  24  26
ATOM     26  C   UNL A   1      35.946  22.458  25.230  1.00  0.00     0.001 A 
ATOM     27  C   UNL A   1      36.740  21.308  25.118  1.00  0.00     0.012 A 
ATOM     28  C   UNL A   1      36.512  23.639  25.731  1.00  0.00     0.012 A 
ATOM     29  C   UNL A   1      38.089  21.342  25.480  1.00  0.00     0.021 A 
ATOM     30  C   UNL A   1      37.859  23.669  26.104  1.00  0.00     0.021 A 
ATOM     31  C   UNL A   1      38.641  22.522  25.973  1.00  0.00     0.041 A 
ATOM     32  Cl  UNL A   1      40.295  22.557  26.446  1.00  0.00    -0.084 Cl
ENDBRANCH  24  26
ENDBRANCH  19  21
ENDBRANCH  18  19
ENDBRANCH  11  16
ENDBRANCH   5  10
ENDBRANCH   2   4
ENDBRANCH   1   2
BRANCH   1  33
ATOM     33  C   UNL A   1      33.278  36.394  29.112  1.00  0.00     0.275 C 
BRANCH  33  34
ATOM     34  C   UNL A   1      32.609  36.716  30.439  1.00  0.00     0.275 C 
BRANCH  34  35
ATOM     35  O   UNL A   1      33.436  36.305  31.525  1.00  0.00    -0.458 OA
BRANCH  35  36
ATOM     36  C   UNL A   1      32.992  35.236  32.221  1.00  0.00     0.338 C 
ATOM     37  O   UNL A   1      31.839  34.973  32.520  1.00  0.00    -0.246 OA
BRANCH  36  38
ATOM     38  C   UNL A   1      34.145  34.523  32.777  1.00  0.00     0.060 A 
ATOM     39  C   UNL A   1      35.240  35.304  33.162  1.00  0.00     0.016 A 
ATOM     40  C   UNL A   1      34.250  33.144  32.554  1.00  0.00     0.016 A 
ATOM     41  C   UNL A   1      36.493  34.744  33.080  1.00  0.00     0.010 A 
ATOM     42  C   UNL A   1      35.500  32.596  32.446  1.00  0.00     0.010 A 
ATOM     43  C   UNL A   1      36.602  33.431  32.617  1.00  0.00    -0.014 A 
BRANCH  43  44
ATOM     44  C   UNL A   1      37.919  32.908  32.342  1.00  0.00     0.031 A 
ATOM     45  C   UNL A   1      38.801  32.881  33.524  1.00  0.00     0.074 A 
ATOM     46  C   UNL A   1      38.224  32.354  31.155  1.00  0.00     0.049 A 
ATOM     47  N   UNL A   1      39.913  33.511  33.700  1.00  0.00    -0.248 NA
ATOM     48  C   UNL A   1      38.305  32.168  34.713  1.00  0.00     0.031 C 
ATOM     49  C   UNL A   1      37.324  32.057  30.036  1.00  0.00     0.029 A 
ATOM     50  N   UNL A   1      39.401  31.804  30.760  1.00  0.00    -0.354 N 
ATOM     51  C   UNL A   1      40.354  33.127  34.960  1.00  0.00     0.074 A 
ATOM     52  C   UNL A   1      39.249  32.463  35.603  1.00  0.00     0.031 C 
ATOM     53  C   UNL A   1      37.927  31.171  29.210  1.00  0.00     0.029 A 
ATOM     54  C   UNL A   1      39.285  30.947  29.676  1.00  0.00     0.049 A 
ATOM     55  H   UNL A   1      40.259  31.996  31.203  1.00  0.00     0.167 HD
ATOM     56  C   UNL A   1      41.675  33.124  35.280  1.00  0.00     0.031 A 
ATOM     57  C   UNL A   1      40.216  30.053  29.262  1.00  0.00     0.031 A 
ATOM     58  C   UNL A   1      42.450  33.943  34.385  1.00  0.00     0.049 A 
ATOM     59  C   UNL A   1      41.514  30.442  29.865  1.00  0.00     0.074 A 
ATOM     60  C   UNL A   1      42.435  35.277  34.030  1.00  0.00     0.029 A 
ATOM     61  N   UNL A   1      43.171  33.300  33.407  1.00  0.00    -0.354 N 
ATOM     62  N   UNL A   1      42.161  31.524  29.540  1.00  0.00    -0.248 NA
ATOM     63  C   UNL A   1      41.881  29.861  31.148  1.00  0.00     0.031 C 
ATOM     64  C   UNL A   1      42.735  35.291  32.635  1.00  0.00     0.029 A 
ATOM     65  C   UNL A   1      42.961  33.974  32.231  1.00  0.00     0.049 A 
ATOM     66  H   UNL A   1      43.736  32.503  33.528  1.00  0.00     0.167 HD
ATOM     67  C   UNL A   1      42.681  32.000  30.735  1.00  0.00     0.074 A 
ATOM     68  C   UNL A   1      42.576  30.880  31.667  1.00  0.00     0.031 C 
ATOM     69  C   UNL A   1      42.877  33.338  30.936  1.00  0.00     0.031 A 
BRANCH  56  70
ATOM     70  C   UNL A   1      42.289  32.032  36.117  1.00  0.00    -0.014 A 
ATOM     71  C   UNL A   1      43.135  32.388  37.177  1.00  0.00     0.009 A 
ATOM     72  C   UNL A   1      42.295  30.676  35.728  1.00  0.00     0.009 A 
ATOM     73  C   UNL A   1      43.989  31.449  37.769  1.00  0.00     0.001 A 
ATOM     74  C   UNL A   1      43.110  29.728  36.344  1.00  0.00     0.001 A 
ATOM     75  C   UNL A   1      43.980  30.122  37.347  1.00  0.00     0.000 A 
ENDBRANCH  56  70
BRANCH  57  76
ATOM     76  C   UNL A   1      39.990  28.728  28.647  1.00  0.00    -0.014 A 
ATOM     77  C   UNL A   1      40.581  28.393  27.420  1.00  0.00     0.009 A 
ATOM     78  C   UNL A   1      39.393  27.693  29.392  1.00  0.00     0.009 A 
ATOM     79  C   UNL A   1      40.600  27.065  26.972  1.00  0.00     0.001 A 
ATOM     80  C   UNL A   1      39.408  26.369  28.943  1.00  0.00     0.001 A 
ATOM     81  C   UNL A   1      40.025  26.054  27.738  1.00  0.00     0.000 A 
ENDBRANCH  57  76
BRANCH  69  82
ATOM     82  C   UNL A   1      42.710  34.254  29.746  1.00  0.00    -0.014 A 
ATOM     83  C   UNL A   1      43.730  34.462  28.800  1.00  0.00     0.009 A 
ATOM     84  C   UNL A   1      41.445  34.800  29.489  1.00  0.00     0.009 A 
ATOM     85  C   UNL A   1      43.500  35.223  27.648  1.00  0.00     0.001 A 
ATOM     86  C   UNL A   1      41.209  35.542  28.329  1.00  0.00     0.001 A 
ATOM     87  C   UNL A   1      42.237  35.759  27.412  1.00  0.00     0.000 A 
ENDBRANCH  69  82
ENDBRANCH  43  44
ENDBRANCH  36  38
ENDBRANCH  35  36
ENDBRANCH  34  35
ENDBRANCH  33  34
ENDBRANCH   1  33
TORSDOF 16
ENDMDL
MODEL 3
REMARK VINA RESULT:     -12.0      3.298      5.018
REMARK SMILES C/C(=N\Nc1nc(-c2ccc(Cl)cc2)cs1)c1nnn(-c2ccc(C(=O)OCCOC(=O)c3ccc(-c4c5nc(c(-c6ccccc6)c6ccc([nH]6)c(-c6ccccc6)c6nc(c(-c7ccccc7)c7ccc4[nH]7)C=C6)C=C5)cc3)cc2)c1C
REMARK SMILES IDX 27 1 25 2 26 3 24 4 21 5 22 6 82 7 23 8 81 9 20 10 17 11
REMARK SMILES IDX 18 12 83 13 19 14 84 15 2 16 1 17 3 18 4 19 5 21 6 22 16 23
REMARK SMILES IDX 7 24 15 25 8 26 9 27 14 28 10 29 13 30 11 31 12 32 28 33
REMARK SMILES IDX 29 34 30 35 31 36 32 37 33 38 34 39 80 40 35 41 79 42 36 43
REMARK SMILES IDX 37 44 38 45 73 46 39 47 78 48 72 49 74 50 40 51 77 52 71 53
REMARK SMILES IDX 70 54 41 56 63 57 48 58 62 59 49 60 52 61 61 62 75 63 50 64
REMARK SMILES IDX 51 65 60 67 76 68 53 69 42 70 43 71 47 72 44 73 46 74 45 75
REMARK SMILES IDX 64 76 65 77 69 78 66 79 68 80 67 81 54 82 55 83 59 84 56 85
REMARK SMILES IDX 58 86 57 87
REMARK H PARENT 4 20 74 55 52 66
REMARK Flexibility Score: inf
ROOT
ATOM      1  O   UNL A   1      33.567  33.573  29.709  1.00  0.00    -0.458 OA
ENDROOT
BRANCH   1   2
ATOM      2  C   UNL A   1      33.961  33.629  28.411  1.00  0.00     0.338 C 
ATOM      3  O   UNL A   1      34.662  34.492  27.901  1.00  0.00    -0.246 OA
BRANCH   2   4
ATOM      4  C   UNL A   1      33.488  32.422  27.684  1.00  0.00     0.060 A 
ATOM      5  C   UNL A   1      32.449  30.095  26.586  1.00  0.00     0.067 A 
ATOM      6  C   UNL A   1      31.691  31.268  26.519  1.00  0.00     0.029 A 
ATOM      7  C   UNL A   1      33.769  30.116  27.047  1.00  0.00     0.029 A 
ATOM      8  C   UNL A   1      32.213  32.433  27.091  1.00  0.00     0.018 A 
ATOM      9  C   UNL A   1      34.288  31.279  27.599  1.00  0.00     0.018 A 
BRANCH   5  10
ATOM     10  N   UNL A   1      31.809  28.849  26.434  1.00  0.00    -0.217 N 
ATOM     11  C   UNL A   1      31.241  26.905  25.628  1.00  0.00     0.132 A 
ATOM     12  N   UNL A   1      31.065  26.884  26.984  1.00  0.00    -0.128 NA
ATOM     13  C   UNL A   1      31.706  28.151  25.241  1.00  0.00     0.071 A 
ATOM     14  N   UNL A   1      31.495  28.043  27.471  1.00  0.00    -0.061 NA
ATOM     15  C   UNL A   1      32.237  28.615  23.929  1.00  0.00     0.069 C 
BRANCH  11  16
ATOM     16  C   UNL A   1      31.185  25.738  24.762  1.00  0.00     0.087 C 
ATOM     17  C   UNL A   1      29.918  25.632  23.942  1.00  0.00     0.071 C 
ATOM     18  N   UNL A   1      32.169  24.890  24.868  1.00  0.00    -0.176 NA
BRANCH  18  19
ATOM     19  N   UNL A   1      32.175  23.659  24.251  1.00  0.00    -0.252 N 
ATOM     20  H   UNL A   1      31.372  23.463  23.717  1.00  0.00     0.193 HD
BRANCH  19  21
ATOM     21  C   UNL A   1      33.107  22.673  24.260  1.00  0.00     0.203 A 
ATOM     22  N   UNL A   1      32.866  21.387  24.158  1.00  0.00    -0.219 NA
ATOM     23  S   UNL A   1      34.772  23.047  24.543  1.00  0.00    -0.103 S 
ATOM     24  C   UNL A   1      33.936  20.657  24.630  1.00  0.00     0.084 A 
ATOM     25  C   UNL A   1      35.071  21.390  24.898  1.00  0.00     0.097 A 
BRANCH  24  26
ATOM     26  C   UNL A   1      33.763  19.242  24.900  1.00  0.00     0.001 A 
ATOM     27  C   UNL A   1      34.529  18.312  24.185  1.00  0.00     0.012 A 
ATOM     28  C   UNL A   1      32.747  18.789  25.752  1.00  0.00     0.012 A 
ATOM     29  C   UNL A   1      34.300  16.942  24.337  1.00  0.00     0.021 A 
ATOM     30  C   UNL A   1      32.510  17.417  25.894  1.00  0.00     0.021 A 
ATOM     31  C   UNL A   1      33.291  16.502  25.189  1.00  0.00     0.041 A 
ATOM     32  Cl  UNL A   1      32.989  14.816  25.354  1.00  0.00    -0.084 Cl
ENDBRANCH  24  26
ENDBRANCH  19  21
ENDBRANCH  18  19
ENDBRANCH  11  16
ENDBRANCH   5  10
ENDBRANCH   2   4
ENDBRANCH   1   2
BRANCH   1  33
ATOM     33  C   UNL A   1      34.223  34.467  30.622  1.00  0.00     0.275 C 
BRANCH  33  34
ATOM     34  C   UNL A   1      35.266  33.727  31.446  1.00  0.00     0.275 C 
BRANCH  34  35
ATOM     35  O   UNL A   1      35.704  32.558  30.757  1.00  0.00    -0.458 OA
BRANCH  35  36
ATOM     36  C   UNL A   1      36.358  31.649  31.513  1.00  0.00     0.338 C 
ATOM     37  O   UNL A   1      36.387  31.581  32.731  1.00  0.00    -0.246 OA
BRANCH  36  38
ATOM     38  C   UNL A   1      37.238  30.861  30.647  1.00  0.00     0.060 A 
ATOM     39  C   UNL A   1      36.995  29.484  30.590  1.00  0.00     0.016 A 
ATOM     40  C   UNL A   1      38.456  31.423  30.241  1.00  0.00     0.016 A 
ATOM     41  C   UNL A   1      38.062  28.648  30.359  1.00  0.00     0.010 A 
ATOM     42  C   UNL A   1      39.523  30.589  30.039  1.00  0.00     0.010 A 
ATOM     43  C   UNL A   1      39.327  29.219  30.197  1.00  0.00    -0.014 A 
BRANCH  43  44
ATOM     44  C   UNL A   1      40.474  28.343  30.153  1.00  0.00     0.031 A 
ATOM     45  C   UNL A   1      41.144  28.185  31.456  1.00  0.00     0.074 A 
ATOM     46  C   UNL A   1      40.773  27.628  29.053  1.00  0.00     0.049 A 
ATOM     47  N   UNL A   1      42.352  28.510  31.773  1.00  0.00    -0.248 NA
ATOM     48  C   UNL A   1      40.315  27.734  32.586  1.00  0.00     0.031 C 
ATOM     49  C   UNL A   1      39.987  27.487  27.823  1.00  0.00     0.029 A 
ATOM     50  N   UNL A   1      41.795  26.754  28.869  1.00  0.00    -0.354 N 
ATOM     51  C   UNL A   1      42.495  28.132  33.102  1.00  0.00     0.074 A 
ATOM     52  C   UNL A   1      41.173  27.843  33.596  1.00  0.00     0.031 C 
ATOM     53  C   UNL A   1      40.428  26.405  27.142  1.00  0.00     0.029 A 
ATOM     54  C   UNL A   1      41.596  25.869  27.821  1.00  0.00     0.049 A 
ATOM     55  H   UNL A   1      42.604  26.749  29.430  1.00  0.00     0.167 HD
ATOM     56  C   UNL A   1      43.708  27.806  33.621  1.00  0.00     0.031 A 
ATOM     57  C   UNL A   1      42.292  24.728  27.597  1.00  0.00     0.031 A 
ATOM     58  C   UNL A   1      44.793  28.309  32.820  1.00  0.00     0.049 A 
ATOM     59  C   UNL A   1      43.553  24.809  28.374  1.00  0.00     0.074 A 
ATOM     60  C   UNL A   1      45.194  29.564  32.406  1.00  0.00     0.029 A 
ATOM     61  N   UNL A   1      45.435  27.417  31.995  1.00  0.00    -0.354 N 
ATOM     62  N   UNL A   1      44.510  25.648  28.104  1.00  0.00    -0.248 NA
ATOM     63  C   UNL A   1      43.567  24.263  29.723  1.00  0.00     0.031 C 
ATOM     64  C   UNL A   1      45.673  29.379  31.076  1.00  0.00     0.029 A 
ATOM     65  C   UNL A   1      45.580  28.019  30.772  1.00  0.00     0.049 A 
ATOM     66  H   UNL A   1      45.736  26.512  32.238  1.00  0.00     0.167 HD
ATOM     67  C   UNL A   1      44.974  26.069  29.342  1.00  0.00     0.074 A 
ATOM     68  C   UNL A   1      44.438  25.101  30.296  1.00  0.00     0.031 C 
ATOM     69  C   UNL A   1      45.501  27.319  29.509  1.00  0.00     0.031 A 
BRANCH  56  70
ATOM     70  C   UNL A   1      43.878  26.666  34.591  1.00  0.00    -0.014 A 
ATOM     71  C   UNL A   1      43.680  25.355  34.135  1.00  0.00     0.009 A 
ATOM     72  C   UNL A   1      43.944  26.849  35.988  1.00  0.00     0.009 A 
ATOM     73  C   UNL A   1      43.491  24.297  35.033  1.00  0.00     0.001 A 
ATOM     74  C   UNL A   1      43.801  25.791  36.886  1.00  0.00     0.001 A 
ATOM     75  C   UNL A   1      43.545  24.517  36.407  1.00  0.00     0.000 A 
ENDBRANCH  56  70
BRANCH  57  76
ATOM     76  C   UNL A   1      41.795  23.463  27.015  1.00  0.00    -0.014 A 
ATOM     77  C   UNL A   1      42.675  22.555  26.407  1.00  0.00     0.009 A 
ATOM     78  C   UNL A   1      40.484  23.026  27.282  1.00  0.00     0.009 A 
ATOM     79  C   UNL A   1      42.264  21.249  26.107  1.00  0.00     0.001 A 
ATOM     80  C   UNL A   1      40.072  21.725  26.979  1.00  0.00     0.001 A 
ATOM     81  C   UNL A   1      40.968  20.832  26.403  1.00  0.00     0.000 A 
ENDBRANCH  57  76
BRANCH  69  82
ATOM     82  C   UNL A   1      45.757  28.141  28.267  1.00  0.00    -0.014 A 
ATOM     83  C   UNL A   1      44.798  29.018  27.728  1.00  0.00     0.009 A 
ATOM     84  C   UNL A   1      47.046  28.147  27.717  1.00  0.00     0.009 A 
ATOM     85  C   UNL A   1      45.111  29.852  26.649  1.00  0.00     0.001 A 
ATOM     86  C   UNL A   1      47.365  28.993  26.653  1.00  0.00     0.001 A 
ATOM     87  C   UNL A   1      46.398  29.841  26.115  1.00  0.00     0.000 A 
ENDBRANCH  69  82
ENDBRANCH  43  44
ENDBRANCH  36  38
ENDBRANCH  35  36
ENDBRANCH  34  35
ENDBRANCH  33  34
ENDBRANCH   1  33
TORSDOF 16
ENDMDL
