MODEL 1
REMARK VINA RESULT:     -13.7      0.000      0.000
REMARK SMILES Cc1ccc(-c2cc3cccnc3n2CCC(=O)OCCOC(=O)c2ccc(-c3c4nc(c(-c5ccccc5)c5ccc([nH]5)c(-c5ccccc5)c5nc(c(-c6ccccc6)c6ccc3[nH]6)C=C5)C=C4)cc2)cn1
REMARK SMILES IDX 20 1 19 2 17 3 18 4 16 5 15 6 14 7 6 8 7 9 8 10 13 11 9 12
REMARK SMILES IDX 12 13 10 14 11 15 5 16 1 17 2 18 3 19 74 20 4 21 73 22 21 23
REMARK SMILES IDX 22 24 23 25 24 26 25 27 26 28 72 29 27 30 71 31 28 32 29 33
REMARK SMILES IDX 30 34 65 35 31 36 70 37 64 38 66 39 32 40 69 41 63 42 62 43
REMARK SMILES IDX 33 45 55 46 40 47 54 48 41 49 44 50 53 51 67 52 42 53 43 54
REMARK SMILES IDX 52 56 68 57 45 58 34 59 35 60 39 61 36 62 38 63 37 64 56 65
REMARK SMILES IDX 57 66 61 67 58 68 60 69 59 70 46 71 47 72 51 73 48 74 50 75
REMARK SMILES IDX 49 76
REMARK H PARENT 66 44 44 55
REMARK Flexibility Score: inf
ROOT
ATOM      1  C   UNL A   1      36.572  23.499  26.007  1.00  0.00     0.274 C 
ENDROOT
BRANCH   1   2
ATOM      2  O   UNL A   1      35.544  22.863  25.189  1.00  0.00    -0.462 OA
BRANCH   2   3
ATOM      3  C   UNL A   1      35.233  21.564  25.459  1.00  0.00     0.307 C 
ATOM      4  O   UNL A   1      35.842  20.612  24.979  1.00  0.00    -0.252 OA
BRANCH   3   5
ATOM      5  C   UNL A   1      34.121  21.362  26.494  1.00  0.00     0.144 C 
BRANCH   5   6
ATOM      6  C   UNL A   1      32.651  21.392  26.054  1.00  0.00     0.136 C 
BRANCH   6   7
ATOM      7  N   UNL A   1      32.411  20.650  24.838  1.00  0.00    -0.325 N 
ATOM      8  C   UNL A   1      32.223  21.187  23.587  1.00  0.00     0.052 A 
ATOM      9  C   UNL A   1      32.362  20.138  22.687  1.00  0.00     0.039 A 
ATOM     10  C   UNL A   1      32.581  18.949  23.409  1.00  0.00     0.020 A 
ATOM     11  C   UNL A   1      32.518  19.282  24.755  1.00  0.00     0.140 A 
ATOM     12  C   UNL A   1      32.861  17.620  23.066  1.00  0.00     0.013 A 
ATOM     13  N   UNL A   1      32.634  18.437  25.799  1.00  0.00    -0.238 NA
ATOM     14  C   UNL A   1      32.983  16.707  24.110  1.00  0.00     0.021 A 
ATOM     15  C   UNL A   1      32.836  17.155  25.417  1.00  0.00     0.113 A 
BRANCH   8  16
ATOM     16  C   UNL A   1      32.150  22.597  23.226  1.00  0.00     0.017 A 
ATOM     17  C   UNL A   1      32.721  27.548  22.277  1.00  0.00     0.066 C 
ATOM     18  C   UNL A   1      32.517  26.106  22.609  1.00  0.00     0.037 A 
ATOM     19  C   UNL A   1      30.973  25.524  23.289  1.00  0.00     0.024 A 
ATOM     20  N   UNL A   1      33.841  25.017  22.251  1.00  0.00    -0.261 NA
ATOM     21  C   UNL A   1      30.756  23.750  23.550  1.00  0.00     0.014 A 
ATOM     22  C   UNL A   1      33.664  23.289  22.527  1.00  0.00     0.121 A 
ENDBRANCH   8  16
ENDBRANCH   6   7
ENDBRANCH   5   6
ENDBRANCH   3   5
ENDBRANCH   2   3
ENDBRANCH   1   2
BRANCH   1  23
ATOM     23  C   UNL A   1      38.207  23.096  25.788  1.00  0.00     0.275 C 
BRANCH  23  24
ATOM     24  O   UNL A   1      39.081  21.271  25.961  1.00  0.00    -0.458 OA
BRANCH  24  25
ATOM     25  C   UNL A   1      40.100  20.323  26.038  1.00  0.00     0.338 C 
ATOM     26  O   UNL A   1      40.139  19.167  25.612  1.00  0.00    -0.246 OA
BRANCH  25  27
ATOM     27  C   UNL A   1      41.335  20.912  26.508  1.00  0.00     0.060 A 
ATOM     28  C   UNL A   1      41.596  20.785  27.882  1.00  0.00     0.016 A 
ATOM     29  C   UNL A   1      41.796  21.953  25.715  1.00  0.00     0.016 A 
ATOM     30  C   UNL A   1      42.101  21.882  28.528  1.00  0.00     0.010 A 
ATOM     31  C   UNL A   1      42.314  23.035  26.357  1.00  0.00     0.010 A 
ATOM     32  C   UNL A   1      42.329  23.019  27.755  1.00  0.00    -0.014 A 
BRANCH  32  33
ATOM     33  C   UNL A   1      42.483  24.286  28.422  1.00  0.00     0.031 A 
ATOM     34  C   UNL A   1      41.407  25.244  28.128  1.00  0.00     0.074 A 
ATOM     35  C   UNL A   1      43.418  24.430  29.380  1.00  0.00     0.049 A 
ATOM     36  N   UNL A   1      41.513  26.434  27.646  1.00  0.00    -0.248 NA
ATOM     37  C   UNL A   1      40.025  24.758  28.275  1.00  0.00     0.031 C 
ATOM     38  C   UNL A   1      44.300  23.399  29.943  1.00  0.00     0.029 A 
ATOM     39  N   UNL A   1      43.648  25.502  30.177  1.00  0.00    -0.354 N 
ATOM     40  C   UNL A   1      40.213  26.911  27.581  1.00  0.00     0.074 A 
ATOM     41  C   UNL A   1      39.335  25.793  27.806  1.00  0.00     0.031 C 
ATOM     42  C   UNL A   1      44.763  23.825  31.139  1.00  0.00     0.029 A 
ATOM     43  C   UNL A   1      44.305  25.186  31.358  1.00  0.00     0.049 A 
ATOM     44  H   UNL A   1      43.374  26.417  29.941  1.00  0.00     0.167 HD
ATOM     45  C   UNL A   1      39.928  28.237  27.610  1.00  0.00     0.031 A 
ATOM     46  C   UNL A   1      44.357  25.967  32.464  1.00  0.00     0.031 A 
ATOM     47  C   UNL A   1      41.069  29.057  27.327  1.00  0.00     0.049 A 
ATOM     48  C   UNL A   1      43.961  27.338  32.052  1.00  0.00     0.074 A 
ATOM     49  C   UNL A   1      41.909  29.194  26.242  1.00  0.00     0.029 A 
ATOM     50  N   UNL A   1      41.728  29.608  28.400  1.00  0.00    -0.354 N 
ATOM     51  N   UNL A   1      44.673  28.098  31.270  1.00  0.00    -0.248 NA
ATOM     52  C   UNL A   1      42.563  27.724  32.185  1.00  0.00     0.031 C 
ATOM     53  C   UNL A   1      43.200  29.424  26.796  1.00  0.00     0.029 A 
ATOM     54  C   UNL A   1      43.074  29.443  28.187  1.00  0.00     0.049 A 
ATOM     55  H   UNL A   1      41.312  30.042  29.180  1.00  0.00     0.167 HD
ATOM     56  C   UNL A   1      43.746  28.788  30.500  1.00  0.00     0.074 A 
ATOM     57  C   UNL A   1      42.473  28.613  31.191  1.00  0.00     0.031 C 
ATOM     58  C   UNL A   1      44.046  29.187  29.230  1.00  0.00     0.031 A 
BRANCH  45  59
ATOM     59  C   UNL A   1      38.685  28.748  28.268  1.00  0.00    -0.014 A 
ATOM     60  C   UNL A   1      37.844  29.626  27.577  1.00  0.00     0.009 A 
ATOM     61  C   UNL A   1      38.435  28.556  29.644  1.00  0.00     0.009 A 
ATOM     62  C   UNL A   1      36.794  30.275  28.237  1.00  0.00     0.001 A 
ATOM     63  C   UNL A   1      37.363  29.163  30.293  1.00  0.00     0.001 A 
ATOM     64  C   UNL A   1      36.550  30.037  29.588  1.00  0.00     0.000 A 
ENDBRANCH  45  59
BRANCH  46  65
ATOM     65  C   UNL A   1      44.430  25.562  33.887  1.00  0.00    -0.014 A 
ATOM     66  C   UNL A   1      43.306  25.003  34.515  1.00  0.00     0.009 A 
ATOM     67  C   UNL A   1      45.660  25.483  34.566  1.00  0.00     0.009 A 
ATOM     68  C   UNL A   1      43.419  24.343  35.746  1.00  0.00     0.001 A 
ATOM     69  C   UNL A   1      45.772  24.837  35.802  1.00  0.00     0.001 A 
ATOM     70  C   UNL A   1      44.654  24.249  36.382  1.00  0.00     0.000 A 
ENDBRANCH  46  65
BRANCH  58  71
ATOM     71  C   UNL A   1      45.481  29.059  28.778  1.00  0.00    -0.014 A 
ATOM     72  C   UNL A   1      46.022  27.842  28.331  1.00  0.00     0.009 A 
ATOM     73  C   UNL A   1      46.242  30.226  28.624  1.00  0.00     0.009 A 
ATOM     74  C   UNL A   1      47.297  27.792  27.756  1.00  0.00     0.001 A 
ATOM     75  C   UNL A   1      47.508  30.179  28.034  1.00  0.00     0.001 A 
ATOM     76  C   UNL A   1      48.034  28.964  27.601  1.00  0.00     0.000 A 
ENDBRANCH  58  71
ENDBRANCH  32  33
ENDBRANCH  25  27
ENDBRANCH  24  25
ENDBRANCH  23  24
ENDBRANCH   1  23
TORSDOF 14
ENDMDL
MODEL 2
REMARK VINA RESULT:     -13.2      0.984      3.607
REMARK SMILES Cc1ccc(-c2cc3cccnc3n2CCC(=O)OCCOC(=O)c2ccc(-c3c4nc(c(-c5ccccc5)c5ccc([nH]5)c(-c5ccccc5)c5nc(c(-c6ccccc6)c6ccc3[nH]6)C=C5)C=C4)cc2)cn1
REMARK SMILES IDX 20 1 19 2 17 3 18 4 16 5 15 6 14 7 6 8 7 9 8 10 13 11 9 12
REMARK SMILES IDX 12 13 10 14 11 15 5 16 1 17 2 18 3 19 74 20 4 21 73 22 21 23
REMARK SMILES IDX 22 24 23 25 24 26 25 27 26 28 72 29 27 30 71 31 28 32 29 33
REMARK SMILES IDX 30 34 65 35 31 36 70 37 64 38 66 39 32 40 69 41 63 42 62 43
REMARK SMILES IDX 33 45 55 46 40 47 54 48 41 49 44 50 53 51 67 52 42 53 43 54
REMARK SMILES IDX 52 56 68 57 45 58 34 59 35 60 39 61 36 62 38 63 37 64 56 65
REMARK SMILES IDX 57 66 61 67 58 68 60 69 59 70 46 71 47 72 51 73 48 74 50 75
REMARK SMILES IDX 49 76
REMARK H PARENT 66 44 44 55
REMARK Flexibility Score: inf
ROOT
ATOM      1  C   UNL A   1      36.515  23.779  25.742  1.00  0.00     0.274 C 
ENDROOT
BRANCH   1   2
ATOM      2  O   UNL A   1      35.065  23.620  25.790  1.00  0.00    -0.462 OA
BRANCH   2   3
ATOM      3  C   UNL A   1      34.299  24.688  25.431  1.00  0.00     0.307 C 
ATOM      4  O   UNL A   1      33.535  25.259  26.204  1.00  0.00    -0.252 OA
BRANCH   3   5
ATOM      5  C   UNL A   1      34.525  25.201  24.005  1.00  0.00     0.144 C 
BRANCH   5   6
ATOM      6  C   UNL A   1      33.764  24.567  22.832  1.00  0.00     0.136 C 
BRANCH   6   7
ATOM      7  N   UNL A   1      32.334  24.540  23.037  1.00  0.00    -0.325 N 
ATOM      8  C   UNL A   1      31.593  23.453  23.432  1.00  0.00     0.052 A 
ATOM      9  C   UNL A   1      30.353  23.945  23.820  1.00  0.00     0.039 A 
ATOM     10  C   UNL A   1      30.330  25.335  23.603  1.00  0.00     0.020 A 
ATOM     11  C   UNL A   1      31.550  25.669  23.029  1.00  0.00     0.140 A 
ATOM     12  C   UNL A   1      29.415  26.363  23.862  1.00  0.00     0.013 A 
ATOM     13  N   UNL A   1      31.938  26.895  22.622  1.00  0.00    -0.238 NA
ATOM     14  C   UNL A   1      29.767  27.646  23.454  1.00  0.00     0.021 A 
ATOM     15  C   UNL A   1      30.994  27.841  22.831  1.00  0.00     0.113 A 
BRANCH   8  16
ATOM     16  C   UNL A   1      32.063  22.091  23.657  1.00  0.00     0.017 A 
ATOM     17  C   UNL A   1      33.042  17.120  23.909  1.00  0.00     0.066 C 
ATOM     18  C   UNL A   1      32.727  18.580  23.894  1.00  0.00     0.037 A 
ATOM     19  C   UNL A   1      32.831  19.563  25.381  1.00  0.00     0.024 A 
ATOM     20  N   UNL A   1      32.305  19.282  22.346  1.00  0.00    -0.261 NA
ATOM     21  C   UNL A   1      32.555  21.344  25.262  1.00  0.00     0.014 A 
ATOM     22  C   UNL A   1      32.000  21.010  22.213  1.00  0.00     0.121 A 
ENDBRANCH   8  16
ENDBRANCH   6   7
ENDBRANCH   5   6
ENDBRANCH   3   5
ENDBRANCH   2   3
ENDBRANCH   1   2
BRANCH   1  23
ATOM     23  C   UNL A   1      37.481  22.584  25.016  1.00  0.00     0.275 C 
BRANCH  23  24
ATOM     24  O   UNL A   1      38.954  21.476  25.869  1.00  0.00    -0.458 OA
BRANCH  24  25
ATOM     25  C   UNL A   1      39.900  20.461  26.006  1.00  0.00     0.338 C 
ATOM     26  O   UNL A   1      39.879  19.300  25.596  1.00  0.00    -0.246 OA
BRANCH  25  27
ATOM     27  C   UNL A   1      41.150  20.972  26.526  1.00  0.00     0.060 A 
ATOM     28  C   UNL A   1      41.335  20.853  27.914  1.00  0.00     0.016 A 
ATOM     29  C   UNL A   1      41.721  21.962  25.741  1.00  0.00     0.016 A 
ATOM     30  C   UNL A   1      41.885  21.924  28.566  1.00  0.00     0.010 A 
ATOM     31  C   UNL A   1      42.283  23.018  26.390  1.00  0.00     0.010 A 
ATOM     32  C   UNL A   1      42.230  23.028  27.787  1.00  0.00    -0.014 A 
BRANCH  32  33
ATOM     33  C   UNL A   1      42.441  24.293  28.441  1.00  0.00     0.031 A 
ATOM     34  C   UNL A   1      41.411  25.296  28.136  1.00  0.00     0.074 A 
ATOM     35  C   UNL A   1      43.381  24.404  29.398  1.00  0.00     0.049 A 
ATOM     36  N   UNL A   1      41.571  26.475  27.641  1.00  0.00    -0.248 NA
ATOM     37  C   UNL A   1      40.007  24.875  28.287  1.00  0.00     0.031 C 
ATOM     38  C   UNL A   1      44.214  23.340  29.973  1.00  0.00     0.029 A 
ATOM     39  N   UNL A   1      43.659  25.473  30.185  1.00  0.00    -0.354 N 
ATOM     40  C   UNL A   1      40.294  27.011  27.570  1.00  0.00     0.074 A 
ATOM     41  C   UNL A   1      39.366  25.936  27.806  1.00  0.00     0.031 C 
ATOM     42  C   UNL A   1      44.696  23.757  31.165  1.00  0.00     0.029 A 
ATOM     43  C   UNL A   1      44.301  25.140  31.369  1.00  0.00     0.049 A 
ATOM     44  H   UNL A   1      43.427  26.397  29.939  1.00  0.00     0.167 HD
ATOM     45  C   UNL A   1      40.070  28.348  27.585  1.00  0.00     0.031 A 
ATOM     46  C   UNL A   1      44.387  25.929  32.467  1.00  0.00     0.031 A 
ATOM     47  C   UNL A   1      41.248  29.112  27.294  1.00  0.00     0.049 A 
ATOM     48  C   UNL A   1      44.055  27.313  32.040  1.00  0.00     0.074 A 
ATOM     49  C   UNL A   1      42.094  29.199  26.208  1.00  0.00     0.029 A 
ATOM     50  N   UNL A   1      41.931  29.643  28.362  1.00  0.00    -0.354 N 
ATOM     51  N   UNL A   1      44.801  28.031  31.251  1.00  0.00    -0.248 NA
ATOM     52  C   UNL A   1      42.676  27.764  32.167  1.00  0.00     0.031 C 
ATOM     53  C   UNL A   1      43.394  29.376  26.762  1.00  0.00     0.029 A 
ATOM     54  C   UNL A   1      43.268  29.415  28.153  1.00  0.00     0.049 A 
ATOM     55  H   UNL A   1      41.534  30.105  29.137  1.00  0.00     0.167 HD
ATOM     56  C   UNL A   1      43.908  28.755  30.473  1.00  0.00     0.074 A 
ATOM     57  C   UNL A   1      42.627  28.645  31.164  1.00  0.00     0.031 C 
ATOM     58  C   UNL A   1      44.226  29.126  29.199  1.00  0.00     0.031 A 
BRANCH  45  59
ATOM     59  C   UNL A   1      38.852  28.922  28.235  1.00  0.00    -0.014 A 
ATOM     60  C   UNL A   1      38.619  28.699  29.596  1.00  0.00     0.009 A 
ATOM     61  C   UNL A   1      37.805  29.500  27.484  1.00  0.00     0.009 A 
ATOM     62  C   UNL A   1      37.394  29.047  30.177  1.00  0.00     0.001 A 
ATOM     63  C   UNL A   1      36.603  29.891  28.068  1.00  0.00     0.001 A 
ATOM     64  C   UNL A   1      36.394  29.649  29.416  1.00  0.00     0.000 A 
ENDBRANCH  45  59
BRANCH  46  65
ATOM     65  C   UNL A   1      44.441  25.537  33.894  1.00  0.00    -0.014 A 
ATOM     66  C   UNL A   1      45.294  26.219  34.777  1.00  0.00     0.009 A 
ATOM     67  C   UNL A   1      43.484  24.672  34.456  1.00  0.00     0.009 A 
ATOM     68  C   UNL A   1      45.158  26.083  36.164  1.00  0.00     0.001 A 
ATOM     69  C   UNL A   1      43.356  24.523  35.841  1.00  0.00     0.001 A 
ATOM     70  C   UNL A   1      44.180  25.246  36.696  1.00  0.00     0.000 A 
ENDBRANCH  46  65
BRANCH  58  71
ATOM     71  C   UNL A   1      45.654  28.928  28.751  1.00  0.00    -0.014 A 
ATOM     72  C   UNL A   1      46.113  27.711  28.218  1.00  0.00     0.009 A 
ATOM     73  C   UNL A   1      46.498  30.045  28.690  1.00  0.00     0.009 A 
ATOM     74  C   UNL A   1      47.388  27.611  27.651  1.00  0.00     0.001 A 
ATOM     75  C   UNL A   1      47.765  29.949  28.108  1.00  0.00     0.001 A 
ATOM     76  C   UNL A   1      48.209  28.734  27.590  1.00  0.00     0.000 A 
ENDBRANCH  58  71
ENDBRANCH  32  33
ENDBRANCH  25  27
ENDBRANCH  24  25
ENDBRANCH  23  24
ENDBRANCH   1  23
TORSDOF 14
ENDMDL
MODEL 3
REMARK VINA RESULT:     -13.1      4.056      9.005
REMARK SMILES Cc1ccc(-c2cc3cccnc3n2CCC(=O)OCCOC(=O)c2ccc(-c3c4nc(c(-c5ccccc5)c5ccc([nH]5)c(-c5ccccc5)c5nc(c(-c6ccccc6)c6ccc3[nH]6)C=C5)C=C4)cc2)cn1
REMARK SMILES IDX 20 1 19 2 17 3 18 4 16 5 15 6 14 7 6 8 7 9 8 10 13 11 9 12
REMARK SMILES IDX 12 13 10 14 11 15 5 16 1 17 2 18 3 19 74 20 4 21 73 22 21 23
REMARK SMILES IDX 22 24 23 25 24 26 25 27 26 28 72 29 27 30 71 31 28 32 29 33
REMARK SMILES IDX 30 34 65 35 31 36 70 37 64 38 66 39 32 40 69 41 63 42 62 43
REMARK SMILES IDX 33 45 55 46 40 47 54 48 41 49 44 50 53 51 67 52 42 53 43 54
REMARK SMILES IDX 52 56 68 57 45 58 34 59 35 60 39 61 36 62 38 63 37 64 56 65
REMARK SMILES IDX 57 66 61 67 58 68 60 69 59 70 46 71 47 72 51 73 48 74 50 75
REMARK SMILES IDX 49 76
REMARK H PARENT 66 44 44 55
REMARK Flexibility Score: inf
ROOT
ATOM      1  C   UNL A   1      33.547  28.791  26.296  1.00  0.00     0.274 C 
ENDROOT
BRANCH   1   2
ATOM      2  O   UNL A   1      34.440  28.591  25.159  1.00  0.00    -0.462 OA
BRANCH   2   3
ATOM      3  C   UNL A   1      33.875  28.433  23.929  1.00  0.00     0.307 C 
ATOM      4  O   UNL A   1      34.327  28.946  22.910  1.00  0.00    -0.252 OA
BRANCH   3   5
ATOM      5  C   UNL A   1      32.675  27.481  23.882  1.00  0.00     0.144 C 
BRANCH   5   6
ATOM      6  C   UNL A   1      31.828  27.378  22.606  1.00  0.00     0.136 C 
BRANCH   6   7
ATOM      7  N   UNL A   1      30.409  27.323  22.873  1.00  0.00    -0.325 N 
ATOM      8  C   UNL A   1      29.768  26.390  23.652  1.00  0.00     0.052 A 
ATOM      9  C   UNL A   1      28.500  26.897  23.905  1.00  0.00     0.039 A 
ATOM     10  C   UNL A   1      28.359  28.122  23.225  1.00  0.00     0.020 A 
ATOM     11  C   UNL A   1      29.536  28.322  22.515  1.00  0.00     0.140 A 
ATOM     12  C   UNL A   1      27.368  29.109  23.158  1.00  0.00     0.013 A 
ATOM     13  N   UNL A   1      29.815  29.355  21.694  1.00  0.00    -0.238 NA
ATOM     14  C   UNL A   1      27.606  30.193  22.318  1.00  0.00     0.021 A 
ATOM     15  C   UNL A   1      28.800  30.246  21.609  1.00  0.00     0.113 A 
BRANCH   8  16
ATOM     16  C   UNL A   1      30.353  25.227  24.309  1.00  0.00     0.017 A 
ATOM     17  C   UNL A   1      32.828  21.768  27.074  1.00  0.00     0.066 C 
ATOM     18  C   UNL A   1      32.139  22.775  26.210  1.00  0.00     0.037 A 
ATOM     19  C   UNL A   1      31.944  22.507  24.456  1.00  0.00     0.024 A 
ATOM     20  N   UNL A   1      31.495  24.193  27.010  1.00  0.00    -0.261 NA
ATOM     21  C   UNL A   1      30.995  23.708  23.498  1.00  0.00     0.014 A 
ATOM     22  C   UNL A   1      30.595  25.393  26.090  1.00  0.00     0.121 A 
ENDBRANCH   8  16
ENDBRANCH   6   7
ENDBRANCH   5   6
ENDBRANCH   3   5
ENDBRANCH   2   3
ENDBRANCH   1   2
BRANCH   1  23
ATOM     23  C   UNL A   1      33.909  29.963  27.470  1.00  0.00     0.275 C 
BRANCH  23  24
ATOM     24  O   UNL A   1      33.449  31.942  27.448  1.00  0.00    -0.458 OA
BRANCH  24  25
ATOM     25  C   UNL A   1      33.227  33.227  27.939  1.00  0.00     0.338 C 
ATOM     26  O   UNL A   1      32.231  33.948  27.849  1.00  0.00    -0.246 OA
BRANCH  25  27
ATOM     27  C   UNL A   1      34.273  33.631  28.854  1.00  0.00     0.060 A 
ATOM     28  C   UNL A   1      35.335  34.361  28.294  1.00  0.00     0.016 A 
ATOM     29  C   UNL A   1      34.384  32.817  29.971  1.00  0.00     0.016 A 
ATOM     30  C   UNL A   1      36.601  34.041  28.707  1.00  0.00     0.010 A 
ATOM     31  C   UNL A   1      35.642  32.515  30.392  1.00  0.00     0.010 A 
ATOM     32  C   UNL A   1      36.716  33.034  29.663  1.00  0.00    -0.014 A 
BRANCH  32  33
ATOM     33  C   UNL A   1      37.996  32.400  29.845  1.00  0.00     0.031 A 
ATOM     34  C   UNL A   1      38.028  30.994  29.416  1.00  0.00     0.074 A 
ATOM     35  C   UNL A   1      39.072  33.143  30.168  1.00  0.00     0.049 A 
ATOM     36  N   UNL A   1      38.357  29.959  30.109  1.00  0.00    -0.248 NA
ATOM     37  C   UNL A   1      37.501  30.697  28.073  1.00  0.00     0.031 C 
ATOM     38  C   UNL A   1      39.158  34.605  30.284  1.00  0.00     0.029 A 
ATOM     39  N   UNL A   1      40.363  32.748  30.287  1.00  0.00    -0.354 N 
ATOM     40  C   UNL A   1      38.234  28.890  29.235  1.00  0.00     0.074 A 
ATOM     41  C   UNL A   1      37.542  29.369  28.067  1.00  0.00     0.031 C 
ATOM     42  C   UNL A   1      40.454  34.976  30.193  1.00  0.00     0.029 A 
ATOM     43  C   UNL A   1      41.278  33.780  30.132  1.00  0.00     0.049 A 
ATOM     44  H   UNL A   1      40.627  31.817  30.464  1.00  0.00     0.167 HD
ATOM     45  C   UNL A   1      38.935  27.740  29.398  1.00  0.00     0.031 A 
ATOM     46  C   UNL A   1      42.597  33.630  29.862  1.00  0.00     0.031 A 
ATOM     47  C   UNL A   1      39.482  27.604  30.716  1.00  0.00     0.049 A 
ATOM     48  C   UNL A   1      42.951  32.221  30.170  1.00  0.00     0.074 A 
ATOM     49  C   UNL A   1      38.936  27.529  31.981  1.00  0.00     0.029 A 
ATOM     50  N   UNL A   1      40.805  27.936  30.884  1.00  0.00    -0.354 N 
ATOM     51  N   UNL A   1      42.961  31.718  31.371  1.00  0.00    -0.248 NA
ATOM     52  C   UNL A   1      42.904  31.245  29.090  1.00  0.00     0.031 C 
ATOM     53  C   UNL A   1      39.840  28.239  32.820  1.00  0.00     0.029 A 
ATOM     54  C   UNL A   1      40.901  28.686  32.029  1.00  0.00     0.049 A 
ATOM     55  H   UNL A   1      41.550  27.682  30.291  1.00  0.00     0.167 HD
ATOM     56  C   UNL A   1      42.509  30.414  31.217  1.00  0.00     0.074 A 
ATOM     57  C   UNL A   1      42.611  30.143  29.787  1.00  0.00     0.031 C 
ATOM     58  C   UNL A   1      41.825  29.785  32.217  1.00  0.00     0.031 A 
BRANCH  45  59
ATOM     59  C   UNL A   1      39.409  26.948  28.220  1.00  0.00    -0.014 A 
ATOM     60  C   UNL A   1      39.112  25.585  28.134  1.00  0.00     0.009 A 
ATOM     61  C   UNL A   1      40.338  27.471  27.294  1.00  0.00     0.009 A 
ATOM     62  C   UNL A   1      39.713  24.784  27.157  1.00  0.00     0.001 A 
ATOM     63  C   UNL A   1      40.903  26.687  26.291  1.00  0.00     0.001 A 
ATOM     64  C   UNL A   1      40.599  25.336  26.233  1.00  0.00     0.000 A 
ENDBRANCH  45  59
BRANCH  46  65
ATOM     65  C   UNL A   1      43.495  34.517  29.087  1.00  0.00    -0.014 A 
ATOM     66  C   UNL A   1      44.806  34.750  29.533  1.00  0.00     0.009 A 
ATOM     67  C   UNL A   1      43.169  34.936  27.784  1.00  0.00     0.009 A 
ATOM     68  C   UNL A   1      45.765  35.327  28.691  1.00  0.00     0.001 A 
ATOM     69  C   UNL A   1      44.121  35.527  26.947  1.00  0.00     0.001 A 
ATOM     70  C   UNL A   1      45.426  35.703  27.393  1.00  0.00     0.000 A 
ENDBRANCH  46  65
BRANCH  58  71
ATOM     71  C   UNL A   1      41.780  30.463  33.565  1.00  0.00    -0.014 A 
ATOM     72  C   UNL A   1      40.823  31.443  33.882  1.00  0.00     0.009 A 
ATOM     73  C   UNL A   1      42.596  29.969  34.592  1.00  0.00     0.009 A 
ATOM     74  C   UNL A   1      40.695  31.925  35.189  1.00  0.00     0.001 A 
ATOM     75  C   UNL A   1      42.456  30.438  35.901  1.00  0.00     0.001 A 
ATOM     76  C   UNL A   1      41.508  31.414  36.199  1.00  0.00     0.000 A 
ENDBRANCH  58  71
ENDBRANCH  32  33
ENDBRANCH  25  27
ENDBRANCH  24  25
ENDBRANCH  23  24
ENDBRANCH   1  23
TORSDOF 14
ENDMDL
