MODEL 1
REMARK VINA RESULT:     -11.3      0.000      0.000
REMARK SMILES C[C@@H]1CCC[C@H](C)[N@H+]1Cc1cc2c(cc1Cl)C=C(C(=O)OCCOC(=O)c1ccc(-c3c4nc(c(-c5ccccc5)c5ccc([nH]5)c(-c5ccccc5)c5nc(c(-c6ccccc6)c6ccc3[nH]6)C=C5)C=C4)cc1)[C@@H](C(F)(F)F)O2
REMARK SMILES IDX 22 1 21 2 19 3 20 4 18 5 10 6 11 7 15 8 12 9 14 10 16 11
REMARK SMILES IDX 13 12 80 13 17 14 75 15 9 16 8 17 7 18 6 19 5 20 4 21 2 22
REMARK SMILES IDX 3 24 1 25 76 26 77 27 78 28 79 29 23 30 24 31 25 32 26 33
REMARK SMILES IDX 27 34 28 35 74 36 29 37 73 38 30 39 31 40 32 41 67 42 33 43
REMARK SMILES IDX 72 44 66 45 68 46 34 47 71 48 65 49 64 50 35 52 57 53 42 54
REMARK SMILES IDX 56 55 43 56 46 57 55 58 69 59 44 60 45 61 54 63 70 64 47 65
REMARK SMILES IDX 36 66 37 67 41 68 38 69 40 70 39 71 58 72 59 73 63 74 60 75
REMARK SMILES IDX 62 76 61 77 48 78 49 79 53 80 50 81 52 82 51 83
REMARK H PARENT 8 23 68 51 46 62
REMARK Flexibility Score: inf
ROOT
ATOM      1  C   UNL A   1      38.049  21.283  25.132  1.00  0.00     0.275 C 
ENDROOT
BRANCH   1   2
ATOM      2  O   UNL A   1      36.933  21.334  24.215  1.00  0.00    -0.459 OA
BRANCH   2   3
ATOM      3  C   UNL A   1      35.716  21.462  24.798  1.00  0.00     0.338 C 
ATOM      4  O   UNL A   1      35.237  20.709  25.630  1.00  0.00    -0.246 OA
BRANCH   3   5
ATOM      5  C   UNL A   1      35.033  22.693  24.350  1.00  0.00     0.087 C 
ATOM      6  C   UNL A   1      33.562  27.484  23.827  1.00  0.00     0.029 A 
ATOM      7  C   UNL A   1      33.481  26.332  23.009  1.00  0.00     0.058 A 
ATOM      8  C   UNL A   1      33.959  27.312  25.163  1.00  0.00     0.050 A 
ATOM      9  C   UNL A   1      33.928  25.090  23.467  1.00  0.00     0.128 A 
ATOM     10  C   UNL A   1      34.456  26.084  25.600  1.00  0.00     0.033 A 
ATOM     11  Cl  UNL A   1      33.871  28.566  26.348  1.00  0.00    -0.084 Cl
ATOM     12  C   UNL A   1      34.476  24.988  24.741  1.00  0.00     0.019 A 
ATOM     13  O   UNL A   1      33.876  24.034  22.595  1.00  0.00    -0.475 OA
ATOM     14  C   UNL A   1      35.129  23.761  25.152  1.00  0.00     0.027 C 
ATOM     15  C   UNL A   1      34.152  22.703  23.131  1.00  0.00     0.316 C 
BRANCH   6  16
ATOM     16  C   UNL A   1      33.288  28.849  23.222  1.00  0.00     0.301 C 
BRANCH  16  17
ATOM     17  N   UNL A   1      31.892  29.341  23.281  1.00  0.00    -0.327 N 
ATOM     18  C   UNL A   1      30.492  30.639  24.853  1.00  0.00     0.075 C 
ATOM     19  C   UNL A   1      31.286  29.344  24.621  1.00  0.00     0.181 C 
ATOM     20  C   UNL A   1      30.416  28.114  24.927  1.00  0.00     0.065 C 
ATOM     21  C   UNL A   1      29.434  27.784  23.812  1.00  0.00     0.012 C 
ATOM     22  C   UNL A   1      31.027  28.914  22.168  1.00  0.00     0.181 C 
ATOM     23  H   UNL A   1      31.983  30.340  23.097  1.00  0.00     0.348 HD
ATOM     24  C   UNL A   1      30.155  27.685  22.474  1.00  0.00     0.065 C 
ATOM     25  C   UNL A   1      30.166  30.071  21.641  1.00  0.00     0.075 C 
ENDBRANCH  16  17
ENDBRANCH   6  16
BRANCH  15  26
ATOM     26  C   UNL A   1      32.841  21.965  23.451  1.00  0.00     0.430 C 
ATOM     27  F   UNL A   1      31.823  22.377  22.663  1.00  0.00    -0.167 F 
ATOM     28  F   UNL A   1      32.973  20.628  23.255  1.00  0.00    -0.167 F 
ATOM     29  F   UNL A   1      32.456  22.140  24.738  1.00  0.00    -0.167 F 
ENDBRANCH  15  26
ENDBRANCH   3   5
ENDBRANCH   2   3
ENDBRANCH   1   2
BRANCH   1  30
ATOM     30  C   UNL A   1      38.842  19.980  25.010  1.00  0.00     0.275 C 
BRANCH  30  31
ATOM     31  O   UNL A   1      39.592  19.713  26.210  1.00  0.00    -0.458 OA
BRANCH  31  32
ATOM     32  C   UNL A   1      40.935  19.729  26.077  1.00  0.00     0.338 C 
ATOM     33  O   UNL A   1      41.647  18.877  25.562  1.00  0.00    -0.246 OA
BRANCH  32  34
ATOM     34  C   UNL A   1      41.457  21.009  26.570  1.00  0.00     0.060 A 
ATOM     35  C   UNL A   1      42.021  21.950  25.713  1.00  0.00     0.016 A 
ATOM     36  C   UNL A   1      41.263  21.314  27.915  1.00  0.00     0.016 A 
ATOM     37  C   UNL A   1      42.421  23.191  26.229  1.00  0.00     0.010 A 
ATOM     38  C   UNL A   1      41.591  22.570  28.411  1.00  0.00     0.010 A 
ATOM     39  C   UNL A   1      42.196  23.521  27.581  1.00  0.00    -0.014 A 
BRANCH  39  40
ATOM     40  C   UNL A   1      42.560  24.854  28.137  1.00  0.00     0.031 A 
ATOM     41  C   UNL A   1      43.984  25.174  28.517  1.00  0.00     0.074 A 
ATOM     42  C   UNL A   1      41.593  25.763  28.379  1.00  0.00     0.049 A 
ATOM     43  N   UNL A   1      44.471  26.272  29.041  1.00  0.00    -0.248 NA
ATOM     44  C   UNL A   1      44.985  24.113  28.323  1.00  0.00     0.031 C 
ATOM     45  C   UNL A   1      40.163  25.555  28.146  1.00  0.00     0.029 A 
ATOM     46  N   UNL A   1      41.667  27.042  28.872  1.00  0.00    -0.354 N 
ATOM     47  C   UNL A   1      45.817  26.017  29.274  1.00  0.00     0.074 A 
ATOM     48  C   UNL A   1      46.062  24.648  28.880  1.00  0.00     0.031 C 
ATOM     49  C   UNL A   1      39.502  26.685  28.439  1.00  0.00     0.029 A 
ATOM     50  C   UNL A   1      40.452  27.684  28.919  1.00  0.00     0.049 A 
ATOM     51  H   UNL A   1      42.509  27.460  29.164  1.00  0.00     0.167 HD
ATOM     52  C   UNL A   1      46.771  26.854  29.749  1.00  0.00     0.031 A 
ATOM     53  C   UNL A   1      40.131  28.937  29.295  1.00  0.00     0.031 A 
ATOM     54  C   UNL A   1      46.540  28.235  30.080  1.00  0.00     0.049 A 
ATOM     55  C   UNL A   1      41.211  29.874  29.756  1.00  0.00     0.074 A 
ATOM     56  C   UNL A   1      47.470  29.196  30.438  1.00  0.00     0.029 A 
ATOM     57  N   UNL A   1      45.299  28.849  30.093  1.00  0.00    -0.354 N 
ATOM     58  N   UNL A   1      42.497  29.648  29.872  1.00  0.00    -0.248 NA
ATOM     59  C   UNL A   1      40.803  31.235  30.132  1.00  0.00     0.031 C 
ATOM     60  C   UNL A   1      46.783  30.379  30.722  1.00  0.00     0.029 A 
ATOM     61  C   UNL A   1      45.434  30.170  30.484  1.00  0.00     0.049 A 
ATOM     62  H   UNL A   1      44.449  28.411  29.859  1.00  0.00     0.167 HD
ATOM     63  C   UNL A   1      43.053  30.837  30.325  1.00  0.00     0.074 A 
ATOM     64  C   UNL A   1      41.968  31.789  30.447  1.00  0.00     0.031 C 
ATOM     65  C   UNL A   1      44.348  31.107  30.616  1.00  0.00     0.031 A 
BRANCH  52  66
ATOM     66  C   UNL A   1      48.166  26.315  29.922  1.00  0.00    -0.014 A 
ATOM     67  C   UNL A   1      48.568  25.810  31.170  1.00  0.00     0.009 A 
ATOM     68  C   UNL A   1      49.108  26.375  28.884  1.00  0.00     0.009 A 
ATOM     69  C   UNL A   1      49.880  25.375  31.372  1.00  0.00     0.001 A 
ATOM     70  C   UNL A   1      50.410  25.910  29.079  1.00  0.00     0.001 A 
ATOM     71  C   UNL A   1      50.797  25.418  30.324  1.00  0.00     0.000 A 
ENDBRANCH  52  66
BRANCH  53  72
ATOM     72  C   UNL A   1      38.716  29.379  29.184  1.00  0.00    -0.014 A 
ATOM     73  C   UNL A   1      37.835  29.246  30.269  1.00  0.00     0.009 A 
ATOM     74  C   UNL A   1      38.218  29.840  27.957  1.00  0.00     0.009 A 
ATOM     75  C   UNL A   1      36.477  29.533  30.117  1.00  0.00     0.001 A 
ATOM     76  C   UNL A   1      36.863  30.149  27.814  1.00  0.00     0.001 A 
ATOM     77  C   UNL A   1      35.992  29.983  28.890  1.00  0.00     0.000 A 
ENDBRANCH  53  72
BRANCH  65  78
ATOM     78  C   UNL A   1      44.690  32.484  31.111  1.00  0.00    -0.014 A 
ATOM     79  C   UNL A   1      45.081  33.477  30.199  1.00  0.00     0.009 A 
ATOM     80  C   UNL A   1      44.756  32.756  32.485  1.00  0.00     0.009 A 
ATOM     81  C   UNL A   1      45.555  34.709  30.653  1.00  0.00     0.001 A 
ATOM     82  C   UNL A   1      45.207  33.998  32.936  1.00  0.00     0.001 A 
ATOM     83  C   UNL A   1      45.617  34.968  32.021  1.00  0.00     0.000 A 
ENDBRANCH  65  78
ENDBRANCH  39  40
ENDBRANCH  32  34
ENDBRANCH  31  32
ENDBRANCH  30  31
ENDBRANCH   1  30
TORSDOF 14
ENDMDL
MODEL 2
REMARK VINA RESULT:     -11.2      2.976      8.038
REMARK SMILES C[C@@H]1CCC[C@H](C)[N@H+]1Cc1cc2c(cc1Cl)C=C(C(=O)OCCOC(=O)c1ccc(-c3c4nc(c(-c5ccccc5)c5ccc([nH]5)c(-c5ccccc5)c5nc(c(-c6ccccc6)c6ccc3[nH]6)C=C5)C=C4)cc1)[C@@H](C(F)(F)F)O2
REMARK SMILES IDX 22 1 21 2 19 3 20 4 18 5 10 6 11 7 15 8 12 9 14 10 16 11
REMARK SMILES IDX 13 12 80 13 17 14 75 15 9 16 8 17 7 18 6 19 5 20 4 21 2 22
REMARK SMILES IDX 3 24 1 25 76 26 77 27 78 28 79 29 23 30 24 31 25 32 26 33
REMARK SMILES IDX 27 34 28 35 74 36 29 37 73 38 30 39 31 40 32 41 67 42 33 43
REMARK SMILES IDX 72 44 66 45 68 46 34 47 71 48 65 49 64 50 35 52 57 53 42 54
REMARK SMILES IDX 56 55 43 56 46 57 55 58 69 59 44 60 45 61 54 63 70 64 47 65
REMARK SMILES IDX 36 66 37 67 41 68 38 69 40 70 39 71 58 72 59 73 63 74 60 75
REMARK SMILES IDX 62 76 61 77 48 78 49 79 53 80 50 81 52 82 51 83
REMARK H PARENT 8 23 68 51 46 62
REMARK Flexibility Score: inf
ROOT
ATOM      1  C   UNL A   1      32.914  28.016  27.082  1.00  0.00     0.275 C 
ENDROOT
BRANCH   1   2
ATOM      2  O   UNL A   1      33.672  27.665  25.903  1.00  0.00    -0.459 OA
BRANCH   2   3
ATOM      3  C   UNL A   1      32.942  27.160  24.879  1.00  0.00     0.338 C 
ATOM      4  O   UNL A   1      32.136  27.778  24.201  1.00  0.00    -0.246 OA
BRANCH   3   5
ATOM      5  C   UNL A   1      33.286  25.747  24.618  1.00  0.00     0.087 C 
ATOM      6  C   UNL A   1      35.369  21.165  24.828  1.00  0.00     0.029 A 
ATOM      7  C   UNL A   1      34.170  21.678  24.282  1.00  0.00     0.058 A 
ATOM      8  C   UNL A   1      36.336  22.083  25.268  1.00  0.00     0.050 A 
ATOM      9  C   UNL A   1      33.888  23.047  24.319  1.00  0.00     0.128 A 
ATOM     10  C   UNL A   1      36.031  23.442  25.355  1.00  0.00     0.033 A 
ATOM     11  Cl  UNL A   1      37.938  21.629  25.726  1.00  0.00    -0.084 Cl
ATOM     12  C   UNL A   1      34.795  23.915  24.918  1.00  0.00     0.019 A 
ATOM     13  O   UNL A   1      32.679  23.462  23.827  1.00  0.00    -0.475 OA
ATOM     14  C   UNL A   1      34.430  25.298  25.148  1.00  0.00     0.027 C 
ATOM     15  C   UNL A   1      32.467  24.901  23.682  1.00  0.00     0.316 C 
BRANCH   6  16
ATOM     16  C   UNL A   1      35.536  19.663  24.981  1.00  0.00     0.301 C 
BRANCH  16  17
ATOM     17  N   UNL A   1      34.470  18.808  24.407  1.00  0.00    -0.327 N 
ATOM     18  C   UNL A   1      32.092  19.055  23.775  1.00  0.00     0.075 C 
ATOM     19  C   UNL A   1      33.116  19.068  24.920  1.00  0.00     0.181 C 
ATOM     20  C   UNL A   1      32.675  18.124  26.051  1.00  0.00     0.065 C 
ATOM     21  C   UNL A   1      32.943  16.657  25.745  1.00  0.00     0.012 C 
ATOM     22  C   UNL A   1      34.838  17.398  24.202  1.00  0.00     0.181 C 
ATOM     23  H   UNL A   1      34.390  19.140  23.446  1.00  0.00     0.348 HD
ATOM     24  C   UNL A   1      34.395  16.453  25.332  1.00  0.00     0.065 C 
ATOM     25  C   UNL A   1      34.356  16.876  22.840  1.00  0.00     0.075 C 
ENDBRANCH  16  17
ENDBRANCH   6  16
BRANCH  15  26
ATOM     26  C   UNL A   1      32.739  25.345  22.234  1.00  0.00     0.430 C 
ATOM     27  F   UNL A   1      31.734  26.102  21.741  1.00  0.00    -0.167 F 
ATOM     28  F   UNL A   1      33.869  26.092  22.157  1.00  0.00    -0.167 F 
ATOM     29  F   UNL A   1      32.903  24.292  21.399  1.00  0.00    -0.167 F 
ENDBRANCH  15  26
ENDBRANCH   3   5
ENDBRANCH   2   3
ENDBRANCH   1   2
BRANCH   1  30
ATOM     30  C   UNL A   1      32.673  29.524  27.189  1.00  0.00     0.275 C 
BRANCH  30  31
ATOM     31  O   UNL A   1      33.841  30.266  26.795  1.00  0.00    -0.458 OA
BRANCH  31  32
ATOM     32  C   UNL A   1      34.453  30.963  27.776  1.00  0.00     0.338 C 
ATOM     33  O   UNL A   1      34.010  31.913  28.407  1.00  0.00    -0.246 OA
BRANCH  32  34
ATOM     34  C   UNL A   1      35.749  30.345  28.075  1.00  0.00     0.060 A 
ATOM     35  C   UNL A   1      36.840  30.477  27.220  1.00  0.00     0.016 A 
ATOM     36  C   UNL A   1      35.899  29.715  29.308  1.00  0.00     0.016 A 
ATOM     37  C   UNL A   1      38.077  29.939  27.602  1.00  0.00     0.010 A 
ATOM     38  C   UNL A   1      37.142  29.248  29.719  1.00  0.00     0.010 A 
ATOM     39  C   UNL A   1      38.246  29.332  28.863  1.00  0.00    -0.014 A 
BRANCH  39  40
ATOM     40  C   UNL A   1      39.565  28.806  29.313  1.00  0.00     0.031 A 
ATOM     41  C   UNL A   1      40.448  29.613  30.232  1.00  0.00     0.074 A 
ATOM     42  C   UNL A   1      40.014  27.629  28.831  1.00  0.00     0.049 A 
ATOM     43  N   UNL A   1      41.638  29.321  30.698  1.00  0.00    -0.248 NA
ATOM     44  C   UNL A   1      39.953  30.933  30.651  1.00  0.00     0.031 C 
ATOM     45  C   UNL A   1      39.307  26.788  27.866  1.00  0.00     0.029 A 
ATOM     46  N   UNL A   1      41.172  26.937  29.090  1.00  0.00    -0.354 N 
ATOM     47  C   UNL A   1      42.045  30.433  31.425  1.00  0.00     0.074 A 
ATOM     48  C   UNL A   1      40.999  31.424  31.302  1.00  0.00     0.031 C 
ATOM     49  C   UNL A   1      40.014  25.667  27.658  1.00  0.00     0.029 A 
ATOM     50  C   UNL A   1      41.244  25.727  28.443  1.00  0.00     0.049 A 
ATOM     51  H   UNL A   1      41.882  27.274  29.683  1.00  0.00     0.167 HD
ATOM     52  C   UNL A   1      43.174  30.607  32.153  1.00  0.00     0.031 A 
ATOM     53  C   UNL A   1      42.185  24.763  28.478  1.00  0.00     0.031 A 
ATOM     54  C   UNL A   1      44.184  29.598  32.327  1.00  0.00     0.049 A 
ATOM     55  C   UNL A   1      43.400  24.943  29.342  1.00  0.00     0.074 A 
ATOM     56  C   UNL A   1      45.294  29.631  33.154  1.00  0.00     0.029 A 
ATOM     57  N   UNL A   1      44.207  28.378  31.670  1.00  0.00    -0.354 N 
ATOM     58  N   UNL A   1      43.719  25.959  30.106  1.00  0.00    -0.248 NA
ATOM     59  C   UNL A   1      44.381  23.848  29.356  1.00  0.00     0.031 C 
ATOM     60  C   UNL A   1      46.019  28.454  32.954  1.00  0.00     0.029 A 
ATOM     61  C   UNL A   1      45.330  27.664  32.048  1.00  0.00     0.049 A 
ATOM     62  H   UNL A   1      43.527  28.068  31.030  1.00  0.00     0.167 HD
ATOM     63  C   UNL A   1      44.931  25.626  30.697  1.00  0.00     0.074 A 
ATOM     64  C   UNL A   1      45.282  24.304  30.218  1.00  0.00     0.031 C 
ATOM     65  C   UNL A   1      45.681  26.355  31.557  1.00  0.00     0.031 A 
BRANCH  52  66
ATOM     66  C   UNL A   1      43.379  31.931  32.840  1.00  0.00    -0.014 A 
ATOM     67  C   UNL A   1      44.208  32.900  32.252  1.00  0.00     0.009 A 
ATOM     68  C   UNL A   1      42.823  32.195  34.101  1.00  0.00     0.009 A 
ATOM     69  C   UNL A   1      44.471  34.105  32.909  1.00  0.00     0.001 A 
ATOM     70  C   UNL A   1      43.061  33.412  34.742  1.00  0.00     0.001 A 
ATOM     71  C   UNL A   1      43.891  34.362  34.149  1.00  0.00     0.000 A 
ENDBRANCH  52  66
BRANCH  53  72
ATOM     72  C   UNL A   1      41.963  23.515  27.702  1.00  0.00    -0.014 A 
ATOM     73  C   UNL A   1      41.334  22.406  28.289  1.00  0.00     0.009 A 
ATOM     74  C   UNL A   1      42.474  23.395  26.401  1.00  0.00     0.009 A 
ATOM     75  C   UNL A   1      41.250  21.193  27.603  1.00  0.00     0.001 A 
ATOM     76  C   UNL A   1      42.368  22.187  25.707  1.00  0.00     0.001 A 
ATOM     77  C   UNL A   1      41.768  21.084  26.313  1.00  0.00     0.000 A 
ENDBRANCH  53  72
BRANCH  65  78
ATOM     78  C   UNL A   1      46.974  25.767  32.044  1.00  0.00    -0.014 A 
ATOM     79  C   UNL A   1      47.017  25.098  33.278  1.00  0.00     0.009 A 
ATOM     80  C   UNL A   1      48.171  25.992  31.349  1.00  0.00     0.009 A 
ATOM     81  C   UNL A   1      48.236  24.687  33.819  1.00  0.00     0.001 A 
ATOM     82  C   UNL A   1      49.387  25.557  31.881  1.00  0.00     0.001 A 
ATOM     83  C   UNL A   1      49.420  24.917  33.119  1.00  0.00     0.000 A 
ENDBRANCH  65  78
ENDBRANCH  39  40
ENDBRANCH  32  34
ENDBRANCH  31  32
ENDBRANCH  30  31
ENDBRANCH   1  30
TORSDOF 14
ENDMDL
MODEL 3
REMARK VINA RESULT:     -11.1      3.523      5.091
REMARK SMILES C[C@@H]1CCC[C@H](C)[N@H+]1Cc1cc2c(cc1Cl)C=C(C(=O)OCCOC(=O)c1ccc(-c3c4nc(c(-c5ccccc5)c5ccc([nH]5)c(-c5ccccc5)c5nc(c(-c6ccccc6)c6ccc3[nH]6)C=C5)C=C4)cc1)[C@@H](C(F)(F)F)O2
REMARK SMILES IDX 22 1 21 2 19 3 20 4 18 5 10 6 11 7 15 8 12 9 14 10 16 11
REMARK SMILES IDX 13 12 80 13 17 14 75 15 9 16 8 17 7 18 6 19 5 20 4 21 2 22
REMARK SMILES IDX 3 24 1 25 76 26 77 27 78 28 79 29 23 30 24 31 25 32 26 33
REMARK SMILES IDX 27 34 28 35 74 36 29 37 73 38 30 39 31 40 32 41 67 42 33 43
REMARK SMILES IDX 72 44 66 45 68 46 34 47 71 48 65 49 64 50 35 52 57 53 42 54
REMARK SMILES IDX 56 55 43 56 46 57 55 58 69 59 44 60 45 61 54 63 70 64 47 65
REMARK SMILES IDX 36 66 37 67 41 68 38 69 40 70 39 71 58 72 59 73 63 74 60 75
REMARK SMILES IDX 62 76 61 77 48 78 49 79 53 80 50 81 52 82 51 83
REMARK H PARENT 8 23 68 51 46 62
REMARK Flexibility Score: inf
ROOT
ATOM      1  C   UNL A   1      43.041  18.968  25.574  1.00  0.00     0.275 C 
ENDROOT
BRANCH   1   2
ATOM      2  O   UNL A   1      41.747  19.606  25.498  1.00  0.00    -0.459 OA
BRANCH   2   3
ATOM      3  C   UNL A   1      41.233  20.004  26.687  1.00  0.00     0.338 C 
ATOM      4  O   UNL A   1      41.554  19.579  27.785  1.00  0.00    -0.246 OA
BRANCH   3   5
ATOM      5  C   UNL A   1      40.251  21.095  26.511  1.00  0.00     0.087 C 
ATOM      6  C   UNL A   1      36.167  23.760  25.248  1.00  0.00     0.029 A 
ATOM      7  C   UNL A   1      37.200  23.930  26.199  1.00  0.00     0.058 A 
ATOM      8  C   UNL A   1      36.325  22.755  24.280  1.00  0.00     0.050 A 
ATOM      9  C   UNL A   1      38.268  23.032  26.271  1.00  0.00     0.128 A 
ATOM     10  C   UNL A   1      37.362  21.829  24.387  1.00  0.00     0.033 A 
ATOM     11  Cl  UNL A   1      35.285  22.582  22.912  1.00  0.00    -0.084 Cl
ATOM     12  C   UNL A   1      38.308  21.946  25.404  1.00  0.00     0.019 A 
ATOM     13  O   UNL A   1      39.197  23.227  27.259  1.00  0.00    -0.475 OA
ATOM     14  C   UNL A   1      39.290  20.899  25.599  1.00  0.00     0.027 C 
ATOM     15  C   UNL A   1      40.412  22.415  27.212  1.00  0.00     0.316 C 
BRANCH   6  16
ATOM     16  C   UNL A   1      34.912  24.609  25.350  1.00  0.00     0.301 C 
BRANCH  16  17
ATOM     17  N   UNL A   1      33.757  24.017  26.065  1.00  0.00    -0.327 N 
ATOM     18  C   UNL A   1      33.397  22.517  27.997  1.00  0.00     0.075 C 
ATOM     19  C   UNL A   1      33.971  22.656  26.579  1.00  0.00     0.181 C 
ATOM     20  C   UNL A   1      33.435  21.541  25.666  1.00  0.00     0.065 C 
ATOM     21  C   UNL A   1      32.015  21.796  25.182  1.00  0.00     0.012 C 
ATOM     22  C   UNL A   1      32.439  24.297  25.471  1.00  0.00     0.181 C 
ATOM     23  H   UNL A   1      33.709  24.556  26.929  1.00  0.00     0.348 HD
ATOM     24  C   UNL A   1      31.902  23.181  24.559  1.00  0.00     0.065 C 
ATOM     25  C   UNL A   1      31.401  24.671  26.539  1.00  0.00     0.075 C 
ENDBRANCH  16  17
ENDBRANCH   6  16
BRANCH  15  26
ATOM     26  C   UNL A   1      41.561  23.199  26.553  1.00  0.00     0.430 C 
ATOM     27  F   UNL A   1      41.226  24.487  26.319  1.00  0.00    -0.167 F 
ATOM     28  F   UNL A   1      42.659  23.218  27.352  1.00  0.00    -0.167 F 
ATOM     29  F   UNL A   1      41.940  22.656  25.372  1.00  0.00    -0.167 F 
ENDBRANCH  15  26
ENDBRANCH   3   5
ENDBRANCH   2   3
ENDBRANCH   1   2
BRANCH   1  30
ATOM     30  C   UNL A   1      44.130  19.776  24.864  1.00  0.00     0.275 C 
BRANCH  30  31
ATOM     31  O   UNL A   1      44.279  21.080  25.456  1.00  0.00    -0.458 OA
BRANCH  31  32
ATOM     32  C   UNL A   1      45.526  21.596  25.431  1.00  0.00     0.338 C 
ATOM     33  O   UNL A   1      46.553  21.054  25.047  1.00  0.00    -0.246 OA
BRANCH  32  34
ATOM     34  C   UNL A   1      45.479  23.000  25.856  1.00  0.00     0.060 A 
ATOM     35  C   UNL A   1      44.969  24.000  25.032  1.00  0.00     0.016 A 
ATOM     36  C   UNL A   1      45.850  23.294  27.166  1.00  0.00     0.016 A 
ATOM     37  C   UNL A   1      44.868  25.307  25.527  1.00  0.00     0.010 A 
ATOM     38  C   UNL A   1      45.681  24.574  27.680  1.00  0.00     0.010 A 
ATOM     39  C   UNL A   1      45.209  25.606  26.862  1.00  0.00    -0.014 A 
BRANCH  39  40
ATOM     40  C   UNL A   1      45.054  26.977  27.426  1.00  0.00     0.031 A 
ATOM     41  C   UNL A   1      46.231  27.916  27.512  1.00  0.00     0.074 A 
ATOM     42  C   UNL A   1      43.867  27.357  27.939  1.00  0.00     0.049 A 
ATOM     43  N   UNL A   1      46.281  29.132  28.001  1.00  0.00    -0.248 NA
ATOM     44  C   UNL A   1      47.526  27.417  27.027  1.00  0.00     0.031 C 
ATOM     45  C   UNL A   1      42.669  26.519  28.005  1.00  0.00     0.029 A 
ATOM     46  N   UNL A   1      43.471  28.547  28.501  1.00  0.00    -0.354 N 
ATOM     47  C   UNL A   1      47.613  29.520  27.918  1.00  0.00     0.074 A 
ATOM     48  C   UNL A   1      48.347  28.398  27.378  1.00  0.00     0.031 C 
ATOM     49  C   UNL A   1      41.659  27.237  28.519  1.00  0.00     0.029 A 
ATOM     50  C   UNL A   1      42.144  28.571  28.857  1.00  0.00     0.049 A 
ATOM     51  H   UNL A   1      44.080  29.309  28.635  1.00  0.00     0.167 HD
ATOM     52  C   UNL A   1      48.173  30.711  28.237  1.00  0.00     0.031 A 
ATOM     53  C   UNL A   1      41.392  29.556  29.388  1.00  0.00     0.031 A 
ATOM     54  C   UNL A   1      47.432  31.848  28.715  1.00  0.00     0.049 A 
ATOM     55  C   UNL A   1      42.014  30.892  29.674  1.00  0.00     0.074 A 
ATOM     56  C   UNL A   1      47.889  33.136  28.936  1.00  0.00     0.029 A 
ATOM     57  N   UNL A   1      46.086  31.836  29.042  1.00  0.00    -0.354 N 
ATOM     58  N   UNL A   1      43.253  31.276  29.492  1.00  0.00    -0.248 NA
ATOM     59  C   UNL A   1      41.138  31.933  30.232  1.00  0.00     0.031 C 
ATOM     60  C   UNL A   1      46.830  33.889  29.450  1.00  0.00     0.029 A 
ATOM     61  C   UNL A   1      45.702  33.086  29.494  1.00  0.00     0.049 A 
ATOM     62  H   UNL A   1      45.492  31.054  28.965  1.00  0.00     0.167 HD
ATOM     63  C   UNL A   1      43.307  32.601  29.904  1.00  0.00     0.074 A 
ATOM     64  C   UNL A   1      41.971  32.963  30.329  1.00  0.00     0.031 C 
ATOM     65  C   UNL A   1      44.373  33.436  29.928  1.00  0.00     0.031 A 
BRANCH  52  66
ATOM     66  C   UNL A   1      49.661  30.866  28.064  1.00  0.00    -0.014 A 
ATOM     67  C   UNL A   1      50.527  30.468  29.095  1.00  0.00     0.009 A 
ATOM     68  C   UNL A   1      50.205  31.475  26.923  1.00  0.00     0.009 A 
ATOM     69  C   UNL A   1      51.905  30.672  28.985  1.00  0.00     0.001 A 
ATOM     70  C   UNL A   1      51.585  31.649  26.801  1.00  0.00     0.001 A 
ATOM     71  C   UNL A   1      52.432  31.254  27.835  1.00  0.00     0.000 A 
ENDBRANCH  52  66
BRANCH  53  72
ATOM     72  C   UNL A   1      39.945  29.307  29.619  1.00  0.00    -0.014 A 
ATOM     73  C   UNL A   1      38.993  29.648  28.646  1.00  0.00     0.009 A 
ATOM     74  C   UNL A   1      39.505  28.821  30.859  1.00  0.00     0.009 A 
ATOM     75  C   UNL A   1      37.628  29.540  28.921  1.00  0.00     0.001 A 
ATOM     76  C   UNL A   1      38.139  28.691  31.124  1.00  0.00     0.001 A 
ATOM     77  C   UNL A   1      37.203  29.063  30.160  1.00  0.00     0.000 A 
ENDBRANCH  53  72
BRANCH  65  78
ATOM     78  C   UNL A   1      44.168  34.832  30.441  1.00  0.00    -0.014 A 
ATOM     79  C   UNL A   1      43.904  35.876  29.539  1.00  0.00     0.009 A 
ATOM     80  C   UNL A   1      44.368  35.136  31.795  1.00  0.00     0.009 A 
ATOM     81  C   UNL A   1      43.870  37.200  29.978  1.00  0.00     0.001 A 
ATOM     82  C   UNL A   1      44.308  36.460  32.236  1.00  0.00     0.001 A 
ATOM     83  C   UNL A   1      44.071  37.491  31.326  1.00  0.00     0.000 A 
ENDBRANCH  65  78
ENDBRANCH  39  40
ENDBRANCH  32  34
ENDBRANCH  31  32
ENDBRANCH  30  31
ENDBRANCH   1  30
TORSDOF 14
ENDMDL
