MODEL 1
REMARK VINA RESULT:     -10.4      0.000      0.000
REMARK SMILES CC(=C\c1ccco1)/C=C1/SC(=S)N(CC(=O)OCCOC(=O)c2ccc(-c3c4nc(c(-c5ccccc5)c5ccc([nH]5)c(-c5ccccc5)c5nc(c(-c6ccccc6)c6ccc3[nH]6)C=C5)C=C4)cc2)C1=O
REMARK SMILES IDX 19 1 18 2 16 3 17 4 15 5 14 6 9 7 10 8 11 9 72 10 12 11
REMARK SMILES IDX 73 12 13 13 2 14 1 15 3 16 4 17 5 18 8 19 6 20 7 21 20 22
REMARK SMILES IDX 21 23 22 24 23 25 24 26 25 27 71 28 26 29 70 30 27 31 28 32
REMARK SMILES IDX 29 33 64 34 30 35 69 36 63 37 65 38 31 39 68 40 62 41 61 42
REMARK SMILES IDX 32 44 54 45 39 46 53 47 40 48 43 49 52 50 66 51 41 52 42 53
REMARK SMILES IDX 51 55 67 56 44 57 33 58 34 59 38 60 35 61 37 62 36 63 55 64
REMARK SMILES IDX 56 65 60 66 57 67 59 68 58 69 45 70 46 71 50 72 47 73 49 74
REMARK SMILES IDX 48 75
REMARK H PARENT 65 43 43 54
REMARK Flexibility Score: inf
ROOT
ATOM      1  C   UNL A   1      43.856  21.760  25.757  1.00  0.00     0.274 C 
ENDROOT
BRANCH   1   2
ATOM      2  O   UNL A   1      42.513  21.368  25.381  1.00  0.00    -0.461 OA
BRANCH   2   3
ATOM      3  C   UNL A   1      42.131  20.117  25.747  1.00  0.00     0.326 C 
ATOM      4  O   UNL A   1      42.741  19.094  25.446  1.00  0.00    -0.250 OA
BRANCH   3   5
ATOM      5  C   UNL A   1      40.835  20.059  26.554  1.00  0.00     0.250 C 
BRANCH   5   6
ATOM      6  N   UNL A   1      40.047  21.286  26.679  1.00  0.00    -0.282 N 
ATOM      7  C   UNL A   1      37.089  23.232  25.749  1.00  0.00     0.024 C 
ATOM      8  C   UNL A   1      38.299  22.785  26.128  1.00  0.00     0.080 C 
ATOM      9  S   UNL A   1      39.331  23.710  27.163  1.00  0.00    -0.054 SA
ATOM     10  C   UNL A   1      38.967  21.483  25.827  1.00  0.00     0.266 C 
ATOM     11  C   UNL A   1      40.386  22.340  27.494  1.00  0.00     0.148 C 
ATOM     12  O   UNL A   1      38.688  20.777  24.867  1.00  0.00    -0.268 OA
ATOM     13  S   UNL A   1      41.614  22.416  28.620  1.00  0.00    -0.052 S 
BRANCH   7  14
ATOM     14  C   UNL A   1      35.993  22.476  25.149  1.00  0.00    -0.046 C 
ATOM     15  C   UNL A   1      35.782  22.706  23.678  1.00  0.00     0.044 C 
ATOM     16  C   UNL A   1      35.291  21.573  25.863  1.00  0.00     0.050 C 
BRANCH  16  17
ATOM     17  C   UNL A   1      34.245  20.791  25.292  1.00  0.00     0.126 A 
ATOM     18  C   UNL A   1      34.275  19.510  24.742  1.00  0.00     0.050 A 
ATOM     19  O   UNL A   1      32.944  21.235  25.210  1.00  0.00    -0.465 OA
ATOM     20  C   UNL A   1      32.983  19.210  24.253  1.00  0.00     0.042 A 
ATOM     21  C   UNL A   1      32.207  20.295  24.570  1.00  0.00     0.195 A 
ENDBRANCH  16  17
ENDBRANCH   7  14
ENDBRANCH   5   6
ENDBRANCH   3   5
ENDBRANCH   2   3
ENDBRANCH   1   2
BRANCH   1  22
ATOM     22  C   UNL A   1      44.446  22.825  24.821  1.00  0.00     0.275 C 
BRANCH  22  23
ATOM     23  O   UNL A   1      43.675  24.043  24.816  1.00  0.00    -0.458 OA
BRANCH  23  24
ATOM     24  C   UNL A   1      44.405  25.121  25.186  1.00  0.00     0.338 C 
ATOM     25  O   UNL A   1      45.415  25.505  24.628  1.00  0.00    -0.246 OA
BRANCH  24  26
ATOM     26  C   UNL A   1      43.778  25.855  26.292  1.00  0.00     0.060 A 
ATOM     27  C   UNL A   1      42.632  25.315  26.879  1.00  0.00     0.016 A 
ATOM     28  C   UNL A   1      44.234  27.119  26.665  1.00  0.00     0.016 A 
ATOM     29  C   UNL A   1      41.941  26.030  27.851  1.00  0.00     0.010 A 
ATOM     30  C   UNL A   1      43.566  27.818  27.677  1.00  0.00     0.010 A 
ATOM     31  C   UNL A   1      42.424  27.269  28.288  1.00  0.00    -0.014 A 
BRANCH  31  32
ATOM     32  C   UNL A   1      41.804  27.920  29.468  1.00  0.00     0.031 A 
ATOM     33  C   UNL A   1      40.560  28.746  29.349  1.00  0.00     0.074 A 
ATOM     34  C   UNL A   1      42.398  27.760  30.666  1.00  0.00     0.049 A 
ATOM     35  N   UNL A   1      39.965  29.465  30.269  1.00  0.00    -0.248 NA
ATOM     36  C   UNL A   1      39.895  28.769  28.038  1.00  0.00     0.031 C 
ATOM     37  C   UNL A   1      43.592  26.945  30.914  1.00  0.00     0.029 A 
ATOM     38  N   UNL A   1      42.084  28.273  31.898  1.00  0.00    -0.354 N 
ATOM     39  C   UNL A   1      38.865  30.041  29.647  1.00  0.00     0.074 A 
ATOM     40  C   UNL A   1      38.880  29.594  28.269  1.00  0.00     0.031 C 
ATOM     41  C   UNL A   1      43.900  27.005  32.218  1.00  0.00     0.029 A 
ATOM     42  C   UNL A   1      42.972  27.911  32.881  1.00  0.00     0.049 A 
ATOM     43  H   UNL A   1      41.299  28.845  32.062  1.00  0.00     0.167 HD
ATOM     44  C   UNL A   1      37.933  30.867  30.182  1.00  0.00     0.031 A 
ATOM     45  C   UNL A   1      43.062  28.298  34.167  1.00  0.00     0.031 A 
ATOM     46  C   UNL A   1      37.923  31.308  31.555  1.00  0.00     0.049 A 
ATOM     47  C   UNL A   1      42.074  29.289  34.704  1.00  0.00     0.074 A 
ATOM     48  C   UNL A   1      37.003  32.126  32.191  1.00  0.00     0.029 A 
ATOM     49  N   UNL A   1      38.880  30.975  32.500  1.00  0.00    -0.354 N 
ATOM     50  N   UNL A   1      41.046  29.833  34.103  1.00  0.00    -0.248 NA
ATOM     51  C   UNL A   1      42.272  29.733  36.090  1.00  0.00     0.031 C 
ATOM     52  C   UNL A   1      37.433  32.329  33.508  1.00  0.00     0.029 A 
ATOM     53  C   UNL A   1      38.594  31.601  33.703  1.00  0.00     0.049 A 
ATOM     54  H   UNL A   1      39.649  30.382  32.341  1.00  0.00     0.167 HD
ATOM     55  C   UNL A   1      40.470  30.682  35.035  1.00  0.00     0.074 A 
ATOM     56  C   UNL A   1      41.251  30.563  36.251  1.00  0.00     0.031 C 
ATOM     57  C   UNL A   1      39.394  31.493  34.895  1.00  0.00     0.031 A 
BRANCH  44  58
ATOM     58  C   UNL A   1      36.860  31.387  29.269  1.00  0.00    -0.014 A 
ATOM     59  C   UNL A   1      35.756  30.598  28.914  1.00  0.00     0.009 A 
ATOM     60  C   UNL A   1      36.927  32.711  28.806  1.00  0.00     0.009 A 
ATOM     61  C   UNL A   1      34.753  31.116  28.092  1.00  0.00     0.001 A 
ATOM     62  C   UNL A   1      35.912  33.234  28.003  1.00  0.00     0.001 A 
ATOM     63  C   UNL A   1      34.829  32.435  27.641  1.00  0.00     0.000 A 
ENDBRANCH  44  58
BRANCH  45  64
ATOM     64  C   UNL A   1      44.171  27.790  35.011  1.00  0.00    -0.014 A 
ATOM     65  C   UNL A   1      45.393  28.474  35.074  1.00  0.00     0.009 A 
ATOM     66  C   UNL A   1      44.000  26.625  35.777  1.00  0.00     0.009 A 
ATOM     67  C   UNL A   1      46.428  27.993  35.878  1.00  0.00     0.001 A 
ATOM     68  C   UNL A   1      45.028  26.161  36.599  1.00  0.00     0.001 A 
ATOM     69  C   UNL A   1      46.243  26.842  36.644  1.00  0.00     0.000 A 
ENDBRANCH  45  64
BRANCH  57  70
ATOM     70  C   UNL A   1      39.006  32.311  36.092  1.00  0.00    -0.014 A 
ATOM     71  C   UNL A   1      39.587  33.568  36.323  1.00  0.00     0.009 A 
ATOM     72  C   UNL A   1      38.040  31.830  36.988  1.00  0.00     0.009 A 
ATOM     73  C   UNL A   1      39.228  34.315  37.445  1.00  0.00     0.001 A 
ATOM     74  C   UNL A   1      37.667  32.589  38.098  1.00  0.00     0.001 A 
ATOM     75  C   UNL A   1      38.266  33.827  38.330  1.00  0.00     0.000 A 
ENDBRANCH  57  70
ENDBRANCH  31  32
ENDBRANCH  24  26
ENDBRANCH  23  24
ENDBRANCH  22  23
ENDBRANCH   1  22
TORSDOF 14
ENDMDL
MODEL 2
REMARK VINA RESULT:     -10.4      4.585      7.113
REMARK SMILES CC(=C\c1ccco1)/C=C1/SC(=S)N(CC(=O)OCCOC(=O)c2ccc(-c3c4nc(c(-c5ccccc5)c5ccc([nH]5)c(-c5ccccc5)c5nc(c(-c6ccccc6)c6ccc3[nH]6)C=C5)C=C4)cc2)C1=O
REMARK SMILES IDX 19 1 18 2 16 3 17 4 15 5 14 6 9 7 10 8 11 9 72 10 12 11
REMARK SMILES IDX 73 12 13 13 2 14 1 15 3 16 4 17 5 18 8 19 6 20 7 21 20 22
REMARK SMILES IDX 21 23 22 24 23 25 24 26 25 27 71 28 26 29 70 30 27 31 28 32
REMARK SMILES IDX 29 33 64 34 30 35 69 36 63 37 65 38 31 39 68 40 62 41 61 42
REMARK SMILES IDX 32 44 54 45 39 46 53 47 40 48 43 49 52 50 66 51 41 52 42 53
REMARK SMILES IDX 51 55 67 56 44 57 33 58 34 59 38 60 35 61 37 62 36 63 55 64
REMARK SMILES IDX 56 65 60 66 57 67 59 68 58 69 45 70 46 71 50 72 47 73 49 74
REMARK SMILES IDX 48 75
REMARK H PARENT 65 43 43 54
REMARK Flexibility Score: inf
ROOT
ATOM      1  C   UNL A   1      38.410  20.902  25.470  1.00  0.00     0.274 C 
ENDROOT
BRANCH   1   2
ATOM      2  O   UNL A   1      38.272  22.283  25.884  1.00  0.00    -0.461 OA
BRANCH   2   3
ATOM      3  C   UNL A   1      37.189  22.946  25.399  1.00  0.00     0.326 C 
ATOM      4  O   UNL A   1      37.227  23.731  24.455  1.00  0.00    -0.250 OA
BRANCH   3   5
ATOM      5  C   UNL A   1      35.887  22.670  26.150  1.00  0.00     0.250 C 
BRANCH   5   6
ATOM      6  N   UNL A   1      34.658  22.531  25.368  1.00  0.00    -0.282 N 
ATOM      7  C   UNL A   1      32.354  20.401  23.482  1.00  0.00     0.024 C 
ATOM      8  C   UNL A   1      33.100  21.396  23.993  1.00  0.00     0.080 C 
ATOM      9  S   UNL A   1      32.588  23.048  23.928  1.00  0.00    -0.054 SA
ATOM     10  C   UNL A   1      34.403  21.328  24.721  1.00  0.00     0.266 C 
ATOM     11  C   UNL A   1      33.792  23.566  25.104  1.00  0.00     0.148 C 
ATOM     12  O   UNL A   1      35.191  20.398  24.626  1.00  0.00    -0.268 OA
ATOM     13  S   UNL A   1      33.822  25.115  25.721  1.00  0.00    -0.052 S 
BRANCH   7  14
ATOM     14  C   UNL A   1      32.481  18.965  23.714  1.00  0.00    -0.046 C 
ATOM     15  C   UNL A   1      32.529  18.115  22.474  1.00  0.00     0.044 C 
ATOM     16  C   UNL A   1      32.635  18.467  24.957  1.00  0.00     0.050 C 
BRANCH  16  17
ATOM     17  C   UNL A   1      32.805  17.073  25.208  1.00  0.00     0.126 A 
ATOM     18  C   UNL A   1      33.926  16.260  25.054  1.00  0.00     0.050 A 
ATOM     19  O   UNL A   1      31.790  16.276  25.689  1.00  0.00    -0.465 OA
ATOM     20  C   UNL A   1      33.556  14.934  25.379  1.00  0.00     0.042 A 
ATOM     21  C   UNL A   1      32.244  15.001  25.766  1.00  0.00     0.195 A 
ENDBRANCH  16  17
ENDBRANCH   7  14
ENDBRANCH   5   6
ENDBRANCH   3   5
ENDBRANCH   2   3
ENDBRANCH   1   2
BRANCH   1  22
ATOM     22  C   UNL A   1      39.447  20.136  26.303  1.00  0.00     0.275 C 
BRANCH  22  23
ATOM     23  O   UNL A   1      40.252  19.249  25.501  1.00  0.00    -0.458 OA
BRANCH  23  24
ATOM     24  C   UNL A   1      41.544  19.212  25.904  1.00  0.00     0.338 C 
ATOM     25  O   UNL A   1      42.267  18.236  25.841  1.00  0.00    -0.246 OA
BRANCH  24  26
ATOM     26  C   UNL A   1      42.021  20.530  26.338  1.00  0.00     0.060 A 
ATOM     27  C   UNL A   1      42.339  21.474  25.360  1.00  0.00     0.016 A 
ATOM     28  C   UNL A   1      42.272  20.795  27.684  1.00  0.00     0.016 A 
ATOM     29  C   UNL A   1      42.901  22.693  25.722  1.00  0.00     0.010 A 
ATOM     30  C   UNL A   1      42.792  22.041  28.052  1.00  0.00     0.010 A 
ATOM     31  C   UNL A   1      43.095  23.005  27.073  1.00  0.00    -0.014 A 
BRANCH  31  32
ATOM     32  C   UNL A   1      43.492  24.381  27.456  1.00  0.00     0.031 A 
ATOM     33  C   UNL A   1      42.484  25.399  27.895  1.00  0.00     0.074 A 
ATOM     34  C   UNL A   1      44.797  24.708  27.388  1.00  0.00     0.049 A 
ATOM     35  N   UNL A   1      42.665  26.671  28.154  1.00  0.00    -0.248 NA
ATOM     36  C   UNL A   1      41.099  24.936  28.070  1.00  0.00     0.031 C 
ATOM     37  C   UNL A   1      45.878  23.791  27.014  1.00  0.00     0.029 A 
ATOM     38  N   UNL A   1      45.438  25.896  27.631  1.00  0.00    -0.354 N 
ATOM     39  C   UNL A   1      41.418  27.167  28.507  1.00  0.00     0.074 A 
ATOM     40  C   UNL A   1      40.486  26.061  28.420  1.00  0.00     0.031 C 
ATOM     41  C   UNL A   1      47.046  24.446  27.063  1.00  0.00     0.029 A 
ATOM     42  C   UNL A   1      46.792  25.840  27.404  1.00  0.00     0.049 A 
ATOM     43  H   UNL A   1      44.974  26.708  27.937  1.00  0.00     0.167 HD
ATOM     44  C   UNL A   1      41.086  28.432  28.866  1.00  0.00     0.031 A 
ATOM     45  C   UNL A   1      47.724  26.809  27.423  1.00  0.00     0.031 A 
ATOM     46  C   UNL A   1      42.018  29.528  28.952  1.00  0.00     0.049 A 
ATOM     47  C   UNL A   1      47.310  28.217  27.729  1.00  0.00     0.074 A 
ATOM     48  C   UNL A   1      41.775  30.838  29.333  1.00  0.00     0.029 A 
ATOM     49  N   UNL A   1      43.367  29.446  28.646  1.00  0.00    -0.354 N 
ATOM     50  N   UNL A   1      46.126  28.675  28.050  1.00  0.00    -0.248 NA
ATOM     51  C   UNL A   1      48.359  29.243  27.656  1.00  0.00     0.031 C 
ATOM     52  C   UNL A   1      42.968  31.560  29.207  1.00  0.00     0.029 A 
ATOM     53  C   UNL A   1      43.962  30.689  28.792  1.00  0.00     0.049 A 
ATOM     54  H   UNL A   1      43.833  28.626  28.366  1.00  0.00     0.167 HD
ATOM     55  C   UNL A   1      46.283  30.041  28.221  1.00  0.00     0.074 A 
ATOM     56  C   UNL A   1      47.684  30.335  27.990  1.00  0.00     0.031 C 
ATOM     57  C   UNL A   1      45.350  30.971  28.535  1.00  0.00     0.031 A 
BRANCH  44  58
ATOM     58  C   UNL A   1      39.640  28.714  29.159  1.00  0.00    -0.014 A 
ATOM     59  C   UNL A   1      39.116  28.579  30.453  1.00  0.00     0.009 A 
ATOM     60  C   UNL A   1      38.804  29.181  28.132  1.00  0.00     0.009 A 
ATOM     61  C   UNL A   1      37.777  28.882  30.708  1.00  0.00     0.001 A 
ATOM     62  C   UNL A   1      37.471  29.503  28.393  1.00  0.00     0.001 A 
ATOM     63  C   UNL A   1      36.957  29.348  29.679  1.00  0.00     0.000 A 
ENDBRANCH  44  58
BRANCH  45  64
ATOM     64  C   UNL A   1      49.130  26.484  27.078  1.00  0.00    -0.014 A 
ATOM     65  C   UNL A   1      50.036  26.087  28.070  1.00  0.00     0.009 A 
ATOM     66  C   UNL A   1      49.565  26.552  25.744  1.00  0.00     0.009 A 
ATOM     67  C   UNL A   1      51.355  25.774  27.735  1.00  0.00     0.001 A 
ATOM     68  C   UNL A   1      50.877  26.214  25.409  1.00  0.00     0.001 A 
ATOM     69  C   UNL A   1      51.772  25.832  26.405  1.00  0.00     0.000 A 
ENDBRANCH  45  64
BRANCH  57  70
ATOM     70  C   UNL A   1      45.822  32.391  28.644  1.00  0.00    -0.014 A 
ATOM     71  C   UNL A   1      46.312  32.894  29.859  1.00  0.00     0.009 A 
ATOM     72  C   UNL A   1      45.791  33.230  27.521  1.00  0.00     0.009 A 
ATOM     73  C   UNL A   1      46.737  34.220  29.953  1.00  0.00     0.001 A 
ATOM     74  C   UNL A   1      46.237  34.549  27.611  1.00  0.00     0.001 A 
ATOM     75  C   UNL A   1      46.702  35.045  28.828  1.00  0.00     0.000 A 
ENDBRANCH  57  70
ENDBRANCH  31  32
ENDBRANCH  24  26
ENDBRANCH  23  24
ENDBRANCH  22  23
ENDBRANCH   1  22
TORSDOF 14
ENDMDL
MODEL 3
REMARK VINA RESULT:     -10.3      4.178      8.257
REMARK SMILES CC(=C\c1ccco1)/C=C1/SC(=S)N(CC(=O)OCCOC(=O)c2ccc(-c3c4nc(c(-c5ccccc5)c5ccc([nH]5)c(-c5ccccc5)c5nc(c(-c6ccccc6)c6ccc3[nH]6)C=C5)C=C4)cc2)C1=O
REMARK SMILES IDX 19 1 18 2 16 3 17 4 15 5 14 6 9 7 10 8 11 9 72 10 12 11
REMARK SMILES IDX 73 12 13 13 2 14 1 15 3 16 4 17 5 18 8 19 6 20 7 21 20 22
REMARK SMILES IDX 21 23 22 24 23 25 24 26 25 27 71 28 26 29 70 30 27 31 28 32
REMARK SMILES IDX 29 33 64 34 30 35 69 36 63 37 65 38 31 39 68 40 62 41 61 42
REMARK SMILES IDX 32 44 54 45 39 46 53 47 40 48 43 49 52 50 66 51 41 52 42 53
REMARK SMILES IDX 51 55 67 56 44 57 33 58 34 59 38 60 35 61 37 62 36 63 55 64
REMARK SMILES IDX 56 65 60 66 57 67 59 68 58 69 45 70 46 71 50 72 47 73 49 74
REMARK SMILES IDX 48 75
REMARK H PARENT 65 43 43 54
REMARK Flexibility Score: inf
ROOT
ATOM      1  C   UNL A   1      38.523  19.917  25.034  1.00  0.00     0.274 C 
ENDROOT
BRANCH   1   2
ATOM      2  O   UNL A   1      38.241  21.337  25.008  1.00  0.00    -0.461 OA
BRANCH   2   3
ATOM      3  C   UNL A   1      36.966  21.687  24.694  1.00  0.00     0.326 C 
ATOM      4  O   UNL A   1      36.638  22.227  23.640  1.00  0.00    -0.250 OA
BRANCH   3   5
ATOM      5  C   UNL A   1      35.938  21.387  25.785  1.00  0.00     0.250 C 
BRANCH   5   6
ATOM      6  N   UNL A   1      34.531  21.670  25.501  1.00  0.00    -0.282 N 
ATOM      7  C   UNL A   1      31.786  24.085  25.304  1.00  0.00     0.024 C 
ATOM      8  C   UNL A   1      32.576  23.004  25.434  1.00  0.00     0.080 C 
ATOM      9  S   UNL A   1      32.003  21.407  25.097  1.00  0.00    -0.054 SA
ATOM     10  C   UNL A   1      34.019  22.924  25.812  1.00  0.00     0.266 C 
ATOM     11  C   UNL A   1      33.627  20.727  25.074  1.00  0.00     0.148 C 
ATOM     12  O   UNL A   1      34.610  23.790  26.442  1.00  0.00    -0.268 OA
ATOM     13  S   UNL A   1      33.922  19.148  24.623  1.00  0.00    -0.052 S 
BRANCH   7  14
ATOM     14  C   UNL A   1      32.178  25.490  25.249  1.00  0.00    -0.046 C 
ATOM     15  C   UNL A   1      32.650  25.975  23.907  1.00  0.00     0.044 C 
ATOM     16  C   UNL A   1      32.031  26.300  26.317  1.00  0.00     0.050 C 
BRANCH  16  17
ATOM     17  C   UNL A   1      32.365  27.686  26.280  1.00  0.00     0.126 A 
ATOM     18  C   UNL A   1      33.522  28.345  26.692  1.00  0.00     0.050 A 
ATOM     19  O   UNL A   1      31.513  28.643  25.775  1.00  0.00    -0.465 OA
ATOM     20  C   UNL A   1      33.330  29.733  26.500  1.00  0.00     0.042 A 
ATOM     21  C   UNL A   1      32.089  29.859  25.932  1.00  0.00     0.195 A 
ENDBRANCH  16  17
ENDBRANCH   7  14
ENDBRANCH   5   6
ENDBRANCH   3   5
ENDBRANCH   2   3
ENDBRANCH   1   2
BRANCH   1  22
ATOM     22  C   UNL A   1      39.634  19.553  26.030  1.00  0.00     0.275 C 
BRANCH  22  23
ATOM     23  O   UNL A   1      40.886  19.261  25.377  1.00  0.00    -0.458 OA
BRANCH  23  24
ATOM     24  C   UNL A   1      41.945  19.366  26.213  1.00  0.00     0.338 C 
ATOM     25  O   UNL A   1      42.652  18.441  26.562  1.00  0.00    -0.246 OA
BRANCH  24  26
ATOM     26  C   UNL A   1      42.217  20.760  26.581  1.00  0.00     0.060 A 
ATOM     27  C   UNL A   1      42.092  21.127  27.922  1.00  0.00     0.016 A 
ATOM     28  C   UNL A   1      42.471  21.724  25.605  1.00  0.00     0.016 A 
ATOM     29  C   UNL A   1      42.229  22.459  28.298  1.00  0.00     0.010 A 
ATOM     30  C   UNL A   1      42.656  23.057  25.989  1.00  0.00     0.010 A 
ATOM     31  C   UNL A   1      42.553  23.430  27.342  1.00  0.00    -0.014 A 
BRANCH  31  32
ATOM     32  C   UNL A   1      42.906  24.801  27.783  1.00  0.00     0.031 A 
ATOM     33  C   UNL A   1      44.323  25.198  28.065  1.00  0.00     0.074 A 
ATOM     34  C   UNL A   1      41.909  25.693  27.940  1.00  0.00     0.049 A 
ATOM     35  N   UNL A   1      44.773  26.324  28.561  1.00  0.00    -0.248 NA
ATOM     36  C   UNL A   1      45.368  24.215  27.747  1.00  0.00     0.031 C 
ATOM     37  C   UNL A   1      40.493  25.436  27.658  1.00  0.00     0.029 A 
ATOM     38  N   UNL A   1      41.930  26.994  28.374  1.00  0.00    -0.354 N 
ATOM     39  C   UNL A   1      46.152  26.181  28.634  1.00  0.00     0.074 A 
ATOM     40  C   UNL A   1      46.464  24.857  28.137  1.00  0.00     0.031 C 
ATOM     41  C   UNL A   1      39.786  26.545  27.915  1.00  0.00     0.029 A 
ATOM     42  C   UNL A   1      40.683  27.566  28.442  1.00  0.00     0.049 A 
ATOM     43  H   UNL A   1      42.757  27.471  28.613  1.00  0.00     0.167 HD
ATOM     44  C   UNL A   1      47.068  27.077  29.077  1.00  0.00     0.031 A 
ATOM     45  C   UNL A   1      40.292  28.762  28.917  1.00  0.00     0.031 A 
ATOM     46  C   UNL A   1      46.752  28.394  29.569  1.00  0.00     0.049 A 
ATOM     47  C   UNL A   1      41.318  29.692  29.491  1.00  0.00     0.074 A 
ATOM     48  C   UNL A   1      47.619  29.379  30.015  1.00  0.00     0.029 A 
ATOM     49  N   UNL A   1      45.471  28.909  29.688  1.00  0.00    -0.354 N 
ATOM     50  N   UNL A   1      42.616  29.541  29.563  1.00  0.00    -0.248 NA
ATOM     51  C   UNL A   1      40.819  30.949  30.066  1.00  0.00     0.031 C 
ATOM     52  C   UNL A   1      46.857  30.470  30.452  1.00  0.00     0.029 A 
ATOM     53  C   UNL A   1      45.520  30.181  30.235  1.00  0.00     0.049 A 
ATOM     54  H   UNL A   1      44.647  28.440  29.422  1.00  0.00     0.167 HD
ATOM     55  C   UNL A   1      43.095  30.682  30.188  1.00  0.00     0.074 A 
ATOM     56  C   UNL A   1      41.947  31.528  30.454  1.00  0.00     0.031 C 
ATOM     57  C   UNL A   1      44.370  30.999  30.517  1.00  0.00     0.031 A 
BRANCH  44  58
ATOM     58  C   UNL A   1      48.508  26.649  29.089  1.00  0.00    -0.014 A 
ATOM     59  C   UNL A   1      49.361  26.922  28.010  1.00  0.00     0.009 A 
ATOM     60  C   UNL A   1      49.032  26.015  30.227  1.00  0.00     0.009 A 
ATOM     61  C   UNL A   1      50.705  26.546  28.060  1.00  0.00     0.001 A 
ATOM     62  C   UNL A   1      50.381  25.659  30.284  1.00  0.00     0.001 A 
ATOM     63  C   UNL A   1      51.215  25.919  29.198  1.00  0.00     0.000 A 
ENDBRANCH  44  58
BRANCH  45  64
ATOM     64  C   UNL A   1      38.851  29.114  28.925  1.00  0.00    -0.014 A 
ATOM     65  C   UNL A   1      38.071  28.910  30.072  1.00  0.00     0.009 A 
ATOM     66  C   UNL A   1      38.254  29.678  27.785  1.00  0.00     0.009 A 
ATOM     67  C   UNL A   1      36.717  29.253  30.073  1.00  0.00     0.001 A 
ATOM     68  C   UNL A   1      36.907  30.043  27.799  1.00  0.00     0.001 A 
ATOM     69  C   UNL A   1      36.139  29.824  28.940  1.00  0.00     0.000 A 
ENDBRANCH  45  64
BRANCH  57  70
ATOM     70  C   UNL A   1      44.582  32.317  31.203  1.00  0.00    -0.014 A 
ATOM     71  C   UNL A   1      44.759  33.494  30.459  1.00  0.00     0.009 A 
ATOM     72  C   UNL A   1      44.591  32.386  32.603  1.00  0.00     0.009 A 
ATOM     73  C   UNL A   1      44.969  34.712  31.107  1.00  0.00     0.001 A 
ATOM     74  C   UNL A   1      44.778  33.609  33.249  1.00  0.00     0.001 A 
ATOM     75  C   UNL A   1      44.975  34.769  32.501  1.00  0.00     0.000 A 
ENDBRANCH  57  70
ENDBRANCH  31  32
ENDBRANCH  24  26
ENDBRANCH  23  24
ENDBRANCH  22  23
ENDBRANCH   1  22
TORSDOF 14
ENDMDL
