MODEL 1
REMARK VINA RESULT:     -11.0      0.000      0.000
REMARK SMILES NS(=O)(=O)c1ccc(-n2nc(C(=O)OCCOCCOC(=O)c3ccc(-c4c5nc(c(-c6ccccc6)c6ccc([nH]6)c(-c6ccccc6)c6nc(c(-c7ccccc7)c7ccc4[nH]7)C=C6)C=C5)cc3)c(Cl)c2-c2ccc(Cl)cc2)cc1
REMARK SMILES IDX 16 1 15 2 14 3 12 4 13 5 11 6 9 7 10 8 73 9 71 10 72 11 8 12
REMARK SMILES IDX 5 13 6 14 82 15 7 16 81 17 2 18 3 19 4 20 1 21 74 24 75 25
REMARK SMILES IDX 80 26 76 27 79 28 77 29 78 30 17 31 18 32 19 33 20 34 21 35
REMARK SMILES IDX 22 36 23 37 24 38 70 39 25 40 69 41 26 42 27 43 28 44 63 45
REMARK SMILES IDX 29 46 68 47 62 48 64 49 30 50 67 51 61 52 60 53 31 55 53 56
REMARK SMILES IDX 38 57 52 58 39 59 42 60 51 61 65 62 40 63 41 64 50 66 66 67
REMARK SMILES IDX 43 68 32 69 33 70 37 71 34 72 36 73 35 74 54 75 55 76 59 77
REMARK SMILES IDX 56 78 58 79 57 80 44 81 45 82 49 83 46 84 48 85 47 86
REMARK H PARENT 1 22 1 23 64 54 42 65
REMARK Flexibility Score: inf
ROOT
ATOM      1  C   UNL A   1      33.345  27.806  25.185  1.00  0.00     0.202 C 
ENDROOT
BRANCH   1   2
ATOM      2  C   UNL A   1      32.649  27.834  23.827  1.00  0.00     0.261 C 
BRANCH   2   3
ATOM      3  O   UNL A   1      32.309  26.514  23.384  1.00  0.00    -0.458 OA
BRANCH   3   4
ATOM      4  C   UNL A   1      33.308  25.777  22.813  1.00  0.00     0.360 C 
ATOM      5  O   UNL A   1      33.885  26.089  21.779  1.00  0.00    -0.244 OA
BRANCH   4   6
ATOM      6  C   UNL A   1      33.647  24.589  23.608  1.00  0.00     0.190 A 
ATOM      7  N   UNL A   1      34.875  23.155  24.620  1.00  0.00    -0.231 N 
ATOM      8  N   UNL A   1      34.839  24.451  24.230  1.00  0.00    -0.159 NA
ATOM      9  C   UNL A   1      33.681  22.498  24.377  1.00  0.00     0.094 A 
ATOM     10  C   UNL A   1      32.844  23.448  23.827  1.00  0.00     0.102 A 
ATOM     11  Cl  UNL A   1      31.211  23.222  23.385  1.00  0.00    -0.079 Cl
BRANCH   7  12
ATOM     12  C   UNL A   1      36.087  22.581  25.077  1.00  0.00     0.065 A 
ATOM     13  C   UNL A   1      38.571  21.568  25.809  1.00  0.00     0.082 A 
ATOM     14  C   UNL A   1      37.681  20.761  25.089  1.00  0.00     0.024 A 
ATOM     15  C   UNL A   1      38.206  22.860  26.200  1.00  0.00     0.024 A 
ATOM     16  C   UNL A   1      36.416  21.261  24.743  1.00  0.00     0.030 A 
ATOM     17  C   UNL A   1      36.971  23.375  25.817  1.00  0.00     0.030 A 
BRANCH  13  18
ATOM     18  S   UNL A   1      40.182  20.994  26.265  1.00  0.00     0.238 S 
ATOM     19  O   UNL A   1      40.376  19.675  25.718  1.00  0.00    -0.207 OA
ATOM     20  O   UNL A   1      40.387  21.297  27.665  1.00  0.00    -0.207 OA
BRANCH  18  21
ATOM     21  N   UNL A   1      41.240  21.980  25.412  1.00  0.00    -0.225 NA
ATOM     22  H   UNL A   1      42.016  22.249  26.018  1.00  0.00     0.137 HD
ATOM     23  H   UNL A   1      40.748  22.817  25.101  1.00  0.00     0.137 HD
ENDBRANCH  18  21
ENDBRANCH  13  18
ENDBRANCH   7  12
BRANCH   9  24
ATOM     24  C   UNL A   1      33.398  21.089  24.633  1.00  0.00     0.002 A 
ATOM     25  C   UNL A   1      33.136  20.253  23.537  1.00  0.00     0.012 A 
ATOM     26  C   UNL A   1      33.307  20.574  25.930  1.00  0.00     0.012 A 
ATOM     27  C   UNL A   1      32.745  18.931  23.731  1.00  0.00     0.021 A 
ATOM     28  C   UNL A   1      32.923  19.244  26.123  1.00  0.00     0.021 A 
ATOM     29  C   UNL A   1      32.631  18.435  25.025  1.00  0.00     0.041 A 
ATOM     30  Cl  UNL A   1      32.103  16.817  25.267  1.00  0.00    -0.084 Cl
ENDBRANCH   9  24
ENDBRANCH   4   6
ENDBRANCH   3   4
ENDBRANCH   2   3
ENDBRANCH   1   2
BRANCH   1  31
ATOM     31  O   UNL A   1      33.688  29.055  25.783  1.00  0.00    -0.374 OA
BRANCH  31  32
ATOM     32  C   UNL A   1      34.040  29.127  27.160  1.00  0.00     0.202 C 
BRANCH  32  33
ATOM     33  C   UNL A   1      35.182  30.047  27.565  1.00  0.00     0.261 C 
BRANCH  33  34
ATOM     34  O   UNL A   1      35.880  29.562  28.700  1.00  0.00    -0.460 OA
BRANCH  34  35
ATOM     35  C   UNL A   1      37.141  30.044  28.812  1.00  0.00     0.338 C 
ATOM     36  O   UNL A   1      37.478  31.171  29.131  1.00  0.00    -0.246 OA
BRANCH  35  37
ATOM     37  C   UNL A   1      38.065  29.030  28.291  1.00  0.00     0.060 A 
ATOM     38  C   UNL A   1      38.477  28.083  29.229  1.00  0.00     0.016 A 
ATOM     39  C   UNL A   1      38.802  29.311  27.131  1.00  0.00     0.016 A 
ATOM     40  C   UNL A   1      39.789  27.685  29.186  1.00  0.00     0.010 A 
ATOM     41  C   UNL A   1      40.114  28.921  27.097  1.00  0.00     0.010 A 
ATOM     42  C   UNL A   1      40.612  28.221  28.191  1.00  0.00    -0.014 A 
BRANCH  42  43
ATOM     43  C   UNL A   1      42.025  27.948  28.269  1.00  0.00     0.031 A 
ATOM     44  C   UNL A   1      42.368  26.697  27.566  1.00  0.00     0.074 A 
ATOM     45  C   UNL A   1      42.903  28.790  28.842  1.00  0.00     0.049 A 
ATOM     46  N   UNL A   1      42.686  25.566  28.099  1.00  0.00    -0.248 NA
ATOM     47  C   UNL A   1      42.098  26.638  26.120  1.00  0.00     0.031 C 
ATOM     48  C   UNL A   1      42.705  30.162  29.318  1.00  0.00     0.029 A 
ATOM     49  N   UNL A   1      44.233  28.605  29.024  1.00  0.00    -0.354 N 
ATOM     50  C   UNL A   1      42.860  24.700  27.030  1.00  0.00     0.074 A 
ATOM     51  C   UNL A   1      42.267  25.339  25.884  1.00  0.00     0.031 C 
ATOM     52  C   UNL A   1      43.915  30.755  29.473  1.00  0.00     0.029 A 
ATOM     53  C   UNL A   1      44.957  29.767  29.241  1.00  0.00     0.049 A 
ATOM     54  H   UNL A   1      44.652  27.714  29.003  1.00  0.00     0.167 HD
ATOM     55  C   UNL A   1      43.747  23.673  27.099  1.00  0.00     0.031 A 
ATOM     56  C   UNL A   1      46.308  29.887  29.140  1.00  0.00     0.031 A 
ATOM     57  C   UNL A   1      44.125  23.386  28.459  1.00  0.00     0.049 A 
ATOM     58  C   UNL A   1      46.875  28.514  29.205  1.00  0.00     0.074 A 
ATOM     59  C   UNL A   1      43.441  22.998  29.593  1.00  0.00     0.029 A 
ATOM     60  N   UNL A   1      45.323  23.904  28.897  1.00  0.00    -0.354 N 
ATOM     61  N   UNL A   1      46.835  27.778  30.280  1.00  0.00    -0.248 NA
ATOM     62  C   UNL A   1      47.023  27.784  27.953  1.00  0.00     0.031 C 
ATOM     63  C   UNL A   1      44.038  23.741  30.653  1.00  0.00     0.029 A 
ATOM     64  C   UNL A   1      45.100  24.476  30.123  1.00  0.00     0.049 A 
ATOM     65  H   UNL A   1      46.181  23.871  28.418  1.00  0.00     0.167 HD
ATOM     66  C   UNL A   1      46.507  26.508  29.827  1.00  0.00     0.074 A 
ATOM     67  C   UNL A   1      46.707  26.556  28.377  1.00  0.00     0.031 C 
ATOM     68  C   UNL A   1      45.817  25.630  30.614  1.00  0.00     0.031 A 
BRANCH  55  69
ATOM     69  C   UNL A   1      44.603  23.277  25.924  1.00  0.00    -0.014 A 
ATOM     70  C   UNL A   1      44.771  21.912  25.648  1.00  0.00     0.009 A 
ATOM     71  C   UNL A   1      45.475  24.169  25.265  1.00  0.00     0.009 A 
ATOM     72  C   UNL A   1      45.804  21.464  24.818  1.00  0.00     0.001 A 
ATOM     73  C   UNL A   1      46.479  23.730  24.404  1.00  0.00     0.001 A 
ATOM     74  C   UNL A   1      46.662  22.372  24.204  1.00  0.00     0.000 A 
ENDBRANCH  55  69
BRANCH  56  75
ATOM     75  C   UNL A   1      47.098  31.030  28.625  1.00  0.00    -0.014 A 
ATOM     76  C   UNL A   1      48.380  31.308  29.132  1.00  0.00     0.009 A 
ATOM     77  C   UNL A   1      46.719  31.674  27.432  1.00  0.00     0.009 A 
ATOM     78  C   UNL A   1      49.259  32.163  28.450  1.00  0.00     0.001 A 
ATOM     79  C   UNL A   1      47.596  32.527  26.751  1.00  0.00     0.001 A 
ATOM     80  C   UNL A   1      48.873  32.760  27.252  1.00  0.00     0.000 A 
ENDBRANCH  56  75
BRANCH  68  81
ATOM     81  C   UNL A   1      45.580  26.006  32.057  1.00  0.00    -0.014 A 
ATOM     82  C   UNL A   1      44.440  26.703  32.501  1.00  0.00     0.009 A 
ATOM     83  C   UNL A   1      46.458  25.490  33.021  1.00  0.00     0.009 A 
ATOM     84  C   UNL A   1      44.206  26.898  33.867  1.00  0.00     0.001 A 
ATOM     85  C   UNL A   1      46.214  25.668  34.384  1.00  0.00     0.001 A 
ATOM     86  C   UNL A   1      45.092  26.375  34.807  1.00  0.00     0.000 A 
ENDBRANCH  68  81
ENDBRANCH  42  43
ENDBRANCH  35  37
ENDBRANCH  34  35
ENDBRANCH  33  34
ENDBRANCH  32  33
ENDBRANCH  31  32
ENDBRANCH   1  31
TORSDOF 18
ENDMDL
MODEL 2
REMARK VINA RESULT:     -11.0      2.313      3.145
REMARK SMILES NS(=O)(=O)c1ccc(-n2nc(C(=O)OCCOCCOC(=O)c3ccc(-c4c5nc(c(-c6ccccc6)c6ccc([nH]6)c(-c6ccccc6)c6nc(c(-c7ccccc7)c7ccc4[nH]7)C=C6)C=C5)cc3)c(Cl)c2-c2ccc(Cl)cc2)cc1
REMARK SMILES IDX 16 1 15 2 14 3 12 4 13 5 11 6 9 7 10 8 73 9 71 10 72 11 8 12
REMARK SMILES IDX 5 13 6 14 82 15 7 16 81 17 2 18 3 19 4 20 1 21 74 24 75 25
REMARK SMILES IDX 80 26 76 27 79 28 77 29 78 30 17 31 18 32 19 33 20 34 21 35
REMARK SMILES IDX 22 36 23 37 24 38 70 39 25 40 69 41 26 42 27 43 28 44 63 45
REMARK SMILES IDX 29 46 68 47 62 48 64 49 30 50 67 51 61 52 60 53 31 55 53 56
REMARK SMILES IDX 38 57 52 58 39 59 42 60 51 61 65 62 40 63 41 64 50 66 66 67
REMARK SMILES IDX 43 68 32 69 33 70 37 71 34 72 36 73 35 74 54 75 55 76 59 77
REMARK SMILES IDX 56 78 58 79 57 80 44 81 45 82 49 83 46 84 48 85 47 86
REMARK H PARENT 1 22 1 23 64 54 42 65
REMARK Flexibility Score: inf
ROOT
ATOM      1  C   UNL A   1      31.916  28.098  26.726  1.00  0.00     0.202 C 
ENDROOT
BRANCH   1   2
ATOM      2  C   UNL A   1      31.148  28.217  25.413  1.00  0.00     0.261 C 
BRANCH   2   3
ATOM      3  O   UNL A   1      30.593  26.957  25.012  1.00  0.00    -0.458 OA
BRANCH   3   4
ATOM      4  C   UNL A   1      30.856  26.544  23.737  1.00  0.00     0.360 C 
ATOM      5  O   UNL A   1      30.355  27.045  22.737  1.00  0.00    -0.244 OA
BRANCH   4   6
ATOM      6  C   UNL A   1      31.848  25.461  23.695  1.00  0.00     0.190 A 
ATOM      7  N   UNL A   1      32.619  23.464  23.768  1.00  0.00    -0.231 N 
ATOM      8  N   UNL A   1      31.503  24.173  23.474  1.00  0.00    -0.159 NA
ATOM      9  C   UNL A   1      33.704  24.279  24.045  1.00  0.00     0.094 A 
ATOM     10  C   UNL A   1      33.243  25.571  23.889  1.00  0.00     0.102 A 
ATOM     11  Cl  UNL A   1      34.165  26.998  24.040  1.00  0.00    -0.079 Cl
BRANCH   7  12
ATOM     12  C   UNL A   1      32.554  22.056  23.900  1.00  0.00     0.065 A 
ATOM     13  C   UNL A   1      32.652  19.288  24.158  1.00  0.00     0.082 A 
ATOM     14  C   UNL A   1      32.346  19.856  22.915  1.00  0.00     0.024 A 
ATOM     15  C   UNL A   1      32.866  20.097  25.279  1.00  0.00     0.024 A 
ATOM     16  C   UNL A   1      32.268  21.251  22.789  1.00  0.00     0.030 A 
ATOM     17  C   UNL A   1      32.837  21.483  25.146  1.00  0.00     0.030 A 
BRANCH  13  18
ATOM     18  S   UNL A   1      32.772  17.535  24.373  1.00  0.00     0.238 S 
ATOM     19  O   UNL A   1      32.883  16.916  23.077  1.00  0.00    -0.207 OA
ATOM     20  O   UNL A   1      31.781  17.135  25.349  1.00  0.00    -0.207 OA
BRANCH  18  21
ATOM     21  N   UNL A   1      34.267  17.299  25.100  1.00  0.00    -0.225 NA
ATOM     22  H   UNL A   1      34.236  17.643  26.059  1.00  0.00     0.137 HD
ATOM     23  H   UNL A   1      34.982  17.809  24.580  1.00  0.00     0.137 HD
ENDBRANCH  18  21
ENDBRANCH  13  18
ENDBRANCH   7  12
BRANCH   9  24
ATOM     24  C   UNL A   1      35.038  23.841  24.441  1.00  0.00     0.002 A 
ATOM     25  C   UNL A   1      35.778  23.060  23.541  1.00  0.00     0.012 A 
ATOM     26  C   UNL A   1      35.561  24.112  25.710  1.00  0.00     0.012 A 
ATOM     27  C   UNL A   1      37.005  22.518  23.913  1.00  0.00     0.021 A 
ATOM     28  C   UNL A   1      36.797  23.574  26.080  1.00  0.00     0.021 A 
ATOM     29  C   UNL A   1      37.505  22.769  25.186  1.00  0.00     0.041 A 
ATOM     30  Cl  UNL A   1      38.996  22.062  25.664  1.00  0.00    -0.084 Cl
ENDBRANCH   9  24
ENDBRANCH   4   6
ENDBRANCH   3   4
ENDBRANCH   2   3
ENDBRANCH   1   2
BRANCH   1  31
ATOM     31  O   UNL A   1      32.728  29.201  27.125  1.00  0.00    -0.374 OA
BRANCH  31  32
ATOM     32  C   UNL A   1      34.091  29.281  26.722  1.00  0.00     0.202 C 
BRANCH  32  33
ATOM     33  C   UNL A   1      35.167  29.175  27.792  1.00  0.00     0.261 C 
BRANCH  33  34
ATOM     34  O   UNL A   1      35.835  30.407  28.000  1.00  0.00    -0.460 OA
BRANCH  34  35
ATOM     35  C   UNL A   1      36.898  30.318  28.836  1.00  0.00     0.338 C 
ATOM     36  O   UNL A   1      37.188  31.073  29.748  1.00  0.00    -0.246 OA
BRANCH  35  37
ATOM     37  C   UNL A   1      37.778  29.254  28.342  1.00  0.00     0.060 A 
ATOM     38  C   UNL A   1      38.156  28.319  29.305  1.00  0.00     0.016 A 
ATOM     39  C   UNL A   1      38.521  29.472  27.172  1.00  0.00     0.016 A 
ATOM     40  C   UNL A   1      39.451  27.869  29.270  1.00  0.00     0.010 A 
ATOM     41  C   UNL A   1      39.817  29.029  27.145  1.00  0.00     0.010 A 
ATOM     42  C   UNL A   1      40.291  28.342  28.257  1.00  0.00    -0.014 A 
BRANCH  42  43
ATOM     43  C   UNL A   1      41.692  28.016  28.339  1.00  0.00     0.031 A 
ATOM     44  C   UNL A   1      42.003  26.793  27.575  1.00  0.00     0.074 A 
ATOM     45  C   UNL A   1      42.590  28.794  28.968  1.00  0.00     0.049 A 
ATOM     46  N   UNL A   1      42.273  25.625  28.050  1.00  0.00    -0.248 NA
ATOM     47  C   UNL A   1      41.752  26.821  26.124  1.00  0.00     0.031 C 
ATOM     48  C   UNL A   1      42.433  30.145  29.514  1.00  0.00     0.029 A 
ATOM     49  N   UNL A   1      43.910  28.554  29.157  1.00  0.00    -0.354 N 
ATOM     50  C   UNL A   1      42.433  24.811  26.939  1.00  0.00     0.074 A 
ATOM     51  C   UNL A   1      41.880  25.530  25.821  1.00  0.00     0.031 C 
ATOM     52  C   UNL A   1      43.660  30.686  29.717  1.00  0.00     0.029 A 
ATOM     53  C   UNL A   1      44.671  29.676  29.446  1.00  0.00     0.049 A 
ATOM     54  H   UNL A   1      44.299  27.651  29.094  1.00  0.00     0.167 HD
ATOM     55  C   UNL A   1      43.283  23.751  26.964  1.00  0.00     0.031 A 
ATOM     56  C   UNL A   1      46.026  29.754  29.369  1.00  0.00     0.031 A 
ATOM     57  C   UNL A   1      43.631  23.379  28.311  1.00  0.00     0.049 A 
ATOM     58  C   UNL A   1      46.545  28.360  29.367  1.00  0.00     0.074 A 
ATOM     59  C   UNL A   1      42.917  22.956  29.414  1.00  0.00     0.029 A 
ATOM     60  N   UNL A   1      44.839  23.830  28.792  1.00  0.00    -0.354 N 
ATOM     61  N   UNL A   1      46.463  27.570  30.400  1.00  0.00    -0.248 NA
ATOM     62  C   UNL A   1      46.685  27.693  28.080  1.00  0.00     0.031 C 
ATOM     63  C   UNL A   1      43.523  23.620  30.521  1.00  0.00     0.029 A 
ATOM     64  C   UNL A   1      44.617  24.344  30.045  1.00  0.00     0.049 A 
ATOM     65  H   UNL A   1      45.703  23.793  28.324  1.00  0.00     0.167 HD
ATOM     66  C   UNL A   1      46.099  26.338  29.876  1.00  0.00     0.074 A 
ATOM     67  C   UNL A   1      46.321  26.455  28.434  1.00  0.00     0.031 C 
ATOM     68  C   UNL A   1      45.367  25.445  30.606  1.00  0.00     0.031 A 
BRANCH  55  69
ATOM     69  C   UNL A   1      44.143  23.389  25.780  1.00  0.00    -0.014 A 
ATOM     70  C   UNL A   1      43.991  22.116  25.209  1.00  0.00     0.009 A 
ATOM     71  C   UNL A   1      45.282  24.125  25.396  1.00  0.00     0.009 A 
ATOM     72  C   UNL A   1      44.967  21.585  24.359  1.00  0.00     0.001 A 
ATOM     73  C   UNL A   1      46.236  23.617  24.516  1.00  0.00     0.001 A 
ATOM     74  C   UNL A   1      46.092  22.332  24.020  1.00  0.00     0.000 A 
ENDBRANCH  55  69
BRANCH  56  75
ATOM     75  C   UNL A   1      46.863  30.894  28.926  1.00  0.00    -0.014 A 
ATOM     76  C   UNL A   1      48.148  31.096  29.460  1.00  0.00     0.009 A 
ATOM     77  C   UNL A   1      46.522  31.616  27.767  1.00  0.00     0.009 A 
ATOM     78  C   UNL A   1      49.065  31.955  28.836  1.00  0.00     0.001 A 
ATOM     79  C   UNL A   1      47.437  32.473  27.144  1.00  0.00     0.001 A 
ATOM     80  C   UNL A   1      48.715  32.631  27.669  1.00  0.00     0.000 A 
ENDBRANCH  56  75
BRANCH  68  81
ATOM     81  C   UNL A   1      45.121  25.751  32.064  1.00  0.00    -0.014 A 
ATOM     82  C   UNL A   1      44.092  26.599  32.516  1.00  0.00     0.009 A 
ATOM     83  C   UNL A   1      45.849  25.026  33.017  1.00  0.00     0.009 A 
ATOM     84  C   UNL A   1      43.823  26.733  33.883  1.00  0.00     0.001 A 
ATOM     85  C   UNL A   1      45.568  25.145  34.380  1.00  0.00     0.001 A 
ATOM     86  C   UNL A   1      44.559  26.001  34.813  1.00  0.00     0.000 A 
ENDBRANCH  68  81
ENDBRANCH  42  43
ENDBRANCH  35  37
ENDBRANCH  34  35
ENDBRANCH  33  34
ENDBRANCH  32  33
ENDBRANCH  31  32
ENDBRANCH   1  31
TORSDOF 18
ENDMDL
MODEL 3
REMARK VINA RESULT:     -10.9      5.412      9.823
REMARK SMILES NS(=O)(=O)c1ccc(-n2nc(C(=O)OCCOCCOC(=O)c3ccc(-c4c5nc(c(-c6ccccc6)c6ccc([nH]6)c(-c6ccccc6)c6nc(c(-c7ccccc7)c7ccc4[nH]7)C=C6)C=C5)cc3)c(Cl)c2-c2ccc(Cl)cc2)cc1
REMARK SMILES IDX 16 1 15 2 14 3 12 4 13 5 11 6 9 7 10 8 73 9 71 10 72 11 8 12
REMARK SMILES IDX 5 13 6 14 82 15 7 16 81 17 2 18 3 19 4 20 1 21 74 24 75 25
REMARK SMILES IDX 80 26 76 27 79 28 77 29 78 30 17 31 18 32 19 33 20 34 21 35
REMARK SMILES IDX 22 36 23 37 24 38 70 39 25 40 69 41 26 42 27 43 28 44 63 45
REMARK SMILES IDX 29 46 68 47 62 48 64 49 30 50 67 51 61 52 60 53 31 55 53 56
REMARK SMILES IDX 38 57 52 58 39 59 42 60 51 61 65 62 40 63 41 64 50 66 66 67
REMARK SMILES IDX 43 68 32 69 33 70 37 71 34 72 36 73 35 74 54 75 55 76 59 77
REMARK SMILES IDX 56 78 58 79 57 80 44 81 45 82 49 83 46 84 48 85 47 86
REMARK H PARENT 1 22 1 23 64 54 42 65
REMARK Flexibility Score: inf
ROOT
ATOM      1  C   UNL A   1      47.285  30.086  27.305  1.00  0.00     0.202 C 
ENDROOT
BRANCH   1   2
ATOM      2  C   UNL A   1      46.836  29.780  25.879  1.00  0.00     0.261 C 
BRANCH   2   3
ATOM      3  O   UNL A   1      47.498  28.620  25.358  1.00  0.00    -0.458 OA
BRANCH   3   4
ATOM      4  C   UNL A   1      46.828  27.901  24.408  1.00  0.00     0.360 C 
ATOM      5  O   UNL A   1      46.920  28.103  23.203  1.00  0.00    -0.244 OA
BRANCH   4   6
ATOM      6  C   UNL A   1      46.019  26.823  24.993  1.00  0.00     0.190 A 
ATOM      7  N   UNL A   1      45.265  24.842  25.298  1.00  0.00    -0.231 N 
ATOM      8  N   UNL A   1      46.359  25.520  24.878  1.00  0.00    -0.159 NA
ATOM      9  C   UNL A   1      44.285  25.680  25.801  1.00  0.00     0.094 A 
ATOM     10  C   UNL A   1      44.811  26.954  25.713  1.00  0.00     0.102 A 
ATOM     11  Cl  UNL A   1      44.068  28.394  26.249  1.00  0.00    -0.079 Cl
BRANCH   7  12
ATOM     12  C   UNL A   1      45.161  23.447  25.073  1.00  0.00     0.065 A 
ATOM     13  C   UNL A   1      45.175  20.710  24.580  1.00  0.00     0.082 A 
ATOM     14  C   UNL A   1      44.653  21.582  23.617  1.00  0.00     0.024 A 
ATOM     15  C   UNL A   1      45.649  21.197  25.803  1.00  0.00     0.024 A 
ATOM     16  C   UNL A   1      44.619  22.961  23.875  1.00  0.00     0.030 A 
ATOM     17  C   UNL A   1      45.660  22.569  26.042  1.00  0.00     0.030 A 
BRANCH  13  18
ATOM     18  S   UNL A   1      45.252  18.963  24.306  1.00  0.00     0.238 S 
ATOM     19  O   UNL A   1      46.398  18.435  25.001  1.00  0.00    -0.207 OA
ATOM     20  O   UNL A   1      45.009  18.719  22.900  1.00  0.00    -0.207 OA
BRANCH  18  21
ATOM     21  N   UNL A   1      43.922  18.347  25.125  1.00  0.00    -0.225 NA
ATOM     22  H   UNL A   1      43.199  18.091  24.453  1.00  0.00     0.137 HD
ATOM     23  H   UNL A   1      43.557  19.055  25.762  1.00  0.00     0.137 HD
ENDBRANCH  18  21
ENDBRANCH  13  18
ENDBRANCH   7  12
BRANCH   9  24
ATOM     24  C   UNL A   1      42.971  25.282  26.293  1.00  0.00     0.002 A 
ATOM     25  C   UNL A   1      41.842  25.629  25.535  1.00  0.00     0.012 A 
ATOM     26  C   UNL A   1      42.803  24.638  27.523  1.00  0.00     0.012 A 
ATOM     27  C   UNL A   1      40.560  25.378  26.014  1.00  0.00     0.021 A 
ATOM     28  C   UNL A   1      41.514  24.379  28.000  1.00  0.00     0.021 A 
ATOM     29  C   UNL A   1      40.401  24.762  27.251  1.00  0.00     0.041 A 
ATOM     30  Cl  UNL A   1      38.819  24.495  27.866  1.00  0.00    -0.084 Cl
ENDBRANCH   9  24
ENDBRANCH   4   6
ENDBRANCH   3   4
ENDBRANCH   2   3
ENDBRANCH   1   2
BRANCH   1  31
ATOM     31  O   UNL A   1      47.289  31.451  27.723  1.00  0.00    -0.374 OA
BRANCH  31  32
ATOM     32  C   UNL A   1      47.298  32.502  26.764  1.00  0.00     0.202 C 
BRANCH  32  33
ATOM     33  C   UNL A   1      47.479  33.929  27.260  1.00  0.00     0.261 C 
BRANCH  33  34
ATOM     34  O   UNL A   1      46.610  34.233  28.338  1.00  0.00    -0.460 OA
BRANCH  34  35
ATOM     35  C   UNL A   1      46.070  35.473  28.272  1.00  0.00     0.338 C 
ATOM     36  O   UNL A   1      46.632  36.511  27.968  1.00  0.00    -0.246 OA
BRANCH  35  37
ATOM     37  C   UNL A   1      44.712  35.409  28.822  1.00  0.00     0.060 A 
ATOM     38  C   UNL A   1      44.652  35.340  30.214  1.00  0.00     0.016 A 
ATOM     39  C   UNL A   1      43.663  34.968  28.001  1.00  0.00     0.016 A 
ATOM     40  C   UNL A   1      43.708  34.509  30.762  1.00  0.00     0.010 A 
ATOM     41  C   UNL A   1      42.729  34.131  28.550  1.00  0.00     0.010 A 
ATOM     42  C   UNL A   1      42.849  33.820  29.900  1.00  0.00    -0.014 A 
BRANCH  42  43
ATOM     43  C   UNL A   1      41.994  32.810  30.470  1.00  0.00     0.031 A 
ATOM     44  C   UNL A   1      42.586  31.466  30.331  1.00  0.00     0.074 A 
ATOM     45  C   UNL A   1      40.850  33.098  31.115  1.00  0.00     0.049 A 
ATOM     46  N   UNL A   1      42.216  30.532  29.523  1.00  0.00    -0.248 NA
ATOM     47  C   UNL A   1      43.876  31.224  30.998  1.00  0.00     0.031 C 
ATOM     48  C   UNL A   1      40.320  34.397  31.539  1.00  0.00     0.029 A 
ATOM     49  N   UNL A   1      39.946  32.230  31.631  1.00  0.00    -0.354 N 
ATOM     50  C   UNL A   1      43.113  29.495  29.733  1.00  0.00     0.074 A 
ATOM     51  C   UNL A   1      44.223  30.056  30.460  1.00  0.00     0.031 C 
ATOM     52  C   UNL A   1      39.349  34.198  32.465  1.00  0.00     0.029 A 
ATOM     53  C   UNL A   1      39.103  32.770  32.591  1.00  0.00     0.049 A 
ATOM     54  H   UNL A   1      39.893  31.289  31.346  1.00  0.00     0.167 HD
ATOM     55  C   UNL A   1      42.736  28.200  29.573  1.00  0.00     0.031 A 
ATOM     56  C   UNL A   1      38.343  32.058  33.464  1.00  0.00     0.031 A 
ATOM     57  C   UNL A   1      41.519  28.089  28.811  1.00  0.00     0.049 A 
ATOM     58  C   UNL A   1      38.233  30.677  32.925  1.00  0.00     0.074 A 
ATOM     59  C   UNL A   1      41.136  28.460  27.537  1.00  0.00     0.029 A 
ATOM     60  N   UNL A   1      40.353  27.908  29.520  1.00  0.00    -0.354 N 
ATOM     61  N   UNL A   1      37.579  30.389  31.835  1.00  0.00    -0.248 NA
ATOM     62  C   UNL A   1      39.260  29.718  33.310  1.00  0.00     0.031 C 
ATOM     63  C   UNL A   1      39.806  28.953  27.683  1.00  0.00     0.029 A 
ATOM     64  C   UNL A   1      39.424  28.782  29.015  1.00  0.00     0.049 A 
ATOM     65  H   UNL A   1      40.212  27.270  30.255  1.00  0.00     0.167 HD
ATOM     66  C   UNL A   1      38.387  29.479  31.168  1.00  0.00     0.074 A 
ATOM     67  C   UNL A   1      39.375  29.047  32.158  1.00  0.00     0.031 C 
ATOM     68  C   UNL A   1      38.376  29.386  29.805  1.00  0.00     0.031 A 
BRANCH  55  69
ATOM     69  C   UNL A   1      43.208  27.110  30.501  1.00  0.00    -0.014 A 
ATOM     70  C   UNL A   1      42.998  27.268  31.879  1.00  0.00     0.009 A 
ATOM     71  C   UNL A   1      44.097  26.089  30.107  1.00  0.00     0.009 A 
ATOM     72  C   UNL A   1      43.700  26.495  32.810  1.00  0.00     0.001 A 
ATOM     73  C   UNL A   1      44.767  25.288  31.030  1.00  0.00     0.001 A 
ATOM     74  C   UNL A   1      44.590  25.512  32.386  1.00  0.00     0.000 A 
ENDBRANCH  55  69
BRANCH  56  75
ATOM     75  C   UNL A   1      38.029  32.367  34.880  1.00  0.00    -0.014 A 
ATOM     76  C   UNL A   1      38.974  32.135  35.895  1.00  0.00     0.009 A 
ATOM     77  C   UNL A   1      36.913  33.160  35.202  1.00  0.00     0.009 A 
ATOM     78  C   UNL A   1      38.826  32.709  37.167  1.00  0.00     0.001 A 
ATOM     79  C   UNL A   1      36.765  33.733  36.471  1.00  0.00     0.001 A 
ATOM     80  C   UNL A   1      37.730  33.521  37.450  1.00  0.00     0.000 A 
ENDBRANCH  56  75
BRANCH  68  81
ATOM     81  C   UNL A   1      37.329  30.168  29.048  1.00  0.00    -0.014 A 
ATOM     82  C   UNL A   1      36.133  29.602  28.570  1.00  0.00     0.009 A 
ATOM     83  C   UNL A   1      37.484  31.559  28.965  1.00  0.00     0.009 A 
ATOM     84  C   UNL A   1      35.137  30.404  28.001  1.00  0.00     0.001 A 
ATOM     85  C   UNL A   1      36.482  32.362  28.416  1.00  0.00     0.001 A 
ATOM     86  C   UNL A   1      35.312  31.785  27.930  1.00  0.00     0.000 A 
ENDBRANCH  68  81
ENDBRANCH  42  43
ENDBRANCH  35  37
ENDBRANCH  34  35
ENDBRANCH  33  34
ENDBRANCH  32  33
ENDBRANCH  31  32
ENDBRANCH   1  31
TORSDOF 18
ENDMDL
