MODEL 1
REMARK VINA RESULT:      -8.7      0.000      0.000
REMARK SMILES CCCC[C@H](C(=O)OCCOCCOC(=O)c1ccc(-c2c3nc(c(-c4ccccc4)c4ccc([nH]4)c(-c4ccccc4)c4nc(c(-c5ccccc5)c5ccc2[nH]5)C=C4)C=C3)cc1)c1ccnn1C
REMARK SMILES IDX 10 1 9 2 8 3 6 4 7 5 5 6 4 7 3 8 2 9 1 10 65 11 66 12 69 13
REMARK SMILES IDX 67 14 68 15 70 16 11 17 12 18 13 19 14 20 15 21 16 22 17 23
REMARK SMILES IDX 18 24 64 25 19 26 63 27 20 28 21 29 22 30 57 31 23 32 62 33
REMARK SMILES IDX 56 34 58 35 24 36 61 37 55 38 54 39 25 41 47 42 32 43 46 44
REMARK SMILES IDX 33 45 36 46 45 47 59 48 34 49 35 50 44 52 60 53 37 54 26 55
REMARK SMILES IDX 27 56 31 57 28 58 30 59 29 60 48 61 49 62 53 63 50 64 52 65
REMARK SMILES IDX 51 66 38 67 39 68 43 69 40 70 42 71 41 72
REMARK H PARENT 58 40 36 51
REMARK Flexibility Score: inf
ROOT
ATOM      1  C   UNL A   1      37.046  22.990  25.759  1.00  0.00     0.202 C 
ENDROOT
BRANCH   1   2
ATOM      2  C   UNL A   1      35.553  22.866  26.087  1.00  0.00     0.261 C 
BRANCH   2   3
ATOM      3  O   UNL A   1      35.073  21.545  25.750  1.00  0.00    -0.463 OA
BRANCH   3   4
ATOM      4  C   UNL A   1      34.223  21.445  24.701  1.00  0.00     0.315 C 
ATOM      5  O   UNL A   1      34.399  22.011  23.626  1.00  0.00    -0.251 OA
BRANCH   4   6
ATOM      6  C   UNL A   1      33.079  20.454  24.908  1.00  0.00     0.148 C 
BRANCH   6   7
ATOM      7  C   UNL A   1      31.768  21.140  25.365  1.00  0.00     0.022 C 
BRANCH   7   8
ATOM      8  C   UNL A   1      31.776  22.577  25.911  1.00  0.00     0.001 C 
BRANCH   8   9
ATOM      9  C   UNL A   1      30.986  23.630  25.126  1.00  0.00    -0.003 C 
ATOM     10  C   UNL A   1      31.072  23.480  23.615  1.00  0.00     0.004 C 
ENDBRANCH   8   9
ENDBRANCH   7   8
ENDBRANCH   6   7
BRANCH   6  11
ATOM     11  C   UNL A   1      32.943  19.319  23.924  1.00  0.00     0.052 A 
ATOM     12  C   UNL A   1      32.100  19.297  22.822  1.00  0.00     0.046 A 
ATOM     13  N   UNL A   1      33.634  18.127  23.863  1.00  0.00    -0.272 N 
ATOM     14  C   UNL A   1      32.354  18.086  22.172  1.00  0.00     0.135 A 
ATOM     15  N   UNL A   1      33.273  17.364  22.807  1.00  0.00    -0.182 NA
ATOM     16  C   UNL A   1      34.693  17.597  24.691  1.00  0.00     0.174 C 
ENDBRANCH   6  11
ENDBRANCH   4   6
ENDBRANCH   3   4
ENDBRANCH   2   3
ENDBRANCH   1   2
BRANCH   1  17
ATOM     17  O   UNL A   1      37.649  21.787  25.274  1.00  0.00    -0.374 OA
BRANCH  17  18
ATOM     18  C   UNL A   1      38.969  21.519  25.739  1.00  0.00     0.202 C 
BRANCH  18  19
ATOM     19  C   UNL A   1      39.438  20.080  25.522  1.00  0.00     0.261 C 
BRANCH  19  20
ATOM     20  O   UNL A   1      40.446  19.742  26.493  1.00  0.00    -0.460 OA
BRANCH  20  21
ATOM     21  C   UNL A   1      41.715  19.913  26.060  1.00  0.00     0.338 C 
ATOM     22  O   UNL A   1      42.323  19.221  25.258  1.00  0.00    -0.246 OA
BRANCH  21  23
ATOM     23  C   UNL A   1      42.248  21.192  26.565  1.00  0.00     0.060 A 
ATOM     24  C   UNL A   1      42.174  21.405  27.947  1.00  0.00     0.016 A 
ATOM     25  C   UNL A   1      42.759  22.181  25.721  1.00  0.00     0.016 A 
ATOM     26  C   UNL A   1      42.543  22.635  28.482  1.00  0.00     0.010 A 
ATOM     27  C   UNL A   1      43.134  23.416  26.261  1.00  0.00     0.010 A 
ATOM     28  C   UNL A   1      42.985  23.662  27.638  1.00  0.00    -0.014 A 
BRANCH  28  29
ATOM     29  C   UNL A   1      43.150  25.026  28.195  1.00  0.00     0.031 A 
ATOM     30  C   UNL A   1      44.524  25.500  28.587  1.00  0.00     0.074 A 
ATOM     31  C   UNL A   1      42.099  25.858  28.290  1.00  0.00     0.049 A 
ATOM     32  N   UNL A   1      44.896  26.664  29.056  1.00  0.00    -0.248 NA
ATOM     33  C   UNL A   1      45.624  24.535  28.427  1.00  0.00     0.031 C 
ATOM     34  C   UNL A   1      40.726  25.533  27.906  1.00  0.00     0.029 A 
ATOM     35  N   UNL A   1      42.028  27.154  28.735  1.00  0.00    -0.354 N 
ATOM     36  C   UNL A   1      46.268  26.568  29.254  1.00  0.00     0.074 A 
ATOM     37  C   UNL A   1      46.657  25.225  28.887  1.00  0.00     0.031 C 
ATOM     38  C   UNL A   1      39.947  26.605  28.128  1.00  0.00     0.029 A 
ATOM     39  C   UNL A   1      40.760  27.677  28.698  1.00  0.00     0.049 A 
ATOM     40  H   UNL A   1      42.812  27.660  29.049  1.00  0.00     0.167 HD
ATOM     41  C   UNL A   1      47.129  27.516  29.695  1.00  0.00     0.031 A 
ATOM     42  C   UNL A   1      40.302  28.881  29.094  1.00  0.00     0.031 A 
ATOM     43  C   UNL A   1      46.742  28.850  30.072  1.00  0.00     0.049 A 
ATOM     44  C   UNL A   1      41.267  29.893  29.650  1.00  0.00     0.074 A 
ATOM     45  C   UNL A   1      47.546  29.890  30.508  1.00  0.00     0.029 A 
ATOM     46  N   UNL A   1      45.440  29.325  30.070  1.00  0.00    -0.354 N 
ATOM     47  N   UNL A   1      42.567  29.803  29.797  1.00  0.00    -0.248 NA
ATOM     48  C   UNL A   1      40.699  31.177  30.085  1.00  0.00     0.031 C 
ATOM     49  C   UNL A   1      46.721  30.973  30.831  1.00  0.00     0.029 A 
ATOM     50  C   UNL A   1      45.412  30.631  30.530  1.00  0.00     0.049 A 
ATOM     51  H   UNL A   1      44.651  28.810  29.783  1.00  0.00     0.167 HD
ATOM     52  C   UNL A   1      42.975  31.025  30.317  1.00  0.00     0.074 A 
ATOM     53  C   UNL A   1      41.787  31.844  30.442  1.00  0.00     0.031 C 
ATOM     54  C   UNL A   1      44.223  31.432  30.659  1.00  0.00     0.031 A 
BRANCH  41  55
ATOM     55  C   UNL A   1      48.576  27.126  29.834  1.00  0.00    -0.014 A 
ATOM     56  C   UNL A   1      49.491  27.315  28.786  1.00  0.00     0.009 A 
ATOM     57  C   UNL A   1      49.035  26.585  31.045  1.00  0.00     0.009 A 
ATOM     58  C   UNL A   1      50.827  26.935  28.936  1.00  0.00     0.001 A 
ATOM     59  C   UNL A   1      50.377  26.235  31.203  1.00  0.00     0.001 A 
ATOM     60  C   UNL A   1      51.269  26.400  30.146  1.00  0.00     0.000 A 
ENDBRANCH  41  55
BRANCH  42  61
ATOM     61  C   UNL A   1      38.851  29.188  28.994  1.00  0.00    -0.014 A 
ATOM     62  C   UNL A   1      38.302  29.684  27.802  1.00  0.00     0.009 A 
ATOM     63  C   UNL A   1      38.009  28.992  30.100  1.00  0.00     0.009 A 
ATOM     64  C   UNL A   1      36.942  29.996  27.727  1.00  0.00     0.001 A 
ATOM     65  C   UNL A   1      36.645  29.276  30.013  1.00  0.00     0.001 A 
ATOM     66  C   UNL A   1      36.114  29.785  28.829  1.00  0.00     0.000 A 
ENDBRANCH  42  61
BRANCH  54  67
ATOM     67  C   UNL A   1      44.372  32.839  31.174  1.00  0.00    -0.014 A 
ATOM     68  C   UNL A   1      44.503  33.928  30.299  1.00  0.00     0.009 A 
ATOM     69  C   UNL A   1      44.342  33.079  32.557  1.00  0.00     0.009 A 
ATOM     70  C   UNL A   1      44.639  35.224  30.800  1.00  0.00     0.001 A 
ATOM     71  C   UNL A   1      44.446  34.378  33.054  1.00  0.00     0.001 A 
ATOM     72  C   UNL A   1      44.606  35.448  32.176  1.00  0.00     0.000 A 
ENDBRANCH  54  67
ENDBRANCH  28  29
ENDBRANCH  21  23
ENDBRANCH  20  21
ENDBRANCH  19  20
ENDBRANCH  18  19
ENDBRANCH  17  18
ENDBRANCH   1  17
TORSDOF 18
ENDMDL
MODEL 2
REMARK VINA RESULT:      -8.7      1.969      2.783
REMARK SMILES CCCC[C@H](C(=O)OCCOCCOC(=O)c1ccc(-c2c3nc(c(-c4ccccc4)c4ccc([nH]4)c(-c4ccccc4)c4nc(c(-c5ccccc5)c5ccc2[nH]5)C=C4)C=C3)cc1)c1ccnn1C
REMARK SMILES IDX 10 1 9 2 8 3 6 4 7 5 5 6 4 7 3 8 2 9 1 10 65 11 66 12 69 13
REMARK SMILES IDX 67 14 68 15 70 16 11 17 12 18 13 19 14 20 15 21 16 22 17 23
REMARK SMILES IDX 18 24 64 25 19 26 63 27 20 28 21 29 22 30 57 31 23 32 62 33
REMARK SMILES IDX 56 34 58 35 24 36 61 37 55 38 54 39 25 41 47 42 32 43 46 44
REMARK SMILES IDX 33 45 36 46 45 47 59 48 34 49 35 50 44 52 60 53 37 54 26 55
REMARK SMILES IDX 27 56 31 57 28 58 30 59 29 60 48 61 49 62 53 63 50 64 52 65
REMARK SMILES IDX 51 66 38 67 39 68 43 69 40 70 42 71 41 72
REMARK H PARENT 58 40 36 51
REMARK Flexibility Score: inf
ROOT
ATOM      1  C   UNL A   1      37.060  23.265  24.716  1.00  0.00     0.202 C 
ENDROOT
BRANCH   1   2
ATOM      2  C   UNL A   1      36.655  22.689  23.354  1.00  0.00     0.261 C 
BRANCH   2   3
ATOM      3  O   UNL A   1      35.553  23.440  22.798  1.00  0.00    -0.463 OA
BRANCH   3   4
ATOM      4  C   UNL A   1      34.302  23.035  23.123  1.00  0.00     0.315 C 
ATOM      5  O   UNL A   1      34.063  22.032  23.789  1.00  0.00    -0.251 OA
BRANCH   4   6
ATOM      6  C   UNL A   1      33.197  24.006  22.711  1.00  0.00     0.148 C 
BRANCH   6   7
ATOM      7  C   UNL A   1      31.779  23.470  23.030  1.00  0.00     0.022 C 
BRANCH   7   8
ATOM      8  C   UNL A   1      30.775  24.313  23.830  1.00  0.00     0.001 C 
BRANCH   8   9
ATOM      9  C   UNL A   1      30.719  24.088  25.345  1.00  0.00    -0.003 C 
ATOM     10  C   UNL A   1      31.058  22.671  25.780  1.00  0.00     0.004 C 
ENDBRANCH   8   9
ENDBRANCH   7   8
ENDBRANCH   6   7
BRANCH   6  11
ATOM     11  C   UNL A   1      33.432  25.478  22.937  1.00  0.00     0.052 A 
ATOM     12  C   UNL A   1      33.264  26.481  21.993  1.00  0.00     0.046 A 
ATOM     13  N   UNL A   1      33.793  26.139  24.092  1.00  0.00    -0.272 N 
ATOM     14  C   UNL A   1      33.533  27.680  22.659  1.00  0.00     0.135 A 
ATOM     15  N   UNL A   1      33.869  27.479  23.929  1.00  0.00    -0.182 NA
ATOM     16  C   UNL A   1      34.043  25.652  25.429  1.00  0.00     0.174 C 
ENDBRANCH   6  11
ENDBRANCH   4   6
ENDBRANCH   3   4
ENDBRANCH   2   3
ENDBRANCH   1   2
BRANCH   1  17
ATOM     17  O   UNL A   1      37.294  22.282  25.729  1.00  0.00    -0.374 OA
BRANCH  17  18
ATOM     18  C   UNL A   1      38.660  21.981  26.003  1.00  0.00     0.202 C 
BRANCH  18  19
ATOM     19  C   UNL A   1      39.170  20.697  25.350  1.00  0.00     0.261 C 
BRANCH  19  20
ATOM     20  O   UNL A   1      39.963  19.950  26.290  1.00  0.00    -0.460 OA
BRANCH  20  21
ATOM     21  C   UNL A   1      41.291  19.974  26.041  1.00  0.00     0.338 C 
ATOM     22  O   UNL A   1      41.932  19.179  25.370  1.00  0.00    -0.246 OA
BRANCH  21  23
ATOM     23  C   UNL A   1      41.876  21.224  26.559  1.00  0.00     0.060 A 
ATOM     24  C   UNL A   1      41.809  21.427  27.943  1.00  0.00     0.016 A 
ATOM     25  C   UNL A   1      42.430  22.199  25.725  1.00  0.00     0.016 A 
ATOM     26  C   UNL A   1      42.229  22.635  28.490  1.00  0.00     0.010 A 
ATOM     27  C   UNL A   1      42.854  23.412  26.278  1.00  0.00     0.010 A 
ATOM     28  C   UNL A   1      42.714  23.651  27.657  1.00  0.00    -0.014 A 
BRANCH  28  29
ATOM     29  C   UNL A   1      42.935  25.002  28.226  1.00  0.00     0.031 A 
ATOM     30  C   UNL A   1      44.329  25.421  28.608  1.00  0.00     0.074 A 
ATOM     31  C   UNL A   1      41.916  25.870  28.343  1.00  0.00     0.049 A 
ATOM     32  N   UNL A   1      44.749  26.564  29.086  1.00  0.00    -0.248 NA
ATOM     33  C   UNL A   1      45.391  24.418  28.425  1.00  0.00     0.031 C 
ATOM     34  C   UNL A   1      40.528  25.600  27.971  1.00  0.00     0.029 A 
ATOM     35  N   UNL A   1      41.898  27.162  28.803  1.00  0.00    -0.354 N 
ATOM     36  C   UNL A   1      46.118  26.416  29.268  1.00  0.00     0.074 A 
ATOM     37  C   UNL A   1      46.454  25.064  28.881  1.00  0.00     0.031 C 
ATOM     38  C   UNL A   1      39.791  26.697  28.213  1.00  0.00     0.029 A 
ATOM     39  C   UNL A   1      40.649  27.732  28.785  1.00  0.00     0.049 A 
ATOM     40  H   UNL A   1      42.702  27.636  29.114  1.00  0.00     0.167 HD
ATOM     41  C   UNL A   1      47.018  27.327  29.710  1.00  0.00     0.031 A 
ATOM     42  C   UNL A   1      40.239  28.947  29.200  1.00  0.00     0.031 A 
ATOM     43  C   UNL A   1      46.685  28.670  30.106  1.00  0.00     0.049 A 
ATOM     44  C   UNL A   1      41.247  29.917  29.756  1.00  0.00     0.074 A 
ATOM     45  C   UNL A   1      47.530  29.674  30.544  1.00  0.00     0.029 A 
ATOM     46  N   UNL A   1      45.400  29.192  30.123  1.00  0.00    -0.354 N 
ATOM     47  N   UNL A   1      42.544  29.778  29.888  1.00  0.00    -0.248 NA
ATOM     48  C   UNL A   1      40.731  31.216  30.212  1.00  0.00     0.031 C 
ATOM     49  C   UNL A   1      46.749  30.784  30.888  1.00  0.00     0.029 A 
ATOM     50  C   UNL A   1      45.425  30.493  30.599  1.00  0.00     0.049 A 
ATOM     51  H   UNL A   1      44.590  28.710  29.839  1.00  0.00     0.167 HD
ATOM     52  C   UNL A   1      43.002  30.978  30.417  1.00  0.00     0.074 A 
ATOM     53  C   UNL A   1      41.846  31.838  30.564  1.00  0.00     0.031 C 
ATOM     54  C   UNL A   1      44.268  31.335  30.750  1.00  0.00     0.031 A 
BRANCH  41  55
ATOM     55  C   UNL A   1      48.451  26.883  29.828  1.00  0.00    -0.014 A 
ATOM     56  C   UNL A   1      49.372  27.091  28.790  1.00  0.00     0.009 A 
ATOM     57  C   UNL A   1      48.891  26.270  31.012  1.00  0.00     0.009 A 
ATOM     58  C   UNL A   1      50.695  26.660  28.920  1.00  0.00     0.001 A 
ATOM     59  C   UNL A   1      50.221  25.868  31.151  1.00  0.00     0.001 A 
ATOM     60  C   UNL A   1      51.119  26.053  30.102  1.00  0.00     0.000 A 
ENDBRANCH  41  55
BRANCH  42  61
ATOM     61  C   UNL A   1      38.800  29.308  29.120  1.00  0.00    -0.014 A 
ATOM     62  C   UNL A   1      37.955  29.143  30.228  1.00  0.00     0.009 A 
ATOM     63  C   UNL A   1      38.263  29.815  27.926  1.00  0.00     0.009 A 
ATOM     64  C   UNL A   1      36.597  29.460  30.134  1.00  0.00     0.001 A 
ATOM     65  C   UNL A   1      36.912  30.159  27.845  1.00  0.00     0.001 A 
ATOM     66  C   UNL A   1      36.079  29.973  28.946  1.00  0.00     0.000 A 
ENDBRANCH  42  61
BRANCH  54  67
ATOM     67  C   UNL A   1      44.473  32.729  31.278  1.00  0.00    -0.014 A 
ATOM     68  C   UNL A   1      44.434  33.003  32.654  1.00  0.00     0.009 A 
ATOM     69  C   UNL A   1      44.747  33.778  30.385  1.00  0.00     0.009 A 
ATOM     70  C   UNL A   1      44.629  34.306  33.120  1.00  0.00     0.001 A 
ATOM     71  C   UNL A   1      44.972  35.071  30.856  1.00  0.00     0.001 A 
ATOM     72  C   UNL A   1      44.902  35.336  32.222  1.00  0.00     0.000 A 
ENDBRANCH  54  67
ENDBRANCH  28  29
ENDBRANCH  21  23
ENDBRANCH  20  21
ENDBRANCH  19  20
ENDBRANCH  18  19
ENDBRANCH  17  18
ENDBRANCH   1  17
TORSDOF 18
ENDMDL
MODEL 3
REMARK VINA RESULT:      -8.7      3.222      4.713
REMARK SMILES CCCC[C@H](C(=O)OCCOCCOC(=O)c1ccc(-c2c3nc(c(-c4ccccc4)c4ccc([nH]4)c(-c4ccccc4)c4nc(c(-c5ccccc5)c5ccc2[nH]5)C=C4)C=C3)cc1)c1ccnn1C
REMARK SMILES IDX 10 1 9 2 8 3 6 4 7 5 5 6 4 7 3 8 2 9 1 10 65 11 66 12 69 13
REMARK SMILES IDX 67 14 68 15 70 16 11 17 12 18 13 19 14 20 15 21 16 22 17 23
REMARK SMILES IDX 18 24 64 25 19 26 63 27 20 28 21 29 22 30 57 31 23 32 62 33
REMARK SMILES IDX 56 34 58 35 24 36 61 37 55 38 54 39 25 41 47 42 32 43 46 44
REMARK SMILES IDX 33 45 36 46 45 47 59 48 34 49 35 50 44 52 60 53 37 54 26 55
REMARK SMILES IDX 27 56 31 57 28 58 30 59 29 60 48 61 49 62 53 63 50 64 52 65
REMARK SMILES IDX 51 66 38 67 39 68 43 69 40 70 42 71 41 72
REMARK H PARENT 58 40 36 51
REMARK Flexibility Score: inf
ROOT
ATOM      1  C   UNL A   1      34.319  22.762  25.011  1.00  0.00     0.202 C 
ENDROOT
BRANCH   1   2
ATOM      2  C   UNL A   1      34.031  24.055  24.240  1.00  0.00     0.261 C 
BRANCH   2   3
ATOM      3  O   UNL A   1      33.249  24.960  25.052  1.00  0.00    -0.463 OA
BRANCH   3   4
ATOM      4  C   UNL A   1      33.072  26.217  24.581  1.00  0.00     0.315 C 
ATOM      5  O   UNL A   1      33.692  26.681  23.628  1.00  0.00    -0.251 OA
BRANCH   4   6
ATOM      6  C   UNL A   1      31.931  26.986  25.247  1.00  0.00     0.148 C 
BRANCH   6   7
ATOM      7  C   UNL A   1      32.415  28.267  25.969  1.00  0.00     0.022 C 
BRANCH   7   8
ATOM      8  C   UNL A   1      33.731  28.279  26.762  1.00  0.00     0.001 C 
BRANCH   8   9
ATOM      9  C   UNL A   1      34.253  29.641  27.234  1.00  0.00    -0.003 C 
ATOM     10  C   UNL A   1      35.503  29.567  28.096  1.00  0.00     0.004 C 
ENDBRANCH   8   9
ENDBRANCH   7   8
ENDBRANCH   6   7
BRANCH   6  11
ATOM     11  C   UNL A   1      30.619  27.076  24.509  1.00  0.00     0.052 A 
ATOM     12  C   UNL A   1      29.523  26.247  24.698  1.00  0.00     0.046 A 
ATOM     13  N   UNL A   1      30.207  27.995  23.567  1.00  0.00    -0.272 N 
ATOM     14  C   UNL A   1      28.524  26.737  23.853  1.00  0.00     0.135 A 
ATOM     15  N   UNL A   1      28.937  27.789  23.152  1.00  0.00    -0.182 NA
ATOM     16  C   UNL A   1      30.874  29.147  23.005  1.00  0.00     0.174 C 
ENDBRANCH   6  11
ENDBRANCH   4   6
ENDBRANCH   3   4
ENDBRANCH   2   3
ENDBRANCH   1   2
BRANCH   1  17
ATOM     17  O   UNL A   1      35.654  22.267  24.861  1.00  0.00    -0.374 OA
BRANCH  17  18
ATOM     18  C   UNL A   1      35.936  21.028  25.508  1.00  0.00     0.202 C 
BRANCH  18  19
ATOM     19  C   UNL A   1      37.239  20.363  25.063  1.00  0.00     0.261 C 
BRANCH  19  20
ATOM     20  O   UNL A   1      38.308  21.326  25.073  1.00  0.00    -0.460 OA
BRANCH  20  21
ATOM     21  C   UNL A   1      39.282  21.067  25.973  1.00  0.00     0.338 C 
ATOM     22  O   UNL A   1      39.849  20.001  26.164  1.00  0.00    -0.246 OA
BRANCH  21  23
ATOM     23  C   UNL A   1      39.721  22.321  26.613  1.00  0.00     0.060 A 
ATOM     24  C   UNL A   1      39.094  23.499  26.189  1.00  0.00     0.016 A 
ATOM     25  C   UNL A   1      40.746  22.365  27.562  1.00  0.00     0.016 A 
ATOM     26  C   UNL A   1      39.539  24.731  26.657  1.00  0.00     0.010 A 
ATOM     27  C   UNL A   1      41.190  23.604  28.034  1.00  0.00     0.010 A 
ATOM     28  C   UNL A   1      40.617  24.794  27.549  1.00  0.00    -0.014 A 
BRANCH  28  29
ATOM     29  C   UNL A   1      41.221  26.114  27.852  1.00  0.00     0.031 A 
ATOM     30  C   UNL A   1      42.558  26.466  27.257  1.00  0.00     0.074 A 
ATOM     31  C   UNL A   1      40.557  27.014  28.596  1.00  0.00     0.049 A 
ATOM     32  N   UNL A   1      43.245  27.575  27.362  1.00  0.00    -0.248 NA
ATOM     33  C   UNL A   1      43.205  25.432  26.433  1.00  0.00     0.031 C 
ATOM     34  C   UNL A   1      39.240  26.810  29.196  1.00  0.00     0.029 A 
ATOM     35  N   UNL A   1      40.904  28.289  28.968  1.00  0.00    -0.354 N 
ATOM     36  C   UNL A   1      44.405  27.370  26.626  1.00  0.00     0.074 A 
ATOM     37  C   UNL A   1      44.346  26.022  26.108  1.00  0.00     0.031 C 
ATOM     38  C   UNL A   1      38.885  27.923  29.858  1.00  0.00     0.029 A 
ATOM     39  C   UNL A   1      39.963  28.905  29.755  1.00  0.00     0.049 A 
ATOM     40  H   UNL A   1      41.745  28.721  28.695  1.00  0.00     0.167 HD
ATOM     41  C   UNL A   1      45.426  28.230  26.395  1.00  0.00     0.031 A 
ATOM     42  C   UNL A   1      39.976  30.118  30.341  1.00  0.00     0.031 A 
ATOM     43  C   UNL A   1      45.492  29.569  26.919  1.00  0.00     0.049 A 
ATOM     44  C   UNL A   1      41.156  31.028  30.130  1.00  0.00     0.074 A 
ATOM     45  C   UNL A   1      46.473  30.525  26.720  1.00  0.00     0.029 A 
ATOM     46  N   UNL A   1      44.544  30.137  27.755  1.00  0.00    -0.354 N 
ATOM     47  N   UNL A   1      42.229  30.837  29.402  1.00  0.00    -0.248 NA
ATOM     48  C   UNL A   1      41.118  32.328  30.816  1.00  0.00     0.031 C 
ATOM     49  C   UNL A   1      46.151  31.649  27.489  1.00  0.00     0.029 A 
ATOM     50  C   UNL A   1      44.934  31.418  28.111  1.00  0.00     0.049 A 
ATOM     51  H   UNL A   1      43.715  29.696  28.052  1.00  0.00     0.167 HD
ATOM     52  C   UNL A   1      42.981  31.999  29.522  1.00  0.00     0.074 A 
ATOM     53  C   UNL A   1      42.232  32.895  30.377  1.00  0.00     0.031 C 
ATOM     54  C   UNL A   1      44.184  32.297  28.971  1.00  0.00     0.031 A 
BRANCH  41  55
ATOM     55  C   UNL A   1      46.579  27.729  25.568  1.00  0.00    -0.014 A 
ATOM     56  C   UNL A   1      46.665  27.992  24.192  1.00  0.00     0.009 A 
ATOM     57  C   UNL A   1      47.611  27.004  26.185  1.00  0.00     0.009 A 
ATOM     58  C   UNL A   1      47.741  27.508  23.445  1.00  0.00     0.001 A 
ATOM     59  C   UNL A   1      48.700  26.547  25.442  1.00  0.00     0.001 A 
ATOM     60  C   UNL A   1      48.760  26.789  24.071  1.00  0.00     0.000 A 
ENDBRANCH  41  55
BRANCH  42  61
ATOM     61  C   UNL A   1      38.838  30.535  31.201  1.00  0.00    -0.014 A 
ATOM     62  C   UNL A   1      38.859  30.300  32.584  1.00  0.00     0.009 A 
ATOM     63  C   UNL A   1      37.719  31.166  30.637  1.00  0.00     0.009 A 
ATOM     64  C   UNL A   1      37.771  30.671  33.380  1.00  0.00     0.001 A 
ATOM     65  C   UNL A   1      36.647  31.563  31.439  1.00  0.00     0.001 A 
ATOM     66  C   UNL A   1      36.671  31.308  32.808  1.00  0.00     0.000 A 
ENDBRANCH  42  61
BRANCH  54  67
ATOM     67  C   UNL A   1      44.752  33.662  29.252  1.00  0.00    -0.014 A 
ATOM     68  C   UNL A   1      45.615  33.886  30.336  1.00  0.00     0.009 A 
ATOM     69  C   UNL A   1      44.446  34.732  28.396  1.00  0.00     0.009 A 
ATOM     70  C   UNL A   1      46.130  35.162  30.576  1.00  0.00     0.001 A 
ATOM     71  C   UNL A   1      44.987  35.998  28.620  1.00  0.00     0.001 A 
ATOM     72  C   UNL A   1      45.819  36.214  29.716  1.00  0.00     0.000 A 
ENDBRANCH  54  67
ENDBRANCH  28  29
ENDBRANCH  21  23
ENDBRANCH  20  21
ENDBRANCH  19  20
ENDBRANCH  18  19
ENDBRANCH  17  18
ENDBRANCH   1  17
TORSDOF 18
ENDMDL
