MODEL 1
REMARK VINA RESULT:     -11.5      0.000      0.000
REMARK SMILES Cc1ccc(-c2csc(NC(=O)[C@H]3[C@@H](C(=O)OCCOCCOC(=O)c4ccc(-c5c6nc(c(-c7ccccc7)c7ccc([nH]7)c(-c7ccccc7)c7nc(c(-c8ccccc8)c8ccc5[nH]8)C=C7)C=C6)cc4)[C@H]4C=C[C@@H]3C4)c2C(=O)NC2CC2)cc1
REMARK SMILES IDX 19 1 18 2 17 3 15 4 16 5 14 6 13 7 77 8 74 9 76 10 78 11
REMARK SMILES IDX 75 12 11 13 10 14 12 16 9 17 6 18 7 19 79 20 8 21 5 22 1 23
REMARK SMILES IDX 2 24 3 25 87 26 4 27 86 28 80 29 81 30 82 31 83 33 84 34
REMARK SMILES IDX 85 35 20 36 21 37 22 38 23 39 24 40 25 41 26 42 27 43 73 44
REMARK SMILES IDX 28 45 72 46 29 47 30 48 31 49 66 50 32 51 71 52 65 53 67 54
REMARK SMILES IDX 33 55 70 56 64 57 63 58 34 60 56 61 41 62 55 63 42 64 45 65
REMARK SMILES IDX 54 66 68 67 43 68 44 69 53 71 69 72 46 73 35 74 36 75 40 76
REMARK SMILES IDX 37 77 39 78 38 79 57 80 58 81 62 82 59 83 61 84 60 85 47 86
REMARK SMILES IDX 48 87 52 88 49 89 51 90 50 91
REMARK H PARENT 10 15 82 32 67 59 45 70
REMARK Flexibility Score: inf
ROOT
ATOM      1  C   UNL A   1      33.528  28.582  22.382  1.00  0.00     0.202 C 
ENDROOT
BRANCH   1   2
ATOM      2  C   UNL A   1      34.069  27.298  22.912  1.00  0.00     0.261 C 
BRANCH   2   3
ATOM      3  O   UNL A   1      33.346  26.137  22.448  1.00  0.00    -0.463 OA
BRANCH   3   4
ATOM      4  C   UNL A   1      32.043  25.972  22.853  1.00  0.00     0.310 C 
ATOM      5  O   UNL A   1      31.079  25.886  22.128  1.00  0.00    -0.252 OA
BRANCH   4   6
ATOM      6  C   UNL A   1      31.992  26.013  24.372  1.00  0.00     0.119 C 
ATOM      7  C   UNL A   1      31.407  24.720  25.029  1.00  0.00     0.100 C 
ATOM      8  C   UNL A   1      30.191  25.301  25.811  1.00  0.00     0.025 C 
ATOM      9  C   UNL A   1      31.077  27.139  24.928  1.00  0.00     0.027 C 
ATOM     10  C   UNL A   1      29.155  25.888  24.889  1.00  0.00    -0.027 C 
ATOM     11  C   UNL A   1      30.804  26.607  26.332  1.00  0.00     0.017 C 
ATOM     12  C   UNL A   1      29.673  27.016  24.388  1.00  0.00    -0.027 C 
BRANCH   7  13
ATOM     13  C   UNL A   1      31.277  23.580  24.012  1.00  0.00     0.229 C 
ATOM     14  N   UNL A   1      32.169  22.554  24.006  1.00  0.00    -0.317 N 
ATOM     15  H   UNL A   1      31.811  21.640  23.936  1.00  0.00     0.170 HD
ATOM     16  O   UNL A   1      30.348  23.583  23.199  1.00  0.00    -0.274 OA
BRANCH  14  17
ATOM     17  C   UNL A   1      33.535  22.696  24.089  1.00  0.00     0.108 A 
ATOM     18  C   UNL A   1      35.696  22.991  24.809  1.00  0.00     0.007 A 
ATOM     19  C   UNL A   1      35.695  23.574  23.549  1.00  0.00     0.076 A 
ATOM     20  C   UNL A   1      34.389  22.411  25.156  1.00  0.00     0.082 A 
ATOM     21  S   UNL A   1      34.362  23.074  22.647  1.00  0.00    -0.125 S 
BRANCH  18  22
ATOM     22  C   UNL A   1      37.024  22.946  25.399  1.00  0.00    -0.017 A 
ATOM     23  C   UNL A   1      40.588  22.108  27.592  1.00  0.00     0.044 C 
ATOM     24  C   UNL A   1      39.471  22.495  26.672  1.00  0.00    -0.051 A 
ATOM     25  C   UNL A   1      38.950  21.524  25.820  1.00  0.00     0.004 A 
ATOM     26  C   UNL A   1      38.838  23.749  26.760  1.00  0.00     0.004 A 
ATOM     27  C   UNL A   1      37.753  21.763  25.168  1.00  0.00     0.009 A 
ATOM     28  C   UNL A   1      37.611  23.983  26.118  1.00  0.00     0.009 A 
ENDBRANCH  18  22
BRANCH  20  29
ATOM     29  C   UNL A   1      33.776  21.788  26.354  1.00  0.00     0.255 C 
ATOM     30  O   UNL A   1      33.461  22.512  27.311  1.00  0.00    -0.269 OA
ATOM     31  N   UNL A   1      33.343  20.491  26.514  1.00  0.00    -0.349 N 
ATOM     32  H   UNL A   1      32.947  20.357  27.406  1.00  0.00     0.164 HD
BRANCH  31  33
ATOM     33  C   UNL A   1      33.309  19.294  25.754  1.00  0.00     0.082 C 
ATOM     34  C   UNL A   1      32.764  19.171  24.381  1.00  0.00     0.027 C 
ATOM     35  C   UNL A   1      34.257  19.113  24.622  1.00  0.00     0.027 C 
ENDBRANCH  31  33
ENDBRANCH  20  29
ENDBRANCH  14  17
ENDBRANCH   7  13
ENDBRANCH   4   6
ENDBRANCH   3   4
ENDBRANCH   2   3
ENDBRANCH   1   2
BRANCH   1  36
ATOM     36  O   UNL A   1      33.287  29.304  23.572  1.00  0.00    -0.374 OA
BRANCH  36  37
ATOM     37  C   UNL A   1      34.011  28.921  24.709  1.00  0.00     0.202 C 
BRANCH  37  38
ATOM     38  C   UNL A   1      33.435  29.582  25.955  1.00  0.00     0.261 C 
BRANCH  38  39
ATOM     39  O   UNL A   1      34.460  29.716  26.968  1.00  0.00    -0.460 OA
BRANCH  39  40
ATOM     40  C   UNL A   1      34.393  30.856  27.717  1.00  0.00     0.338 C 
ATOM     41  O   UNL A   1      33.612  31.775  27.522  1.00  0.00    -0.246 OA
BRANCH  40  42
ATOM     42  C   UNL A   1      35.570  30.948  28.634  1.00  0.00     0.060 A 
ATOM     43  C   UNL A   1      36.524  31.969  28.439  1.00  0.00     0.016 A 
ATOM     44  C   UNL A   1      35.900  29.829  29.393  1.00  0.00     0.016 A 
ATOM     45  C   UNL A   1      37.851  31.783  28.855  1.00  0.00     0.010 A 
ATOM     46  C   UNL A   1      37.233  29.593  29.665  1.00  0.00     0.010 A 
ATOM     47  C   UNL A   1      38.221  30.552  29.396  1.00  0.00    -0.014 A 
BRANCH  47  48
ATOM     48  C   UNL A   1      39.589  30.143  29.722  1.00  0.00     0.031 A 
ATOM     49  C   UNL A   1      40.120  28.986  28.976  1.00  0.00     0.074 A 
ATOM     50  C   UNL A   1      40.410  30.761  30.609  1.00  0.00     0.049 A 
ATOM     51  N   UNL A   1      40.838  28.067  29.528  1.00  0.00    -0.248 NA
ATOM     52  C   UNL A   1      39.818  28.715  27.569  1.00  0.00     0.031 C 
ATOM     53  C   UNL A   1      41.855  30.599  30.734  1.00  0.00     0.029 A 
ATOM     54  N   UNL A   1      40.113  31.688  31.603  1.00  0.00    -0.354 N 
ATOM     55  C   UNL A   1      41.358  27.326  28.498  1.00  0.00     0.074 A 
ATOM     56  C   UNL A   1      40.555  27.628  27.341  1.00  0.00     0.031 C 
ATOM     57  C   UNL A   1      42.289  31.230  31.840  1.00  0.00     0.029 A 
ATOM     58  C   UNL A   1      41.138  31.779  32.539  1.00  0.00     0.049 A 
ATOM     59  H   UNL A   1      39.280  32.213  31.639  1.00  0.00     0.167 HD
ATOM     60  C   UNL A   1      42.573  26.732  28.628  1.00  0.00     0.031 A 
ATOM     61  C   UNL A   1      40.881  31.749  33.872  1.00  0.00     0.031 A 
ATOM     62  C   UNL A   1      43.230  27.130  29.876  1.00  0.00     0.049 A 
ATOM     63  C   UNL A   1      41.378  30.422  34.368  1.00  0.00     0.074 A 
ATOM     64  C   UNL A   1      44.263  28.018  30.138  1.00  0.00     0.029 A 
ATOM     65  N   UNL A   1      42.604  26.897  31.101  1.00  0.00    -0.354 N 
ATOM     66  N   UNL A   1      41.628  29.441  33.543  1.00  0.00    -0.248 NA
ATOM     67  C   UNL A   1      41.727  30.092  35.743  1.00  0.00     0.031 C 
ATOM     68  C   UNL A   1      44.245  28.322  31.527  1.00  0.00     0.029 A 
ATOM     69  C   UNL A   1      43.212  27.611  32.117  1.00  0.00     0.049 A 
ATOM     70  H   UNL A   1      41.830  26.303  31.226  1.00  0.00     0.167 HD
ATOM     71  C   UNL A   1      42.287  28.454  34.189  1.00  0.00     0.074 A 
ATOM     72  C   UNL A   1      42.262  28.863  35.584  1.00  0.00     0.031 C 
ATOM     73  C   UNL A   1      42.829  27.405  33.513  1.00  0.00     0.031 A 
BRANCH  60  74
ATOM     74  C   UNL A   1      43.262  26.108  27.439  1.00  0.00    -0.014 A 
ATOM     75  C   UNL A   1      44.104  26.875  26.620  1.00  0.00     0.009 A 
ATOM     76  C   UNL A   1      43.110  24.754  27.080  1.00  0.00     0.009 A 
ATOM     77  C   UNL A   1      44.693  26.344  25.464  1.00  0.00     0.001 A 
ATOM     78  C   UNL A   1      43.655  24.230  25.900  1.00  0.00     0.001 A 
ATOM     79  C   UNL A   1      44.449  25.029  25.090  1.00  0.00     0.000 A 
ENDBRANCH  60  74
BRANCH  61  80
ATOM     80  C   UNL A   1      39.692  32.543  34.305  1.00  0.00    -0.014 A 
ATOM     81  C   UNL A   1      39.668  33.918  33.961  1.00  0.00     0.009 A 
ATOM     82  C   UNL A   1      38.483  31.959  34.709  1.00  0.00     0.009 A 
ATOM     83  C   UNL A   1      38.474  34.656  33.944  1.00  0.00     0.001 A 
ATOM     84  C   UNL A   1      37.284  32.701  34.691  1.00  0.00     0.001 A 
ATOM     85  C   UNL A   1      37.275  34.040  34.293  1.00  0.00     0.000 A 
ENDBRANCH  61  80
BRANCH  73  86
ATOM     86  C   UNL A   1      43.128  26.081  34.140  1.00  0.00    -0.014 A 
ATOM     87  C   UNL A   1      42.311  25.498  35.115  1.00  0.00     0.009 A 
ATOM     88  C   UNL A   1      44.158  25.286  33.595  1.00  0.00     0.009 A 
ATOM     89  C   UNL A   1      42.545  24.196  35.559  1.00  0.00     0.001 A 
ATOM     90  C   UNL A   1      44.351  23.966  33.989  1.00  0.00     0.001 A 
ATOM     91  C   UNL A   1      43.552  23.428  34.986  1.00  0.00     0.000 A 
ENDBRANCH  73  86
ENDBRANCH  47  48
ENDBRANCH  40  42
ENDBRANCH  39  40
ENDBRANCH  38  39
ENDBRANCH  37  38
ENDBRANCH  36  37
ENDBRANCH   1  36
TORSDOF 19
ENDMDL
MODEL 2
REMARK VINA RESULT:     -11.2      1.763      4.735
REMARK SMILES Cc1ccc(-c2csc(NC(=O)[C@H]3[C@@H](C(=O)OCCOCCOC(=O)c4ccc(-c5c6nc(c(-c7ccccc7)c7ccc([nH]7)c(-c7ccccc7)c7nc(c(-c8ccccc8)c8ccc5[nH]8)C=C7)C=C6)cc4)[C@H]4C=C[C@@H]3C4)c2C(=O)NC2CC2)cc1
REMARK SMILES IDX 19 1 18 2 17 3 15 4 16 5 14 6 13 7 77 8 74 9 76 10 78 11
REMARK SMILES IDX 75 12 11 13 10 14 12 16 9 17 6 18 7 19 79 20 8 21 5 22 1 23
REMARK SMILES IDX 2 24 3 25 87 26 4 27 86 28 80 29 81 30 82 31 83 33 84 34
REMARK SMILES IDX 85 35 20 36 21 37 22 38 23 39 24 40 25 41 26 42 27 43 73 44
REMARK SMILES IDX 28 45 72 46 29 47 30 48 31 49 66 50 32 51 71 52 65 53 67 54
REMARK SMILES IDX 33 55 70 56 64 57 63 58 34 60 56 61 41 62 55 63 42 64 45 65
REMARK SMILES IDX 54 66 68 67 43 68 44 69 53 71 69 72 46 73 35 74 36 75 40 76
REMARK SMILES IDX 37 77 39 78 38 79 57 80 58 81 62 82 59 83 61 84 60 85 47 86
REMARK SMILES IDX 48 87 52 88 49 89 51 90 50 91
REMARK H PARENT 10 15 82 32 67 59 45 70
REMARK Flexibility Score: inf
ROOT
ATOM      1  C   UNL A   1      33.128  27.436  26.578  1.00  0.00     0.202 C 
ENDROOT
BRANCH   1   2
ATOM      2  C   UNL A   1      33.765  26.207  26.027  1.00  0.00     0.261 C 
BRANCH   2   3
ATOM      3  O   UNL A   1      33.410  25.006  26.746  1.00  0.00    -0.463 OA
BRANCH   3   4
ATOM      4  C   UNL A   1      34.155  23.871  26.533  1.00  0.00     0.310 C 
ATOM      5  O   UNL A   1      34.597  23.140  27.389  1.00  0.00    -0.252 OA
BRANCH   4   6
ATOM      6  C   UNL A   1      34.423  23.730  25.044  1.00  0.00     0.119 C 
ATOM      7  C   UNL A   1      33.987  22.354  24.440  1.00  0.00     0.100 C 
ATOM      8  C   UNL A   1      35.341  21.828  23.878  1.00  0.00     0.025 C 
ATOM      9  C   UNL A   1      35.930  23.817  24.676  1.00  0.00     0.027 C 
ATOM     10  C   UNL A   1      36.349  21.582  24.970  1.00  0.00    -0.027 C 
ATOM     11  C   UNL A   1      35.924  23.130  23.314  1.00  0.00     0.017 C 
ATOM     12  C   UNL A   1      36.733  22.781  25.424  1.00  0.00    -0.027 C 
BRANCH   7  13
ATOM     13  C   UNL A   1      33.125  21.555  25.425  1.00  0.00     0.229 C 
ATOM     14  N   UNL A   1      31.776  21.720  25.455  1.00  0.00    -0.317 N 
ATOM     15  H   UNL A   1      31.219  20.909  25.486  1.00  0.00     0.170 HD
ATOM     16  O   UNL A   1      33.655  20.743  26.190  1.00  0.00    -0.274 OA
BRANCH  14  17
ATOM     17  C   UNL A   1      31.130  22.934  25.444  1.00  0.00     0.108 A 
ATOM     18  C   UNL A   1      30.421  25.068  24.972  1.00  0.00     0.007 A 
ATOM     19  C   UNL A   1      30.250  24.969  26.346  1.00  0.00     0.076 A 
ATOM     20  C   UNL A   1      30.929  23.819  24.382  1.00  0.00     0.082 A 
ATOM     21  S   UNL A   1      30.262  23.360  26.848  1.00  0.00    -0.125 S 
BRANCH  18  22
ATOM     22  C   UNL A   1      29.898  26.313  24.435  1.00  0.00    -0.017 A 
ATOM     23  C   UNL A   1      28.139  29.456  22.145  1.00  0.00     0.044 C 
ATOM     24  C   UNL A   1      28.709  28.477  23.126  1.00  0.00    -0.051 A 
ATOM     25  C   UNL A   1      27.926  27.387  23.501  1.00  0.00     0.004 A 
ATOM     26  C   UNL A   1      30.049  28.544  23.546  1.00  0.00     0.004 A 
ATOM     27  C   UNL A   1      28.513  26.330  24.176  1.00  0.00     0.009 A 
ATOM     28  C   UNL A   1      30.651  27.462  24.209  1.00  0.00     0.009 A 
ENDBRANCH  18  22
BRANCH  20  29
ATOM     29  C   UNL A   1      31.397  23.376  23.047  1.00  0.00     0.255 C 
ATOM     30  O   UNL A   1      31.253  22.187  22.726  1.00  0.00    -0.269 OA
ATOM     31  N   UNL A   1      31.849  24.150  22.001  1.00  0.00    -0.349 N 
ATOM     32  H   UNL A   1      32.067  23.594  21.217  1.00  0.00     0.164 HD
BRANCH  31  33
ATOM     33  C   UNL A   1      32.089  25.522  21.737  1.00  0.00     0.082 C 
ATOM     34  C   UNL A   1      33.379  26.220  21.958  1.00  0.00     0.027 C 
ATOM     35  C   UNL A   1      32.902  25.914  20.555  1.00  0.00     0.027 C 
ENDBRANCH  31  33
ENDBRANCH  20  29
ENDBRANCH  14  17
ENDBRANCH   7  13
ENDBRANCH   4   6
ENDBRANCH   3   4
ENDBRANCH   2   3
ENDBRANCH   1   2
BRANCH   1  36
ATOM     36  O   UNL A   1      33.805  28.453  25.867  1.00  0.00    -0.374 OA
BRANCH  36  37
ATOM     37  C   UNL A   1      33.199  29.715  25.827  1.00  0.00     0.202 C 
BRANCH  37  38
ATOM     38  C   UNL A   1      33.188  30.345  27.214  1.00  0.00     0.261 C 
BRANCH  38  39
ATOM     39  O   UNL A   1      34.333  31.217  27.376  1.00  0.00    -0.460 OA
BRANCH  39  40
ATOM     40  C   UNL A   1      34.945  31.156  28.595  1.00  0.00     0.338 C 
ATOM     41  O   UNL A   1      34.800  31.975  29.490  1.00  0.00    -0.246 OA
BRANCH  40  42
ATOM     42  C   UNL A   1      36.012  30.108  28.592  1.00  0.00     0.060 A 
ATOM     43  C   UNL A   1      36.370  29.479  29.802  1.00  0.00     0.016 A 
ATOM     44  C   UNL A   1      36.875  30.055  27.502  1.00  0.00     0.016 A 
ATOM     45  C   UNL A   1      37.660  28.953  29.968  1.00  0.00     0.010 A 
ATOM     46  C   UNL A   1      38.183  29.672  27.722  1.00  0.00     0.010 A 
ATOM     47  C   UNL A   1      38.595  29.128  28.947  1.00  0.00    -0.014 A 
BRANCH  47  48
ATOM     48  C   UNL A   1      40.018  28.790  29.031  1.00  0.00     0.031 A 
ATOM     49  C   UNL A   1      40.414  27.490  28.455  1.00  0.00     0.074 A 
ATOM     50  C   UNL A   1      40.991  29.582  29.546  1.00  0.00     0.049 A 
ATOM     51  N   UNL A   1      41.277  26.711  29.014  1.00  0.00    -0.248 NA
ATOM     52  C   UNL A   1      39.813  26.915  27.250  1.00  0.00     0.031 C 
ATOM     53  C   UNL A   1      42.433  29.439  29.367  1.00  0.00     0.029 A 
ATOM     54  N   UNL A   1      40.888  30.711  30.354  1.00  0.00    -0.354 N 
ATOM     55  C   UNL A   1      41.581  25.754  28.081  1.00  0.00     0.074 A 
ATOM     56  C   UNL A   1      40.524  25.798  27.103  1.00  0.00     0.031 C 
ATOM     57  C   UNL A   1      43.079  30.296  30.178  1.00  0.00     0.029 A 
ATOM     58  C   UNL A   1      42.095  30.999  30.985  1.00  0.00     0.049 A 
ATOM     59  H   UNL A   1      40.065  31.238  30.465  1.00  0.00     0.167 HD
ATOM     60  C   UNL A   1      42.817  25.192  28.054  1.00  0.00     0.031 A 
ATOM     61  C   UNL A   1      42.149  31.269  32.315  1.00  0.00     0.031 A 
ATOM     62  C   UNL A   1      43.724  25.852  28.998  1.00  0.00     0.049 A 
ATOM     63  C   UNL A   1      42.801  30.081  32.962  1.00  0.00     0.074 A 
ATOM     64  C   UNL A   1      44.750  26.766  28.814  1.00  0.00     0.029 A 
ATOM     65  N   UNL A   1      43.402  25.905  30.355  1.00  0.00    -0.354 N 
ATOM     66  N   UNL A   1      42.898  28.939  32.337  1.00  0.00    -0.248 NA
ATOM     67  C   UNL A   1      43.466  30.063  34.257  1.00  0.00     0.031 C 
ATOM     68  C   UNL A   1      45.035  27.373  30.068  1.00  0.00     0.029 A 
ATOM     69  C   UNL A   1      44.194  26.822  31.022  1.00  0.00     0.049 A 
ATOM     70  H   UNL A   1      42.702  25.361  30.782  1.00  0.00     0.167 HD
ATOM     71  C   UNL A   1      43.728  28.115  33.014  1.00  0.00     0.074 A 
ATOM     72  C   UNL A   1      44.002  28.826  34.253  1.00  0.00     0.031 C 
ATOM     73  C   UNL A   1      44.146  26.936  32.479  1.00  0.00     0.031 A 
BRANCH  60  74
ATOM     74  C   UNL A   1      43.245  24.312  26.905  1.00  0.00    -0.014 A 
ATOM     75  C   UNL A   1      44.155  24.783  25.947  1.00  0.00     0.009 A 
ATOM     76  C   UNL A   1      42.772  22.997  26.720  1.00  0.00     0.009 A 
ATOM     77  C   UNL A   1      44.508  24.019  24.825  1.00  0.00     0.001 A 
ATOM     78  C   UNL A   1      43.082  22.247  25.577  1.00  0.00     0.001 A 
ATOM     79  C   UNL A   1      43.952  22.761  24.627  1.00  0.00     0.000 A 
ENDBRANCH  60  74
BRANCH  61  80
ATOM     80  C   UNL A   1      41.056  32.151  32.825  1.00  0.00    -0.014 A 
ATOM     81  C   UNL A   1      40.968  33.458  32.282  1.00  0.00     0.009 A 
ATOM     82  C   UNL A   1      39.941  31.668  33.525  1.00  0.00     0.009 A 
ATOM     83  C   UNL A   1      39.788  34.215  32.365  1.00  0.00     0.001 A 
ATOM     84  C   UNL A   1      38.758  32.429  33.607  1.00  0.00     0.001 A 
ATOM     85  C   UNL A   1      38.674  33.692  33.014  1.00  0.00     0.000 A 
ENDBRANCH  61  80
BRANCH  73  86
ATOM     86  C   UNL A   1      44.635  25.783  33.294  1.00  0.00    -0.014 A 
ATOM     87  C   UNL A   1      43.781  24.819  33.839  1.00  0.00     0.009 A 
ATOM     88  C   UNL A   1      46.022  25.531  33.357  1.00  0.00     0.009 A 
ATOM     89  C   UNL A   1      44.291  23.679  34.461  1.00  0.00     0.001 A 
ATOM     90  C   UNL A   1      46.531  24.365  33.918  1.00  0.00     0.001 A 
ATOM     91  C   UNL A   1      45.662  23.446  34.486  1.00  0.00     0.000 A 
ENDBRANCH  73  86
ENDBRANCH  47  48
ENDBRANCH  40  42
ENDBRANCH  39  40
ENDBRANCH  38  39
ENDBRANCH  37  38
ENDBRANCH  36  37
ENDBRANCH   1  36
TORSDOF 19
ENDMDL
MODEL 3
REMARK VINA RESULT:     -10.6      2.160      5.221
REMARK SMILES Cc1ccc(-c2csc(NC(=O)[C@H]3[C@@H](C(=O)OCCOCCOC(=O)c4ccc(-c5c6nc(c(-c7ccccc7)c7ccc([nH]7)c(-c7ccccc7)c7nc(c(-c8ccccc8)c8ccc5[nH]8)C=C7)C=C6)cc4)[C@H]4C=C[C@@H]3C4)c2C(=O)NC2CC2)cc1
REMARK SMILES IDX 19 1 18 2 17 3 15 4 16 5 14 6 13 7 77 8 74 9 76 10 78 11
REMARK SMILES IDX 75 12 11 13 10 14 12 16 9 17 6 18 7 19 79 20 8 21 5 22 1 23
REMARK SMILES IDX 2 24 3 25 87 26 4 27 86 28 80 29 81 30 82 31 83 33 84 34
REMARK SMILES IDX 85 35 20 36 21 37 22 38 23 39 24 40 25 41 26 42 27 43 73 44
REMARK SMILES IDX 28 45 72 46 29 47 30 48 31 49 66 50 32 51 71 52 65 53 67 54
REMARK SMILES IDX 33 55 70 56 64 57 63 58 34 60 56 61 41 62 55 63 42 64 45 65
REMARK SMILES IDX 54 66 68 67 43 68 44 69 53 71 69 72 46 73 35 74 36 75 40 76
REMARK SMILES IDX 37 77 39 78 38 79 57 80 58 81 62 82 59 83 61 84 60 85 47 86
REMARK SMILES IDX 48 87 52 88 49 89 51 90 50 91
REMARK H PARENT 10 15 82 32 67 59 45 70
REMARK Flexibility Score: inf
ROOT
ATOM      1  C   UNL A   1      31.797  28.339  27.600  1.00  0.00     0.202 C 
ENDROOT
BRANCH   1   2
ATOM      2  C   UNL A   1      31.515  27.422  26.459  1.00  0.00     0.261 C 
BRANCH   2   3
ATOM      3  O   UNL A   1      30.986  26.143  26.870  1.00  0.00    -0.463 OA
BRANCH   3   4
ATOM      4  C   UNL A   1      31.561  25.003  26.362  1.00  0.00     0.310 C 
ATOM      5  O   UNL A   1      31.247  23.867  26.632  1.00  0.00    -0.252 OA
BRANCH   4   6
ATOM      6  C   UNL A   1      32.729  25.396  25.472  1.00  0.00     0.119 C 
ATOM      7  C   UNL A   1      32.813  24.595  24.131  1.00  0.00     0.100 C 
ATOM      8  C   UNL A   1      34.220  23.939  24.257  1.00  0.00     0.025 C 
ATOM      9  C   UNL A   1      34.116  25.141  26.124  1.00  0.00     0.027 C 
ATOM     10  C   UNL A   1      34.291  22.970  25.408  1.00  0.00    -0.027 C 
ATOM     11  C   UNL A   1      35.004  25.100  24.885  1.00  0.00     0.017 C 
ATOM     12  C   UNL A   1      34.268  23.695  26.532  1.00  0.00    -0.027 C 
BRANCH   7  13
ATOM     13  C   UNL A   1      31.536  23.786  23.877  1.00  0.00     0.229 C 
ATOM     14  N   UNL A   1      30.536  24.294  23.109  1.00  0.00    -0.317 N 
ATOM     15  H   UNL A   1      30.138  23.702  22.430  1.00  0.00     0.170 HD
ATOM     16  O   UNL A   1      31.415  22.656  24.363  1.00  0.00    -0.274 OA
BRANCH  14  17
ATOM     17  C   UNL A   1      30.039  25.573  23.206  1.00  0.00     0.108 A 
ATOM     18  C   UNL A   1      29.777  27.855  23.269  1.00  0.00     0.007 A 
ATOM     19  C   UNL A   1      28.826  27.397  24.172  1.00  0.00     0.076 A 
ATOM     20  C   UNL A   1      30.516  26.753  22.632  1.00  0.00     0.082 A 
ATOM     21  S   UNL A   1      28.516  25.755  23.950  1.00  0.00    -0.125 S 
BRANCH  18  22
ATOM     22  C   UNL A   1      29.690  29.289  23.050  1.00  0.00    -0.017 A 
ATOM     23  C   UNL A   1      28.808  33.465  23.061  1.00  0.00     0.044 C 
ATOM     24  C   UNL A   1      29.315  32.057  22.974  1.00  0.00    -0.051 A 
ATOM     25  C   UNL A   1      29.815  31.463  24.131  1.00  0.00     0.004 A 
ATOM     26  C   UNL A   1      29.151  31.281  21.813  1.00  0.00     0.004 A 
ATOM     27  C   UNL A   1      30.028  30.095  24.154  1.00  0.00     0.009 A 
ATOM     28  C   UNL A   1      29.344  29.890  21.843  1.00  0.00     0.009 A 
ENDBRANCH  18  22
BRANCH  20  29
ATOM     29  C   UNL A   1      31.675  26.628  21.716  1.00  0.00     0.255 C 
ATOM     30  O   UNL A   1      31.622  25.803  20.792  1.00  0.00    -0.269 OA
ATOM     31  N   UNL A   1      32.792  27.431  21.638  1.00  0.00    -0.349 N 
ATOM     32  H   UNL A   1      33.391  27.135  20.914  1.00  0.00     0.164 HD
BRANCH  31  33
ATOM     33  C   UNL A   1      33.319  28.564  22.307  1.00  0.00     0.082 C 
ATOM     34  C   UNL A   1      33.595  28.644  23.762  1.00  0.00     0.027 C 
ATOM     35  C   UNL A   1      34.734  28.555  22.770  1.00  0.00     0.027 C 
ENDBRANCH  31  33
ENDBRANCH  20  29
ENDBRANCH  14  17
ENDBRANCH   7  13
ENDBRANCH   4   6
ENDBRANCH   3   4
ENDBRANCH   2   3
ENDBRANCH   1   2
BRANCH   1  36
ATOM     36  O   UNL A   1      32.913  29.060  27.119  1.00  0.00    -0.374 OA
BRANCH  36  37
ATOM     37  C   UNL A   1      32.922  30.443  27.340  1.00  0.00     0.202 C 
BRANCH  37  38
ATOM     38  C   UNL A   1      34.326  30.917  27.694  1.00  0.00     0.261 C 
BRANCH  38  39
ATOM     39  O   UNL A   1      34.386  32.363  27.674  1.00  0.00    -0.460 OA
BRANCH  39  40
ATOM     40  C   UNL A   1      34.336  32.965  28.899  1.00  0.00     0.338 C 
ATOM     41  O   UNL A   1      33.413  33.658  29.299  1.00  0.00    -0.246 OA
BRANCH  40  42
ATOM     42  C   UNL A   1      35.668  32.887  29.574  1.00  0.00     0.060 A 
ATOM     43  C   UNL A   1      36.760  33.606  29.043  1.00  0.00     0.016 A 
ATOM     44  C   UNL A   1      35.896  31.833  30.454  1.00  0.00     0.016 A 
ATOM     45  C   UNL A   1      38.071  33.156  29.257  1.00  0.00     0.010 A 
ATOM     46  C   UNL A   1      37.173  31.314  30.536  1.00  0.00     0.010 A 
ATOM     47  C   UNL A   1      38.268  31.955  29.938  1.00  0.00    -0.014 A 
BRANCH  47  48
ATOM     48  C   UNL A   1      39.553  31.269  30.098  1.00  0.00     0.031 A 
ATOM     49  C   UNL A   1      39.711  30.000  29.363  1.00  0.00     0.074 A 
ATOM     50  C   UNL A   1      40.608  31.723  30.820  1.00  0.00     0.049 A 
ATOM     51  N   UNL A   1      40.293  28.966  29.869  1.00  0.00    -0.248 NA
ATOM     52  C   UNL A   1      39.152  29.754  28.032  1.00  0.00     0.031 C 
ATOM     53  C   UNL A   1      41.989  31.255  30.754  1.00  0.00     0.029 A 
ATOM     54  N   UNL A   1      40.665  32.726  31.784  1.00  0.00    -0.354 N 
ATOM     55  C   UNL A   1      40.486  28.095  28.827  1.00  0.00     0.074 A 
ATOM     56  C   UNL A   1      39.601  28.525  27.775  1.00  0.00     0.031 C 
ATOM     57  C   UNL A   1      42.706  31.812  31.746  1.00  0.00     0.029 A 
ATOM     58  C   UNL A   1      41.815  32.623  32.560  1.00  0.00     0.049 A 
ATOM     59  H   UNL A   1      39.977  33.420  31.900  1.00  0.00     0.167 HD
ATOM     60  C   UNL A   1      41.553  27.254  28.826  1.00  0.00     0.031 A 
ATOM     61  C   UNL A   1      41.759  32.695  33.915  1.00  0.00     0.031 A 
ATOM     62  C   UNL A   1      42.459  27.542  29.942  1.00  0.00     0.049 A 
ATOM     63  C   UNL A   1      42.033  31.308  34.424  1.00  0.00     0.074 A 
ATOM     64  C   UNL A   1      43.682  28.192  30.001  1.00  0.00     0.029 A 
ATOM     65  N   UNL A   1      41.988  27.493  31.255  1.00  0.00    -0.354 N 
ATOM     66  N   UNL A   1      41.945  30.270  33.638  1.00  0.00    -0.248 NA
ATOM     67  C   UNL A   1      42.506  30.957  35.756  1.00  0.00     0.031 C 
ATOM     68  C   UNL A   1      43.936  28.540  31.356  1.00  0.00     0.029 A 
ATOM     69  C   UNL A   1      42.877  28.091  32.128  1.00  0.00     0.049 A 
ATOM     70  H   UNL A   1      41.133  27.086  31.524  1.00  0.00     0.167 HD
ATOM     71  C   UNL A   1      42.471  29.185  34.249  1.00  0.00     0.074 A 
ATOM     72  C   UNL A   1      42.740  29.637  35.604  1.00  0.00     0.031 C 
ATOM     73  C   UNL A   1      42.672  28.021  33.574  1.00  0.00     0.031 A 
BRANCH  60  74
ATOM     74  C   UNL A   1      41.911  26.456  27.596  1.00  0.00    -0.014 A 
ATOM     75  C   UNL A   1      42.088  25.066  27.675  1.00  0.00     0.009 A 
ATOM     76  C   UNL A   1      42.088  27.034  26.323  1.00  0.00     0.009 A 
ATOM     77  C   UNL A   1      42.500  24.310  26.569  1.00  0.00     0.001 A 
ATOM     78  C   UNL A   1      42.547  26.294  25.226  1.00  0.00     0.001 A 
ATOM     79  C   UNL A   1      42.754  24.928  25.350  1.00  0.00     0.000 A 
ENDBRANCH  60  74
BRANCH  61  80
ATOM     80  C   UNL A   1      40.842  33.742  34.456  1.00  0.00    -0.014 A 
ATOM     81  C   UNL A   1      39.780  33.310  35.289  1.00  0.00     0.009 A 
ATOM     82  C   UNL A   1      41.162  35.108  34.477  1.00  0.00     0.009 A 
ATOM     83  C   UNL A   1      39.120  34.188  36.163  1.00  0.00     0.001 A 
ATOM     84  C   UNL A   1      40.498  35.988  35.356  1.00  0.00     0.001 A 
ATOM     85  C   UNL A   1      39.492  35.528  36.210  1.00  0.00     0.000 A 
ENDBRANCH  61  80
BRANCH  73  86
ATOM     86  C   UNL A   1      42.775  26.686  34.238  1.00  0.00    -0.014 A 
ATOM     87  C   UNL A   1      43.943  25.916  34.222  1.00  0.00     0.009 A 
ATOM     88  C   UNL A   1      41.730  26.262  35.086  1.00  0.00     0.009 A 
ATOM     89  C   UNL A   1      44.043  24.750  34.982  1.00  0.00     0.001 A 
ATOM     90  C   UNL A   1      41.851  25.137  35.894  1.00  0.00     0.001 A 
ATOM     91  C   UNL A   1      43.005  24.371  35.828  1.00  0.00     0.000 A 
ENDBRANCH  73  86
ENDBRANCH  47  48
ENDBRANCH  40  42
ENDBRANCH  39  40
ENDBRANCH  38  39
ENDBRANCH  37  38
ENDBRANCH  36  37
ENDBRANCH   1  36
TORSDOF 19
ENDMDL
