MODEL 1
REMARK VINA RESULT:     -10.6      0.000      0.000
REMARK SMILES NS(=O)(=O)c1ccc(/N=N/c2ccc(O)c(C(=O)OCCOCCOC(=O)c3ccc(-c4c5nc(c(-c6ccccc6)c6ccc([nH]6)c(-c6ccccc6)c6nc(c(-c7ccccc7)c7ccc4[nH]7)C=C6)C=C5)cc3)c2)cc1
REMARK SMILES IDX 21 1 20 2 19 3 17 4 18 5 16 6 11 7 12 8 76 9 13 10 14 11
REMARK SMILES IDX 10 12 9 13 8 14 5 15 6 16 78 17 7 18 77 19 2 20 3 21 4 22
REMARK SMILES IDX 1 23 15 26 22 28 23 29 24 30 25 31 26 32 27 33 28 34 29 35
REMARK SMILES IDX 75 36 30 37 74 38 31 39 32 40 33 41 68 42 34 43 73 44 67 45
REMARK SMILES IDX 69 46 35 47 72 48 66 49 65 50 36 52 58 53 43 54 57 55 44 56
REMARK SMILES IDX 47 57 56 58 70 59 45 60 46 61 55 63 71 64 48 65 37 66 38 67
REMARK SMILES IDX 42 68 39 69 41 70 40 71 59 72 60 73 64 74 61 75 63 76 62 77
REMARK SMILES IDX 49 78 50 79 54 80 51 81 53 82 52 83
REMARK H PARENT 1 24 1 25 15 27 69 51 47 62
REMARK Flexibility Score: inf
ROOT
ATOM      1  C   UNL A   1      44.807  20.287  25.033  1.00  0.00     0.202 C 
ENDROOT
BRANCH   1   2
ATOM      2  C   UNL A   1      44.071  18.943  25.005  1.00  0.00     0.261 C 
BRANCH   2   3
ATOM      3  O   UNL A   1      42.656  19.096  25.203  1.00  0.00    -0.460 OA
BRANCH   3   4
ATOM      4  C   UNL A   1      42.274  19.139  26.502  1.00  0.00     0.342 C 
ATOM      5  O   UNL A   1      42.707  18.456  27.417  1.00  0.00    -0.246 OA
BRANCH   4   6
ATOM      6  C   UNL A   1      41.400  20.303  26.757  1.00  0.00     0.104 A 
ATOM      7  C   UNL A   1      39.421  21.641  26.297  1.00  0.00     0.087 A 
ATOM      8  C   UNL A   1      39.862  22.579  27.242  1.00  0.00     0.034 A 
ATOM      9  C   UNL A   1      40.206  20.503  26.051  1.00  0.00     0.049 A 
ATOM     10  C   UNL A   1      41.062  22.396  27.931  1.00  0.00     0.049 A 
ATOM     11  C   UNL A   1      41.826  21.262  27.688  1.00  0.00     0.130 A 
BRANCH   7  12
ATOM     12  N   UNL A   1      38.242  21.932  25.583  1.00  0.00    -0.151 NA
ATOM     13  N   UNL A   1      37.862  23.108  25.752  1.00  0.00    -0.151 NA
BRANCH  13  14
ATOM     14  C   UNL A   1      36.688  23.419  25.028  1.00  0.00     0.086 A 
ATOM     15  C   UNL A   1      34.395  23.902  23.471  1.00  0.00     0.082 A 
ATOM     16  C   UNL A   1      35.481  23.228  22.912  1.00  0.00     0.024 A 
ATOM     17  C   UNL A   1      34.434  24.332  24.799  1.00  0.00     0.024 A 
ATOM     18  C   UNL A   1      36.619  22.993  23.693  1.00  0.00     0.031 A 
ATOM     19  C   UNL A   1      35.577  24.092  25.567  1.00  0.00     0.031 A 
BRANCH  15  20
ATOM     20  S   UNL A   1      32.917  24.149  22.530  1.00  0.00     0.238 S 
ATOM     21  O   UNL A   1      32.814  25.544  22.176  1.00  0.00    -0.207 OA
ATOM     22  O   UNL A   1      31.831  23.422  23.148  1.00  0.00    -0.207 OA
BRANCH  20  23
ATOM     23  N   UNL A   1      33.268  23.330  21.107  1.00  0.00    -0.225 NA
ATOM     24  H   UNL A   1      33.787  23.946  20.480  1.00  0.00     0.137 HD
ATOM     25  H   UNL A   1      32.400  23.041  20.658  1.00  0.00     0.137 HD
ENDBRANCH  20  23
ENDBRANCH  15  20
ENDBRANCH  13  14
ENDBRANCH   7  12
BRANCH  11  26
ATOM     26  O   UNL A   1      43.012  21.176  28.368  1.00  0.00    -0.507 OA
ATOM     27  H   UNL A   1      43.073  21.495  29.247  1.00  0.00     0.293 HD
ENDBRANCH  11  26
ENDBRANCH   4   6
ENDBRANCH   3   4
ENDBRANCH   2   3
ENDBRANCH   1   2
BRANCH   1  28
ATOM     28  O   UNL A   1      44.135  21.420  24.489  1.00  0.00    -0.374 OA
BRANCH  28  29
ATOM     29  C   UNL A   1      44.158  22.634  25.241  1.00  0.00     0.202 C 
BRANCH  29  30
ATOM     30  C   UNL A   1      42.971  23.596  25.092  1.00  0.00     0.261 C 
BRANCH  30  31
ATOM     31  O   UNL A   1      42.898  24.558  26.158  1.00  0.00    -0.460 OA
BRANCH  31  32
ATOM     32  C   UNL A   1      42.698  25.838  25.756  1.00  0.00     0.338 C 
ATOM     33  O   UNL A   1      42.783  26.284  24.626  1.00  0.00    -0.246 OA
BRANCH  32  34
ATOM     34  C   UNL A   1      42.157  26.624  26.880  1.00  0.00     0.060 A 
ATOM     35  C   UNL A   1      42.609  27.942  27.034  1.00  0.00     0.016 A 
ATOM     36  C   UNL A   1      41.266  26.066  27.798  1.00  0.00     0.016 A 
ATOM     37  C   UNL A   1      42.185  28.703  28.120  1.00  0.00     0.010 A 
ATOM     38  C   UNL A   1      40.852  26.828  28.894  1.00  0.00     0.010 A 
ATOM     39  C   UNL A   1      41.322  28.142  29.071  1.00  0.00    -0.014 A 
BRANCH  39  40
ATOM     40  C   UNL A   1      40.976  28.898  30.298  1.00  0.00     0.031 A 
ATOM     41  C   UNL A   1      39.819  29.857  30.276  1.00  0.00     0.074 A 
ATOM     42  C   UNL A   1      41.694  28.733  31.424  1.00  0.00     0.049 A 
ATOM     43  N   UNL A   1      39.399  30.669  31.211  1.00  0.00    -0.248 NA
ATOM     44  C   UNL A   1      39.033  29.909  29.032  1.00  0.00     0.031 C 
ATOM     45  C   UNL A   1      42.811  27.801  31.586  1.00  0.00     0.029 A 
ATOM     46  N   UNL A   1      41.595  29.355  32.642  1.00  0.00    -0.354 N 
ATOM     47  C   UNL A   1      38.308  31.338  30.668  1.00  0.00     0.074 A 
ATOM     48  C   UNL A   1      38.149  30.855  29.312  1.00  0.00     0.031 C 
ATOM     49  C   UNL A   1      43.301  27.923  32.831  1.00  0.00     0.029 A 
ATOM     50  C   UNL A   1      42.563  28.968  33.535  1.00  0.00     0.049 A 
ATOM     51  H   UNL A   1      40.897  30.016  32.856  1.00  0.00     0.167 HD
ATOM     52  C   UNL A   1      37.514  32.269  31.246  1.00  0.00     0.031 A 
ATOM     53  C   UNL A   1      42.845  29.429  34.770  1.00  0.00     0.031 A 
ATOM     54  C   UNL A   1      37.685  32.757  32.590  1.00  0.00     0.049 A 
ATOM     55  C   UNL A   1      42.003  30.531  35.356  1.00  0.00     0.074 A 
ATOM     56  C   UNL A   1      36.914  33.682  33.275  1.00  0.00     0.029 A 
ATOM     57  N   UNL A   1      38.702  32.371  33.448  1.00  0.00    -0.354 N 
ATOM     58  N   UNL A   1      40.955  31.131  34.846  1.00  0.00    -0.248 NA
ATOM     59  C   UNL A   1      42.383  31.017  36.690  1.00  0.00     0.031 C 
ATOM     60  C   UNL A   1      37.507  33.907  34.521  1.00  0.00     0.029 A 
ATOM     61  C   UNL A   1      38.605  33.068  34.640  1.00  0.00     0.049 A 
ATOM     62  H   UNL A   1      39.391  31.699  33.241  1.00  0.00     0.167 HD
ATOM     63  C   UNL A   1      40.536  32.046  35.806  1.00  0.00     0.074 A 
ATOM     64  C   UNL A   1      41.431  31.906  36.936  1.00  0.00     0.031 C 
ATOM     65  C   UNL A   1      39.504  32.924  35.755  1.00  0.00     0.031 A 
BRANCH  52  66
ATOM     66  C   UNL A   1      36.406  32.855  30.415  1.00  0.00    -0.014 A 
ATOM     67  C   UNL A   1      36.656  33.853  29.459  1.00  0.00     0.009 A 
ATOM     68  C   UNL A   1      35.099  32.363  30.555  1.00  0.00     0.009 A 
ATOM     69  C   UNL A   1      35.613  34.365  28.683  1.00  0.00     0.001 A 
ATOM     70  C   UNL A   1      34.065  32.855  29.758  1.00  0.00     0.001 A 
ATOM     71  C   UNL A   1      34.321  33.862  28.829  1.00  0.00     0.000 A 
ENDBRANCH  52  66
BRANCH  53  72
ATOM     72  C   UNL A   1      44.001  28.879  35.527  1.00  0.00    -0.014 A 
ATOM     73  C   UNL A   1      45.285  29.425  35.373  1.00  0.00     0.009 A 
ATOM     74  C   UNL A   1      43.830  27.783  36.389  1.00  0.00     0.009 A 
ATOM     75  C   UNL A   1      46.376  28.867  36.045  1.00  0.00     0.001 A 
ATOM     76  C   UNL A   1      44.917  27.249  37.083  1.00  0.00     0.001 A 
ATOM     77  C   UNL A   1      46.191  27.784  36.902  1.00  0.00     0.000 A 
ENDBRANCH  53  72
BRANCH  65  78
ATOM     78  C   UNL A   1      39.266  33.783  36.967  1.00  0.00    -0.014 A 
ATOM     79  C   UNL A   1      38.538  33.307  38.068  1.00  0.00     0.009 A 
ATOM     80  C   UNL A   1      39.821  35.072  37.026  1.00  0.00     0.009 A 
ATOM     81  C   UNL A   1      38.343  34.116  39.190  1.00  0.00     0.001 A 
ATOM     82  C   UNL A   1      39.653  35.866  38.162  1.00  0.00     0.001 A 
ATOM     83  C   UNL A   1      38.906  35.392  39.238  1.00  0.00     0.000 A 
ENDBRANCH  65  78
ENDBRANCH  39  40
ENDBRANCH  32  34
ENDBRANCH  31  32
ENDBRANCH  30  31
ENDBRANCH  29  30
ENDBRANCH  28  29
ENDBRANCH   1  28
TORSDOF 19
ENDMDL
MODEL 2
REMARK VINA RESULT:     -10.1      2.731      8.827
REMARK SMILES NS(=O)(=O)c1ccc(/N=N/c2ccc(O)c(C(=O)OCCOCCOC(=O)c3ccc(-c4c5nc(c(-c6ccccc6)c6ccc([nH]6)c(-c6ccccc6)c6nc(c(-c7ccccc7)c7ccc4[nH]7)C=C6)C=C5)cc3)c2)cc1
REMARK SMILES IDX 21 1 20 2 19 3 17 4 18 5 16 6 11 7 12 8 76 9 13 10 14 11
REMARK SMILES IDX 10 12 9 13 8 14 5 15 6 16 78 17 7 18 77 19 2 20 3 21 4 22
REMARK SMILES IDX 1 23 15 26 22 28 23 29 24 30 25 31 26 32 27 33 28 34 29 35
REMARK SMILES IDX 75 36 30 37 74 38 31 39 32 40 33 41 68 42 34 43 73 44 67 45
REMARK SMILES IDX 69 46 35 47 72 48 66 49 65 50 36 52 58 53 43 54 57 55 44 56
REMARK SMILES IDX 47 57 56 58 70 59 45 60 46 61 55 63 71 64 48 65 37 66 38 67
REMARK SMILES IDX 42 68 39 69 41 70 40 71 59 72 60 73 64 74 61 75 63 76 62 77
REMARK SMILES IDX 49 78 50 79 54 80 51 81 53 82 52 83
REMARK H PARENT 1 24 1 25 15 27 69 51 47 62
REMARK Flexibility Score: inf
ROOT
ATOM      1  C   UNL A   1      31.302  27.723  24.765  1.00  0.00     0.202 C 
ENDROOT
BRANCH   1   2
ATOM      2  C   UNL A   1      32.450  27.008  24.045  1.00  0.00     0.261 C 
BRANCH   2   3
ATOM      3  O   UNL A   1      31.978  26.111  23.028  1.00  0.00    -0.460 OA
BRANCH   3   4
ATOM      4  C   UNL A   1      32.957  25.451  22.364  1.00  0.00     0.342 C 
ATOM      5  O   UNL A   1      33.653  25.889  21.460  1.00  0.00    -0.246 OA
BRANCH   4   6
ATOM      6  C   UNL A   1      33.266  24.164  23.020  1.00  0.00     0.104 A 
ATOM      7  C   UNL A   1      34.839  22.522  23.885  1.00  0.00     0.087 A 
ATOM      8  C   UNL A   1      33.759  21.674  24.175  1.00  0.00     0.034 A 
ATOM      9  C   UNL A   1      34.582  23.769  23.294  1.00  0.00     0.049 A 
ATOM     10  C   UNL A   1      32.448  22.053  23.883  1.00  0.00     0.049 A 
ATOM     11  C   UNL A   1      32.205  23.293  23.308  1.00  0.00     0.130 A 
BRANCH   7  12
ATOM     12  N   UNL A   1      36.138  22.039  24.134  1.00  0.00    -0.151 NA
ATOM     13  N   UNL A   1      36.479  22.183  25.325  1.00  0.00    -0.151 NA
BRANCH  13  14
ATOM     14  C   UNL A   1      37.776  21.688  25.592  1.00  0.00     0.086 A 
ATOM     15  C   UNL A   1      40.332  20.580  25.989  1.00  0.00     0.082 A 
ATOM     16  C   UNL A   1      39.346  19.832  25.345  1.00  0.00     0.024 A 
ATOM     17  C   UNL A   1      40.063  21.877  26.430  1.00  0.00     0.024 A 
ATOM     18  C   UNL A   1      38.076  20.389  25.154  1.00  0.00     0.031 A 
ATOM     19  C   UNL A   1      38.790  22.422  26.233  1.00  0.00     0.031 A 
BRANCH  15  20
ATOM     20  S   UNL A   1      41.966  19.928  26.180  1.00  0.00     0.238 S 
ATOM     21  O   UNL A   1      42.877  20.701  25.372  1.00  0.00    -0.207 OA
ATOM     22  O   UNL A   1      41.912  18.485  26.126  1.00  0.00    -0.207 OA
BRANCH  20  23
ATOM     23  N   UNL A   1      42.311  20.316  27.777  1.00  0.00    -0.225 NA
ATOM     24  H   UNL A   1      43.260  20.016  28.001  1.00  0.00     0.137 HD
ATOM     25  H   UNL A   1      41.650  19.844  28.392  1.00  0.00     0.137 HD
ENDBRANCH  20  23
ENDBRANCH  15  20
ENDBRANCH  13  14
ENDBRANCH   7  12
BRANCH  11  26
ATOM     26  O   UNL A   1      30.898  23.574  23.008  1.00  0.00    -0.507 OA
ATOM     27  H   UNL A   1      30.248  22.903  23.071  1.00  0.00     0.293 HD
ENDBRANCH  11  26
ENDBRANCH   4   6
ENDBRANCH   3   4
ENDBRANCH   2   3
ENDBRANCH   1   2
BRANCH   1  28
ATOM     28  O   UNL A   1      31.233  27.603  26.183  1.00  0.00    -0.374 OA
BRANCH  28  29
ATOM     29  C   UNL A   1      31.767  28.669  26.969  1.00  0.00     0.202 C 
BRANCH  29  30
ATOM     30  C   UNL A   1      31.899  30.051  26.315  1.00  0.00     0.261 C 
BRANCH  30  31
ATOM     31  O   UNL A   1      33.264  30.496  26.226  1.00  0.00    -0.460 OA
BRANCH  31  32
ATOM     32  C   UNL A   1      33.617  31.432  27.142  1.00  0.00     0.338 C 
ATOM     33  O   UNL A   1      32.950  32.369  27.543  1.00  0.00    -0.246 OA
BRANCH  32  34
ATOM     34  C   UNL A   1      34.901  31.052  27.760  1.00  0.00     0.060 A 
ATOM     35  C   UNL A   1      35.066  29.716  28.154  1.00  0.00     0.016 A 
ATOM     36  C   UNL A   1      35.902  31.993  27.998  1.00  0.00     0.016 A 
ATOM     37  C   UNL A   1      36.230  29.321  28.807  1.00  0.00     0.010 A 
ATOM     38  C   UNL A   1      37.065  31.596  28.665  1.00  0.00     0.010 A 
ATOM     39  C   UNL A   1      37.228  30.264  29.089  1.00  0.00    -0.014 A 
BRANCH  39  40
ATOM     40  C   UNL A   1      38.406  29.881  29.902  1.00  0.00     0.031 A 
ATOM     41  C   UNL A   1      39.448  28.971  29.314  1.00  0.00     0.074 A 
ATOM     42  C   UNL A   1      38.541  30.337  31.161  1.00  0.00     0.049 A 
ATOM     43  N   UNL A   1      40.509  28.454  29.878  1.00  0.00    -0.248 NA
ATOM     44  C   UNL A   1      39.267  28.592  27.902  1.00  0.00     0.031 C 
ATOM     45  C   UNL A   1      37.622  31.259  31.830  1.00  0.00     0.029 A 
ATOM     46  N   UNL A   1      39.502  30.075  32.104  1.00  0.00    -0.354 N 
ATOM     47  C   UNL A   1      41.117  27.680  28.897  1.00  0.00     0.074 A 
ATOM     48  C   UNL A   1      40.292  27.774  27.712  1.00  0.00     0.031 C 
ATOM     49  C   UNL A   1      38.060  31.476  33.081  1.00  0.00     0.029 A 
ATOM     50  C   UNL A   1      39.260  30.676  33.315  1.00  0.00     0.049 A 
ATOM     51  H   UNL A   1      40.289  29.510  31.930  1.00  0.00     0.167 HD
ATOM     52  C   UNL A   1      42.258  26.956  28.978  1.00  0.00     0.031 A 
ATOM     53  C   UNL A   1      39.913  30.569  34.488  1.00  0.00     0.031 A 
ATOM     54  C   UNL A   1      43.069  26.854  30.164  1.00  0.00     0.049 A 
ATOM     55  C   UNL A   1      41.128  29.683  34.578  1.00  0.00     0.074 A 
ATOM     56  C   UNL A   1      44.258  26.165  30.338  1.00  0.00     0.029 A 
ATOM     57  N   UNL A   1      42.768  27.444  31.381  1.00  0.00    -0.354 N 
ATOM     58  N   UNL A   1      41.712  28.983  33.635  1.00  0.00    -0.248 NA
ATOM     59  C   UNL A   1      41.774  29.576  35.893  1.00  0.00     0.031 C 
ATOM     60  C   UNL A   1      44.638  26.281  31.678  1.00  0.00     0.029 A 
ATOM     61  C   UNL A   1      43.725  27.102  32.321  1.00  0.00     0.049 A 
ATOM     62  H   UNL A   1      41.990  28.022  31.551  1.00  0.00     0.167 HD
ATOM     63  C   UNL A   1      42.807  28.374  34.238  1.00  0.00     0.074 A 
ATOM     64  C   UNL A   1      42.817  28.805  35.620  1.00  0.00     0.031 C 
ATOM     65  C   UNL A   1      43.721  27.533  33.695  1.00  0.00     0.031 A 
BRANCH  52  66
ATOM     66  C   UNL A   1      42.683  26.182  27.761  1.00  0.00    -0.014 A 
ATOM     67  C   UNL A   1      43.328  26.808  26.682  1.00  0.00     0.009 A 
ATOM     68  C   UNL A   1      42.480  24.794  27.717  1.00  0.00     0.009 A 
ATOM     69  C   UNL A   1      43.732  26.063  25.572  1.00  0.00     0.001 A 
ATOM     70  C   UNL A   1      42.913  24.047  26.620  1.00  0.00     0.001 A 
ATOM     71  C   UNL A   1      43.530  24.683  25.545  1.00  0.00     0.000 A 
ENDBRANCH  52  66
BRANCH  53  72
ATOM     72  C   UNL A   1      39.412  31.286  35.691  1.00  0.00    -0.014 A 
ATOM     73  C   UNL A   1      38.272  30.834  36.373  1.00  0.00     0.009 A 
ATOM     74  C   UNL A   1      40.059  32.447  36.146  1.00  0.00     0.009 A 
ATOM     75  C   UNL A   1      37.776  31.546  37.469  1.00  0.00     0.001 A 
ATOM     76  C   UNL A   1      39.579  33.136  37.261  1.00  0.00     0.001 A 
ATOM     77  C   UNL A   1      38.431  32.693  37.914  1.00  0.00     0.000 A 
ENDBRANCH  53  72
BRANCH  65  78
ATOM     78  C   UNL A   1      44.828  27.044  34.589  1.00  0.00    -0.014 A 
ATOM     79  C   UNL A   1      44.689  25.872  35.348  1.00  0.00     0.009 A 
ATOM     80  C   UNL A   1      46.046  27.742  34.635  1.00  0.00     0.009 A 
ATOM     81  C   UNL A   1      45.736  25.426  36.159  1.00  0.00     0.001 A 
ATOM     82  C   UNL A   1      47.102  27.277  35.420  1.00  0.00     0.001 A 
ATOM     83  C   UNL A   1      46.943  26.126  36.189  1.00  0.00     0.000 A 
ENDBRANCH  65  78
ENDBRANCH  39  40
ENDBRANCH  32  34
ENDBRANCH  31  32
ENDBRANCH  30  31
ENDBRANCH  29  30
ENDBRANCH  28  29
ENDBRANCH   1  28
TORSDOF 19
ENDMDL
MODEL 3
REMARK VINA RESULT:     -10.0      4.678      9.956
REMARK SMILES NS(=O)(=O)c1ccc(/N=N/c2ccc(O)c(C(=O)OCCOCCOC(=O)c3ccc(-c4c5nc(c(-c6ccccc6)c6ccc([nH]6)c(-c6ccccc6)c6nc(c(-c7ccccc7)c7ccc4[nH]7)C=C6)C=C5)cc3)c2)cc1
REMARK SMILES IDX 21 1 20 2 19 3 17 4 18 5 16 6 11 7 12 8 76 9 13 10 14 11
REMARK SMILES IDX 10 12 9 13 8 14 5 15 6 16 78 17 7 18 77 19 2 20 3 21 4 22
REMARK SMILES IDX 1 23 15 26 22 28 23 29 24 30 25 31 26 32 27 33 28 34 29 35
REMARK SMILES IDX 75 36 30 37 74 38 31 39 32 40 33 41 68 42 34 43 73 44 67 45
REMARK SMILES IDX 69 46 35 47 72 48 66 49 65 50 36 52 58 53 43 54 57 55 44 56
REMARK SMILES IDX 47 57 56 58 70 59 45 60 46 61 55 63 71 64 48 65 37 66 38 67
REMARK SMILES IDX 42 68 39 69 41 70 40 71 59 72 60 73 64 74 61 75 63 76 62 77
REMARK SMILES IDX 49 78 50 79 54 80 51 81 53 82 52 83
REMARK H PARENT 1 24 1 25 15 27 69 51 47 62
REMARK Flexibility Score: inf
ROOT
ATOM      1  C   UNL A   1      32.022  26.058  26.378  1.00  0.00     0.202 C 
ENDROOT
BRANCH   1   2
ATOM      2  C   UNL A   1      30.783  26.885  26.020  1.00  0.00     0.261 C 
BRANCH   2   3
ATOM      3  O   UNL A   1      29.833  26.133  25.249  1.00  0.00    -0.460 OA
BRANCH   3   4
ATOM      4  C   UNL A   1      29.736  26.513  23.952  1.00  0.00     0.342 C 
ATOM      5  O   UNL A   1      29.000  27.374  23.494  1.00  0.00    -0.246 OA
BRANCH   4   6
ATOM      6  C   UNL A   1      30.817  25.914  23.143  1.00  0.00     0.104 A 
ATOM      7  C   UNL A   1      32.178  24.021  22.449  1.00  0.00     0.087 A 
ATOM      8  C   UNL A   1      32.937  24.888  21.649  1.00  0.00     0.034 A 
ATOM      9  C   UNL A   1      31.120  24.547  23.206  1.00  0.00     0.049 A 
ATOM     10  C   UNL A   1      32.654  26.254  21.601  1.00  0.00     0.049 A 
ATOM     11  C   UNL A   1      31.598  26.763  22.345  1.00  0.00     0.130 A 
BRANCH   7  12
ATOM     12  N   UNL A   1      32.572  22.670  22.510  1.00  0.00    -0.151 NA
ATOM     13  N   UNL A   1      32.385  22.170  23.637  1.00  0.00    -0.151 NA
BRANCH  13  14
ATOM     14  C   UNL A   1      32.762  20.809  23.708  1.00  0.00     0.086 A 
ATOM     15  C   UNL A   1      33.585  18.136  24.014  1.00  0.00     0.082 A 
ATOM     16  C   UNL A   1      34.200  19.140  24.764  1.00  0.00     0.024 A 
ATOM     17  C   UNL A   1      32.560  18.447  23.120  1.00  0.00     0.024 A 
ATOM     18  C   UNL A   1      33.787  20.468  24.604  1.00  0.00     0.031 A 
ATOM     19  C   UNL A   1      32.156  19.778  22.970  1.00  0.00     0.031 A 
BRANCH  15  20
ATOM     20  S   UNL A   1      34.039  16.442  24.248  1.00  0.00     0.238 S 
ATOM     21  O   UNL A   1      34.965  16.352  25.351  1.00  0.00    -0.207 OA
ATOM     22  O   UNL A   1      34.301  15.837  22.962  1.00  0.00    -0.207 OA
BRANCH  20  23
ATOM     23  N   UNL A   1      32.600  15.767  24.789  1.00  0.00    -0.225 NA
ATOM     24  H   UNL A   1      32.784  14.841  25.177  1.00  0.00     0.137 HD
ATOM     25  H   UNL A   1      31.949  15.685  24.009  1.00  0.00     0.137 HD
ENDBRANCH  20  23
ENDBRANCH  15  20
ENDBRANCH  13  14
ENDBRANCH   7  12
BRANCH  11  26
ATOM     26  O   UNL A   1      31.412  28.118  22.282  1.00  0.00    -0.507 OA
ATOM     27  H   UNL A   1      31.790  28.611  21.581  1.00  0.00     0.293 HD
ENDBRANCH  11  26
ENDBRANCH   4   6
ENDBRANCH   3   4
ENDBRANCH   2   3
ENDBRANCH   1   2
BRANCH   1  28
ATOM     28  O   UNL A   1      33.284  26.718  26.364  1.00  0.00    -0.374 OA
BRANCH  28  29
ATOM     29  C   UNL A   1      33.471  27.781  25.429  1.00  0.00     0.202 C 
BRANCH  29  30
ATOM     30  C   UNL A   1      33.903  29.150  25.970  1.00  0.00     0.261 C 
BRANCH  30  31
ATOM     31  O   UNL A   1      34.040  29.164  27.402  1.00  0.00    -0.460 OA
BRANCH  31  32
ATOM     32  C   UNL A   1      34.624  30.280  27.906  1.00  0.00     0.338 C 
ATOM     33  O   UNL A   1      34.095  31.348  28.156  1.00  0.00    -0.246 OA
BRANCH  32  34
ATOM     34  C   UNL A   1      36.008  29.968  28.307  1.00  0.00     0.060 A 
ATOM     35  C   UNL A   1      37.018  30.128  27.349  1.00  0.00     0.016 A 
ATOM     36  C   UNL A   1      36.305  29.477  29.579  1.00  0.00     0.016 A 
ATOM     37  C   UNL A   1      38.331  29.778  27.654  1.00  0.00     0.010 A 
ATOM     38  C   UNL A   1      37.622  29.115  29.879  1.00  0.00     0.010 A 
ATOM     39  C   UNL A   1      38.637  29.246  28.914  1.00  0.00    -0.014 A 
BRANCH  39  40
ATOM     40  C   UNL A   1      40.003  28.746  29.198  1.00  0.00     0.031 A 
ATOM     41  C   UNL A   1      40.996  29.648  29.875  1.00  0.00     0.074 A 
ATOM     42  C   UNL A   1      40.356  27.495  28.849  1.00  0.00     0.049 A 
ATOM     43  N   UNL A   1      42.259  29.435  30.144  1.00  0.00    -0.248 NA
ATOM     44  C   UNL A   1      40.500  30.966  30.304  1.00  0.00     0.031 C 
ATOM     45  C   UNL A   1      39.471  26.510  28.226  1.00  0.00     0.029 A 
ATOM     46  N   UNL A   1      41.560  26.846  28.958  1.00  0.00    -0.354 N 
ATOM     47  C   UNL A   1      42.713  30.594  30.761  1.00  0.00     0.074 A 
ATOM     48  C   UNL A   1      41.598  31.516  30.803  1.00  0.00     0.031 C 
ATOM     49  C   UNL A   1      40.167  25.383  27.999  1.00  0.00     0.029 A 
ATOM     50  C   UNL A   1      41.553  25.584  28.417  1.00  0.00     0.049 A 
ATOM     51  H   UNL A   1      42.352  27.247  29.384  1.00  0.00     0.167 HD
ATOM     52  C   UNL A   1      43.947  30.865  31.248  1.00  0.00     0.031 A 
ATOM     53  C   UNL A   1      42.557  24.703  28.248  1.00  0.00     0.031 A 
ATOM     54  C   UNL A   1      45.058  29.951  31.191  1.00  0.00     0.049 A 
ATOM     55  C   UNL A   1      43.943  25.064  28.715  1.00  0.00     0.074 A 
ATOM     56  C   UNL A   1      46.342  30.125  31.680  1.00  0.00     0.029 A 
ATOM     57  N   UNL A   1      45.022  28.699  30.598  1.00  0.00    -0.354 N 
ATOM     58  N   UNL A   1      44.352  26.149  29.327  1.00  0.00    -0.248 NA
ATOM     59  C   UNL A   1      45.004  24.078  28.468  1.00  0.00     0.031 C 
ATOM     60  C   UNL A   1      47.101  29.006  31.321  1.00  0.00     0.029 A 
ATOM     61  C   UNL A   1      46.271  28.105  30.673  1.00  0.00     0.049 A 
ATOM     62  H   UNL A   1      44.226  28.291  30.187  1.00  0.00     0.167 HD
ATOM     63  C   UNL A   1      45.710  25.964  29.560  1.00  0.00     0.074 A 
ATOM     64  C   UNL A   1      46.049  24.655  29.043  1.00  0.00     0.031 C 
ATOM     65  C   UNL A   1      46.597  26.804  30.149  1.00  0.00     0.031 A 
BRANCH  52  66
ATOM     66  C   UNL A   1      44.177  32.223  31.851  1.00  0.00    -0.014 A 
ATOM     67  C   UNL A   1      44.587  33.314  31.068  1.00  0.00     0.009 A 
ATOM     68  C   UNL A   1      43.929  32.425  33.218  1.00  0.00     0.009 A 
ATOM     69  C   UNL A   1      44.772  34.572  31.649  1.00  0.00     0.001 A 
ATOM     70  C   UNL A   1      44.085  33.689  33.790  1.00  0.00     0.001 A 
ATOM     71  C   UNL A   1      44.515  34.759  33.007  1.00  0.00     0.000 A 
ENDBRANCH  52  66
BRANCH  53  72
ATOM     72  C   UNL A   1      42.305  23.403  27.571  1.00  0.00    -0.014 A 
ATOM     73  C   UNL A   1      41.806  22.304  28.288  1.00  0.00     0.009 A 
ATOM     74  C   UNL A   1      42.589  23.246  26.204  1.00  0.00     0.009 A 
ATOM     75  C   UNL A   1      41.626  21.071  27.658  1.00  0.00     0.001 A 
ATOM     76  C   UNL A   1      42.376  22.021  25.570  1.00  0.00     0.001 A 
ATOM     77  C   UNL A   1      41.906  20.931  26.299  1.00  0.00     0.000 A 
ENDBRANCH  53  72
BRANCH  65  78
ATOM     78  C   UNL A   1      48.015  26.323  30.293  1.00  0.00    -0.014 A 
ATOM     79  C   UNL A   1      48.935  26.436  29.240  1.00  0.00     0.009 A 
ATOM     80  C   UNL A   1      48.448  25.791  31.519  1.00  0.00     0.009 A 
ATOM     81  C   UNL A   1      50.252  25.998  29.401  1.00  0.00     0.001 A 
ATOM     82  C   UNL A   1      49.773  25.385  31.688  1.00  0.00     0.001 A 
ATOM     83  C   UNL A   1      50.671  25.479  30.627  1.00  0.00     0.000 A 
ENDBRANCH  65  78
ENDBRANCH  39  40
ENDBRANCH  32  34
ENDBRANCH  31  32
ENDBRANCH  30  31
ENDBRANCH  29  30
ENDBRANCH  28  29
ENDBRANCH   1  28
TORSDOF 19
ENDMDL
