MODEL 1
REMARK VINA RESULT:     -10.8      0.000      0.000
REMARK SMILES Cc1cc(OC(F)(F)F)cc2c1O[C@H](C(F)(F)F)C(C(=O)OCCOCCOC(=O)c1ccc(-c3c4nc(c(-c5ccccc5)c5ccc([nH]5)c(-c5ccccc5)c5nc(c(-c6ccccc6)c6ccc3[nH]6)C=C5)C=C4)cc1)=C2
REMARK SMILES IDX 25 1 24 2 23 3 22 4 20 5 21 6 19 7 1 8 2 9 3 10 12 11 4 12
REMARK SMILES IDX 11 13 13 14 10 15 79 16 14 17 5 18 6 19 7 20 8 21 9 22 15 23
REMARK SMILES IDX 16 24 17 25 18 26 26 27 27 28 28 29 29 30 30 31 31 32 32 33
REMARK SMILES IDX 78 34 33 35 77 36 34 37 35 38 36 39 71 40 37 41 76 42 70 43
REMARK SMILES IDX 72 44 38 45 75 46 69 47 68 48 39 50 61 51 46 52 60 53 47 54
REMARK SMILES IDX 50 55 59 56 73 57 48 58 49 59 58 61 74 62 51 63 40 64 41 65
REMARK SMILES IDX 45 66 42 67 44 68 43 69 62 70 63 71 67 72 64 73 66 74 65 75
REMARK SMILES IDX 52 76 53 77 57 78 54 79 56 80 55 81
REMARK H PARENT 72 49 50 60
REMARK Flexibility Score: inf
ROOT
ATOM      1  O   UNL A   1      32.126  30.907  26.301  1.00  0.00    -0.374 OA
ENDROOT
BRANCH   1   2
ATOM      2  C   UNL A   1      32.385  29.810  27.173  1.00  0.00     0.202 C 
BRANCH   2   3
ATOM      3  C   UNL A   1      31.936  28.435  26.675  1.00  0.00     0.261 C 
BRANCH   3   4
ATOM      4  O   UNL A   1      31.948  28.368  25.240  1.00  0.00    -0.460 OA
BRANCH   4   5
ATOM      5  C   UNL A   1      33.101  27.903  24.707  1.00  0.00     0.338 C 
ATOM      6  O   UNL A   1      34.118  28.545  24.490  1.00  0.00    -0.246 OA
BRANCH   5   7
ATOM      7  C   UNL A   1      33.015  26.445  24.515  1.00  0.00     0.087 C 
ATOM      8  C   UNL A   1      32.337  21.683  22.686  1.00  0.00     0.048 C 
ATOM      9  C   UNL A   1      33.207  22.347  23.720  1.00  0.00    -0.005 A 
ATOM     10  C   UNL A   1      34.235  21.591  24.316  1.00  0.00     0.054 A 
ATOM     11  C   UNL A   1      33.077  23.708  24.039  1.00  0.00     0.131 A 
ATOM     12  C   UNL A   1      35.108  22.170  25.237  1.00  0.00     0.130 A 
ATOM     13  C   UNL A   1      33.968  24.295  24.939  1.00  0.00     0.021 A 
ATOM     14  O   UNL A   1      32.063  24.404  23.442  1.00  0.00    -0.475 OA
ATOM     15  C   UNL A   1      34.961  23.522  25.550  1.00  0.00     0.058 A 
ATOM     16  C   UNL A   1      33.921  25.724  25.184  1.00  0.00     0.027 C 
ATOM     17  C   UNL A   1      31.988  25.849  23.595  1.00  0.00     0.316 C 
BRANCH  12  18
ATOM     18  O   UNL A   1      36.139  21.556  25.886  1.00  0.00    -0.406 OA
BRANCH  18  19
ATOM     19  C   UNL A   1      37.289  21.220  25.130  1.00  0.00     0.573 C 
ATOM     20  F   UNL A   1      37.369  21.966  24.009  1.00  0.00    -0.132 F 
ATOM     21  F   UNL A   1      38.415  21.376  25.859  1.00  0.00    -0.132 F 
ATOM     22  F   UNL A   1      37.202  19.922  24.766  1.00  0.00    -0.132 F 
ENDBRANCH  18  19
ENDBRANCH  12  18
BRANCH  17  23
ATOM     23  C   UNL A   1      32.005  26.473  22.192  1.00  0.00     0.430 C 
ATOM     24  F   UNL A   1      31.219  27.576  22.138  1.00  0.00    -0.167 F 
ATOM     25  F   UNL A   1      33.247  26.871  21.829  1.00  0.00    -0.167 F 
ATOM     26  F   UNL A   1      31.562  25.613  21.248  1.00  0.00    -0.167 F 
ENDBRANCH  17  23
ENDBRANCH   5   7
ENDBRANCH   4   5
ENDBRANCH   3   4
ENDBRANCH   2   3
ENDBRANCH   1   2
BRANCH   1  27
ATOM     27  C   UNL A   1      31.385  32.011  26.827  1.00  0.00     0.202 C 
BRANCH  27  28
ATOM     28  C   UNL A   1      32.119  33.354  26.896  1.00  0.00     0.261 C 
BRANCH  28  29
ATOM     29  O   UNL A   1      32.302  33.794  28.258  1.00  0.00    -0.460 OA
BRANCH  29  30
ATOM     30  C   UNL A   1      33.408  34.540  28.474  1.00  0.00     0.338 C 
ATOM     31  O   UNL A   1      33.473  35.752  28.630  1.00  0.00    -0.246 OA
BRANCH  30  32
ATOM     32  C   UNL A   1      34.573  33.665  28.671  1.00  0.00     0.060 A 
ATOM     33  C   UNL A   1      34.346  32.365  29.141  1.00  0.00     0.016 A 
ATOM     34  C   UNL A   1      35.871  34.154  28.522  1.00  0.00     0.016 A 
ATOM     35  C   UNL A   1      35.422  31.561  29.509  1.00  0.00     0.010 A 
ATOM     36  C   UNL A   1      36.949  33.354  28.912  1.00  0.00     0.010 A 
ATOM     37  C   UNL A   1      36.724  32.071  29.443  1.00  0.00    -0.014 A 
BRANCH  37  38
ATOM     38  C   UNL A   1      37.828  31.333  30.095  1.00  0.00     0.031 A 
ATOM     39  C   UNL A   1      38.117  31.595  31.547  1.00  0.00     0.074 A 
ATOM     40  C   UNL A   1      38.541  30.417  29.418  1.00  0.00     0.049 A 
ATOM     41  N   UNL A   1      39.048  31.083  32.309  1.00  0.00    -0.248 NA
ATOM     42  C   UNL A   1      37.234  32.554  32.234  1.00  0.00     0.031 C 
ATOM     43  C   UNL A   1      38.315  30.028  28.027  1.00  0.00     0.029 A 
ATOM     44  N   UNL A   1      39.602  29.646  29.819  1.00  0.00    -0.354 N 
ATOM     45  C   UNL A   1      38.861  31.653  33.562  1.00  0.00     0.074 A 
ATOM     46  C   UNL A   1      37.744  32.564  33.457  1.00  0.00     0.031 C 
ATOM     47  C   UNL A   1      39.215  29.088  27.690  1.00  0.00     0.029 A 
ATOM     48  C   UNL A   1      40.093  28.832  28.829  1.00  0.00     0.049 A 
ATOM     49  H   UNL A   1      39.974  29.672  30.731  1.00  0.00     0.167 HD
ATOM     50  C   UNL A   1      39.557  31.431  34.700  1.00  0.00     0.031 A 
ATOM     51  C   UNL A   1      41.143  27.988  28.838  1.00  0.00     0.031 A 
ATOM     52  C   UNL A   1      40.677  30.538  34.805  1.00  0.00     0.049 A 
ATOM     53  C   UNL A   1      41.961  27.829  30.089  1.00  0.00     0.074 A 
ATOM     54  C   UNL A   1      41.449  30.257  35.919  1.00  0.00     0.029 A 
ATOM     55  N   UNL A   1      41.184  29.786  33.760  1.00  0.00    -0.354 N 
ATOM     56  N   UNL A   1      41.786  28.386  31.262  1.00  0.00    -0.248 NA
ATOM     57  C   UNL A   1      43.125  26.932  30.018  1.00  0.00     0.031 C 
ATOM     58  C   UNL A   1      42.451  29.362  35.537  1.00  0.00     0.029 A 
ATOM     59  C   UNL A   1      42.273  29.053  34.198  1.00  0.00     0.049 A 
ATOM     60  H   UNL A   1      40.825  29.773  32.844  1.00  0.00     0.167 HD
ATOM     61  C   UNL A   1      42.800  27.891  32.074  1.00  0.00     0.074 A 
ATOM     62  C   UNL A   1      43.587  26.989  31.261  1.00  0.00     0.031 C 
ATOM     63  C   UNL A   1      43.047  28.160  33.377  1.00  0.00     0.031 A 
BRANCH  50  64
ATOM     64  C   UNL A   1      39.140  32.181  35.930  1.00  0.00    -0.014 A 
ATOM     65  C   UNL A   1      39.649  33.460  36.199  1.00  0.00     0.009 A 
ATOM     66  C   UNL A   1      38.169  31.637  36.783  1.00  0.00     0.009 A 
ATOM     67  C   UNL A   1      39.198  34.178  37.308  1.00  0.00     0.001 A 
ATOM     68  C   UNL A   1      37.707  32.363  37.881  1.00  0.00     0.001 A 
ATOM     69  C   UNL A   1      38.223  33.632  38.143  1.00  0.00     0.000 A 
ENDBRANCH  50  64
BRANCH  51  70
ATOM     70  C   UNL A   1      41.475  27.227  27.608  1.00  0.00    -0.014 A 
ATOM     71  C   UNL A   1      42.343  27.769  26.651  1.00  0.00     0.009 A 
ATOM     72  C   UNL A   1      40.954  25.940  27.406  1.00  0.00     0.009 A 
ATOM     73  C   UNL A   1      42.684  27.036  25.512  1.00  0.00     0.001 A 
ATOM     74  C   UNL A   1      41.310  25.202  26.276  1.00  0.00     0.001 A 
ATOM     75  C   UNL A   1      42.173  25.751  25.328  1.00  0.00     0.000 A 
ENDBRANCH  51  70
BRANCH  63  76
ATOM     76  C   UNL A   1      44.204  27.465  34.033  1.00  0.00    -0.014 A 
ATOM     77  C   UNL A   1      45.430  28.121  34.210  1.00  0.00     0.009 A 
ATOM     78  C   UNL A   1      44.021  26.189  34.590  1.00  0.00     0.009 A 
ATOM     79  C   UNL A   1      46.457  27.508  34.933  1.00  0.00     0.001 A 
ATOM     80  C   UNL A   1      45.042  25.589  35.327  1.00  0.00     0.001 A 
ATOM     81  C   UNL A   1      46.259  26.248  35.498  1.00  0.00     0.000 A 
ENDBRANCH  63  76
ENDBRANCH  37  38
ENDBRANCH  30  32
ENDBRANCH  29  30
ENDBRANCH  28  29
ENDBRANCH  27  28
ENDBRANCH   1  27
TORSDOF 17
ENDMDL
MODEL 2
REMARK VINA RESULT:     -10.8      3.788      8.179
REMARK SMILES Cc1cc(OC(F)(F)F)cc2c1O[C@H](C(F)(F)F)C(C(=O)OCCOCCOC(=O)c1ccc(-c3c4nc(c(-c5ccccc5)c5ccc([nH]5)c(-c5ccccc5)c5nc(c(-c6ccccc6)c6ccc3[nH]6)C=C5)C=C4)cc1)=C2
REMARK SMILES IDX 25 1 24 2 23 3 22 4 20 5 21 6 19 7 1 8 2 9 3 10 12 11 4 12
REMARK SMILES IDX 11 13 13 14 10 15 79 16 14 17 5 18 6 19 7 20 8 21 9 22 15 23
REMARK SMILES IDX 16 24 17 25 18 26 26 27 27 28 28 29 29 30 30 31 31 32 32 33
REMARK SMILES IDX 78 34 33 35 77 36 34 37 35 38 36 39 71 40 37 41 76 42 70 43
REMARK SMILES IDX 72 44 38 45 75 46 69 47 68 48 39 50 61 51 46 52 60 53 47 54
REMARK SMILES IDX 50 55 59 56 73 57 48 58 49 59 58 61 74 62 51 63 40 64 41 65
REMARK SMILES IDX 45 66 42 67 44 68 43 69 62 70 63 71 67 72 64 73 66 74 65 75
REMARK SMILES IDX 52 76 53 77 57 78 54 79 56 80 55 81
REMARK H PARENT 72 49 50 60
REMARK Flexibility Score: inf
ROOT
ATOM      1  O   UNL A   1      35.013  22.054  24.777  1.00  0.00    -0.374 OA
ENDROOT
BRANCH   1   2
ATOM      2  C   UNL A   1      34.180  22.242  23.637  1.00  0.00     0.202 C 
BRANCH   2   3
ATOM      3  C   UNL A   1      32.698  21.915  23.826  1.00  0.00     0.261 C 
BRANCH   3   4
ATOM      4  O   UNL A   1      31.889  23.102  23.778  1.00  0.00    -0.460 OA
BRANCH   4   5
ATOM      5  C   UNL A   1      31.384  23.488  24.972  1.00  0.00     0.338 C 
ATOM      6  O   UNL A   1      31.152  22.772  25.934  1.00  0.00    -0.246 OA
BRANCH   5   7
ATOM      7  C   UNL A   1      31.244  24.954  25.009  1.00  0.00     0.087 C 
ATOM      8  C   UNL A   1      31.993  30.031  25.396  1.00  0.00     0.048 C 
ATOM      9  C   UNL A   1      31.057  29.114  24.655  1.00  0.00    -0.005 A 
ATOM     10  C   UNL A   1      30.204  29.671  23.681  1.00  0.00     0.054 A 
ATOM     11  C   UNL A   1      31.072  27.723  24.844  1.00  0.00     0.131 A 
ATOM     12  C   UNL A   1      29.357  28.861  22.923  1.00  0.00     0.130 A 
ATOM     13  C   UNL A   1      30.247  26.910  24.065  1.00  0.00     0.021 A 
ATOM     14  O   UNL A   1      31.911  27.224  25.801  1.00  0.00    -0.475 OA
ATOM     15  C   UNL A   1      29.379  27.481  23.129  1.00  0.00     0.058 A 
ATOM     16  C   UNL A   1      30.341  25.466  24.166  1.00  0.00     0.027 C 
ATOM     17  C   UNL A   1      32.102  25.787  25.920  1.00  0.00     0.316 C 
BRANCH  12  18
ATOM     18  O   UNL A   1      28.486  29.268  21.956  1.00  0.00    -0.406 OA
BRANCH  18  19
ATOM     19  C   UNL A   1      28.228  30.656  21.839  1.00  0.00     0.573 C 
ATOM     20  F   UNL A   1      27.377  31.074  22.800  1.00  0.00    -0.132 F 
ATOM     21  F   UNL A   1      29.370  31.372  21.903  1.00  0.00    -0.132 F 
ATOM     22  F   UNL A   1      27.652  30.888  20.639  1.00  0.00    -0.132 F 
ENDBRANCH  18  19
ENDBRANCH  12  18
BRANCH  17  23
ATOM     23  C   UNL A   1      33.601  25.495  25.765  1.00  0.00     0.430 C 
ATOM     24  F   UNL A   1      33.962  24.400  26.477  1.00  0.00    -0.167 F 
ATOM     25  F   UNL A   1      33.939  25.243  24.479  1.00  0.00    -0.167 F 
ATOM     26  F   UNL A   1      34.366  26.525  26.190  1.00  0.00    -0.167 F 
ENDBRANCH  17  23
ENDBRANCH   5   7
ENDBRANCH   4   5
ENDBRANCH   3   4
ENDBRANCH   2   3
ENDBRANCH   1   2
BRANCH   1  27
ATOM     27  C   UNL A   1      35.355  20.712  25.134  1.00  0.00     0.202 C 
BRANCH  27  28
ATOM     28  C   UNL A   1      36.829  20.320  24.980  1.00  0.00     0.261 C 
BRANCH  28  29
ATOM     29  O   UNL A   1      37.704  21.450  25.171  1.00  0.00    -0.460 OA
BRANCH  29  30
ATOM     30  C   UNL A   1      38.853  21.177  25.830  1.00  0.00     0.338 C 
ATOM     31  O   UNL A   1      39.498  20.137  25.809  1.00  0.00    -0.246 OA
BRANCH  30  32
ATOM     32  C   UNL A   1      39.356  22.394  26.485  1.00  0.00     0.060 A 
ATOM     33  C   UNL A   1      38.763  23.616  26.146  1.00  0.00     0.016 A 
ATOM     34  C   UNL A   1      40.476  22.350  27.317  1.00  0.00     0.016 A 
ATOM     35  C   UNL A   1      39.317  24.809  26.603  1.00  0.00     0.010 A 
ATOM     36  C   UNL A   1      41.043  23.549  27.759  1.00  0.00     0.010 A 
ATOM     37  C   UNL A   1      40.488  24.781  27.370  1.00  0.00    -0.014 A 
BRANCH  37  38
ATOM     38  C   UNL A   1      41.229  26.039  27.611  1.00  0.00     0.031 A 
ATOM     39  C   UNL A   1      40.610  27.087  28.493  1.00  0.00     0.074 A 
ATOM     40  C   UNL A   1      42.449  26.233  27.083  1.00  0.00     0.049 A 
ATOM     41  N   UNL A   1      41.068  28.268  28.819  1.00  0.00    -0.248 NA
ATOM     42  C   UNL A   1      39.307  26.758  29.096  1.00  0.00     0.031 C 
ATOM     43  C   UNL A   1      43.181  25.268  26.266  1.00  0.00     0.029 A 
ATOM     44  N   UNL A   1      43.287  27.316  27.163  1.00  0.00    -0.354 N 
ATOM     45  C   UNL A   1      40.114  28.819  29.664  1.00  0.00     0.074 A 
ATOM     46  C   UNL A   1      39.043  27.857  29.788  1.00  0.00     0.031 C 
ATOM     47  C   UNL A   1      44.364  25.804  25.918  1.00  0.00     0.029 A 
ATOM     48  C   UNL A   1      44.457  27.156  26.464  1.00  0.00     0.049 A 
ATOM     49  H   UNL A   1      43.071  28.129  27.675  1.00  0.00     0.167 HD
ATOM     50  C   UNL A   1      40.134  30.020  30.287  1.00  0.00     0.031 A 
ATOM     51  C   UNL A   1      45.481  28.011  26.273  1.00  0.00     0.031 A 
ATOM     52  C   UNL A   1      41.189  30.984  30.155  1.00  0.00     0.049 A 
ATOM     53  C   UNL A   1      45.436  29.378  26.897  1.00  0.00     0.074 A 
ATOM     54  C   UNL A   1      41.289  32.233  30.744  1.00  0.00     0.029 A 
ATOM     55  N   UNL A   1      42.323  30.810  29.381  1.00  0.00    -0.354 N 
ATOM     56  N   UNL A   1      44.521  29.894  27.681  1.00  0.00    -0.248 NA
ATOM     57  C   UNL A   1      46.560  30.282  26.609  1.00  0.00     0.031 C 
ATOM     58  C   UNL A   1      42.468  32.832  30.292  1.00  0.00     0.029 A 
ATOM     59  C   UNL A   1      43.121  31.937  29.460  1.00  0.00     0.049 A 
ATOM     60  H   UNL A   1      42.531  30.005  28.853  1.00  0.00     0.167 HD
ATOM     61  C   UNL A   1      44.968  31.172  27.997  1.00  0.00     0.074 A 
ATOM     62  C   UNL A   1      46.235  31.354  27.321  1.00  0.00     0.031 C 
ATOM     63  C   UNL A   1      44.379  32.104  28.782  1.00  0.00     0.031 A 
BRANCH  50  64
ATOM     64  C   UNL A   1      38.967  30.371  31.161  1.00  0.00    -0.014 A 
ATOM     65  C   UNL A   1      38.929  29.969  32.504  1.00  0.00     0.009 A 
ATOM     66  C   UNL A   1      37.937  31.179  30.658  1.00  0.00     0.009 A 
ATOM     67  C   UNL A   1      37.873  30.364  33.327  1.00  0.00     0.001 A 
ATOM     68  C   UNL A   1      36.891  31.587  31.487  1.00  0.00     0.001 A 
ATOM     69  C   UNL A   1      36.860  31.178  32.820  1.00  0.00     0.000 A 
ENDBRANCH  50  64
BRANCH  51  70
ATOM     70  C   UNL A   1      46.637  27.588  25.446  1.00  0.00    -0.014 A 
ATOM     71  C   UNL A   1      47.650  26.791  25.997  1.00  0.00     0.009 A 
ATOM     72  C   UNL A   1      46.714  27.950  24.092  1.00  0.00     0.009 A 
ATOM     73  C   UNL A   1      48.719  26.362  25.206  1.00  0.00     0.001 A 
ATOM     74  C   UNL A   1      47.773  27.505  23.299  1.00  0.00     0.001 A 
ATOM     75  C   UNL A   1      48.777  26.714  23.857  1.00  0.00     0.000 A 
ENDBRANCH  51  70
BRANCH  63  76
ATOM     76  C   UNL A   1      45.091  33.409  28.983  1.00  0.00    -0.014 A 
ATOM     77  C   UNL A   1      46.064  33.551  29.982  1.00  0.00     0.009 A 
ATOM     78  C   UNL A   1      44.872  34.464  28.082  1.00  0.00     0.009 A 
ATOM     79  C   UNL A   1      46.806  34.731  30.076  1.00  0.00     0.001 A 
ATOM     80  C   UNL A   1      45.629  35.634  28.169  1.00  0.00     0.001 A 
ATOM     81  C   UNL A   1      46.594  35.766  29.166  1.00  0.00     0.000 A 
ENDBRANCH  63  76
ENDBRANCH  37  38
ENDBRANCH  30  32
ENDBRANCH  29  30
ENDBRANCH  28  29
ENDBRANCH  27  28
ENDBRANCH   1  27
TORSDOF 17
ENDMDL
MODEL 3
REMARK VINA RESULT:     -10.8      1.729      5.799
REMARK SMILES Cc1cc(OC(F)(F)F)cc2c1O[C@H](C(F)(F)F)C(C(=O)OCCOCCOC(=O)c1ccc(-c3c4nc(c(-c5ccccc5)c5ccc([nH]5)c(-c5ccccc5)c5nc(c(-c6ccccc6)c6ccc3[nH]6)C=C5)C=C4)cc1)=C2
REMARK SMILES IDX 25 1 24 2 23 3 22 4 20 5 21 6 19 7 1 8 2 9 3 10 12 11 4 12
REMARK SMILES IDX 11 13 13 14 10 15 79 16 14 17 5 18 6 19 7 20 8 21 9 22 15 23
REMARK SMILES IDX 16 24 17 25 18 26 26 27 27 28 28 29 29 30 30 31 31 32 32 33
REMARK SMILES IDX 78 34 33 35 77 36 34 37 35 38 36 39 71 40 37 41 76 42 70 43
REMARK SMILES IDX 72 44 38 45 75 46 69 47 68 48 39 50 61 51 46 52 60 53 47 54
REMARK SMILES IDX 50 55 59 56 73 57 48 58 49 59 58 61 74 62 51 63 40 64 41 65
REMARK SMILES IDX 45 66 42 67 44 68 43 69 62 70 63 71 67 72 64 73 66 74 65 75
REMARK SMILES IDX 52 76 53 77 57 78 54 79 56 80 55 81
REMARK H PARENT 72 49 50 60
REMARK Flexibility Score: inf
ROOT
ATOM      1  O   UNL A   1      32.026  30.454  26.901  1.00  0.00    -0.374 OA
ENDROOT
BRANCH   1   2
ATOM      2  C   UNL A   1      32.905  29.807  25.985  1.00  0.00     0.202 C 
BRANCH   2   3
ATOM      3  C   UNL A   1      32.321  28.619  25.218  1.00  0.00     0.261 C 
BRANCH   3   4
ATOM      4  O   UNL A   1      32.843  27.372  25.706  1.00  0.00    -0.460 OA
BRANCH   4   5
ATOM      5  C   UNL A   1      31.929  26.575  26.305  1.00  0.00     0.338 C 
ATOM      6  O   UNL A   1      30.973  26.933  26.976  1.00  0.00    -0.246 OA
BRANCH   5   7
ATOM      7  C   UNL A   1      32.174  25.168  25.943  1.00  0.00     0.087 C 
ATOM      8  C   UNL A   1      32.305  20.544  23.687  1.00  0.00     0.048 C 
ATOM      9  C   UNL A   1      33.205  21.353  24.583  1.00  0.00    -0.005 A 
ATOM     10  C   UNL A   1      34.508  20.877  24.831  1.00  0.00     0.054 A 
ATOM     11  C   UNL A   1      32.815  22.597  25.102  1.00  0.00     0.131 A 
ATOM     12  C   UNL A   1      35.404  21.614  25.606  1.00  0.00     0.130 A 
ATOM     13  C   UNL A   1      33.721  23.348  25.854  1.00  0.00     0.021 A 
ATOM     14  O   UNL A   1      31.541  23.020  24.842  1.00  0.00    -0.475 OA
ATOM     15  C   UNL A   1      34.998  22.845  26.122  1.00  0.00     0.058 A 
ATOM     16  C   UNL A   1      33.372  24.685  26.293  1.00  0.00     0.027 C 
ATOM     17  C   UNL A   1      31.139  24.372  25.200  1.00  0.00     0.316 C 
BRANCH  12  18
ATOM     18  O   UNL A   1      36.686  21.271  25.923  1.00  0.00    -0.406 OA
BRANCH  18  19
ATOM     19  C   UNL A   1      37.651  21.289  24.887  1.00  0.00     0.573 C 
ATOM     20  F   UNL A   1      37.226  22.028  23.840  1.00  0.00    -0.132 F 
ATOM     21  F   UNL A   1      38.833  21.769  25.329  1.00  0.00    -0.132 F 
ATOM     22  F   UNL A   1      37.846  20.024  24.455  1.00  0.00    -0.132 F 
ENDBRANCH  18  19
ENDBRANCH  12  18
BRANCH  17  23
ATOM     23  C   UNL A   1      30.646  25.071  23.924  1.00  0.00     0.430 C 
ATOM     24  F   UNL A   1      31.678  25.626  23.242  1.00  0.00    -0.167 F 
ATOM     25  F   UNL A   1      30.045  24.208  23.073  1.00  0.00    -0.167 F 
ATOM     26  F   UNL A   1      29.762  26.057  24.194  1.00  0.00    -0.167 F 
ENDBRANCH  17  23
ENDBRANCH   5   7
ENDBRANCH   4   5
ENDBRANCH   3   4
ENDBRANCH   2   3
ENDBRANCH   1   2
BRANCH   1  27
ATOM     27  C   UNL A   1      31.276  31.573  26.420  1.00  0.00     0.202 C 
BRANCH  27  28
ATOM     28  C   UNL A   1      31.793  32.960  26.816  1.00  0.00     0.261 C 
BRANCH  28  29
ATOM     29  O   UNL A   1      33.014  32.878  27.579  1.00  0.00    -0.460 OA
BRANCH  29  30
ATOM     30  C   UNL A   1      33.287  33.962  28.338  1.00  0.00     0.338 C 
ATOM     31  O   UNL A   1      32.587  34.952  28.507  1.00  0.00    -0.246 OA
BRANCH  30  32
ATOM     32  C   UNL A   1      34.518  33.736  29.111  1.00  0.00     0.060 A 
ATOM     33  C   UNL A   1      35.736  34.114  28.531  1.00  0.00     0.016 A 
ATOM     34  C   UNL A   1      34.488  33.048  30.324  1.00  0.00     0.016 A 
ATOM     35  C   UNL A   1      36.936  33.763  29.143  1.00  0.00     0.010 A 
ATOM     36  C   UNL A   1      35.693  32.678  30.927  1.00  0.00     0.010 A 
ATOM     37  C   UNL A   1      36.919  33.001  30.318  1.00  0.00    -0.014 A 
BRANCH  37  38
ATOM     38  C   UNL A   1      38.175  32.390  30.806  1.00  0.00     0.031 A 
ATOM     39  C   UNL A   1      38.648  31.107  30.181  1.00  0.00     0.074 A 
ATOM     40  C   UNL A   1      38.904  32.984  31.766  1.00  0.00     0.049 A 
ATOM     41  N   UNL A   1      39.702  30.388  30.469  1.00  0.00    -0.248 NA
ATOM     42  C   UNL A   1      37.832  30.568  29.080  1.00  0.00     0.031 C 
ATOM     43  C   UNL A   1      38.585  34.260  32.403  1.00  0.00     0.029 A 
ATOM     44  N   UNL A   1      40.070  32.585  32.368  1.00  0.00    -0.354 N 
ATOM     45  C   UNL A   1      39.676  29.317  29.585  1.00  0.00     0.074 A 
ATOM     46  C   UNL A   1      38.496  29.465  28.764  1.00  0.00     0.031 C 
ATOM     47  C   UNL A   1      39.535  34.540  33.311  1.00  0.00     0.029 A 
ATOM     48  C   UNL A   1      40.510  33.451  33.338  1.00  0.00     0.049 A 
ATOM     49  H   UNL A   1      40.546  31.758  32.127  1.00  0.00     0.167 HD
ATOM     50  C   UNL A   1      40.562  28.302  29.466  1.00  0.00     0.031 A 
ATOM     51  C   UNL A   1      41.572  33.368  34.163  1.00  0.00     0.031 A 
ATOM     52  C   UNL A   1      41.728  28.143  30.289  1.00  0.00     0.049 A 
ATOM     53  C   UNL A   1      42.490  32.181  34.076  1.00  0.00     0.074 A 
ATOM     54  C   UNL A   1      42.680  27.139  30.244  1.00  0.00     0.029 A 
ATOM     55  N   UNL A   1      42.098  29.006  31.305  1.00  0.00    -0.354 N 
ATOM     56  N   UNL A   1      42.447  31.166  33.248  1.00  0.00    -0.248 NA
ATOM     57  C   UNL A   1      43.601  32.124  35.039  1.00  0.00     0.031 C 
ATOM     58  C   UNL A   1      43.606  27.374  31.263  1.00  0.00     0.029 A 
ATOM     59  C   UNL A   1      43.256  28.549  31.909  1.00  0.00     0.049 A 
ATOM     60  H   UNL A   1      41.613  29.824  31.559  1.00  0.00     0.167 HD
ATOM     61  C   UNL A   1      43.533  30.362  33.573  1.00  0.00     0.074 A 
ATOM     62  C   UNL A   1      44.218  31.006  34.674  1.00  0.00     0.031 C 
ATOM     63  C   UNL A   1      43.925  29.199  33.004  1.00  0.00     0.031 A 
BRANCH  50  64
ATOM     64  C   UNL A   1      40.300  27.267  28.413  1.00  0.00    -0.014 A 
ATOM     65  C   UNL A   1      40.863  27.387  27.134  1.00  0.00     0.009 A 
ATOM     66  C   UNL A   1      39.551  26.125  28.728  1.00  0.00     0.009 A 
ATOM     67  C   UNL A   1      40.672  26.380  26.184  1.00  0.00     0.001 A 
ATOM     68  C   UNL A   1      39.376  25.113  27.784  1.00  0.00     0.001 A 
ATOM     69  C   UNL A   1      39.935  25.243  26.513  1.00  0.00     0.000 A 
ENDBRANCH  50  64
BRANCH  51  70
ATOM     70  C   UNL A   1      41.816  34.450  35.147  1.00  0.00    -0.014 A 
ATOM     71  C   UNL A   1      42.594  35.563  34.800  1.00  0.00     0.009 A 
ATOM     72  C   UNL A   1      41.239  34.393  36.425  1.00  0.00     0.009 A 
ATOM     73  C   UNL A   1      42.791  36.599  35.715  1.00  0.00     0.001 A 
ATOM     74  C   UNL A   1      41.423  35.438  37.332  1.00  0.00     0.001 A 
ATOM     75  C   UNL A   1      42.200  36.540  36.978  1.00  0.00     0.000 A 
ENDBRANCH  51  70
BRANCH  63  76
ATOM     76  C   UNL A   1      45.163  28.536  33.533  1.00  0.00    -0.014 A 
ATOM     77  C   UNL A   1      46.431  28.895  33.055  1.00  0.00     0.009 A 
ATOM     78  C   UNL A   1      45.063  27.637  34.606  1.00  0.00     0.009 A 
ATOM     79  C   UNL A   1      47.580  28.361  33.644  1.00  0.00     0.001 A 
ATOM     80  C   UNL A   1      46.214  27.121  35.204  1.00  0.00     0.001 A 
ATOM     81  C   UNL A   1      47.471  27.483  34.722  1.00  0.00     0.000 A 
ENDBRANCH  63  76
ENDBRANCH  37  38
ENDBRANCH  30  32
ENDBRANCH  29  30
ENDBRANCH  28  29
ENDBRANCH  27  28
ENDBRANCH   1  27
TORSDOF 17
ENDMDL
