MODEL 1
REMARK VINA RESULT:      -9.4      0.000      0.000
REMARK SMILES O=C(OCCOCCOC(=O)c1ccc(S(=O)(=O)Nc2cc(Cl)cc(Cl)c2)cc1)c1ccc(-c2c3nc(c(-c4ccccc4)c4ccc([nH]4)c(-c4ccccc4)c4nc(c(-c5ccccc5)c5ccc2[nH]5)C=C4)C=C3)cc1
REMARK SMILES IDX 7 1 6 2 5 3 4 4 3 5 2 6 1 7 30 8 31 9 77 10 32 11 76 12
REMARK SMILES IDX 33 13 34 14 35 15 70 16 36 17 75 18 69 19 71 20 37 21 74 22
REMARK SMILES IDX 68 23 67 24 38 26 60 27 45 28 59 29 46 30 49 31 58 32 72 33
REMARK SMILES IDX 47 34 48 35 57 37 73 38 50 39 39 40 40 41 44 42 41 43 43 44
REMARK SMILES IDX 42 45 61 46 62 47 66 48 63 49 65 50 64 51 51 52 52 53 56 54
REMARK SMILES IDX 53 55 55 56 54 57 8 58 9 59 10 60 11 61 12 62 13 63 29 64
REMARK SMILES IDX 14 65 28 66 15 67 16 68 17 69 18 70 19 71 20 73 21 74 27 75
REMARK SMILES IDX 22 76 25 77 23 78 24 79 26 80
REMARK H PARENT 71 25 49 36 19 72
REMARK Flexibility Score: inf
ROOT
ATOM      1  C   UNL A   1      34.032  37.443  32.519  1.00  0.00     0.202 C 
ENDROOT
BRANCH   1   2
ATOM      2  O   UNL A   1      32.878  37.513  31.670  1.00  0.00    -0.374 OA
BRANCH   2   3
ATOM      3  C   UNL A   1      32.522  36.311  30.985  1.00  0.00     0.202 C 
BRANCH   3   4
ATOM      4  C   UNL A   1      33.016  36.227  29.538  1.00  0.00     0.261 C 
BRANCH   4   5
ATOM      5  O   UNL A   1      32.462  35.068  28.888  1.00  0.00    -0.460 OA
BRANCH   5   6
ATOM      6  C   UNL A   1      33.119  34.035  28.310  1.00  0.00     0.338 C 
ATOM      7  O   UNL A   1      32.622  33.497  27.323  1.00  0.00    -0.246 OA
BRANCH   6   8
ATOM      8  C   UNL A   1      34.418  33.501  28.817  1.00  0.00     0.060 A 
ATOM      9  C   UNL A   1      34.550  32.684  29.939  1.00  0.00     0.016 A 
ATOM     10  C   UNL A   1      35.570  33.756  28.054  1.00  0.00     0.016 A 
ATOM     11  C   UNL A   1      35.777  32.193  30.343  1.00  0.00     0.010 A 
ATOM     12  C   UNL A   1      36.810  33.217  28.420  1.00  0.00     0.010 A 
ATOM     13  C   UNL A   1      36.911  32.438  29.577  1.00  0.00    -0.014 A 
BRANCH  13  14
ATOM     14  C   UNL A   1      38.180  31.896  30.085  1.00  0.00     0.031 A 
ATOM     15  C   UNL A   1      38.668  30.589  29.548  1.00  0.00     0.074 A 
ATOM     16  C   UNL A   1      38.955  32.682  30.857  1.00  0.00     0.049 A 
ATOM     17  N   UNL A   1      39.781  29.959  29.805  1.00  0.00    -0.248 NA
ATOM     18  C   UNL A   1      37.799  29.911  28.569  1.00  0.00     0.031 C 
ATOM     19  C   UNL A   1      38.602  34.033  31.308  1.00  0.00     0.029 A 
ATOM     20  N   UNL A   1      40.217  32.489  31.346  1.00  0.00    -0.354 N 
ATOM     21  C   UNL A   1      39.742  28.805  29.034  1.00  0.00     0.074 A 
ATOM     22  C   UNL A   1      38.492  28.814  28.307  1.00  0.00     0.031 C 
ATOM     23  C   UNL A   1      39.644  34.562  31.968  1.00  0.00     0.029 A 
ATOM     24  C   UNL A   1      40.702  33.564  32.052  1.00  0.00     0.049 A 
ATOM     25  H   UNL A   1      40.730  31.659  31.207  1.00  0.00     0.167 HD
ATOM     26  C   UNL A   1      40.671  27.826  28.950  1.00  0.00     0.031 A 
ATOM     27  C   UNL A   1      41.863  33.706  32.715  1.00  0.00     0.031 A 
ATOM     28  C   UNL A   1      41.894  27.835  29.703  1.00  0.00     0.049 A 
ATOM     29  C   UNL A   1      42.822  32.548  32.699  1.00  0.00     0.074 A 
ATOM     30  C   UNL A   1      42.868  26.859  29.786  1.00  0.00     0.029 A 
ATOM     31  N   UNL A   1      42.308  28.890  30.504  1.00  0.00    -0.354 N 
ATOM     32  N   UNL A   1      42.738  31.418  32.036  1.00  0.00    -0.248 NA
ATOM     33  C   UNL A   1      44.023  32.675  33.531  1.00  0.00     0.031 C 
ATOM     34  C   UNL A   1      43.852  27.307  30.676  1.00  0.00     0.029 A 
ATOM     35  C   UNL A   1      43.517  28.584  31.100  1.00  0.00     0.049 A 
ATOM     36  H   UNL A   1      41.813  29.732  30.631  1.00  0.00     0.167 HD
ATOM     37  C   UNL A   1      43.879  30.700  32.366  1.00  0.00     0.074 A 
ATOM     38  C   UNL A   1      44.654  31.542  33.257  1.00  0.00     0.031 C 
ATOM     39  C   UNL A   1      44.251  29.454  31.984  1.00  0.00     0.031 A 
BRANCH  26  40
ATOM     40  C   UNL A   1      40.344  26.650  28.077  1.00  0.00    -0.014 A 
ATOM     41  C   UNL A   1      39.533  25.599  28.536  1.00  0.00     0.009 A 
ATOM     42  C   UNL A   1      40.879  26.581  26.782  1.00  0.00     0.009 A 
ATOM     43  C   UNL A   1      39.294  24.488  27.723  1.00  0.00     0.001 A 
ATOM     44  C   UNL A   1      40.619  25.480  25.965  1.00  0.00     0.001 A 
ATOM     45  C   UNL A   1      39.834  24.430  26.439  1.00  0.00     0.000 A 
ENDBRANCH  26  40
BRANCH  27  46
ATOM     46  C   UNL A   1      42.143  34.933  33.511  1.00  0.00    -0.014 A 
ATOM     47  C   UNL A   1      42.957  35.960  33.009  1.00  0.00     0.009 A 
ATOM     48  C   UNL A   1      41.626  35.061  34.812  1.00  0.00     0.009 A 
ATOM     49  C   UNL A   1      43.274  37.066  33.805  1.00  0.00     0.001 A 
ATOM     50  C   UNL A   1      41.915  36.184  35.590  1.00  0.00     0.001 A 
ATOM     51  C   UNL A   1      42.752  37.179  35.092  1.00  0.00     0.000 A 
ENDBRANCH  27  46
BRANCH  39  52
ATOM     52  C   UNL A   1      45.561  28.956  32.518  1.00  0.00    -0.014 A 
ATOM     53  C   UNL A   1      46.761  29.195  31.833  1.00  0.00     0.009 A 
ATOM     54  C   UNL A   1      45.591  28.258  33.735  1.00  0.00     0.009 A 
ATOM     55  C   UNL A   1      47.966  28.707  32.338  1.00  0.00     0.001 A 
ATOM     56  C   UNL A   1      46.803  27.800  34.253  1.00  0.00     0.001 A 
ATOM     57  C   UNL A   1      47.986  28.015  33.548  1.00  0.00     0.000 A 
ENDBRANCH  39  52
ENDBRANCH  13  14
ENDBRANCH   6   8
ENDBRANCH   5   6
ENDBRANCH   4   5
ENDBRANCH   3   4
ENDBRANCH   2   3
ENDBRANCH   1   2
BRANCH   1  58
ATOM     58  C   UNL A   1      33.835  36.325  33.548  1.00  0.00     0.261 C 
BRANCH  58  59
ATOM     59  O   UNL A   1      35.021  35.519  33.534  1.00  0.00    -0.460 OA
BRANCH  59  60
ATOM     60  C   UNL A   1      34.770  34.190  33.618  1.00  0.00     0.338 C 
ATOM     61  O   UNL A   1      33.715  33.630  33.363  1.00  0.00    -0.246 OA
BRANCH  60  62
ATOM     62  C   UNL A   1      36.038  33.479  33.915  1.00  0.00     0.060 A 
ATOM     63  C   UNL A   1      36.204  32.191  33.394  1.00  0.00     0.017 A 
ATOM     64  C   UNL A   1      37.076  34.073  34.653  1.00  0.00     0.017 A 
ATOM     65  C   UNL A   1      37.317  31.438  33.756  1.00  0.00     0.023 A 
ATOM     66  C   UNL A   1      38.218  33.340  34.972  1.00  0.00     0.023 A 
ATOM     67  C   UNL A   1      38.272  31.989  34.618  1.00  0.00     0.087 A 
BRANCH  67  68
ATOM     68  S   UNL A   1      39.293  30.845  35.530  1.00  0.00     0.261 S 
ATOM     69  O   UNL A   1      38.716  30.723  36.852  1.00  0.00    -0.201 OA
ATOM     70  O   UNL A   1      39.499  29.693  34.681  1.00  0.00    -0.201 OA
BRANCH  68  71
ATOM     71  N   UNL A   1      40.809  31.567  35.716  1.00  0.00    -0.280 N 
ATOM     72  H   UNL A   1      41.391  31.630  34.925  1.00  0.00     0.180 HD
BRANCH  71  73
ATOM     73  C   UNL A   1      41.300  32.092  36.951  1.00  0.00     0.052 A 
ATOM     74  C   UNL A   1      40.444  32.953  37.645  1.00  0.00     0.047 A 
ATOM     75  C   UNL A   1      42.525  31.736  37.520  1.00  0.00     0.047 A 
ATOM     76  C   UNL A   1      40.752  33.351  38.945  1.00  0.00     0.044 A 
ATOM     77  C   UNL A   1      42.806  32.119  38.837  1.00  0.00     0.044 A 
ATOM     78  Cl  UNL A   1      39.641  34.335  39.814  1.00  0.00    -0.084 Cl
ATOM     79  C   UNL A   1      41.919  32.914  39.559  1.00  0.00     0.041 A 
ATOM     80  Cl  UNL A   1      44.227  31.531  39.609  1.00  0.00    -0.084 Cl
ENDBRANCH  71  73
ENDBRANCH  68  71
ENDBRANCH  67  68
ENDBRANCH  60  62
ENDBRANCH  59  60
ENDBRANCH  58  59
ENDBRANCH   1  58
TORSDOF 17
ENDMDL
MODEL 2
REMARK VINA RESULT:      -9.0      7.140     12.687
REMARK SMILES O=C(OCCOCCOC(=O)c1ccc(S(=O)(=O)Nc2cc(Cl)cc(Cl)c2)cc1)c1ccc(-c2c3nc(c(-c4ccccc4)c4ccc([nH]4)c(-c4ccccc4)c4nc(c(-c5ccccc5)c5ccc2[nH]5)C=C4)C=C3)cc1
REMARK SMILES IDX 7 1 6 2 5 3 4 4 3 5 2 6 1 7 30 8 31 9 77 10 32 11 76 12
REMARK SMILES IDX 33 13 34 14 35 15 70 16 36 17 75 18 69 19 71 20 37 21 74 22
REMARK SMILES IDX 68 23 67 24 38 26 60 27 45 28 59 29 46 30 49 31 58 32 72 33
REMARK SMILES IDX 47 34 48 35 57 37 73 38 50 39 39 40 40 41 44 42 41 43 43 44
REMARK SMILES IDX 42 45 61 46 62 47 66 48 63 49 65 50 64 51 51 52 52 53 56 54
REMARK SMILES IDX 53 55 55 56 54 57 8 58 9 59 10 60 11 61 12 62 13 63 29 64
REMARK SMILES IDX 14 65 28 66 15 67 16 68 17 69 18 70 19 71 20 73 21 74 27 75
REMARK SMILES IDX 22 76 25 77 23 78 24 79 26 80
REMARK H PARENT 71 25 49 36 19 72
REMARK Flexibility Score: inf
ROOT
ATOM      1  C   UNL A   1      35.651  18.285  24.565  1.00  0.00     0.202 C 
ENDROOT
BRANCH   1   2
ATOM      2  O   UNL A   1      36.399  19.387  25.097  1.00  0.00    -0.374 OA
BRANCH   2   3
ATOM      3  C   UNL A   1      37.750  19.511  24.648  1.00  0.00     0.202 C 
BRANCH   3   4
ATOM      4  C   UNL A   1      38.753  19.907  25.736  1.00  0.00     0.261 C 
BRANCH   4   5
ATOM      5  O   UNL A   1      39.913  19.057  25.678  1.00  0.00    -0.460 OA
BRANCH   5   6
ATOM      6  C   UNL A   1      41.200  19.372  25.959  1.00  0.00     0.338 C 
ATOM      7  O   UNL A   1      42.063  18.508  25.819  1.00  0.00    -0.246 OA
BRANCH   6   8
ATOM      8  C   UNL A   1      41.629  20.717  26.448  1.00  0.00     0.060 A 
ATOM      9  C   UNL A   1      41.819  21.828  25.629  1.00  0.00     0.016 A 
ATOM     10  C   UNL A   1      41.752  20.897  27.836  1.00  0.00     0.016 A 
ATOM     11  C   UNL A   1      42.187  23.057  26.141  1.00  0.00     0.010 A 
ATOM     12  C   UNL A   1      42.067  22.151  28.373  1.00  0.00     0.010 A 
ATOM     13  C   UNL A   1      42.293  23.233  27.517  1.00  0.00    -0.014 A 
BRANCH  13  14
ATOM     14  C   UNL A   1      42.707  24.567  27.981  1.00  0.00     0.031 A 
ATOM     15  C   UNL A   1      44.155  24.933  27.912  1.00  0.00     0.074 A 
ATOM     16  C   UNL A   1      41.755  25.478  28.258  1.00  0.00     0.049 A 
ATOM     17  N   UNL A   1      44.731  26.066  28.206  1.00  0.00    -0.248 NA
ATOM     18  C   UNL A   1      45.077  23.893  27.421  1.00  0.00     0.031 C 
ATOM     19  C   UNL A   1      40.309  25.230  28.210  1.00  0.00     0.029 A 
ATOM     20  N   UNL A   1      41.853  26.805  28.572  1.00  0.00    -0.354 N 
ATOM     21  C   UNL A   1      46.082  25.873  27.951  1.00  0.00     0.074 A 
ATOM     22  C   UNL A   1      46.244  24.513  27.488  1.00  0.00     0.031 C 
ATOM     23  C   UNL A   1      39.658  26.380  28.440  1.00  0.00     0.029 A 
ATOM     24  C   UNL A   1      40.634  27.423  28.726  1.00  0.00     0.049 A 
ATOM     25  H   UNL A   1      42.712  27.274  28.679  1.00  0.00     0.167 HD
ATOM     26  C   UNL A   1      47.093  26.759  28.098  1.00  0.00     0.031 A 
ATOM     27  C   UNL A   1      40.349  28.686  29.087  1.00  0.00     0.031 A 
ATOM     28  C   UNL A   1      46.902  28.098  28.582  1.00  0.00     0.049 A 
ATOM     29  C   UNL A   1      41.502  29.612  29.358  1.00  0.00     0.074 A 
ATOM     30  C   UNL A   1      47.852  29.059  28.872  1.00  0.00     0.029 A 
ATOM     31  N   UNL A   1      45.661  28.663  28.841  1.00  0.00    -0.354 N 
ATOM     32  N   UNL A   1      42.788  29.396  29.200  1.00  0.00    -0.248 NA
ATOM     33  C   UNL A   1      41.171  30.945  29.872  1.00  0.00     0.031 C 
ATOM     34  C   UNL A   1      47.184  30.193  29.351  1.00  0.00     0.029 A 
ATOM     35  C   UNL A   1      45.819  29.956  29.304  1.00  0.00     0.049 A 
ATOM     36  H   UNL A   1      44.796  28.210  28.715  1.00  0.00     0.167 HD
ATOM     37  C   UNL A   1      43.420  30.567  29.589  1.00  0.00     0.074 A 
ATOM     38  C   UNL A   1      42.371  31.501  29.953  1.00  0.00     0.031 C 
ATOM     39  C   UNL A   1      44.744  30.848  29.657  1.00  0.00     0.031 A 
BRANCH  26  40
ATOM     40  C   UNL A   1      48.479  26.265  27.806  1.00  0.00    -0.014 A 
ATOM     41  C   UNL A   1      49.243  25.604  28.781  1.00  0.00     0.009 A 
ATOM     42  C   UNL A   1      49.040  26.489  26.539  1.00  0.00     0.009 A 
ATOM     43  C   UNL A   1      50.553  25.207  28.501  1.00  0.00     0.001 A 
ATOM     44  C   UNL A   1      50.341  26.071  26.256  1.00  0.00     0.001 A 
ATOM     45  C   UNL A   1      51.100  25.439  27.239  1.00  0.00     0.000 A 
ENDBRANCH  26  40
BRANCH  27  46
ATOM     46  C   UNL A   1      38.940  29.121  29.297  1.00  0.00    -0.014 A 
ATOM     47  C   UNL A   1      38.304  28.964  30.538  1.00  0.00     0.009 A 
ATOM     48  C   UNL A   1      38.204  29.660  28.228  1.00  0.00     0.009 A 
ATOM     49  C   UNL A   1      36.956  29.303  30.691  1.00  0.00     0.001 A 
ATOM     50  C   UNL A   1      36.868  30.033  28.394  1.00  0.00     0.001 A 
ATOM     51  C   UNL A   1      36.240  29.839  29.622  1.00  0.00     0.000 A 
ENDBRANCH  27  46
BRANCH  39  52
ATOM     52  C   UNL A   1      45.111  32.227  30.122  1.00  0.00    -0.014 A 
ATOM     53  C   UNL A   1      45.236  33.288  29.213  1.00  0.00     0.009 A 
ATOM     54  C   UNL A   1      45.310  32.466  31.490  1.00  0.00     0.009 A 
ATOM     55  C   UNL A   1      45.595  34.558  29.663  1.00  0.00     0.001 A 
ATOM     56  C   UNL A   1      45.637  33.745  31.939  1.00  0.00     0.001 A 
ATOM     57  C   UNL A   1      45.791  34.786  31.025  1.00  0.00     0.000 A 
ENDBRANCH  39  52
ENDBRANCH  13  14
ENDBRANCH   6   8
ENDBRANCH   5   6
ENDBRANCH   4   5
ENDBRANCH   3   4
ENDBRANCH   2   3
ENDBRANCH   1   2
BRANCH   1  58
ATOM     58  C   UNL A   1      34.166  18.660  24.516  1.00  0.00     0.261 C 
BRANCH  58  59
ATOM     59  O   UNL A   1      34.042  19.983  25.053  1.00  0.00    -0.460 OA
BRANCH  59  60
ATOM     60  C   UNL A   1      32.845  20.561  24.791  1.00  0.00     0.338 C 
ATOM     61  O   UNL A   1      31.791  20.349  25.368  1.00  0.00    -0.246 OA
BRANCH  60  62
ATOM     62  C   UNL A   1      33.040  21.634  23.784  1.00  0.00     0.060 A 
ATOM     63  C   UNL A   1      34.029  22.593  24.032  1.00  0.00     0.017 A 
ATOM     64  C   UNL A   1      32.303  21.685  22.589  1.00  0.00     0.017 A 
ATOM     65  C   UNL A   1      34.157  23.688  23.184  1.00  0.00     0.023 A 
ATOM     66  C   UNL A   1      32.468  22.753  21.708  1.00  0.00     0.023 A 
ATOM     67  C   UNL A   1      33.310  23.805  22.075  1.00  0.00     0.087 A 
BRANCH  67  68
ATOM     68  S   UNL A   1      33.070  25.443  21.411  1.00  0.00     0.261 S 
ATOM     69  O   UNL A   1      34.047  26.304  22.042  1.00  0.00    -0.201 OA
ATOM     70  O   UNL A   1      32.990  25.309  19.973  1.00  0.00    -0.201 OA
BRANCH  68  71
ATOM     71  N   UNL A   1      31.546  25.969  21.918  1.00  0.00    -0.280 N 
ATOM     72  H   UNL A   1      30.845  26.080  21.235  1.00  0.00     0.180 HD
BRANCH  71  73
ATOM     73  C   UNL A   1      31.212  26.265  23.275  1.00  0.00     0.052 A 
ATOM     74  C   UNL A   1      30.784  25.188  24.059  1.00  0.00     0.047 A 
ATOM     75  C   UNL A   1      31.361  27.524  23.861  1.00  0.00     0.047 A 
ATOM     76  C   UNL A   1      30.631  25.341  25.436  1.00  0.00     0.044 A 
ATOM     77  C   UNL A   1      31.233  27.654  25.248  1.00  0.00     0.044 A 
ATOM     78  Cl  UNL A   1      30.194  23.981  26.394  1.00  0.00    -0.084 Cl
ATOM     79  C   UNL A   1      30.882  26.565  26.043  1.00  0.00     0.041 A 
ATOM     80  Cl  UNL A   1      31.596  29.160  25.999  1.00  0.00    -0.084 Cl
ENDBRANCH  71  73
ENDBRANCH  68  71
ENDBRANCH  67  68
ENDBRANCH  60  62
ENDBRANCH  59  60
ENDBRANCH  58  59
ENDBRANCH   1  58
TORSDOF 17
ENDMDL
MODEL 3
REMARK VINA RESULT:      -9.0      6.128     11.987
REMARK SMILES O=C(OCCOCCOC(=O)c1ccc(S(=O)(=O)Nc2cc(Cl)cc(Cl)c2)cc1)c1ccc(-c2c3nc(c(-c4ccccc4)c4ccc([nH]4)c(-c4ccccc4)c4nc(c(-c5ccccc5)c5ccc2[nH]5)C=C4)C=C3)cc1
REMARK SMILES IDX 7 1 6 2 5 3 4 4 3 5 2 6 1 7 30 8 31 9 77 10 32 11 76 12
REMARK SMILES IDX 33 13 34 14 35 15 70 16 36 17 75 18 69 19 71 20 37 21 74 22
REMARK SMILES IDX 68 23 67 24 38 26 60 27 45 28 59 29 46 30 49 31 58 32 72 33
REMARK SMILES IDX 47 34 48 35 57 37 73 38 50 39 39 40 40 41 44 42 41 43 43 44
REMARK SMILES IDX 42 45 61 46 62 47 66 48 63 49 65 50 64 51 51 52 52 53 56 54
REMARK SMILES IDX 53 55 55 56 54 57 8 58 9 59 10 60 11 61 12 62 13 63 29 64
REMARK SMILES IDX 14 65 28 66 15 67 16 68 17 69 18 70 19 71 20 73 21 74 27 75
REMARK SMILES IDX 22 76 25 77 23 78 24 79 26 80
REMARK H PARENT 71 25 49 36 19 72
REMARK Flexibility Score: inf
ROOT
ATOM      1  C   UNL A   1      39.278  21.700  26.372  1.00  0.00     0.202 C 
ENDROOT
BRANCH   1   2
ATOM      2  O   UNL A   1      40.540  21.923  25.729  1.00  0.00    -0.374 OA
BRANCH   2   3
ATOM      3  C   UNL A   1      41.598  21.029  26.081  1.00  0.00     0.202 C 
BRANCH   3   4
ATOM      4  C   UNL A   1      43.003  21.531  25.740  1.00  0.00     0.261 C 
BRANCH   4   5
ATOM      5  O   UNL A   1      42.925  22.731  24.949  1.00  0.00    -0.460 OA
BRANCH   5   6
ATOM      6  C   UNL A   1      43.447  23.951  25.219  1.00  0.00     0.338 C 
ATOM      7  O   UNL A   1      44.375  24.363  24.526  1.00  0.00    -0.246 OA
BRANCH   6   8
ATOM      8  C   UNL A   1      42.963  24.825  26.329  1.00  0.00     0.060 A 
ATOM      9  C   UNL A   1      42.156  24.390  27.379  1.00  0.00     0.016 A 
ATOM     10  C   UNL A   1      43.434  26.148  26.370  1.00  0.00     0.016 A 
ATOM     11  C   UNL A   1      41.764  25.238  28.397  1.00  0.00     0.010 A 
ATOM     12  C   UNL A   1      43.091  27.001  27.426  1.00  0.00     0.010 A 
ATOM     13  C   UNL A   1      42.245  26.542  28.439  1.00  0.00    -0.014 A 
BRANCH  13  14
ATOM     14  C   UNL A   1      41.765  27.386  29.545  1.00  0.00     0.031 A 
ATOM     15  C   UNL A   1      42.595  27.482  30.786  1.00  0.00     0.074 A 
ATOM     16  C   UNL A   1      40.712  28.196  29.330  1.00  0.00     0.049 A 
ATOM     17  N   UNL A   1      42.399  28.209  31.851  1.00  0.00    -0.248 NA
ATOM     18  C   UNL A   1      43.825  26.671  30.823  1.00  0.00     0.031 C 
ATOM     19  C   UNL A   1      39.935  28.258  28.085  1.00  0.00     0.029 A 
ATOM     20  N   UNL A   1      40.151  29.163  30.118  1.00  0.00    -0.354 N 
ATOM     21  C   UNL A   1      43.469  27.934  32.691  1.00  0.00     0.074 A 
ATOM     22  C   UNL A   1      44.308  26.966  32.019  1.00  0.00     0.031 C 
ATOM     23  C   UNL A   1      39.030  29.244  28.181  1.00  0.00     0.029 A 
ATOM     24  C   UNL A   1      39.111  29.828  29.513  1.00  0.00     0.049 A 
ATOM     25  H   UNL A   1      40.461  29.362  31.031  1.00  0.00     0.167 HD
ATOM     26  C   UNL A   1      43.720  28.445  33.917  1.00  0.00     0.031 A 
ATOM     27  C   UNL A   1      38.301  30.783  30.001  1.00  0.00     0.031 A 
ATOM     28  C   UNL A   1      42.854  29.389  34.569  1.00  0.00     0.049 A 
ATOM     29  C   UNL A   1      38.535  31.243  31.413  1.00  0.00     0.074 A 
ATOM     30  C   UNL A   1      42.940  29.905  35.847  1.00  0.00     0.029 A 
ATOM     31  N   UNL A   1      41.739  29.962  33.974  1.00  0.00    -0.354 N 
ATOM     32  N   UNL A   1      39.502  30.912  32.238  1.00  0.00    -0.248 NA
ATOM     33  C   UNL A   1      37.564  32.192  31.968  1.00  0.00     0.031 C 
ATOM     34  C   UNL A   1      41.847  30.758  36.041  1.00  0.00     0.029 A 
ATOM     35  C   UNL A   1      41.116  30.816  34.864  1.00  0.00     0.049 A 
ATOM     36  H   UNL A   1      41.435  29.786  33.054  1.00  0.00     0.167 HD
ATOM     37  C   UNL A   1      39.259  31.616  33.408  1.00  0.00     0.074 A 
ATOM     38  C   UNL A   1      38.076  32.420  33.168  1.00  0.00     0.031 C 
ATOM     39  C   UNL A   1      39.936  31.594  34.582  1.00  0.00     0.031 A 
BRANCH  26  40
ATOM     40  C   UNL A   1      44.928  27.923  34.639  1.00  0.00    -0.014 A 
ATOM     41  C   UNL A   1      44.861  26.779  35.450  1.00  0.00     0.009 A 
ATOM     42  C   UNL A   1      46.148  28.607  34.525  1.00  0.00     0.009 A 
ATOM     43  C   UNL A   1      45.987  26.350  36.157  1.00  0.00     0.001 A 
ATOM     44  C   UNL A   1      47.276  28.162  35.216  1.00  0.00     0.001 A 
ATOM     45  C   UNL A   1      47.193  27.040  36.038  1.00  0.00     0.000 A 
ENDBRANCH  26  40
BRANCH  27  46
ATOM     46  C   UNL A   1      37.157  31.298  29.198  1.00  0.00    -0.014 A 
ATOM     47  C   UNL A   1      37.136  32.615  28.715  1.00  0.00     0.009 A 
ATOM     48  C   UNL A   1      36.045  30.474  28.950  1.00  0.00     0.009 A 
ATOM     49  C   UNL A   1      36.016  33.103  28.034  1.00  0.00     0.001 A 
ATOM     50  C   UNL A   1      34.943  30.952  28.238  1.00  0.00     0.001 A 
ATOM     51  C   UNL A   1      34.923  32.272  27.793  1.00  0.00     0.000 A 
ENDBRANCH  27  46
BRANCH  39  52
ATOM     52  C   UNL A   1      39.415  32.484  35.671  1.00  0.00    -0.014 A 
ATOM     53  C   UNL A   1      38.511  32.003  36.629  1.00  0.00     0.009 A 
ATOM     54  C   UNL A   1      39.856  33.814  35.747  1.00  0.00     0.009 A 
ATOM     55  C   UNL A   1      38.025  32.853  37.623  1.00  0.00     0.001 A 
ATOM     56  C   UNL A   1      39.392  34.651  36.762  1.00  0.00     0.001 A 
ATOM     57  C   UNL A   1      38.469  34.173  37.691  1.00  0.00     0.000 A 
ENDBRANCH  39  52
ENDBRANCH  13  14
ENDBRANCH   6   8
ENDBRANCH   5   6
ENDBRANCH   4   5
ENDBRANCH   3   4
ENDBRANCH   2   3
ENDBRANCH   1   2
BRANCH   1  58
ATOM     58  C   UNL A   1      38.315  21.041  25.378  1.00  0.00     0.261 C 
BRANCH  58  59
ATOM     59  O   UNL A   1      37.028  21.643  25.568  1.00  0.00    -0.460 OA
BRANCH  59  60
ATOM     60  C   UNL A   1      36.545  22.245  24.454  1.00  0.00     0.338 C 
ATOM     61  O   UNL A   1      37.095  22.312  23.366  1.00  0.00    -0.246 OA
BRANCH  60  62
ATOM     62  C   UNL A   1      35.149  22.678  24.708  1.00  0.00     0.060 A 
ATOM     63  C   UNL A   1      34.918  23.539  25.786  1.00  0.00     0.017 A 
ATOM     64  C   UNL A   1      34.081  22.290  23.882  1.00  0.00     0.017 A 
ATOM     65  C   UNL A   1      33.612  23.865  26.141  1.00  0.00     0.023 A 
ATOM     66  C   UNL A   1      32.775  22.661  24.203  1.00  0.00     0.023 A 
ATOM     67  C   UNL A   1      32.545  23.346  25.398  1.00  0.00     0.087 A 
BRANCH  67  68
ATOM     68  S   UNL A   1      30.961  23.254  26.215  1.00  0.00     0.261 S 
ATOM     69  O   UNL A   1      30.313  22.047  25.748  1.00  0.00    -0.201 OA
ATOM     70  O   UNL A   1      31.195  23.497  27.621  1.00  0.00    -0.201 OA
BRANCH  68  71
ATOM     71  N   UNL A   1      30.038  24.557  25.662  1.00  0.00    -0.280 N 
ATOM     72  H   UNL A   1      29.078  24.407  25.499  1.00  0.00     0.180 HD
BRANCH  71  73
ATOM     73  C   UNL A   1      30.563  25.862  25.414  1.00  0.00     0.052 A 
ATOM     74  C   UNL A   1      30.326  26.398  24.144  1.00  0.00     0.047 A 
ATOM     75  C   UNL A   1      31.217  26.637  26.375  1.00  0.00     0.047 A 
ATOM     76  C   UNL A   1      30.623  27.734  23.880  1.00  0.00     0.044 A 
ATOM     77  C   UNL A   1      31.481  27.985  26.105  1.00  0.00     0.044 A 
ATOM     78  Cl  UNL A   1      30.238  28.397  22.341  1.00  0.00    -0.084 Cl
ATOM     79  C   UNL A   1      31.175  28.542  24.865  1.00  0.00     0.041 A 
ATOM     80  Cl  UNL A   1      32.116  28.994  27.347  1.00  0.00    -0.084 Cl
ENDBRANCH  71  73
ENDBRANCH  68  71
ENDBRANCH  67  68
ENDBRANCH  60  62
ENDBRANCH  59  60
ENDBRANCH  58  59
ENDBRANCH   1  58
TORSDOF 17
ENDMDL
