MODEL 1
REMARK VINA RESULT:     -10.7      0.000      0.000
REMARK SMILES C[C@@H](C(=O)OCCOCCOC(=O)c1ccc(-c2c3nc(c(-c4ccccc4)c4ccc([nH]4)c(-c4ccccc4)c4nc(c(-c5ccccc5)c5ccc2[nH]5)C=C4)C=C3)cc1)c1cc(C(=O)c2ccccc2)ccc1O
REMARK SMILES IDX 7 1 6 2 5 3 3 4 4 5 2 6 1 7 62 8 63 9 75 10 64 11 74 12
REMARK SMILES IDX 73 13 76 14 65 16 66 17 67 18 68 19 72 20 69 21 71 22 70 23
REMARK SMILES IDX 8 24 9 25 10 26 11 27 12 28 13 29 14 30 15 31 61 32 16 33
REMARK SMILES IDX 60 34 17 35 18 36 19 37 54 38 20 39 59 40 53 41 55 42 21 43
REMARK SMILES IDX 58 44 52 45 51 46 22 48 44 49 29 50 43 51 30 52 33 53 42 54
REMARK SMILES IDX 56 55 31 56 32 57 41 59 57 60 34 61 23 62 24 63 28 64 25 65
REMARK SMILES IDX 27 66 26 67 45 68 46 69 50 70 47 71 49 72 48 73 35 74 36 75
REMARK SMILES IDX 40 76 37 77 39 78 38 79
REMARK H PARENT 76 15 55 47 33 58
REMARK Flexibility Score: inf
ROOT
ATOM      1  C   UNL A   1      33.411  20.600  25.491  1.00  0.00     0.202 C 
ENDROOT
BRANCH   1   2
ATOM      2  C   UNL A   1      32.396  21.407  24.671  1.00  0.00     0.261 C 
BRANCH   2   3
ATOM      3  O   UNL A   1      33.035  22.024  23.529  1.00  0.00    -0.463 OA
BRANCH   3   4
ATOM      4  C   UNL A   1      32.681  23.314  23.266  1.00  0.00     0.313 C 
ATOM      5  O   UNL A   1      31.521  23.713  23.240  1.00  0.00    -0.252 OA
BRANCH   4   6
ATOM      6  C   UNL A   1      33.890  24.210  22.948  1.00  0.00     0.130 C 
ATOM      7  C   UNL A   1      35.218  23.772  23.567  1.00  0.00     0.025 C 
BRANCH   6   8
ATOM      8  C   UNL A   1      33.579  25.679  23.228  1.00  0.00     0.009 A 
ATOM      9  C   UNL A   1      33.480  26.128  24.554  1.00  0.00     0.020 A 
ATOM     10  C   UNL A   1      33.456  26.642  22.220  1.00  0.00     0.119 A 
ATOM     11  C   UNL A   1      33.343  27.496  24.839  1.00  0.00     0.023 A 
ATOM     12  C   UNL A   1      33.446  28.003  22.487  1.00  0.00     0.047 A 
ATOM     13  C   UNL A   1      33.422  28.434  23.804  1.00  0.00     0.016 A 
BRANCH  10  14
ATOM     14  O   UNL A   1      33.269  26.288  20.923  1.00  0.00    -0.508 OA
ATOM     15  H   UNL A   1      33.193  25.384  20.689  1.00  0.00     0.293 HD
ENDBRANCH  10  14
BRANCH  11  16
ATOM     16  C   UNL A   1      33.103  27.920  26.245  1.00  0.00     0.193 C 
ATOM     17  O   UNL A   1      32.325  27.298  26.960  1.00  0.00    -0.289 OA
BRANCH  16  18
ATOM     18  C   UNL A   1      33.800  29.112  26.790  1.00  0.00     0.022 A 
ATOM     19  C   UNL A   1      33.055  30.272  27.014  1.00  0.00     0.012 A 
ATOM     20  C   UNL A   1      35.162  29.071  27.122  1.00  0.00     0.012 A 
ATOM     21  C   UNL A   1      33.659  31.369  27.628  1.00  0.00     0.001 A 
ATOM     22  C   UNL A   1      35.757  30.168  27.744  1.00  0.00     0.001 A 
ATOM     23  C   UNL A   1      35.002  31.311  28.005  1.00  0.00     0.000 A 
ENDBRANCH  16  18
ENDBRANCH  11  16
ENDBRANCH   6   8
ENDBRANCH   4   6
ENDBRANCH   3   4
ENDBRANCH   2   3
ENDBRANCH   1   2
BRANCH   1  24
ATOM     24  O   UNL A   1      34.679  20.339  24.876  1.00  0.00    -0.374 OA
BRANCH  24  25
ATOM     25  C   UNL A   1      35.798  21.025  25.427  1.00  0.00     0.202 C 
BRANCH  25  26
ATOM     26  C   UNL A   1      37.184  20.478  25.064  1.00  0.00     0.261 C 
BRANCH  26  27
ATOM     27  O   UNL A   1      38.194  21.493  25.094  1.00  0.00    -0.460 OA
BRANCH  27  28
ATOM     28  C   UNL A   1      39.194  21.228  25.965  1.00  0.00     0.338 C 
ATOM     29  O   UNL A   1      39.784  20.169  26.128  1.00  0.00    -0.246 OA
BRANCH  28  30
ATOM     30  C   UNL A   1      39.625  22.473  26.613  1.00  0.00     0.060 A 
ATOM     31  C   UNL A   1      38.985  23.651  26.212  1.00  0.00     0.016 A 
ATOM     32  C   UNL A   1      40.664  22.501  27.546  1.00  0.00     0.016 A 
ATOM     33  C   UNL A   1      39.423  24.876  26.697  1.00  0.00     0.010 A 
ATOM     34  C   UNL A   1      41.109  23.734  28.027  1.00  0.00     0.010 A 
ATOM     35  C   UNL A   1      40.517  24.925  27.570  1.00  0.00    -0.014 A 
BRANCH  35  36
ATOM     36  C   UNL A   1      41.142  26.235  27.855  1.00  0.00     0.031 A 
ATOM     37  C   UNL A   1      42.488  26.537  27.259  1.00  0.00     0.074 A 
ATOM     38  C   UNL A   1      40.491  27.159  28.581  1.00  0.00     0.049 A 
ATOM     39  N   UNL A   1      43.212  27.621  27.354  1.00  0.00    -0.248 NA
ATOM     40  C   UNL A   1      43.098  25.474  26.443  1.00  0.00     0.031 C 
ATOM     41  C   UNL A   1      39.158  26.995  29.162  1.00  0.00     0.029 A 
ATOM     42  N   UNL A   1      40.865  28.427  28.944  1.00  0.00    -0.354 N 
ATOM     43  C   UNL A   1      44.364  27.369  26.618  1.00  0.00     0.074 A 
ATOM     44  C   UNL A   1      44.257  26.020  26.108  1.00  0.00     0.031 C 
ATOM     45  C   UNL A   1      38.824  28.127  29.806  1.00  0.00     0.029 A 
ATOM     46  C   UNL A   1      39.929  29.077  29.710  1.00  0.00     0.049 A 
ATOM     47  H   UNL A   1      41.723  28.832  28.680  1.00  0.00     0.167 HD
ATOM     48  C   UNL A   1      45.413  28.191  26.385  1.00  0.00     0.031 A 
ATOM     49  C   UNL A   1      39.972  30.295  30.281  1.00  0.00     0.031 A 
ATOM     50  C   UNL A   1      45.519  29.528  26.904  1.00  0.00     0.049 A 
ATOM     51  C   UNL A   1      41.188  31.159  30.073  1.00  0.00     0.074 A 
ATOM     52  C   UNL A   1      46.533  30.449  26.716  1.00  0.00     0.029 A 
ATOM     53  N   UNL A   1      44.576  30.129  27.724  1.00  0.00    -0.354 N 
ATOM     54  N   UNL A   1      42.259  30.920  29.355  1.00  0.00    -0.248 NA
ATOM     55  C   UNL A   1      41.194  32.463  30.750  1.00  0.00     0.031 C 
ATOM     56  C   UNL A   1      46.233  31.587  27.472  1.00  0.00     0.029 A 
ATOM     57  C   UNL A   1      45.001  31.398  28.079  1.00  0.00     0.049 A 
ATOM     58  H   UNL A   1      43.731  29.715  28.013  1.00  0.00     0.167 HD
ATOM     59  C   UNL A   1      43.053  32.055  29.470  1.00  0.00     0.074 A 
ATOM     60  C   UNL A   1      42.332  32.986  30.314  1.00  0.00     0.031 C 
ATOM     61  C   UNL A   1      44.268  32.307  28.923  1.00  0.00     0.031 A 
BRANCH  48  62
ATOM     62  C   UNL A   1      46.551  27.646  25.566  1.00  0.00    -0.014 A 
ATOM     63  C   UNL A   1      47.542  26.830  26.137  1.00  0.00     0.009 A 
ATOM     64  C   UNL A   1      46.618  27.937  24.195  1.00  0.00     0.009 A 
ATOM     65  C   UNL A   1      48.594  26.346  25.356  1.00  0.00     0.001 A 
ATOM     66  C   UNL A   1      47.655  27.427  23.411  1.00  0.00     0.001 A 
ATOM     67  C   UNL A   1      48.647  26.640  23.994  1.00  0.00     0.000 A 
ENDBRANCH  48  62
BRANCH  49  68
ATOM     68  C   UNL A   1      38.836  30.768  31.115  1.00  0.00    -0.014 A 
ATOM     69  C   UNL A   1      38.790  30.488  32.489  1.00  0.00     0.009 A 
ATOM     70  C   UNL A   1      37.783  31.492  30.535  1.00  0.00     0.009 A 
ATOM     71  C   UNL A   1      37.699  30.902  33.260  1.00  0.00     0.001 A 
ATOM     72  C   UNL A   1      36.707  31.929  31.312  1.00  0.00     0.001 A 
ATOM     73  C   UNL A   1      36.663  31.626  32.672  1.00  0.00     0.000 A 
ENDBRANCH  49  68
BRANCH  61  74
ATOM     74  C   UNL A   1      44.876  33.654  29.192  1.00  0.00    -0.014 A 
ATOM     75  C   UNL A   1      45.742  33.863  30.277  1.00  0.00     0.009 A 
ATOM     76  C   UNL A   1      44.613  34.720  28.317  1.00  0.00     0.009 A 
ATOM     77  C   UNL A   1      46.302  35.122  30.501  1.00  0.00     0.001 A 
ATOM     78  C   UNL A   1      45.199  35.970  28.525  1.00  0.00     0.001 A 
ATOM     79  C   UNL A   1      46.034  36.172  29.621  1.00  0.00     0.000 A 
ENDBRANCH  61  74
ENDBRANCH  35  36
ENDBRANCH  28  30
ENDBRANCH  27  28
ENDBRANCH  26  27
ENDBRANCH  25  26
ENDBRANCH  24  25
ENDBRANCH   1  24
TORSDOF 18
ENDMDL
MODEL 2
REMARK VINA RESULT:     -10.5      0.304      5.900
REMARK SMILES C[C@@H](C(=O)OCCOCCOC(=O)c1ccc(-c2c3nc(c(-c4ccccc4)c4ccc([nH]4)c(-c4ccccc4)c4nc(c(-c5ccccc5)c5ccc2[nH]5)C=C4)C=C3)cc1)c1cc(C(=O)c2ccccc2)ccc1O
REMARK SMILES IDX 7 1 6 2 5 3 3 4 4 5 2 6 1 7 62 8 63 9 75 10 64 11 74 12
REMARK SMILES IDX 73 13 76 14 65 16 66 17 67 18 68 19 72 20 69 21 71 22 70 23
REMARK SMILES IDX 8 24 9 25 10 26 11 27 12 28 13 29 14 30 15 31 61 32 16 33
REMARK SMILES IDX 60 34 17 35 18 36 19 37 54 38 20 39 59 40 53 41 55 42 21 43
REMARK SMILES IDX 58 44 52 45 51 46 22 48 44 49 29 50 43 51 30 52 33 53 42 54
REMARK SMILES IDX 56 55 31 56 32 57 41 59 57 60 34 61 23 62 24 63 28 64 25 65
REMARK SMILES IDX 27 66 26 67 45 68 46 69 50 70 47 71 49 72 48 73 35 74 36 75
REMARK SMILES IDX 40 76 37 77 39 78 38 79
REMARK H PARENT 76 15 55 47 33 58
REMARK Flexibility Score: inf
ROOT
ATOM      1  C   UNL A   1      33.316  20.575  25.542  1.00  0.00     0.202 C 
ENDROOT
BRANCH   1   2
ATOM      2  C   UNL A   1      32.322  21.409  24.723  1.00  0.00     0.261 C 
BRANCH   2   3
ATOM      3  O   UNL A   1      32.986  22.048  23.608  1.00  0.00    -0.463 OA
BRANCH   3   4
ATOM      4  C   UNL A   1      32.642  23.346  23.368  1.00  0.00     0.313 C 
ATOM      5  O   UNL A   1      31.491  23.767  23.412  1.00  0.00    -0.252 OA
BRANCH   4   6
ATOM      6  C   UNL A   1      33.847  24.219  22.978  1.00  0.00     0.130 C 
ATOM      7  C   UNL A   1      35.197  23.767  23.537  1.00  0.00     0.025 C 
BRANCH   6   8
ATOM      8  C   UNL A   1      33.572  25.696  23.253  1.00  0.00     0.009 A 
ATOM      9  C   UNL A   1      33.388  26.133  24.574  1.00  0.00     0.020 A 
ATOM     10  C   UNL A   1      33.567  26.673  22.252  1.00  0.00     0.119 A 
ATOM     11  C   UNL A   1      33.282  27.503  24.866  1.00  0.00     0.023 A 
ATOM     12  C   UNL A   1      33.589  28.031  22.536  1.00  0.00     0.047 A 
ATOM     13  C   UNL A   1      33.479  28.448  23.854  1.00  0.00     0.016 A 
BRANCH  10  14
ATOM     14  O   UNL A   1      33.468  26.341  20.939  1.00  0.00    -0.508 OA
ATOM     15  H   UNL A   1      32.641  26.086  20.581  1.00  0.00     0.293 HD
ENDBRANCH  10  14
BRANCH  11  16
ATOM     16  C   UNL A   1      32.949  27.922  26.255  1.00  0.00     0.193 C 
ATOM     17  O   UNL A   1      32.085  27.331  26.893  1.00  0.00    -0.289 OA
BRANCH  16  18
ATOM     18  C   UNL A   1      33.659  29.068  26.875  1.00  0.00     0.022 A 
ATOM     19  C   UNL A   1      35.023  28.938  27.143  1.00  0.00     0.012 A 
ATOM     20  C   UNL A   1      32.997  30.275  27.145  1.00  0.00     0.012 A 
ATOM     21  C   UNL A   1      35.738  30.036  27.622  1.00  0.00     0.001 A 
ATOM     22  C   UNL A   1      33.719  31.372  27.614  1.00  0.00     0.001 A 
ATOM     23  C   UNL A   1      35.090  31.254  27.842  1.00  0.00     0.000 A 
ENDBRANCH  16  18
ENDBRANCH  11  16
ENDBRANCH   6   8
ENDBRANCH   4   6
ENDBRANCH   3   4
ENDBRANCH   2   3
ENDBRANCH   1   2
BRANCH   1  24
ATOM     24  O   UNL A   1      34.571  20.272  24.921  1.00  0.00    -0.374 OA
BRANCH  24  25
ATOM     25  C   UNL A   1      35.689  21.039  25.354  1.00  0.00     0.202 C 
BRANCH  25  26
ATOM     26  C   UNL A   1      37.068  20.381  25.215  1.00  0.00     0.261 C 
BRANCH  26  27
ATOM     27  O   UNL A   1      38.124  21.345  25.129  1.00  0.00    -0.460 OA
BRANCH  27  28
ATOM     28  C   UNL A   1      39.157  21.083  25.961  1.00  0.00     0.338 C 
ATOM     29  O   UNL A   1      39.723  20.013  26.138  1.00  0.00    -0.246 OA
BRANCH  28  30
ATOM     30  C   UNL A   1      39.656  22.338  26.537  1.00  0.00     0.060 A 
ATOM     31  C   UNL A   1      39.052  23.521  26.097  1.00  0.00     0.016 A 
ATOM     32  C   UNL A   1      40.722  22.367  27.438  1.00  0.00     0.016 A 
ATOM     33  C   UNL A   1      39.552  24.749  26.510  1.00  0.00     0.010 A 
ATOM     34  C   UNL A   1      41.230  23.602  27.846  1.00  0.00     0.010 A 
ATOM     35  C   UNL A   1      40.673  24.794  27.349  1.00  0.00    -0.014 A 
BRANCH  35  36
ATOM     36  C   UNL A   1      41.357  26.089  27.554  1.00  0.00     0.031 A 
ATOM     37  C   UNL A   1      40.699  27.121  28.427  1.00  0.00     0.074 A 
ATOM     38  C   UNL A   1      42.569  26.314  27.022  1.00  0.00     0.049 A 
ATOM     39  N   UNL A   1      41.121  28.312  28.764  1.00  0.00    -0.248 NA
ATOM     40  C   UNL A   1      39.391  26.760  28.999  1.00  0.00     0.031 C 
ATOM     41  C   UNL A   1      43.325  25.364  26.204  1.00  0.00     0.029 A 
ATOM     42  N   UNL A   1      43.382  27.415  27.099  1.00  0.00    -0.354 N 
ATOM     43  C   UNL A   1      40.130  28.844  29.580  1.00  0.00     0.074 A 
ATOM     44  C   UNL A   1      39.073  27.861  29.663  1.00  0.00     0.031 C 
ATOM     45  C   UNL A   1      44.497  25.925  25.860  1.00  0.00     0.029 A 
ATOM     46  C   UNL A   1      44.557  27.279  26.403  1.00  0.00     0.049 A 
ATOM     47  H   UNL A   1      43.145  28.226  27.606  1.00  0.00     0.167 HD
ATOM     48  C   UNL A   1      40.107  30.043  30.208  1.00  0.00     0.031 A 
ATOM     49  C   UNL A   1      45.560  28.159  26.216  1.00  0.00     0.031 A 
ATOM     50  C   UNL A   1      41.157  31.021  30.112  1.00  0.00     0.049 A 
ATOM     51  C   UNL A   1      45.471  29.518  26.859  1.00  0.00     0.074 A 
ATOM     52  C   UNL A   1      41.239  32.261  30.719  1.00  0.00     0.029 A 
ATOM     53  N   UNL A   1      42.306  30.869  29.350  1.00  0.00    -0.354 N 
ATOM     54  N   UNL A   1      44.542  30.000  27.648  1.00  0.00    -0.248 NA
ATOM     55  C   UNL A   1      46.576  30.448  26.589  1.00  0.00     0.031 C 
ATOM     56  C   UNL A   1      42.410  32.885  30.276  1.00  0.00     0.029 A 
ATOM     57  C   UNL A   1      43.087  32.007  29.445  1.00  0.00     0.049 A 
ATOM     58  H   UNL A   1      42.531  30.071  28.820  1.00  0.00     0.167 HD
ATOM     59  C   UNL A   1      44.963  31.279  27.992  1.00  0.00     0.074 A 
ATOM     60  C   UNL A   1      46.238  31.489  27.337  1.00  0.00     0.031 C 
ATOM     61  C   UNL A   1      44.353  32.196  28.782  1.00  0.00     0.031 A 
BRANCH  48  62
ATOM     62  C   UNL A   1      38.884  30.377  31.016  1.00  0.00    -0.014 A 
ATOM     63  C   UNL A   1      37.785  31.039  30.446  1.00  0.00     0.009 A 
ATOM     64  C   UNL A   1      38.825  30.003  32.368  1.00  0.00     0.009 A 
ATOM     65  C   UNL A   1      36.665  31.347  31.222  1.00  0.00     0.001 A 
ATOM     66  C   UNL A   1      37.693  30.287  33.134  1.00  0.00     0.001 A 
ATOM     67  C   UNL A   1      36.618  30.967  32.564  1.00  0.00     0.000 A 
ENDBRANCH  48  62
BRANCH  49  68
ATOM     68  C   UNL A   1      46.727  27.791  25.372  1.00  0.00    -0.014 A 
ATOM     69  C   UNL A   1      47.867  27.204  25.941  1.00  0.00     0.009 A 
ATOM     70  C   UNL A   1      46.710  28.040  23.991  1.00  0.00     0.009 A 
ATOM     71  C   UNL A   1      48.977  26.898  25.148  1.00  0.00     0.001 A 
ATOM     72  C   UNL A   1      47.809  27.707  23.195  1.00  0.00     0.001 A 
ATOM     73  C   UNL A   1      48.944  27.144  23.776  1.00  0.00     0.000 A 
ENDBRANCH  49  68
BRANCH  61  74
ATOM     74  C   UNL A   1      45.073  33.495  29.011  1.00  0.00    -0.014 A 
ATOM     75  C   UNL A   1      45.999  33.643  30.055  1.00  0.00     0.009 A 
ATOM     76  C   UNL A   1      44.853  34.572  28.138  1.00  0.00     0.009 A 
ATOM     77  C   UNL A   1      46.663  34.858  30.242  1.00  0.00     0.001 A 
ATOM     78  C   UNL A   1      45.540  35.775  28.308  1.00  0.00     0.001 A 
ATOM     79  C   UNL A   1      46.437  35.919  29.365  1.00  0.00     0.000 A 
ENDBRANCH  61  74
ENDBRANCH  35  36
ENDBRANCH  28  30
ENDBRANCH  27  28
ENDBRANCH  26  27
ENDBRANCH  25  26
ENDBRANCH  24  25
ENDBRANCH   1  24
TORSDOF 18
ENDMDL
MODEL 3
REMARK VINA RESULT:     -10.2      3.745      8.757
REMARK SMILES C[C@@H](C(=O)OCCOCCOC(=O)c1ccc(-c2c3nc(c(-c4ccccc4)c4ccc([nH]4)c(-c4ccccc4)c4nc(c(-c5ccccc5)c5ccc2[nH]5)C=C4)C=C3)cc1)c1cc(C(=O)c2ccccc2)ccc1O
REMARK SMILES IDX 7 1 6 2 5 3 3 4 4 5 2 6 1 7 62 8 63 9 75 10 64 11 74 12
REMARK SMILES IDX 73 13 76 14 65 16 66 17 67 18 68 19 72 20 69 21 71 22 70 23
REMARK SMILES IDX 8 24 9 25 10 26 11 27 12 28 13 29 14 30 15 31 61 32 16 33
REMARK SMILES IDX 60 34 17 35 18 36 19 37 54 38 20 39 59 40 53 41 55 42 21 43
REMARK SMILES IDX 58 44 52 45 51 46 22 48 44 49 29 50 43 51 30 52 33 53 42 54
REMARK SMILES IDX 56 55 31 56 32 57 41 59 57 60 34 61 23 62 24 63 28 64 25 65
REMARK SMILES IDX 27 66 26 67 45 68 46 69 50 70 47 71 49 72 48 73 35 74 36 75
REMARK SMILES IDX 40 76 37 77 39 78 38 79
REMARK H PARENT 76 15 55 47 33 58
REMARK Flexibility Score: inf
ROOT
ATOM      1  C   UNL A   1      33.108  29.229  27.201  1.00  0.00     0.202 C 
ENDROOT
BRANCH   1   2
ATOM      2  C   UNL A   1      31.849  28.354  27.131  1.00  0.00     0.261 C 
BRANCH   2   3
ATOM      3  O   UNL A   1      31.839  27.565  25.918  1.00  0.00    -0.463 OA
BRANCH   3   4
ATOM      4  C   UNL A   1      30.747  26.772  25.725  1.00  0.00     0.313 C 
ATOM      5  O   UNL A   1      30.243  26.079  26.602  1.00  0.00    -0.252 OA
BRANCH   4   6
ATOM      6  C   UNL A   1      30.245  26.794  24.271  1.00  0.00     0.130 C 
ATOM      7  C   UNL A   1      28.804  26.326  24.064  1.00  0.00     0.025 C 
BRANCH   6   8
ATOM      8  C   UNL A   1      31.224  26.086  23.338  1.00  0.00     0.009 A 
ATOM      9  C   UNL A   1      31.776  24.853  23.716  1.00  0.00     0.020 A 
ATOM     10  C   UNL A   1      31.554  26.568  22.066  1.00  0.00     0.119 A 
ATOM     11  C   UNL A   1      32.559  24.113  22.817  1.00  0.00     0.023 A 
ATOM     12  C   UNL A   1      32.221  25.795  21.126  1.00  0.00     0.047 A 
ATOM     13  C   UNL A   1      32.697  24.546  21.493  1.00  0.00     0.016 A 
BRANCH  10  14
ATOM     14  O   UNL A   1      31.299  27.852  21.708  1.00  0.00    -0.508 OA
ATOM     15  H   UNL A   1      30.488  28.072  21.295  1.00  0.00     0.293 HD
ENDBRANCH  10  14
BRANCH  11  16
ATOM     16  C   UNL A   1      33.241  22.879  23.297  1.00  0.00     0.193 C 
ATOM     17  O   UNL A   1      32.743  21.776  23.101  1.00  0.00    -0.289 OA
BRANCH  16  18
ATOM     18  C   UNL A   1      34.529  22.980  24.027  1.00  0.00     0.022 A 
ATOM     19  C   UNL A   1      35.715  22.923  23.293  1.00  0.00     0.012 A 
ATOM     20  C   UNL A   1      34.566  23.175  25.415  1.00  0.00     0.012 A 
ATOM     21  C   UNL A   1      36.934  23.125  23.938  1.00  0.00     0.001 A 
ATOM     22  C   UNL A   1      35.788  23.386  26.053  1.00  0.00     0.001 A 
ATOM     23  C   UNL A   1      36.969  23.371  25.312  1.00  0.00     0.000 A 
ENDBRANCH  16  18
ENDBRANCH  11  16
ENDBRANCH   6   8
ENDBRANCH   4   6
ENDBRANCH   3   4
ENDBRANCH   2   3
ENDBRANCH   1   2
BRANCH   1  24
ATOM     24  O   UNL A   1      33.049  30.499  26.541  1.00  0.00    -0.374 OA
BRANCH  24  25
ATOM     25  C   UNL A   1      31.794  31.169  26.577  1.00  0.00     0.202 C 
BRANCH  25  26
ATOM     26  C   UNL A   1      31.754  32.514  27.313  1.00  0.00     0.261 C 
BRANCH  26  27
ATOM     27  O   UNL A   1      32.994  33.224  27.217  1.00  0.00    -0.460 OA
BRANCH  27  28
ATOM     28  C   UNL A   1      33.207  34.073  28.248  1.00  0.00     0.338 C 
ATOM     29  O   UNL A   1      32.459  34.946  28.665  1.00  0.00    -0.246 OA
BRANCH  28  30
ATOM     30  C   UNL A   1      34.440  33.695  28.950  1.00  0.00     0.060 A 
ATOM     31  C   UNL A   1      35.650  34.043  28.338  1.00  0.00     0.016 A 
ATOM     32  C   UNL A   1      34.419  32.972  30.144  1.00  0.00     0.016 A 
ATOM     33  C   UNL A   1      36.851  33.614  28.887  1.00  0.00     0.010 A 
ATOM     34  C   UNL A   1      35.628  32.534  30.691  1.00  0.00     0.010 A 
ATOM     35  C   UNL A   1      36.841  32.818  30.040  1.00  0.00    -0.014 A 
BRANCH  35  36
ATOM     36  C   UNL A   1      38.092  32.145  30.450  1.00  0.00     0.031 A 
ATOM     37  C   UNL A   1      38.913  32.757  31.550  1.00  0.00     0.074 A 
ATOM     38  C   UNL A   1      38.455  30.977  29.893  1.00  0.00     0.049 A 
ATOM     39  N   UNL A   1      40.028  32.334  32.086  1.00  0.00    -0.248 NA
ATOM     40  C   UNL A   1      38.407  34.015  32.125  1.00  0.00     0.031 C 
ATOM     41  C   UNL A   1      37.707  30.265  28.857  1.00  0.00     0.029 A 
ATOM     42  N   UNL A   1      39.545  30.180  30.132  1.00  0.00    -0.354 N 
ATOM     43  C   UNL A   1      40.360  33.274  33.054  1.00  0.00     0.074 A 
ATOM     44  C   UNL A   1      39.348  34.305  33.012  1.00  0.00     0.031 C 
ATOM     45  C   UNL A   1      38.360  29.130  28.553  1.00  0.00     0.029 A 
ATOM     46  C   UNL A   1      39.584  29.056  29.347  1.00  0.00     0.049 A 
ATOM     47  H   UNL A   1      40.233  30.396  30.802  1.00  0.00     0.167 HD
ATOM     48  C   UNL A   1      41.412  33.274  33.905  1.00  0.00     0.031 A 
ATOM     49  C   UNL A   1      40.514  28.085  29.270  1.00  0.00     0.031 A 
ATOM     50  C   UNL A   1      42.423  32.251  33.935  1.00  0.00     0.049 A 
ATOM     51  C   UNL A   1      41.718  28.152  30.172  1.00  0.00     0.074 A 
ATOM     52  C   UNL A   1      43.523  32.148  34.767  1.00  0.00     0.029 A 
ATOM     53  N   UNL A   1      42.458  31.157  33.084  1.00  0.00    -0.354 N 
ATOM     54  N   UNL A   1      42.008  29.032  31.101  1.00  0.00    -0.248 NA
ATOM     55  C   UNL A   1      42.718  27.086  30.018  1.00  0.00     0.031 C 
ATOM     56  C   UNL A   1      44.258  31.023  34.379  1.00  0.00     0.029 A 
ATOM     57  C   UNL A   1      43.580  30.391  33.349  1.00  0.00     0.049 A 
ATOM     58  H   UNL A   1      41.786  30.955  32.394  1.00  0.00     0.167 HD
ATOM     59  C   UNL A   1      43.208  28.610  31.661  1.00  0.00     0.074 A 
ATOM     60  C   UNL A   1      43.582  27.388  30.978  1.00  0.00     0.031 C 
ATOM     61  C   UNL A   1      43.934  29.179  32.654  1.00  0.00     0.031 A 
BRANCH  48  62
ATOM     62  C   UNL A   1      41.544  34.442  34.843  1.00  0.00    -0.014 A 
ATOM     63  C   UNL A   1      42.244  35.603  34.475  1.00  0.00     0.009 A 
ATOM     64  C   UNL A   1      40.938  34.387  36.107  1.00  0.00     0.009 A 
ATOM     65  C   UNL A   1      42.361  36.670  35.370  1.00  0.00     0.001 A 
ATOM     66  C   UNL A   1      41.031  35.466  36.987  1.00  0.00     0.001 A 
ATOM     67  C   UNL A   1      41.751  36.603  36.622  1.00  0.00     0.000 A 
ENDBRANCH  48  62
BRANCH  49  68
ATOM     68  C   UNL A   1      40.355  26.974  28.296  1.00  0.00    -0.014 A 
ATOM     69  C   UNL A   1      40.900  27.067  27.006  1.00  0.00     0.009 A 
ATOM     70  C   UNL A   1      39.640  25.819  28.648  1.00  0.00     0.009 A 
ATOM     71  C   UNL A   1      40.711  26.035  26.082  1.00  0.00     0.001 A 
ATOM     72  C   UNL A   1      39.477  24.776  27.732  1.00  0.00     0.001 A 
ATOM     73  C   UNL A   1      40.005  24.890  26.448  1.00  0.00     0.000 A 
ENDBRANCH  49  68
BRANCH  61  74
ATOM     74  C   UNL A   1      45.186  28.467  33.085  1.00  0.00    -0.014 A 
ATOM     75  C   UNL A   1      45.157  27.472  34.075  1.00  0.00     0.009 A 
ATOM     76  C   UNL A   1      46.405  28.769  32.459  1.00  0.00     0.009 A 
ATOM     77  C   UNL A   1      46.332  26.819  34.452  1.00  0.00     0.001 A 
ATOM     78  C   UNL A   1      47.572  28.092  32.816  1.00  0.00     0.001 A 
ATOM     79  C   UNL A   1      47.536  27.125  33.819  1.00  0.00     0.000 A 
ENDBRANCH  61  74
ENDBRANCH  35  36
ENDBRANCH  28  30
ENDBRANCH  27  28
ENDBRANCH  26  27
ENDBRANCH  25  26
ENDBRANCH  24  25
ENDBRANCH   1  24
TORSDOF 18
ENDMDL
