MODEL 1
REMARK VINA RESULT:      -9.2      0.000      0.000
REMARK SMILES CN(CCOCC1CC1)c1nccnc1C(=O)OCCOCCOC(=O)c1ccc(-c2c3nc(c(-c4ccccc4)c4ccc([nH]4)c(-c4ccccc4)c4nc(c(-c5ccccc5)c5ccc2[nH]5)C=C4)C=C3)cc1
REMARK SMILES IDX 19 1 18 2 16 3 17 4 15 5 10 6 11 7 12 8 14 9 13 10 2 11 1 12
REMARK SMILES IDX 3 13 4 14 5 15 6 16 7 17 8 18 9 19 20 20 21 21 22 22 23 23
REMARK SMILES IDX 24 24 25 25 26 26 27 27 28 28 74 29 29 30 73 31 30 32 31 33
REMARK SMILES IDX 32 34 67 35 33 36 72 37 66 38 68 39 34 40 71 41 65 42 64 43
REMARK SMILES IDX 35 45 57 46 42 47 56 48 43 49 46 50 55 51 69 52 44 53 45 54
REMARK SMILES IDX 54 56 70 57 47 58 36 59 37 60 41 61 38 62 40 63 39 64 58 65
REMARK SMILES IDX 59 66 63 67 60 68 62 69 61 70 48 71 49 72 53 73 50 74 52 75
REMARK SMILES IDX 51 76
REMARK H PARENT 68 44 46 55
REMARK Flexibility Score: inf
ROOT
ATOM      1  C   UNL A   1      33.441  28.584  27.261  1.00  0.00     0.261 C 
ENDROOT
BRANCH   1   2
ATOM      2  O   UNL A   1      34.296  28.469  26.071  1.00  0.00    -0.458 OA
BRANCH   2   3
ATOM      3  C   UNL A   1      33.786  27.874  24.945  1.00  0.00     0.360 C 
ATOM      4  O   UNL A   1      33.862  28.400  23.839  1.00  0.00    -0.244 OA
BRANCH   3   5
ATOM      5  C   UNL A   1      33.289  26.421  25.103  1.00  0.00     0.191 A 
ATOM      6  C   UNL A   1      32.006  25.789  24.847  1.00  0.00     0.162 A 
ATOM      7  N   UNL A   1      31.966  24.423  24.762  1.00  0.00    -0.235 NA
ATOM      8  C   UNL A   1      33.082  23.713  24.989  1.00  0.00     0.133 A 
ATOM      9  N   UNL A   1      34.409  25.654  25.343  1.00  0.00    -0.244 NA
ATOM     10  C   UNL A   1      34.275  24.316  25.290  1.00  0.00     0.132 A 
BRANCH   6  11
ATOM     11  N   UNL A   1      30.700  26.323  24.869  1.00  0.00    -0.355 N 
ATOM     12  C   UNL A   1      29.847  25.568  25.835  1.00  0.00     0.145 C 
BRANCH  11  13
ATOM     13  C   UNL A   1      29.947  26.560  23.594  1.00  0.00     0.146 C 
BRANCH  13  14
ATOM     14  C   UNL A   1      29.523  28.048  23.385  1.00  0.00     0.181 C 
BRANCH  14  15
ATOM     15  O   UNL A   1      29.824  28.637  22.125  1.00  0.00    -0.379 OA
BRANCH  15  16
ATOM     16  C   UNL A   1      29.348  29.960  22.006  1.00  0.00     0.163 C 
BRANCH  16  17
ATOM     17  C   UNL A   1      28.580  30.446  23.196  1.00  0.00     0.015 C 
ATOM     18  C   UNL A   1      28.955  31.822  23.569  1.00  0.00     0.006 C 
ATOM     19  C   UNL A   1      27.512  31.485  23.487  1.00  0.00     0.006 C 
ENDBRANCH  16  17
ENDBRANCH  15  16
ENDBRANCH  14  15
ENDBRANCH  13  14
ENDBRANCH  11  13
ENDBRANCH   6  11
ENDBRANCH   3   5
ENDBRANCH   2   3
ENDBRANCH   1   2
BRANCH   1  20
ATOM     20  C   UNL A   1      32.213  29.526  27.077  1.00  0.00     0.202 C 
BRANCH  20  21
ATOM     21  O   UNL A   1      32.440  30.789  26.447  1.00  0.00    -0.374 OA
BRANCH  21  22
ATOM     22  C   UNL A   1      31.408  31.759  26.600  1.00  0.00     0.202 C 
BRANCH  22  23
ATOM     23  C   UNL A   1      31.913  33.197  26.815  1.00  0.00     0.261 C 
BRANCH  23  24
ATOM     24  O   UNL A   1      32.166  33.511  28.208  1.00  0.00    -0.460 OA
BRANCH  24  25
ATOM     25  C   UNL A   1      33.207  34.341  28.469  1.00  0.00     0.338 C 
ATOM     26  O   UNL A   1      33.147  35.560  28.584  1.00  0.00    -0.246 OA
BRANCH  25  27
ATOM     27  C   UNL A   1      34.463  33.582  28.756  1.00  0.00     0.060 A 
ATOM     28  C   UNL A   1      34.326  32.255  29.199  1.00  0.00     0.016 A 
ATOM     29  C   UNL A   1      35.747  34.083  28.500  1.00  0.00     0.016 A 
ATOM     30  C   UNL A   1      35.452  31.460  29.451  1.00  0.00     0.010 A 
ATOM     31  C   UNL A   1      36.878  33.278  28.744  1.00  0.00     0.010 A 
ATOM     32  C   UNL A   1      36.742  31.980  29.276  1.00  0.00    -0.014 A 
BRANCH  32  33
ATOM     33  C   UNL A   1      37.905  31.263  29.885  1.00  0.00     0.031 A 
ATOM     34  C   UNL A   1      38.193  31.499  31.350  1.00  0.00     0.074 A 
ATOM     35  C   UNL A   1      38.652  30.360  29.218  1.00  0.00     0.049 A 
ATOM     36  N   UNL A   1      39.109  30.965  32.120  1.00  0.00    -0.248 NA
ATOM     37  C   UNL A   1      37.329  32.472  32.036  1.00  0.00     0.031 C 
ATOM     38  C   UNL A   1      38.485  29.978  27.818  1.00  0.00     0.029 A 
ATOM     39  N   UNL A   1      39.710  29.589  29.651  1.00  0.00    -0.354 N 
ATOM     40  C   UNL A   1      38.936  31.547  33.371  1.00  0.00     0.074 A 
ATOM     41  C   UNL A   1      37.861  32.505  33.247  1.00  0.00     0.031 C 
ATOM     42  C   UNL A   1      39.405  29.045  27.508  1.00  0.00     0.029 A 
ATOM     43  C   UNL A   1      40.246  28.780  28.677  1.00  0.00     0.049 A 
ATOM     44  H   UNL A   1      40.050  29.615  30.575  1.00  0.00     0.167 HD
ATOM     45  C   UNL A   1      39.594  31.305  34.530  1.00  0.00     0.031 A 
ATOM     46  C   UNL A   1      41.298  27.934  28.712  1.00  0.00     0.031 A 
ATOM     47  C   UNL A   1      40.663  30.357  34.681  1.00  0.00     0.049 A 
ATOM     48  C   UNL A   1      42.070  27.732  29.994  1.00  0.00     0.074 A 
ATOM     49  C   UNL A   1      41.358  30.023  35.831  1.00  0.00     0.029 A 
ATOM     50  N   UNL A   1      41.205  29.603  33.653  1.00  0.00    -0.354 N 
ATOM     51  N   UNL A   1      41.861  28.255  31.178  1.00  0.00    -0.248 NA
ATOM     52  C   UNL A   1      43.220  26.813  29.944  1.00  0.00     0.031 C 
ATOM     53  C   UNL A   1      42.371  29.124  35.484  1.00  0.00     0.029 A 
ATOM     54  C   UNL A   1      42.257  28.840  34.134  1.00  0.00     0.049 A 
ATOM     55  H   UNL A   1      40.889  29.608  32.721  1.00  0.00     0.167 HD
ATOM     56  C   UNL A   1      42.835  27.712  32.013  1.00  0.00     0.074 A 
ATOM     57  C   UNL A   1      43.622  26.805  31.207  1.00  0.00     0.031 C 
ATOM     58  C   UNL A   1      43.051  27.945  33.332  1.00  0.00     0.031 A 
BRANCH  45  59
ATOM     59  C   UNL A   1      39.199  32.125  35.728  1.00  0.00    -0.014 A 
ATOM     60  C   UNL A   1      39.803  33.361  36.009  1.00  0.00     0.009 A 
ATOM     61  C   UNL A   1      38.187  31.655  36.580  1.00  0.00     0.009 A 
ATOM     62  C   UNL A   1      39.432  34.087  37.142  1.00  0.00     0.001 A 
ATOM     63  C   UNL A   1      37.792  32.400  37.691  1.00  0.00     0.001 A 
ATOM     64  C   UNL A   1      38.424  33.609  37.979  1.00  0.00     0.000 A 
ENDBRANCH  45  59
BRANCH  46  65
ATOM     65  C   UNL A   1      41.723  27.223  27.472  1.00  0.00    -0.014 A 
ATOM     66  C   UNL A   1      41.248  25.937  27.171  1.00  0.00     0.009 A 
ATOM     67  C   UNL A   1      42.643  27.825  26.598  1.00  0.00     0.009 A 
ATOM     68  C   UNL A   1      41.699  25.264  26.032  1.00  0.00     0.001 A 
ATOM     69  C   UNL A   1      43.068  27.163  25.444  1.00  0.00     0.001 A 
ATOM     70  C   UNL A   1      42.602  25.879  25.166  1.00  0.00     0.000 A 
ENDBRANCH  46  65
BRANCH  58  71
ATOM     71  C   UNL A   1      44.170  27.196  34.006  1.00  0.00    -0.014 A 
ATOM     72  C   UNL A   1      43.970  25.923  34.562  1.00  0.00     0.009 A 
ATOM     73  C   UNL A   1      45.461  27.748  34.034  1.00  0.00     0.009 A 
ATOM     74  C   UNL A   1      45.030  25.235  35.160  1.00  0.00     0.001 A 
ATOM     75  C   UNL A   1      46.526  27.046  34.603  1.00  0.00     0.001 A 
ATOM     76  C   UNL A   1      46.307  25.794  35.175  1.00  0.00     0.000 A 
ENDBRANCH  58  71
ENDBRANCH  32  33
ENDBRANCH  25  27
ENDBRANCH  24  25
ENDBRANCH  23  24
ENDBRANCH  22  23
ENDBRANCH  21  22
ENDBRANCH  20  21
ENDBRANCH   1  20
TORSDOF 20
ENDMDL
MODEL 2
REMARK VINA RESULT:      -8.7      1.881      2.307
REMARK SMILES CN(CCOCC1CC1)c1nccnc1C(=O)OCCOCCOC(=O)c1ccc(-c2c3nc(c(-c4ccccc4)c4ccc([nH]4)c(-c4ccccc4)c4nc(c(-c5ccccc5)c5ccc2[nH]5)C=C4)C=C3)cc1
REMARK SMILES IDX 19 1 18 2 16 3 17 4 15 5 10 6 11 7 12 8 14 9 13 10 2 11 1 12
REMARK SMILES IDX 3 13 4 14 5 15 6 16 7 17 8 18 9 19 20 20 21 21 22 22 23 23
REMARK SMILES IDX 24 24 25 25 26 26 27 27 28 28 74 29 29 30 73 31 30 32 31 33
REMARK SMILES IDX 32 34 67 35 33 36 72 37 66 38 68 39 34 40 71 41 65 42 64 43
REMARK SMILES IDX 35 45 57 46 42 47 56 48 43 49 46 50 55 51 69 52 44 53 45 54
REMARK SMILES IDX 54 56 70 57 47 58 36 59 37 60 41 61 38 62 40 63 39 64 58 65
REMARK SMILES IDX 59 66 63 67 60 68 62 69 61 70 48 71 49 72 53 73 50 74 52 75
REMARK SMILES IDX 51 76
REMARK H PARENT 68 44 46 55
REMARK Flexibility Score: inf
ROOT
ATOM      1  C   UNL A   1      33.652  29.142  27.240  1.00  0.00     0.261 C 
ENDROOT
BRANCH   1   2
ATOM      2  O   UNL A   1      34.381  28.582  26.093  1.00  0.00    -0.458 OA
BRANCH   2   3
ATOM      3  C   UNL A   1      33.671  28.181  24.989  1.00  0.00     0.360 C 
ATOM      4  O   UNL A   1      33.704  28.803  23.932  1.00  0.00    -0.244 OA
BRANCH   3   5
ATOM      5  C   UNL A   1      32.986  26.801  25.079  1.00  0.00     0.191 A 
ATOM      6  C   UNL A   1      31.781  26.261  24.472  1.00  0.00     0.162 A 
ATOM      7  N   UNL A   1      31.613  24.902  24.471  1.00  0.00    -0.235 NA
ATOM      8  C   UNL A   1      32.515  24.124  25.090  1.00  0.00     0.133 A 
ATOM      9  N   UNL A   1      33.881  25.966  25.715  1.00  0.00    -0.244 NA
ATOM     10  C   UNL A   1      33.616  24.647  25.714  1.00  0.00     0.132 A 
BRANCH   6  11
ATOM     11  N   UNL A   1      30.604  26.907  24.040  1.00  0.00    -0.355 N 
ATOM     12  C   UNL A   1      29.414  26.040  24.295  1.00  0.00     0.145 C 
BRANCH  11  13
ATOM     13  C   UNL A   1      30.517  27.509  22.670  1.00  0.00     0.146 C 
BRANCH  13  14
ATOM     14  C   UNL A   1      30.357  29.062  22.678  1.00  0.00     0.181 C 
BRANCH  14  15
ATOM     15  O   UNL A   1      29.900  29.672  21.476  1.00  0.00    -0.379 OA
BRANCH  15  16
ATOM     16  C   UNL A   1      28.624  30.261  21.607  1.00  0.00     0.163 C 
BRANCH  16  17
ATOM     17  C   UNL A   1      28.608  31.522  22.414  1.00  0.00     0.015 C 
ATOM     18  C   UNL A   1      27.551  31.504  23.442  1.00  0.00     0.006 C 
ATOM     19  C   UNL A   1      28.913  31.936  23.842  1.00  0.00     0.006 C 
ENDBRANCH  16  17
ENDBRANCH  15  16
ENDBRANCH  14  15
ENDBRANCH  13  14
ENDBRANCH  11  13
ENDBRANCH   6  11
ENDBRANCH   3   5
ENDBRANCH   2   3
ENDBRANCH   1   2
BRANCH   1  20
ATOM     20  C   UNL A   1      32.774  30.383  26.895  1.00  0.00     0.202 C 
BRANCH  20  21
ATOM     21  O   UNL A   1      33.106  31.621  27.529  1.00  0.00    -0.374 OA
BRANCH  21  22
ATOM     22  C   UNL A   1      32.192  32.693  27.324  1.00  0.00     0.202 C 
BRANCH  22  23
ATOM     23  C   UNL A   1      32.763  34.086  27.644  1.00  0.00     0.261 C 
BRANCH  23  24
ATOM     24  O   UNL A   1      32.394  34.566  28.962  1.00  0.00    -0.460 OA
BRANCH  24  25
ATOM     25  C   UNL A   1      33.378  35.135  29.703  1.00  0.00     0.338 C 
ATOM     26  O   UNL A   1      33.271  36.142  30.393  1.00  0.00    -0.246 OA
BRANCH  25  27
ATOM     27  C   UNL A   1      34.620  34.301  29.710  1.00  0.00     0.060 A 
ATOM     28  C   UNL A   1      34.692  33.262  30.653  1.00  0.00     0.016 A 
ATOM     29  C   UNL A   1      35.647  34.432  28.765  1.00  0.00     0.016 A 
ATOM     30  C   UNL A   1      35.802  32.408  30.701  1.00  0.00     0.010 A 
ATOM     31  C   UNL A   1      36.757  33.565  28.807  1.00  0.00     0.010 A 
ATOM     32  C   UNL A   1      36.871  32.583  29.812  1.00  0.00    -0.014 A 
BRANCH  32  33
ATOM     33  C   UNL A   1      38.178  31.918  30.105  1.00  0.00     0.031 A 
ATOM     34  C   UNL A   1      39.110  32.591  31.087  1.00  0.00     0.074 A 
ATOM     35  C   UNL A   1      38.528  30.716  29.604  1.00  0.00     0.049 A 
ATOM     36  N   UNL A   1      40.273  32.196  31.542  1.00  0.00    -0.248 NA
ATOM     37  C   UNL A   1      38.665  33.886  31.625  1.00  0.00     0.031 C 
ATOM     38  C   UNL A   1      37.734  29.909  28.681  1.00  0.00     0.029 A 
ATOM     39  N   UNL A   1      39.661  29.960  29.818  1.00  0.00    -0.354 N 
ATOM     40  C   UNL A   1      40.699  33.198  32.407  1.00  0.00     0.074 A 
ATOM     41  C   UNL A   1      39.695  34.237  32.378  1.00  0.00     0.031 C 
ATOM     42  C   UNL A   1      38.401  28.771  28.410  1.00  0.00     0.029 A 
ATOM     43  C   UNL A   1      39.683  28.777  29.118  1.00  0.00     0.049 A 
ATOM     44  H   UNL A   1      40.388  30.241  30.420  1.00  0.00     0.167 HD
ATOM     45  C   UNL A   1      41.815  33.256  33.174  1.00  0.00     0.031 A 
ATOM     46  C   UNL A   1      40.627  27.814  29.039  1.00  0.00     0.031 A 
ATOM     47  C   UNL A   1      42.826  32.237  33.223  1.00  0.00     0.049 A 
ATOM     48  C   UNL A   1      41.901  27.930  29.842  1.00  0.00     0.074 A 
ATOM     49  C   UNL A   1      43.970  32.200  34.004  1.00  0.00     0.029 A 
ATOM     50  N   UNL A   1      42.829  31.085  32.455  1.00  0.00    -0.354 N 
ATOM     51  N   UNL A   1      42.264  28.862  30.690  1.00  0.00    -0.248 NA
ATOM     52  C   UNL A   1      42.892  26.853  29.682  1.00  0.00     0.031 C 
ATOM     53  C   UNL A   1      44.703  31.063  33.650  1.00  0.00     0.029 A 
ATOM     54  C   UNL A   1      43.979  30.354  32.707  1.00  0.00     0.049 A 
ATOM     55  H   UNL A   1      42.120  30.825  31.824  1.00  0.00     0.167 HD
ATOM     56  C   UNL A   1      43.508  28.471  31.179  1.00  0.00     0.074 A 
ATOM     57  C   UNL A   1      43.830  27.209  30.548  1.00  0.00     0.031 C 
ATOM     58  C   UNL A   1      44.308  29.104  32.073  1.00  0.00     0.031 A 
BRANCH  45  59
ATOM     59  C   UNL A   1      42.020  34.500  33.994  1.00  0.00    -0.014 A 
ATOM     60  C   UNL A   1      41.579  34.589  35.324  1.00  0.00     0.009 A 
ATOM     61  C   UNL A   1      42.687  35.597  33.426  1.00  0.00     0.009 A 
ATOM     62  C   UNL A   1      41.762  35.767  36.052  1.00  0.00     0.001 A 
ATOM     63  C   UNL A   1      42.902  36.759  34.167  1.00  0.00     0.001 A 
ATOM     64  C   UNL A   1      42.428  36.848  35.474  1.00  0.00     0.000 A 
ENDBRANCH  45  59
BRANCH  46  65
ATOM     65  C   UNL A   1      40.429  26.650  28.129  1.00  0.00    -0.014 A 
ATOM     66  C   UNL A   1      39.709  25.518  28.541  1.00  0.00     0.009 A 
ATOM     67  C   UNL A   1      40.998  26.657  26.846  1.00  0.00     0.009 A 
ATOM     68  C   UNL A   1      39.579  24.413  27.694  1.00  0.00     0.001 A 
ATOM     69  C   UNL A   1      40.841  25.565  25.989  1.00  0.00     0.001 A 
ATOM     70  C   UNL A   1      40.138  24.440  26.417  1.00  0.00     0.000 A 
ENDBRANCH  46  65
BRANCH  58  71
ATOM     71  C   UNL A   1      45.607  28.440  32.450  1.00  0.00    -0.014 A 
ATOM     72  C   UNL A   1      45.699  27.590  33.564  1.00  0.00     0.009 A 
ATOM     73  C   UNL A   1      46.742  28.622  31.645  1.00  0.00     0.009 A 
ATOM     74  C   UNL A   1      46.908  26.964  33.880  1.00  0.00     0.001 A 
ATOM     75  C   UNL A   1      47.941  27.970  31.943  1.00  0.00     0.001 A 
ATOM     76  C   UNL A   1      48.026  27.149  33.067  1.00  0.00     0.000 A 
ENDBRANCH  58  71
ENDBRANCH  32  33
ENDBRANCH  25  27
ENDBRANCH  24  25
ENDBRANCH  23  24
ENDBRANCH  22  23
ENDBRANCH  21  22
ENDBRANCH  20  21
ENDBRANCH   1  20
TORSDOF 20
ENDMDL
MODEL 3
REMARK VINA RESULT:      -7.8      3.203      5.284
REMARK SMILES CN(CCOCC1CC1)c1nccnc1C(=O)OCCOCCOC(=O)c1ccc(-c2c3nc(c(-c4ccccc4)c4ccc([nH]4)c(-c4ccccc4)c4nc(c(-c5ccccc5)c5ccc2[nH]5)C=C4)C=C3)cc1
REMARK SMILES IDX 19 1 18 2 16 3 17 4 15 5 10 6 11 7 12 8 14 9 13 10 2 11 1 12
REMARK SMILES IDX 3 13 4 14 5 15 6 16 7 17 8 18 9 19 20 20 21 21 22 22 23 23
REMARK SMILES IDX 24 24 25 25 26 26 27 27 28 28 74 29 29 30 73 31 30 32 31 33
REMARK SMILES IDX 32 34 67 35 33 36 72 37 66 38 68 39 34 40 71 41 65 42 64 43
REMARK SMILES IDX 35 45 57 46 42 47 56 48 43 49 46 50 55 51 69 52 44 53 45 54
REMARK SMILES IDX 54 56 70 57 47 58 36 59 37 60 41 61 38 62 40 63 39 64 58 65
REMARK SMILES IDX 59 66 63 67 60 68 62 69 61 70 48 71 49 72 53 73 50 74 52 75
REMARK SMILES IDX 51 76
REMARK H PARENT 68 44 46 55
REMARK Flexibility Score: inf
ROOT
ATOM      1  C   UNL A   1      33.930  28.428  26.070  1.00  0.00     0.261 C 
ENDROOT
BRANCH   1   2
ATOM      2  O   UNL A   1      33.406  27.330  26.894  1.00  0.00    -0.458 OA
BRANCH   2   3
ATOM      3  C   UNL A   1      32.050  27.115  26.925  1.00  0.00     0.360 C 
ATOM      4  O   UNL A   1      31.282  27.890  27.487  1.00  0.00    -0.244 OA
BRANCH   3   5
ATOM      5  C   UNL A   1      31.518  25.960  26.051  1.00  0.00     0.191 A 
ATOM      6  C   UNL A   1      31.449  25.768  24.613  1.00  0.00     0.162 A 
ATOM      7  N   UNL A   1      31.236  24.500  24.142  1.00  0.00    -0.235 NA
ATOM      8  C   UNL A   1      31.023  23.498  25.010  1.00  0.00     0.133 A 
ATOM      9  N   UNL A   1      31.282  24.905  26.909  1.00  0.00    -0.244 NA
ATOM     10  C   UNL A   1      31.028  23.701  26.365  1.00  0.00     0.132 A 
BRANCH   6  11
ATOM     11  N   UNL A   1      31.358  26.708  23.565  1.00  0.00    -0.355 N 
ATOM     12  C   UNL A   1      32.715  27.008  23.017  1.00  0.00     0.145 C 
BRANCH  11  13
ATOM     13  C   UNL A   1      30.582  27.978  23.741  1.00  0.00     0.146 C 
BRANCH  13  14
ATOM     14  C   UNL A   1      29.736  28.373  22.489  1.00  0.00     0.181 C 
BRANCH  14  15
ATOM     15  O   UNL A   1      30.178  29.497  21.735  1.00  0.00    -0.379 OA
BRANCH  15  16
ATOM     16  C   UNL A   1      29.193  30.498  21.607  1.00  0.00     0.163 C 
BRANCH  16  17
ATOM     17  C   UNL A   1      28.838  31.180  22.892  1.00  0.00     0.015 C 
ATOM     18  C   UNL A   1      28.209  32.494  22.663  1.00  0.00     0.006 C 
ATOM     19  C   UNL A   1      27.573  31.571  23.636  1.00  0.00     0.006 C 
ENDBRANCH  16  17
ENDBRANCH  15  16
ENDBRANCH  14  15
ENDBRANCH  13  14
ENDBRANCH  11  13
ENDBRANCH   6  11
ENDBRANCH   3   5
ENDBRANCH   2   3
ENDBRANCH   1   2
BRANCH   1  20
ATOM     20  C   UNL A   1      33.618  29.850  26.627  1.00  0.00     0.202 C 
BRANCH  20  21
ATOM     21  O   UNL A   1      34.638  30.495  27.395  1.00  0.00    -0.374 OA
BRANCH  21  22
ATOM     22  C   UNL A   1      35.468  29.639  28.175  1.00  0.00     0.202 C 
BRANCH  22  23
ATOM     23  C   UNL A   1      36.813  30.262  28.587  1.00  0.00     0.261 C 
BRANCH  23  24
ATOM     24  O   UNL A   1      36.695  31.639  29.028  1.00  0.00    -0.460 OA
BRANCH  24  25
ATOM     25  C   UNL A   1      36.135  31.845  30.246  1.00  0.00     0.338 C 
ATOM     26  O   UNL A   1      34.944  32.029  30.472  1.00  0.00    -0.246 OA
BRANCH  25  27
ATOM     27  C   UNL A   1      37.131  31.680  31.350  1.00  0.00     0.060 A 
ATOM     28  C   UNL A   1      38.427  32.173  31.125  1.00  0.00     0.016 A 
ATOM     29  C   UNL A   1      36.809  31.169  32.615  1.00  0.00     0.016 A 
ATOM     30  C   UNL A   1      39.411  32.096  32.121  1.00  0.00     0.010 A 
ATOM     31  C   UNL A   1      37.796  31.103  33.619  1.00  0.00     0.010 A 
ATOM     32  C   UNL A   1      39.120  31.513  33.361  1.00  0.00    -0.014 A 
BRANCH  32  33
ATOM     33  C   UNL A   1      40.247  31.113  34.259  1.00  0.00     0.031 A 
ATOM     34  C   UNL A   1      40.725  32.116  35.284  1.00  0.00     0.074 A 
ATOM     35  C   UNL A   1      40.798  29.882  34.256  1.00  0.00     0.049 A 
ATOM     36  N   UNL A   1      41.650  31.996  36.205  1.00  0.00    -0.248 NA
ATOM     37  C   UNL A   1      40.070  33.433  35.263  1.00  0.00     0.031 C 
ATOM     38  C   UNL A   1      40.429  28.782  33.368  1.00  0.00     0.029 A 
ATOM     39  N   UNL A   1      41.795  29.353  35.048  1.00  0.00    -0.354 N 
ATOM     40  C   UNL A   1      41.691  33.222  36.859  1.00  0.00     0.074 A 
ATOM     41  C   UNL A   1      40.735  34.084  36.202  1.00  0.00     0.031 C 
ATOM     42  C   UNL A   1      41.186  27.709  33.665  1.00  0.00     0.029 A 
ATOM     43  C   UNL A   1      42.114  28.050  34.745  1.00  0.00     0.049 A 
ATOM     44  H   UNL A   1      42.238  29.861  35.765  1.00  0.00     0.167 HD
ATOM     45  C   UNL A   1      42.440  33.606  37.921  1.00  0.00     0.031 A 
ATOM     46  C   UNL A   1      43.052  27.227  35.264  1.00  0.00     0.031 A 
ATOM     47  C   UNL A   1      43.395  32.768  38.593  1.00  0.00     0.049 A 
ATOM     48  C   UNL A   1      43.932  27.696  36.398  1.00  0.00     0.074 A 
ATOM     49  C   UNL A   1      44.168  33.068  39.702  1.00  0.00     0.029 A 
ATOM     50  N   UNL A   1      43.720  31.476  38.215  1.00  0.00    -0.354 N 
ATOM     51  N   UNL A   1      43.924  28.842  37.034  1.00  0.00    -0.248 NA
ATOM     52  C   UNL A   1      44.948  26.750  36.890  1.00  0.00     0.031 C 
ATOM     53  C   UNL A   1      45.018  31.985  39.947  1.00  0.00     0.029 A 
ATOM     54  C   UNL A   1      44.719  30.982  39.040  1.00  0.00     0.049 A 
ATOM     55  H   UNL A   1      43.305  30.983  37.472  1.00  0.00     0.167 HD
ATOM     56  C   UNL A   1      44.911  28.745  38.012  1.00  0.00     0.074 A 
ATOM     57  C   UNL A   1      45.485  27.421  37.899  1.00  0.00     0.031 C 
ATOM     58  C   UNL A   1      45.301  29.671  38.922  1.00  0.00     0.031 A 
BRANCH  45  59
ATOM     59  C   UNL A   1      42.286  35.026  38.393  1.00  0.00    -0.014 A 
ATOM     60  C   UNL A   1      41.295  35.393  39.317  1.00  0.00     0.009 A 
ATOM     61  C   UNL A   1      43.165  36.010  37.915  1.00  0.00     0.009 A 
ATOM     62  C   UNL A   1      41.160  36.724  39.717  1.00  0.00     0.001 A 
ATOM     63  C   UNL A   1      43.052  37.332  38.344  1.00  0.00     0.001 A 
ATOM     64  C   UNL A   1      42.042  37.691  39.235  1.00  0.00     0.000 A 
ENDBRANCH  45  59
BRANCH  46  65
ATOM     65  C   UNL A   1      43.244  25.864  34.692  1.00  0.00    -0.014 A 
ATOM     66  C   UNL A   1      42.595  24.747  35.240  1.00  0.00     0.009 A 
ATOM     67  C   UNL A   1      44.116  25.674  33.608  1.00  0.00     0.009 A 
ATOM     68  C   UNL A   1      42.829  23.468  34.725  1.00  0.00     0.001 A 
ATOM     69  C   UNL A   1      44.324  24.399  33.075  1.00  0.00     0.001 A 
ATOM     70  C   UNL A   1      43.686  23.296  33.639  1.00  0.00     0.000 A 
ENDBRANCH  46  65
BRANCH  58  71
ATOM     71  C   UNL A   1      46.389  29.291  39.893  1.00  0.00    -0.014 A 
ATOM     72  C   UNL A   1      46.097  28.639  41.102  1.00  0.00     0.009 A 
ATOM     73  C   UNL A   1      47.732  29.537  39.566  1.00  0.00     0.009 A 
ATOM     74  C   UNL A   1      47.125  28.272  41.975  1.00  0.00     0.001 A 
ATOM     75  C   UNL A   1      48.759  29.141  40.425  1.00  0.00     0.001 A 
ATOM     76  C   UNL A   1      48.455  28.518  41.634  1.00  0.00     0.000 A 
ENDBRANCH  58  71
ENDBRANCH  32  33
ENDBRANCH  25  27
ENDBRANCH  24  25
ENDBRANCH  23  24
ENDBRANCH  22  23
ENDBRANCH  21  22
ENDBRANCH  20  21
ENDBRANCH   1  20
TORSDOF 20
ENDMDL
