MODEL 1
REMARK VINA RESULT:      -9.3      0.000      0.000
REMARK SMILES CCCO[C@@H]1CCC[C@]([NH3+])(C(=O)OCCOCCOC(=O)c2ccc(-c3c4nc(c(-c5ccccc5)c5ccc([nH]5)c(-c5ccccc5)c5nc(c(-c6ccccc6)c6ccc3[nH]6)C=C5)C=C4)cc2)C1
REMARK SMILES IDX 15 1 14 2 13 3 11 4 12 5 9 6 5 7 6 8 70 9 7 10 8 11 4 12
REMARK SMILES IDX 3 13 2 14 1 15 10 16 16 20 17 21 18 22 19 23 20 24 21 25
REMARK SMILES IDX 22 26 23 27 69 28 24 29 68 30 25 31 26 32 27 33 62 34 28 35
REMARK SMILES IDX 67 36 61 37 63 38 29 39 66 40 60 41 59 42 30 44 52 45 37 46
REMARK SMILES IDX 51 47 38 48 41 49 50 50 64 51 39 52 40 53 49 55 65 56 42 57
REMARK SMILES IDX 31 58 32 59 36 60 33 61 35 62 34 63 53 64 54 65 58 66 55 67
REMARK SMILES IDX 57 68 56 69 43 70 44 71 48 72 45 73 47 74 46 75
REMARK H PARENT 10 17 10 18 10 19 63 43 41 54
REMARK Flexibility Score: inf
ROOT
ATOM      1  C   UNL A   1      33.514  22.173  24.221  1.00  0.00     0.202 C 
ENDROOT
BRANCH   1   2
ATOM      2  C   UNL A   1      32.423  22.746  25.131  1.00  0.00     0.261 C 
BRANCH   2   3
ATOM      3  O   UNL A   1      32.807  24.044  25.614  1.00  0.00    -0.459 OA
BRANCH   3   4
ATOM      4  C   UNL A   1      31.883  24.730  26.340  1.00  0.00     0.368 C 
ATOM      5  O   UNL A   1      31.113  24.224  27.149  1.00  0.00    -0.245 OA
BRANCH   4   6
ATOM      6  C   UNL A   1      31.871  26.250  26.000  1.00  0.00     0.195 C 
ATOM      7  C   UNL A   1      31.099  28.035  24.313  1.00  0.00     0.125 C 
ATOM      8  C   UNL A   1      32.556  28.456  24.102  1.00  0.00     0.032 C 
ATOM      9  C   UNL A   1      31.010  26.581  24.775  1.00  0.00     0.113 C 
ATOM     10  C   UNL A   1      33.426  28.167  25.320  1.00  0.00     0.010 C 
ATOM     11  C   UNL A   1      33.323  26.703  25.751  1.00  0.00     0.081 C 
BRANCH   7  12
ATOM     12  O   UNL A   1      30.428  28.165  23.052  1.00  0.00    -0.378 OA
BRANCH  12  13
ATOM     13  C   UNL A   1      29.009  28.309  23.144  1.00  0.00     0.160 C 
BRANCH  13  14
ATOM     14  C   UNL A   1      28.524  29.543  22.378  1.00  0.00     0.025 C 
ATOM     15  C   UNL A   1      27.651  30.483  23.202  1.00  0.00     0.006 C 
ENDBRANCH  13  14
ENDBRANCH  12  13
ENDBRANCH   7  12
BRANCH   6  16
ATOM     16  N   UNL A   1      31.318  26.973  27.176  1.00  0.00    -0.343 N 
ATOM     17  H   UNL A   1      31.709  27.913  27.211  1.00  0.00     0.345 HD
ATOM     18  H   UNL A   1      31.563  26.470  28.029  1.00  0.00     0.345 HD
ATOM     19  H   UNL A   1      30.303  27.029  27.095  1.00  0.00     0.345 HD
ENDBRANCH   6  16
ENDBRANCH   4   6
ENDBRANCH   3   4
ENDBRANCH   2   3
ENDBRANCH   1   2
BRANCH   1  20
ATOM     20  O   UNL A   1      34.768  21.939  24.863  1.00  0.00    -0.374 OA
BRANCH  20  21
ATOM     21  C   UNL A   1      35.185  20.577  24.966  1.00  0.00     0.202 C 
BRANCH  21  22
ATOM     22  C   UNL A   1      36.701  20.348  24.975  1.00  0.00     0.261 C 
BRANCH  22  23
ATOM     23  O   UNL A   1      37.420  21.499  25.451  1.00  0.00    -0.460 OA
BRANCH  23  24
ATOM     24  C   UNL A   1      38.664  21.229  25.915  1.00  0.00     0.338 C 
ATOM     25  O   UNL A   1      39.287  20.188  25.797  1.00  0.00    -0.246 OA
BRANCH  24  26
ATOM     26  C   UNL A   1      39.276  22.444  26.489  1.00  0.00     0.060 A 
ATOM     27  C   UNL A   1      38.685  23.669  26.156  1.00  0.00     0.016 A 
ATOM     28  C   UNL A   1      40.446  22.406  27.251  1.00  0.00     0.016 A 
ATOM     29  C   UNL A   1      39.294  24.862  26.536  1.00  0.00     0.010 A 
ATOM     30  C   UNL A   1      41.059  23.608  27.627  1.00  0.00     0.010 A 
ATOM     31  C   UNL A   1      40.505  24.841  27.240  1.00  0.00    -0.014 A 
BRANCH  31  32
ATOM     32  C   UNL A   1      41.232  26.117  27.459  1.00  0.00     0.031 A 
ATOM     33  C   UNL A   1      40.628  27.172  28.346  1.00  0.00     0.074 A 
ATOM     34  C   UNL A   1      42.453  26.303  26.927  1.00  0.00     0.049 A 
ATOM     35  N   UNL A   1      41.125  28.328  28.709  1.00  0.00    -0.248 NA
ATOM     36  C   UNL A   1      39.297  26.886  28.902  1.00  0.00     0.031 C 
ATOM     37  C   UNL A   1      43.165  25.345  26.083  1.00  0.00     0.029 A 
ATOM     38  N   UNL A   1      43.316  27.366  27.033  1.00  0.00    -0.354 N 
ATOM     39  C   UNL A   1      40.171  28.904  29.540  1.00  0.00     0.074 A 
ATOM     40  C   UNL A   1      39.053  27.986  29.600  1.00  0.00     0.031 C 
ATOM     41  C   UNL A   1      44.361  25.862  25.749  1.00  0.00     0.029 A 
ATOM     42  C   UNL A   1      44.488  27.194  26.337  1.00  0.00     0.049 A 
ATOM     43  H   UNL A   1      43.114  28.174  27.557  1.00  0.00     0.167 HD
ATOM     44  C   UNL A   1      40.223  30.083  30.204  1.00  0.00     0.031 A 
ATOM     45  C   UNL A   1      45.539  28.021  26.184  1.00  0.00     0.031 A 
ATOM     46  C   UNL A   1      41.323  31.008  30.138  1.00  0.00     0.049 A 
ATOM     47  C   UNL A   1      45.539  29.358  26.873  1.00  0.00     0.074 A 
ATOM     48  C   UNL A   1      41.465  32.228  30.779  1.00  0.00     0.029 A 
ATOM     49  N   UNL A   1      42.467  30.820  29.382  1.00  0.00    -0.354 N 
ATOM     50  N   UNL A   1      44.641  29.875  27.677  1.00  0.00    -0.248 NA
ATOM     51  C   UNL A   1      46.706  30.222  26.641  1.00  0.00     0.031 C 
ATOM     52  C   UNL A   1      42.676  32.798  30.373  1.00  0.00     0.029 A 
ATOM     53  C   UNL A   1      43.310  31.910  29.520  1.00  0.00     0.049 A 
ATOM     54  H   UNL A   1      42.654  30.027  28.827  1.00  0.00     0.167 HD
ATOM     55  C   UNL A   1      45.145  31.111  28.062  1.00  0.00     0.074 A 
ATOM     56  C   UNL A   1      46.435  31.257  27.423  1.00  0.00     0.031 C 
ATOM     57  C   UNL A   1      44.588  32.044  28.873  1.00  0.00     0.031 A 
BRANCH  44  58
ATOM     58  C   UNL A   1      39.040  30.454  31.052  1.00  0.00    -0.014 A 
ATOM     59  C   UNL A   1      38.992  30.120  32.415  1.00  0.00     0.009 A 
ATOM     60  C   UNL A   1      37.984  31.192  30.495  1.00  0.00     0.009 A 
ATOM     61  C   UNL A   1      37.898  30.500  33.197  1.00  0.00     0.001 A 
ATOM     62  C   UNL A   1      36.904  31.590  31.285  1.00  0.00     0.001 A 
ATOM     63  C   UNL A   1      36.859  31.238  32.633  1.00  0.00     0.000 A 
ENDBRANCH  44  58
BRANCH  45  64
ATOM     64  C   UNL A   1      46.684  27.623  25.323  1.00  0.00    -0.014 A 
ATOM     65  C   UNL A   1      47.785  26.941  25.862  1.00  0.00     0.009 A 
ATOM     66  C   UNL A   1      46.695  27.965  23.962  1.00  0.00     0.009 A 
ATOM     67  C   UNL A   1      48.889  26.637  25.060  1.00  0.00     0.001 A 
ATOM     68  C   UNL A   1      47.787  27.634  23.157  1.00  0.00     0.001 A 
ATOM     69  C   UNL A   1      48.887  26.982  23.710  1.00  0.00     0.000 A 
ENDBRANCH  45  64
BRANCH  57  70
ATOM     70  C   UNL A   1      45.387  33.291  29.129  1.00  0.00    -0.014 A 
ATOM     71  C   UNL A   1      45.217  34.439  28.341  1.00  0.00     0.009 A 
ATOM     72  C   UNL A   1      46.309  33.322  30.188  1.00  0.00     0.009 A 
ATOM     73  C   UNL A   1      45.984  35.581  28.582  1.00  0.00     0.001 A 
ATOM     74  C   UNL A   1      47.055  34.473  30.444  1.00  0.00     0.001 A 
ATOM     75  C   UNL A   1      46.900  35.598  29.634  1.00  0.00     0.000 A 
ENDBRANCH  57  70
ENDBRANCH  31  32
ENDBRANCH  24  26
ENDBRANCH  23  24
ENDBRANCH  22  23
ENDBRANCH  21  22
ENDBRANCH  20  21
ENDBRANCH   1  20
TORSDOF 18
ENDMDL
MODEL 2
REMARK VINA RESULT:      -9.3      4.221      7.160
REMARK SMILES CCCO[C@@H]1CCC[C@]([NH3+])(C(=O)OCCOCCOC(=O)c2ccc(-c3c4nc(c(-c5ccccc5)c5ccc([nH]5)c(-c5ccccc5)c5nc(c(-c6ccccc6)c6ccc3[nH]6)C=C5)C=C4)cc2)C1
REMARK SMILES IDX 15 1 14 2 13 3 11 4 12 5 9 6 5 7 6 8 70 9 7 10 8 11 4 12
REMARK SMILES IDX 3 13 2 14 1 15 10 16 16 20 17 21 18 22 19 23 20 24 21 25
REMARK SMILES IDX 22 26 23 27 69 28 24 29 68 30 25 31 26 32 27 33 62 34 28 35
REMARK SMILES IDX 67 36 61 37 63 38 29 39 66 40 60 41 59 42 30 44 52 45 37 46
REMARK SMILES IDX 51 47 38 48 41 49 50 50 64 51 39 52 40 53 49 55 65 56 42 57
REMARK SMILES IDX 31 58 32 59 36 60 33 61 35 62 34 63 53 64 54 65 58 66 55 67
REMARK SMILES IDX 57 68 56 69 43 70 44 71 48 72 45 73 47 74 46 75
REMARK H PARENT 10 17 10 18 10 19 63 43 41 54
REMARK Flexibility Score: inf
ROOT
ATOM      1  C   UNL A   1      33.167  29.509  26.331  1.00  0.00     0.202 C 
ENDROOT
BRANCH   1   2
ATOM      2  C   UNL A   1      33.887  28.710  25.240  1.00  0.00     0.261 C 
BRANCH   2   3
ATOM      3  O   UNL A   1      33.171  28.807  23.997  1.00  0.00    -0.459 OA
BRANCH   3   4
ATOM      4  C   UNL A   1      33.031  27.661  23.275  1.00  0.00     0.368 C 
ATOM      5  O   UNL A   1      33.959  26.954  22.899  1.00  0.00    -0.245 OA
BRANCH   4   6
ATOM      6  C   UNL A   1      31.543  27.357  22.929  1.00  0.00     0.195 C 
ATOM      7  C   UNL A   1      29.156  28.315  22.829  1.00  0.00     0.125 C 
ATOM      8  C   UNL A   1      28.686  27.225  23.799  1.00  0.00     0.032 C 
ATOM      9  C   UNL A   1      30.647  28.598  23.005  1.00  0.00     0.113 C 
ATOM     10  C   UNL A   1      29.542  25.967  23.718  1.00  0.00     0.010 C 
ATOM     11  C   UNL A   1      31.027  26.284  23.908  1.00  0.00     0.081 C 
BRANCH   7  12
ATOM     12  O   UNL A   1      28.415  29.505  23.130  1.00  0.00    -0.378 OA
BRANCH  12  13
ATOM     13  C   UNL A   1      28.839  30.667  22.415  1.00  0.00     0.160 C 
BRANCH  13  14
ATOM     14  C   UNL A   1      28.091  30.806  21.086  1.00  0.00     0.025 C 
ATOM     15  C   UNL A   1      28.001  32.238  20.569  1.00  0.00     0.006 C 
ENDBRANCH  13  14
ENDBRANCH  12  13
ENDBRANCH   7  12
BRANCH   6  16
ATOM     16  N   UNL A   1      31.501  26.827  21.541  1.00  0.00    -0.343 N 
ATOM     17  H   UNL A   1      30.758  26.133  21.465  1.00  0.00     0.345 HD
ATOM     18  H   UNL A   1      32.396  26.393  21.316  1.00  0.00     0.345 HD
ATOM     19  H   UNL A   1      31.320  27.592  20.890  1.00  0.00     0.345 HD
ENDBRANCH   6  16
ENDBRANCH   4   6
ENDBRANCH   3   4
ENDBRANCH   2   3
ENDBRANCH   1   2
BRANCH   1  20
ATOM     20  O   UNL A   1      32.304  30.540  25.848  1.00  0.00    -0.374 OA
BRANCH  20  21
ATOM     21  C   UNL A   1      31.498  31.203  26.823  1.00  0.00     0.202 C 
BRANCH  21  22
ATOM     22  C   UNL A   1      31.530  32.735  26.778  1.00  0.00     0.261 C 
BRANCH  22  23
ATOM     23  O   UNL A   1      32.874  33.247  26.737  1.00  0.00    -0.460 OA
BRANCH  23  24
ATOM     24  C   UNL A   1      33.349  33.665  27.935  1.00  0.00     0.338 C 
ATOM     25  O   UNL A   1      32.795  34.401  28.734  1.00  0.00    -0.246 OA
BRANCH  24  26
ATOM     26  C   UNL A   1      34.622  32.987  28.251  1.00  0.00     0.060 A 
ATOM     27  C   UNL A   1      34.539  31.666  28.706  1.00  0.00     0.016 A 
ATOM     28  C   UNL A   1      35.854  33.643  28.200  1.00  0.00     0.016 A 
ATOM     29  C   UNL A   1      35.681  31.014  29.165  1.00  0.00     0.010 A 
ATOM     30  C   UNL A   1      37.000  32.987  28.667  1.00  0.00     0.010 A 
ATOM     31  C   UNL A   1      36.912  31.682  29.185  1.00  0.00    -0.014 A 
BRANCH  31  32
ATOM     32  C   UNL A   1      38.068  31.040  29.860  1.00  0.00     0.031 A 
ATOM     33  C   UNL A   1      38.328  31.324  31.315  1.00  0.00     0.074 A 
ATOM     34  C   UNL A   1      38.837  30.156  29.200  1.00  0.00     0.049 A 
ATOM     35  N   UNL A   1      39.247  30.823  32.103  1.00  0.00    -0.248 NA
ATOM     36  C   UNL A   1      37.433  32.290  31.971  1.00  0.00     0.031 C 
ATOM     37  C   UNL A   1      38.667  29.764  27.801  1.00  0.00     0.029 A 
ATOM     38  N   UNL A   1      39.912  29.417  29.629  1.00  0.00    -0.354 N 
ATOM     39  C   UNL A   1      39.038  31.409  33.346  1.00  0.00     0.074 A 
ATOM     40  C   UNL A   1      37.927  32.325  33.200  1.00  0.00     0.031 C 
ATOM     41  C   UNL A   1      39.604  28.852  27.487  1.00  0.00     0.029 A 
ATOM     42  C   UNL A   1      40.450  28.614  28.654  1.00  0.00     0.049 A 
ATOM     43  H   UNL A   1      40.262  29.460  30.548  1.00  0.00     0.167 HD
ATOM     44  C   UNL A   1      39.700  31.195  34.508  1.00  0.00     0.031 A 
ATOM     45  C   UNL A   1      41.512  27.787  28.696  1.00  0.00     0.031 A 
ATOM     46  C   UNL A   1      40.814  30.297  34.658  1.00  0.00     0.049 A 
ATOM     47  C   UNL A   1      42.277  27.625  29.981  1.00  0.00     0.074 A 
ATOM     48  C   UNL A   1      41.547  30.014  35.799  1.00  0.00     0.029 A 
ATOM     49  N   UNL A   1      41.362  29.541  33.635  1.00  0.00    -0.354 N 
ATOM     50  N   UNL A   1      42.049  28.164  31.154  1.00  0.00    -0.248 NA
ATOM     51  C   UNL A   1      43.442  26.727  29.948  1.00  0.00     0.031 C 
ATOM     52  C   UNL A   1      42.568  29.121  35.454  1.00  0.00     0.029 A 
ATOM     53  C   UNL A   1      42.437  28.810  34.110  1.00  0.00     0.049 A 
ATOM     54  H   UNL A   1      41.035  29.526  32.706  1.00  0.00     0.167 HD
ATOM     55  C   UNL A   1      43.026  27.655  32.001  1.00  0.00     0.074 A 
ATOM     56  C   UNL A   1      43.834  26.748  31.214  1.00  0.00     0.031 C 
ATOM     57  C   UNL A   1      43.236  27.916  33.315  1.00  0.00     0.031 A 
BRANCH  44  58
ATOM     58  C   UNL A   1      39.247  31.964  35.716  1.00  0.00    -0.014 A 
ATOM     59  C   UNL A   1      39.787  33.225  36.017  1.00  0.00     0.009 A 
ATOM     60  C   UNL A   1      38.230  31.447  36.533  1.00  0.00     0.009 A 
ATOM     61  C   UNL A   1      39.333  33.941  37.127  1.00  0.00     0.001 A 
ATOM     62  C   UNL A   1      37.762  32.175  37.628  1.00  0.00     0.001 A 
ATOM     63  C   UNL A   1      38.318  33.418  37.927  1.00  0.00     0.000 A 
ENDBRANCH  44  58
BRANCH  45  64
ATOM     64  C   UNL A   1      41.939  27.056  27.474  1.00  0.00    -0.014 A 
ATOM     65  C   UNL A   1      41.476  25.756  27.216  1.00  0.00     0.009 A 
ATOM     66  C   UNL A   1      42.847  27.643  26.580  1.00  0.00     0.009 A 
ATOM     67  C   UNL A   1      41.940  25.049  26.104  1.00  0.00     0.001 A 
ATOM     68  C   UNL A   1      43.287  26.945  25.455  1.00  0.00     0.001 A 
ATOM     69  C   UNL A   1      42.842  25.644  25.224  1.00  0.00     0.000 A 
ENDBRANCH  45  64
BRANCH  57  70
ATOM     70  C   UNL A   1      44.370  27.191  33.982  1.00  0.00    -0.014 A 
ATOM     71  C   UNL A   1      44.171  25.951  34.610  1.00  0.00     0.009 A 
ATOM     72  C   UNL A   1      45.659  27.746  33.966  1.00  0.00     0.009 A 
ATOM     73  C   UNL A   1      45.233  25.302  35.243  1.00  0.00     0.001 A 
ATOM     74  C   UNL A   1      46.724  27.083  34.576  1.00  0.00     0.001 A 
ATOM     75  C   UNL A   1      46.508  25.867  35.224  1.00  0.00     0.000 A 
ENDBRANCH  57  70
ENDBRANCH  31  32
ENDBRANCH  24  26
ENDBRANCH  23  24
ENDBRANCH  22  23
ENDBRANCH  21  22
ENDBRANCH  20  21
ENDBRANCH   1  20
TORSDOF 18
ENDMDL
MODEL 3
REMARK VINA RESULT:      -9.3      4.405      8.002
REMARK SMILES CCCO[C@@H]1CCC[C@]([NH3+])(C(=O)OCCOCCOC(=O)c2ccc(-c3c4nc(c(-c5ccccc5)c5ccc([nH]5)c(-c5ccccc5)c5nc(c(-c6ccccc6)c6ccc3[nH]6)C=C5)C=C4)cc2)C1
REMARK SMILES IDX 15 1 14 2 13 3 11 4 12 5 9 6 5 7 6 8 70 9 7 10 8 11 4 12
REMARK SMILES IDX 3 13 2 14 1 15 10 16 16 20 17 21 18 22 19 23 20 24 21 25
REMARK SMILES IDX 22 26 23 27 69 28 24 29 68 30 25 31 26 32 27 33 62 34 28 35
REMARK SMILES IDX 67 36 61 37 63 38 29 39 66 40 60 41 59 42 30 44 52 45 37 46
REMARK SMILES IDX 51 47 38 48 41 49 50 50 64 51 39 52 40 53 49 55 65 56 42 57
REMARK SMILES IDX 31 58 32 59 36 60 33 61 35 62 34 63 53 64 54 65 58 66 55 67
REMARK SMILES IDX 57 68 56 69 43 70 44 71 48 72 45 73 47 74 46 75
REMARK H PARENT 10 17 10 18 10 19 63 43 41 54
REMARK Flexibility Score: inf
ROOT
ATOM      1  C   UNL A   1      38.861  20.294  25.517  1.00  0.00     0.202 C 
ENDROOT
BRANCH   1   2
ATOM      2  C   UNL A   1      38.507  21.773  25.699  1.00  0.00     0.261 C 
BRANCH   2   3
ATOM      3  O   UNL A   1      37.131  21.910  26.094  1.00  0.00    -0.459 OA
BRANCH   3   4
ATOM      4  C   UNL A   1      36.201  21.909  25.100  1.00  0.00     0.368 C 
ATOM      5  O   UNL A   1      36.439  22.136  23.919  1.00  0.00    -0.245 OA
BRANCH   4   6
ATOM      6  C   UNL A   1      34.765  21.629  25.633  1.00  0.00     0.195 C 
ATOM      7  C   UNL A   1      32.676  20.142  25.404  1.00  0.00     0.125 C 
ATOM      8  C   UNL A   1      31.834  21.385  25.094  1.00  0.00     0.032 C 
ATOM      9  C   UNL A   1      34.140  20.365  25.030  1.00  0.00     0.113 C 
ATOM     10  C   UNL A   1      32.418  22.650  25.712  1.00  0.00     0.010 C 
ATOM     11  C   UNL A   1      33.881  22.849  25.310  1.00  0.00     0.081 C 
BRANCH   7  12
ATOM     12  O   UNL A   1      32.153  19.063  24.618  1.00  0.00    -0.378 OA
BRANCH  12  13
ATOM     13  C   UNL A   1      32.517  19.099  23.237  1.00  0.00     0.160 C 
BRANCH  13  14
ATOM     14  C   UNL A   1      32.699  17.688  22.672  1.00  0.00     0.025 C 
ATOM     15  C   UNL A   1      33.973  16.991  23.138  1.00  0.00     0.006 C 
ENDBRANCH  13  14
ENDBRANCH  12  13
ENDBRANCH   7  12
BRANCH   6  16
ATOM     16  N   UNL A   1      34.855  21.455  27.107  1.00  0.00    -0.343 N 
ATOM     17  H   UNL A   1      35.217  20.525  27.318  1.00  0.00     0.345 HD
ATOM     18  H   UNL A   1      33.928  21.561  27.519  1.00  0.00     0.345 HD
ATOM     19  H   UNL A   1      35.482  22.160  27.495  1.00  0.00     0.345 HD
ENDBRANCH   6  16
ENDBRANCH   4   6
ENDBRANCH   3   4
ENDBRANCH   2   3
ENDBRANCH   1   2
BRANCH   1  20
ATOM     20  O   UNL A   1      40.116  19.904  26.080  1.00  0.00    -0.374 OA
BRANCH  20  21
ATOM     21  C   UNL A   1      40.821  20.905  26.815  1.00  0.00     0.202 C 
BRANCH  21  22
ATOM     22  C   UNL A   1      42.064  21.479  26.127  1.00  0.00     0.261 C 
BRANCH  22  23
ATOM     23  O   UNL A   1      41.818  22.779  25.561  1.00  0.00    -0.460 OA
BRANCH  23  24
ATOM     24  C   UNL A   1      42.763  23.704  25.854  1.00  0.00     0.338 C 
ATOM     25  O   UNL A   1      43.900  23.763  25.418  1.00  0.00    -0.246 OA
BRANCH  24  26
ATOM     26  C   UNL A   1      42.193  24.775  26.696  1.00  0.00     0.060 A 
ATOM     27  C   UNL A   1      42.832  26.019  26.656  1.00  0.00     0.016 A 
ATOM     28  C   UNL A   1      41.128  24.552  27.573  1.00  0.00     0.016 A 
ATOM     29  C   UNL A   1      42.445  27.030  27.533  1.00  0.00     0.010 A 
ATOM     30  C   UNL A   1      40.745  25.569  28.458  1.00  0.00     0.010 A 
ATOM     31  C   UNL A   1      41.426  26.800  28.466  1.00  0.00    -0.014 A 
BRANCH  31  32
ATOM     32  C   UNL A   1      41.169  27.817  29.516  1.00  0.00     0.031 A 
ATOM     33  C   UNL A   1      42.085  27.900  30.707  1.00  0.00     0.074 A 
ATOM     34  C   UNL A   1      40.170  28.705  29.373  1.00  0.00     0.049 A 
ATOM     35  N   UNL A   1      42.068  28.749  31.705  1.00  0.00    -0.248 NA
ATOM     36  C   UNL A   1      43.163  26.902  30.783  1.00  0.00     0.031 C 
ATOM     37  C   UNL A   1      39.236  28.757  28.248  1.00  0.00     0.029 A 
ATOM     38  N   UNL A   1      39.783  29.746  30.181  1.00  0.00    -0.354 N 
ATOM     39  C   UNL A   1      43.135  28.393  32.521  1.00  0.00     0.074 A 
ATOM     40  C   UNL A   1      43.757  27.232  31.921  1.00  0.00     0.031 C 
ATOM     41  C   UNL A   1      38.385  29.781  28.435  1.00  0.00     0.029 A 
ATOM     42  C   UNL A   1      38.700  30.440  29.701  1.00  0.00     0.049 A 
ATOM     43  H   UNL A   1      40.238  29.972  31.024  1.00  0.00     0.167 HD
ATOM     44  C   UNL A   1      43.567  28.985  33.660  1.00  0.00     0.031 A 
ATOM     45  C   UNL A   1      38.032  31.484  30.227  1.00  0.00     0.031 A 
ATOM     46  C   UNL A   1      42.946  30.130  34.270  1.00  0.00     0.049 A 
ATOM     47  C   UNL A   1      38.488  32.076  31.533  1.00  0.00     0.074 A 
ATOM     48  C   UNL A   1      43.316  30.800  35.425  1.00  0.00     0.029 A 
ATOM     49  N   UNL A   1      41.821  30.772  33.780  1.00  0.00    -0.354 N 
ATOM     50  N   UNL A   1      39.515  31.745  32.278  1.00  0.00    -0.248 NA
ATOM     51  C   UNL A   1      37.697  33.196  32.064  1.00  0.00     0.031 C 
ATOM     52  C   UNL A   1      42.386  31.819  35.658  1.00  0.00     0.029 A 
ATOM     53  C   UNL A   1      41.469  31.815  34.620  1.00  0.00     0.049 A 
ATOM     54  H   UNL A   1      41.342  30.523  32.956  1.00  0.00     0.167 HD
ATOM     55  C   UNL A   1      39.505  32.628  33.351  1.00  0.00     0.074 A 
ATOM     56  C   UNL A   1      38.385  33.523  33.149  1.00  0.00     0.031 C 
ATOM     57  C   UNL A   1      40.348  32.692  34.410  1.00  0.00     0.031 A 
BRANCH  44  58
ATOM     58  C   UNL A   1      44.768  28.389  34.338  1.00  0.00    -0.014 A 
ATOM     59  C   UNL A   1      44.627  27.412  35.336  1.00  0.00     0.009 A 
ATOM     60  C   UNL A   1      46.058  28.771  33.937  1.00  0.00     0.009 A 
ATOM     61  C   UNL A   1      45.755  26.846  35.935  1.00  0.00     0.001 A 
ATOM     62  C   UNL A   1      47.183  28.186  34.521  1.00  0.00     0.001 A 
ATOM     63  C   UNL A   1      47.030  27.229  35.523  1.00  0.00     0.000 A 
ENDBRANCH  44  58
BRANCH  45  64
ATOM     64  C   UNL A   1      36.838  32.035  29.533  1.00  0.00    -0.014 A 
ATOM     65  C   UNL A   1      35.564  31.489  29.752  1.00  0.00     0.009 A 
ATOM     66  C   UNL A   1      36.978  33.086  28.615  1.00  0.00     0.009 A 
ATOM     67  C   UNL A   1      34.460  31.965  29.040  1.00  0.00     0.001 A 
ATOM     68  C   UNL A   1      35.868  33.579  27.926  1.00  0.00     0.001 A 
ATOM     69  C   UNL A   1      34.613  33.010  28.130  1.00  0.00     0.000 A 
ENDBRANCH  45  64
BRANCH  57  70
ATOM     70  C   UNL A   1      40.101  33.782  35.415  1.00  0.00    -0.014 A 
ATOM     71  C   UNL A   1      39.310  33.558  36.552  1.00  0.00     0.009 A 
ATOM     72  C   UNL A   1      40.684  35.046  35.229  1.00  0.00     0.009 A 
ATOM     73  C   UNL A   1      39.075  34.589  37.463  1.00  0.00     0.001 A 
ATOM     74  C   UNL A   1      40.470  36.067  36.155  1.00  0.00     0.001 A 
ATOM     75  C   UNL A   1      39.656  35.842  37.266  1.00  0.00     0.000 A 
ENDBRANCH  57  70
ENDBRANCH  31  32
ENDBRANCH  24  26
ENDBRANCH  23  24
ENDBRANCH  22  23
ENDBRANCH  21  22
ENDBRANCH  20  21
ENDBRANCH   1  20
TORSDOF 18
ENDMDL
