MODEL 1
REMARK VINA RESULT:     -10.2      0.000      0.000
REMARK SMILES COc1ccc(N2C(=O)/C(=C\c3ccc(-c4ccc(Cl)c(C(=O)OCCOCCOC(=O)c5ccc(-c6c7nc(c(-c8ccccc8)c8ccc([nH]8)c(-c8ccccc8)c8nc(c(-c9ccccc9)c9ccc6[nH]9)C=C8)C=C7)cc5)c4)o3)SC2=S)cc1
REMARK SMILES IDX 26 1 25 2 24 3 22 4 23 5 21 6 16 7 17 8 81 9 18 10 19 11
REMARK SMILES IDX 20 12 15 13 12 14 13 15 82 16 14 17 11 18 7 19 8 20 84 21
REMARK SMILES IDX 9 22 10 23 83 24 85 25 6 26 3 27 4 28 87 29 5 30 86 31 2 32
REMARK SMILES IDX 1 33 27 34 28 35 29 36 30 37 31 38 32 39 33 40 34 41 80 42
REMARK SMILES IDX 35 43 79 44 36 45 37 46 38 47 73 48 39 49 78 50 72 51 74 52
REMARK SMILES IDX 40 53 77 54 71 55 70 56 41 58 63 59 48 60 62 61 49 62 52 63
REMARK SMILES IDX 61 64 75 65 50 66 51 67 60 69 76 70 53 71 42 72 43 73 47 74
REMARK SMILES IDX 44 75 46 76 45 77 64 78 65 79 69 80 66 81 68 82 67 83 54 84
REMARK SMILES IDX 55 85 59 86 56 87 58 88 57 89
REMARK H PARENT 74 57 52 68
REMARK Flexibility Score: inf
ROOT
ATOM      1  C   UNL A   1      34.804  30.987  27.637  1.00  0.00     0.202 C 
ENDROOT
BRANCH   1   2
ATOM      2  C   UNL A   1      33.729  30.228  26.852  1.00  0.00     0.261 C 
BRANCH   2   3
ATOM      3  O   UNL A   1      34.196  28.927  26.470  1.00  0.00    -0.460 OA
BRANCH   3   4
ATOM      4  C   UNL A   1      33.624  28.401  25.355  1.00  0.00     0.339 C 
ATOM      5  O   UNL A   1      33.380  28.984  24.314  1.00  0.00    -0.246 OA
BRANCH   4   6
ATOM      6  C   UNL A   1      33.409  26.955  25.584  1.00  0.00     0.079 A 
ATOM      7  C   UNL A   1      34.172  24.667  25.213  1.00  0.00     0.018 A 
ATOM      8  C   UNL A   1      33.088  24.200  25.963  1.00  0.00     0.013 A 
ATOM      9  C   UNL A   1      34.318  26.047  25.023  1.00  0.00     0.029 A 
ATOM     10  C   UNL A   1      32.168  25.101  26.514  1.00  0.00     0.022 A 
ATOM     11  C   UNL A   1      32.324  26.479  26.326  1.00  0.00     0.055 A 
ATOM     12  Cl  UNL A   1      31.099  27.509  26.974  1.00  0.00    -0.083 Cl
BRANCH   7  13
ATOM     13  C   UNL A   1      35.188  23.771  24.683  1.00  0.00     0.134 A 
ATOM     14  C   UNL A   1      36.810  22.272  24.858  1.00  0.00     0.128 A 
ATOM     15  C   UNL A   1      36.653  22.573  23.510  1.00  0.00     0.051 A 
ATOM     16  O   UNL A   1      35.871  22.988  25.567  1.00  0.00    -0.457 OA
ATOM     17  C   UNL A   1      35.637  23.540  23.403  1.00  0.00     0.051 A 
BRANCH  14  18
ATOM     18  C   UNL A   1      37.787  21.423  25.442  1.00  0.00     0.068 C 
ATOM     19  N   UNL A   1      40.451  23.552  26.751  1.00  0.00    -0.261 N 
ATOM     20  C   UNL A   1      39.138  23.369  26.330  1.00  0.00     0.270 C 
ATOM     21  C   UNL A   1      41.222  22.406  26.882  1.00  0.00     0.152 C 
ATOM     22  O   UNL A   1      38.295  24.246  26.188  1.00  0.00    -0.268 OA
ATOM     23  C   UNL A   1      38.877  21.930  26.036  1.00  0.00     0.084 C 
ATOM     24  S   UNL A   1      40.239  20.985  26.495  1.00  0.00    -0.054 SA
ATOM     25  S   UNL A   1      42.797  22.226  27.411  1.00  0.00    -0.051 S 
BRANCH  19  26
ATOM     26  C   UNL A   1      40.893  24.881  27.022  1.00  0.00     0.051 A 
ATOM     27  C   UNL A   1      41.540  27.571  27.539  1.00  0.00     0.119 A 
ATOM     28  C   UNL A   1      40.911  26.805  28.515  1.00  0.00     0.048 A 
ATOM     29  C   UNL A   1      41.879  26.990  26.317  1.00  0.00     0.048 A 
ATOM     30  C   UNL A   1      40.575  25.477  28.253  1.00  0.00     0.030 A 
ATOM     31  C   UNL A   1      41.561  25.649  26.060  1.00  0.00     0.030 A 
BRANCH  27  32
ATOM     32  O   UNL A   1      41.830  28.859  27.891  1.00  0.00    -0.497 OA
ATOM     33  C   UNL A   1      42.669  29.546  26.967  1.00  0.00     0.278 C 
ENDBRANCH  27  32
ENDBRANCH  19  26
ENDBRANCH  14  18
ENDBRANCH   7  13
ENDBRANCH   4   6
ENDBRANCH   3   4
ENDBRANCH   2   3
ENDBRANCH   1   2
BRANCH   1  34
ATOM     34  O   UNL A   1      34.859  32.403  27.475  1.00  0.00    -0.374 OA
BRANCH  34  35
ATOM     35  C   UNL A   1      33.968  33.203  28.251  1.00  0.00     0.202 C 
BRANCH  35  36
ATOM     36  C   UNL A   1      34.364  33.520  29.700  1.00  0.00     0.261 C 
BRANCH  36  37
ATOM     37  O   UNL A   1      34.287  32.382  30.574  1.00  0.00    -0.460 OA
BRANCH  37  38
ATOM     38  C   UNL A   1      34.987  32.514  31.728  1.00  0.00     0.338 C 
ATOM     39  O   UNL A   1      34.555  32.786  32.834  1.00  0.00    -0.246 OA
BRANCH  38  40
ATOM     40  C   UNL A   1      36.388  32.111  31.509  1.00  0.00     0.060 A 
ATOM     41  C   UNL A   1      37.326  32.462  32.488  1.00  0.00     0.016 A 
ATOM     42  C   UNL A   1      36.788  31.482  30.329  1.00  0.00     0.016 A 
ATOM     43  C   UNL A   1      38.680  32.220  32.272  1.00  0.00     0.010 A 
ATOM     44  C   UNL A   1      38.149  31.248  30.111  1.00  0.00     0.010 A 
ATOM     45  C   UNL A   1      39.104  31.646  31.066  1.00  0.00    -0.014 A 
BRANCH  45  46
ATOM     46  C   UNL A   1      40.550  31.581  30.749  1.00  0.00     0.031 A 
ATOM     47  C   UNL A   1      41.237  32.801  30.199  1.00  0.00     0.074 A 
ATOM     48  C   UNL A   1      41.249  30.452  30.962  1.00  0.00     0.049 A 
ATOM     49  N   UNL A   1      42.477  32.950  29.810  1.00  0.00    -0.248 NA
ATOM     50  C   UNL A   1      40.413  34.014  30.070  1.00  0.00     0.031 C 
ATOM     51  C   UNL A   1      40.710  29.219  31.534  1.00  0.00     0.029 A 
ATOM     52  N   UNL A   1      42.568  30.163  30.716  1.00  0.00    -0.354 N 
ATOM     53  C   UNL A   1      42.580  34.266  29.376  1.00  0.00     0.074 A 
ATOM     54  C   UNL A   1      41.270  34.863  29.521  1.00  0.00     0.031 C 
ATOM     55  C   UNL A   1      41.691  28.302  31.590  1.00  0.00     0.029 A 
ATOM     56  C   UNL A   1      42.912  28.870  31.023  1.00  0.00     0.049 A 
ATOM     57  H   UNL A   1      43.205  30.820  30.354  1.00  0.00     0.167 HD
ATOM     58  C   UNL A   1      43.668  34.920  28.904  1.00  0.00     0.031 A 
ATOM     59  C   UNL A   1      44.073  28.212  30.843  1.00  0.00     0.031 A 
ATOM     60  C   UNL A   1      44.967  34.320  28.748  1.00  0.00     0.049 A 
ATOM     61  C   UNL A   1      45.245  28.936  30.236  1.00  0.00     0.074 A 
ATOM     62  C   UNL A   1      46.137  34.904  28.295  1.00  0.00     0.029 A 
ATOM     63  N   UNL A   1      45.264  32.996  29.030  1.00  0.00    -0.354 N 
ATOM     64  N   UNL A   1      45.338  30.187  29.853  1.00  0.00    -0.248 NA
ATOM     65  C   UNL A   1      46.477  28.156  30.044  1.00  0.00     0.031 C 
ATOM     66  C   UNL A   1      47.126  33.916  28.240  1.00  0.00     0.029 A 
ATOM     67  C   UNL A   1      46.591  32.735  28.729  1.00  0.00     0.049 A 
ATOM     68  H   UNL A   1      44.627  32.338  29.391  1.00  0.00     0.167 HD
ATOM     69  C   UNL A   1      46.645  30.352  29.408  1.00  0.00     0.074 A 
ATOM     70  C   UNL A   1      47.310  29.078  29.581  1.00  0.00     0.031 C 
ATOM     71  C   UNL A   1      47.240  31.461  28.904  1.00  0.00     0.031 A 
BRANCH  58  72
ATOM     72  C   UNL A   1      43.488  36.353  28.484  1.00  0.00    -0.014 A 
ATOM     73  C   UNL A   1      43.081  36.692  27.183  1.00  0.00     0.009 A 
ATOM     74  C   UNL A   1      43.699  37.382  29.417  1.00  0.00     0.009 A 
ATOM     75  C   UNL A   1      42.925  38.032  26.817  1.00  0.00     0.001 A 
ATOM     76  C   UNL A   1      43.512  38.717  29.056  1.00  0.00     0.001 A 
ATOM     77  C   UNL A   1      43.136  39.042  27.755  1.00  0.00     0.000 A 
ENDBRANCH  58  72
BRANCH  59  78
ATOM     78  C   UNL A   1      44.183  26.778  31.222  1.00  0.00    -0.014 A 
ATOM     79  C   UNL A   1      44.502  26.406  32.536  1.00  0.00     0.009 A 
ATOM     80  C   UNL A   1      43.985  25.772  30.262  1.00  0.00     0.009 A 
ATOM     81  C   UNL A   1      44.648  25.059  32.874  1.00  0.00     0.001 A 
ATOM     82  C   UNL A   1      44.098  24.425  30.611  1.00  0.00     0.001 A 
ATOM     83  C   UNL A   1      44.441  24.069  31.915  1.00  0.00     0.000 A 
ENDBRANCH  59  78
BRANCH  71  84
ATOM     84  C   UNL A   1      48.698  31.360  28.543  1.00  0.00    -0.014 A 
ATOM     85  C   UNL A   1      49.708  31.644  29.475  1.00  0.00     0.009 A 
ATOM     86  C   UNL A   1      49.063  30.930  27.256  1.00  0.00     0.009 A 
ATOM     87  C   UNL A   1      51.053  31.534  29.114  1.00  0.00     0.001 A 
ATOM     88  C   UNL A   1      50.408  30.789  26.909  1.00  0.00     0.001 A 
ATOM     89  C   UNL A   1      51.401  31.101  27.835  1.00  0.00     0.000 A 
ENDBRANCH  71  84
ENDBRANCH  45  46
ENDBRANCH  38  40
ENDBRANCH  37  38
ENDBRANCH  36  37
ENDBRANCH  35  36
ENDBRANCH  34  35
ENDBRANCH   1  34
TORSDOF 18
ENDMDL
MODEL 2
REMARK VINA RESULT:      -9.8      3.547      7.448
REMARK SMILES COc1ccc(N2C(=O)/C(=C\c3ccc(-c4ccc(Cl)c(C(=O)OCCOCCOC(=O)c5ccc(-c6c7nc(c(-c8ccccc8)c8ccc([nH]8)c(-c8ccccc8)c8nc(c(-c9ccccc9)c9ccc6[nH]9)C=C8)C=C7)cc5)c4)o3)SC2=S)cc1
REMARK SMILES IDX 26 1 25 2 24 3 22 4 23 5 21 6 16 7 17 8 81 9 18 10 19 11
REMARK SMILES IDX 20 12 15 13 12 14 13 15 82 16 14 17 11 18 7 19 8 20 84 21
REMARK SMILES IDX 9 22 10 23 83 24 85 25 6 26 3 27 4 28 87 29 5 30 86 31 2 32
REMARK SMILES IDX 1 33 27 34 28 35 29 36 30 37 31 38 32 39 33 40 34 41 80 42
REMARK SMILES IDX 35 43 79 44 36 45 37 46 38 47 73 48 39 49 78 50 72 51 74 52
REMARK SMILES IDX 40 53 77 54 71 55 70 56 41 58 63 59 48 60 62 61 49 62 52 63
REMARK SMILES IDX 61 64 75 65 50 66 51 67 60 69 76 70 53 71 42 72 43 73 47 74
REMARK SMILES IDX 44 75 46 76 45 77 64 78 65 79 69 80 66 81 68 82 67 83 54 84
REMARK SMILES IDX 55 85 59 86 56 87 58 88 57 89
REMARK H PARENT 74 57 52 68
REMARK Flexibility Score: inf
ROOT
ATOM      1  C   UNL A   1      37.810  22.592  25.861  1.00  0.00     0.202 C 
ENDROOT
BRANCH   1   2
ATOM      2  C   UNL A   1      36.377  22.064  25.739  1.00  0.00     0.261 C 
BRANCH   2   3
ATOM      3  O   UNL A   1      35.427  23.060  26.140  1.00  0.00    -0.460 OA
BRANCH   3   4
ATOM      4  C   UNL A   1      34.164  22.892  25.666  1.00  0.00     0.339 C 
ATOM      5  O   UNL A   1      33.453  21.914  25.810  1.00  0.00    -0.246 OA
BRANCH   4   6
ATOM      6  C   UNL A   1      33.751  24.146  24.998  1.00  0.00     0.079 A 
ATOM      7  C   UNL A   1      32.852  26.406  25.215  1.00  0.00     0.018 A 
ATOM      8  C   UNL A   1      32.945  26.558  23.828  1.00  0.00     0.013 A 
ATOM      9  C   UNL A   1      33.251  25.191  25.789  1.00  0.00     0.029 A 
ATOM     10  C   UNL A   1      33.430  25.514  23.031  1.00  0.00     0.022 A 
ATOM     11  C   UNL A   1      33.832  24.306  23.612  1.00  0.00     0.055 A 
ATOM     12  Cl  UNL A   1      34.342  23.046  22.546  1.00  0.00    -0.083 Cl
BRANCH   7  13
ATOM     13  C   UNL A   1      32.422  27.489  26.085  1.00  0.00     0.134 A 
ATOM     14  C   UNL A   1      32.496  29.555  26.880  1.00  0.00     0.128 A 
ATOM     15  C   UNL A   1      31.527  28.860  27.594  1.00  0.00     0.051 A 
ATOM     16  O   UNL A   1      33.011  28.708  25.923  1.00  0.00    -0.457 OA
ATOM     17  C   UNL A   1      31.496  27.542  27.101  1.00  0.00     0.051 A 
BRANCH  14  18
ATOM     18  C   UNL A   1      32.939  30.886  27.102  1.00  0.00     0.068 C 
ATOM     19  N   UNL A   1      36.335  30.705  28.435  1.00  0.00    -0.261 N 
ATOM     20  C   UNL A   1      35.274  30.143  27.733  1.00  0.00     0.270 C 
ATOM     21  C   UNL A   1      36.211  32.043  28.774  1.00  0.00     0.152 C 
ATOM     22  O   UNL A   1      35.210  28.993  27.316  1.00  0.00    -0.268 OA
ATOM     23  C   UNL A   1      34.173  31.136  27.564  1.00  0.00     0.084 C 
ATOM     24  S   UNL A   1      34.682  32.674  28.140  1.00  0.00    -0.054 SA
ATOM     25  S   UNL A   1      37.287  33.059  29.552  1.00  0.00    -0.051 S 
BRANCH  19  26
ATOM     26  C   UNL A   1      37.456  29.875  28.738  1.00  0.00     0.051 A 
ATOM     27  C   UNL A   1      39.590  28.091  29.171  1.00  0.00     0.119 A 
ATOM     28  C   UNL A   1      39.564  28.884  28.028  1.00  0.00     0.048 A 
ATOM     29  C   UNL A   1      38.572  28.211  30.117  1.00  0.00     0.048 A 
ATOM     30  C   UNL A   1      38.499  29.755  27.804  1.00  0.00     0.030 A 
ATOM     31  C   UNL A   1      37.511  29.103  29.905  1.00  0.00     0.030 A 
BRANCH  27  32
ATOM     32  O   UNL A   1      40.676  27.272  29.301  1.00  0.00    -0.497 OA
ATOM     33  C   UNL A   1      41.759  27.844  30.029  1.00  0.00     0.278 C 
ENDBRANCH  27  32
ENDBRANCH  19  26
ENDBRANCH  14  18
ENDBRANCH   7  13
ENDBRANCH   4   6
ENDBRANCH   3   4
ENDBRANCH   2   3
ENDBRANCH   1   2
BRANCH   1  34
ATOM     34  O   UNL A   1      38.872  21.689  25.561  1.00  0.00    -0.374 OA
BRANCH  34  35
ATOM     35  C   UNL A   1      39.901  21.516  26.535  1.00  0.00     0.202 C 
BRANCH  35  36
ATOM     36  C   UNL A   1      41.324  21.958  26.163  1.00  0.00     0.261 C 
BRANCH  36  37
ATOM     37  O   UNL A   1      41.574  23.350  26.420  1.00  0.00    -0.460 OA
BRANCH  37  38
ATOM     38  C   UNL A   1      41.958  23.623  27.691  1.00  0.00     0.338 C 
ATOM     39  O   UNL A   1      41.780  22.942  28.686  1.00  0.00    -0.246 OA
BRANCH  38  40
ATOM     40  C   UNL A   1      42.804  24.830  27.707  1.00  0.00     0.060 A 
ATOM     41  C   UNL A   1      42.756  25.673  26.589  1.00  0.00     0.016 A 
ATOM     42  C   UNL A   1      43.691  25.083  28.755  1.00  0.00     0.016 A 
ATOM     43  C   UNL A   1      43.628  26.755  26.496  1.00  0.00     0.010 A 
ATOM     44  C   UNL A   1      44.571  26.165  28.655  1.00  0.00     0.010 A 
ATOM     45  C   UNL A   1      44.566  26.986  27.512  1.00  0.00    -0.014 A 
BRANCH  45  46
ATOM     46  C   UNL A   1      45.626  28.003  27.317  1.00  0.00     0.031 A 
ATOM     47  C   UNL A   1      45.251  29.460  27.305  1.00  0.00     0.074 A 
ATOM     48  C   UNL A   1      46.911  27.636  27.169  1.00  0.00     0.049 A 
ATOM     49  N   UNL A   1      46.007  30.509  27.103  1.00  0.00    -0.248 NA
ATOM     50  C   UNL A   1      43.835  29.775  27.552  1.00  0.00     0.031 C 
ATOM     51  C   UNL A   1      47.407  26.262  27.209  1.00  0.00     0.029 A 
ATOM     52  N   UNL A   1      48.033  28.395  26.948  1.00  0.00    -0.354 N 
ATOM     53  C   UNL A   1      45.158  31.606  27.184  1.00  0.00     0.074 A 
ATOM     54  C   UNL A   1      43.826  31.093  27.422  1.00  0.00     0.031 C 
ATOM     55  C   UNL A   1      48.737  26.275  27.014  1.00  0.00     0.029 A 
ATOM     56  C   UNL A   1      49.176  27.651  26.796  1.00  0.00     0.049 A 
ATOM     57  H   UNL A   1      48.018  29.378  26.903  1.00  0.00     0.167 HD
ATOM     58  C   UNL A   1      45.460  32.922  27.075  1.00  0.00     0.031 A 
ATOM     59  C   UNL A   1      50.430  28.036  26.492  1.00  0.00     0.031 A 
ATOM     60  C   UNL A   1      46.783  33.429  26.824  1.00  0.00     0.049 A 
ATOM     61  C   UNL A   1      50.726  29.498  26.289  1.00  0.00     0.074 A 
ATOM     62  C   UNL A   1      47.195  34.745  26.714  1.00  0.00     0.029 A 
ATOM     63  N   UNL A   1      47.908  32.641  26.634  1.00  0.00    -0.354 N 
ATOM     64  N   UNL A   1      49.920  30.527  26.392  1.00  0.00    -0.248 NA
ATOM     65  C   UNL A   1      52.109  29.851  25.935  1.00  0.00     0.031 C 
ATOM     66  C   UNL A   1      48.556  34.752  26.391  1.00  0.00     0.029 A 
ATOM     67  C   UNL A   1      49.007  33.442  26.374  1.00  0.00     0.049 A 
ATOM     68  H   UNL A   1      47.923  31.657  26.678  1.00  0.00     0.167 HD
ATOM     69  C   UNL A   1      50.704  31.650  26.150  1.00  0.00     0.074 A 
ATOM     70  C   UNL A   1      52.051  31.174  25.908  1.00  0.00     0.031 C 
ATOM     71  C   UNL A   1      50.342  32.956  26.132  1.00  0.00     0.031 A 
BRANCH  58  72
ATOM     72  C   UNL A   1      44.327  33.905  27.185  1.00  0.00    -0.014 A 
ATOM     73  C   UNL A   1      43.888  34.384  28.430  1.00  0.00     0.009 A 
ATOM     74  C   UNL A   1      43.709  34.385  26.019  1.00  0.00     0.009 A 
ATOM     75  C   UNL A   1      42.830  35.294  28.505  1.00  0.00     0.001 A 
ATOM     76  C   UNL A   1      42.673  35.317  26.096  1.00  0.00     0.001 A 
ATOM     77  C   UNL A   1      42.227  35.763  27.339  1.00  0.00     0.000 A 
ENDBRANCH  58  72
BRANCH  59  78
ATOM     78  C   UNL A   1      51.504  27.018  26.336  1.00  0.00    -0.014 A 
ATOM     79  C   UNL A   1      52.357  26.706  27.405  1.00  0.00     0.009 A 
ATOM     80  C   UNL A   1      51.692  26.365  25.106  1.00  0.00     0.009 A 
ATOM     81  C   UNL A   1      53.391  25.782  27.238  1.00  0.00     0.001 A 
ATOM     82  C   UNL A   1      52.706  25.418  24.953  1.00  0.00     0.001 A 
ATOM     83  C   UNL A   1      53.562  25.135  26.016  1.00  0.00     0.000 A 
ENDBRANCH  59  78
BRANCH  71  84
ATOM     84  C   UNL A   1      51.425  33.971  25.885  1.00  0.00    -0.014 A 
ATOM     85  C   UNL A   1      51.820  34.323  24.585  1.00  0.00     0.009 A 
ATOM     86  C   UNL A   1      52.029  34.618  26.976  1.00  0.00     0.009 A 
ATOM     87  C   UNL A   1      52.823  35.275  24.385  1.00  0.00     0.001 A 
ATOM     88  C   UNL A   1      53.007  35.592  26.772  1.00  0.00     0.001 A 
ATOM     89  C   UNL A   1      53.410  35.913  25.477  1.00  0.00     0.000 A 
ENDBRANCH  71  84
ENDBRANCH  45  46
ENDBRANCH  38  40
ENDBRANCH  37  38
ENDBRANCH  36  37
ENDBRANCH  35  36
ENDBRANCH  34  35
ENDBRANCH   1  34
TORSDOF 18
ENDMDL
MODEL 3
REMARK VINA RESULT:      -9.7      4.777      6.485
REMARK SMILES COc1ccc(N2C(=O)/C(=C\c3ccc(-c4ccc(Cl)c(C(=O)OCCOCCOC(=O)c5ccc(-c6c7nc(c(-c8ccccc8)c8ccc([nH]8)c(-c8ccccc8)c8nc(c(-c9ccccc9)c9ccc6[nH]9)C=C8)C=C7)cc5)c4)o3)SC2=S)cc1
REMARK SMILES IDX 26 1 25 2 24 3 22 4 23 5 21 6 16 7 17 8 81 9 18 10 19 11
REMARK SMILES IDX 20 12 15 13 12 14 13 15 82 16 14 17 11 18 7 19 8 20 84 21
REMARK SMILES IDX 9 22 10 23 83 24 85 25 6 26 3 27 4 28 87 29 5 30 86 31 2 32
REMARK SMILES IDX 1 33 27 34 28 35 29 36 30 37 31 38 32 39 33 40 34 41 80 42
REMARK SMILES IDX 35 43 79 44 36 45 37 46 38 47 73 48 39 49 78 50 72 51 74 52
REMARK SMILES IDX 40 53 77 54 71 55 70 56 41 58 63 59 48 60 62 61 49 62 52 63
REMARK SMILES IDX 61 64 75 65 50 66 51 67 60 69 76 70 53 71 42 72 43 73 47 74
REMARK SMILES IDX 44 75 46 76 45 77 64 78 65 79 69 80 66 81 68 82 67 83 54 84
REMARK SMILES IDX 55 85 59 86 56 87 58 88 57 89
REMARK H PARENT 74 57 52 68
REMARK Flexibility Score: inf
ROOT
ATOM      1  C   UNL A   1      34.359  28.749  26.453  1.00  0.00     0.202 C 
ENDROOT
BRANCH   1   2
ATOM      2  C   UNL A   1      32.959  28.772  25.831  1.00  0.00     0.261 C 
BRANCH   2   3
ATOM      3  O   UNL A   1      32.574  27.465  25.385  1.00  0.00    -0.460 OA
BRANCH   3   4
ATOM      4  C   UNL A   1      31.924  26.699  26.301  1.00  0.00     0.339 C 
ATOM      5  O   UNL A   1      31.305  27.089  27.273  1.00  0.00    -0.246 OA
BRANCH   4   6
ATOM      6  C   UNL A   1      32.027  25.285  25.876  1.00  0.00     0.079 A 
ATOM      7  C   UNL A   1      33.404  23.504  24.932  1.00  0.00     0.018 A 
ATOM      8  C   UNL A   1      32.320  22.628  25.046  1.00  0.00     0.013 A 
ATOM      9  C   UNL A   1      33.243  24.834  25.343  1.00  0.00     0.029 A 
ATOM     10  C   UNL A   1      31.099  23.075  25.563  1.00  0.00     0.022 A 
ATOM     11  C   UNL A   1      30.947  24.403  25.978  1.00  0.00     0.055 A 
ATOM     12  Cl  UNL A   1      29.384  24.886  26.529  1.00  0.00    -0.083 Cl
BRANCH   7  13
ATOM     13  C   UNL A   1      34.710  23.063  24.467  1.00  0.00     0.134 A 
ATOM     14  C   UNL A   1      36.664  22.044  24.688  1.00  0.00     0.128 A 
ATOM     15  C   UNL A   1      36.624  22.616  23.421  1.00  0.00     0.051 A 
ATOM     16  O   UNL A   1      35.458  22.293  25.306  1.00  0.00    -0.457 OA
ATOM     17  C   UNL A   1      35.391  23.281  23.290  1.00  0.00     0.051 A 
BRANCH  14  18
ATOM     18  C   UNL A   1      37.754  21.361  25.289  1.00  0.00     0.068 C 
ATOM     19  N   UNL A   1      39.895  23.875  26.852  1.00  0.00    -0.261 N 
ATOM     20  C   UNL A   1      38.663  23.473  26.345  1.00  0.00     0.270 C 
ATOM     21  C   UNL A   1      40.862  22.890  26.976  1.00  0.00     0.152 C 
ATOM     22  O   UNL A   1      37.676  24.183  26.194  1.00  0.00    -0.268 OA
ATOM     23  C   UNL A   1      38.697  22.030  25.970  1.00  0.00     0.084 C 
ATOM     24  S   UNL A   1      40.189  21.333  26.466  1.00  0.00    -0.054 SA
ATOM     25  S   UNL A   1      42.414  22.979  27.590  1.00  0.00    -0.051 S 
BRANCH  19  26
ATOM     26  C   UNL A   1      40.061  25.247  27.210  1.00  0.00     0.051 A 
ATOM     27  C   UNL A   1      40.157  27.979  27.880  1.00  0.00     0.119 A 
ATOM     28  C   UNL A   1      39.598  27.063  28.765  1.00  0.00     0.048 A 
ATOM     29  C   UNL A   1      40.700  27.532  26.675  1.00  0.00     0.048 A 
ATOM     30  C   UNL A   1      39.534  25.712  28.426  1.00  0.00     0.030 A 
ATOM     31  C   UNL A   1      40.657  26.170  26.343  1.00  0.00     0.030 A 
BRANCH  27  32
ATOM     32  O   UNL A   1      40.176  29.278  28.303  1.00  0.00    -0.497 OA
ATOM     33  C   UNL A   1      39.875  29.450  29.685  1.00  0.00     0.278 C 
ENDBRANCH  27  32
ENDBRANCH  19  26
ENDBRANCH  14  18
ENDBRANCH   7  13
ENDBRANCH   4   6
ENDBRANCH   3   4
ENDBRANCH   2   3
ENDBRANCH   1   2
BRANCH   1  34
ATOM     34  O   UNL A   1      34.557  29.493  27.653  1.00  0.00    -0.374 OA
BRANCH  34  35
ATOM     35  C   UNL A   1      34.305  30.898  27.622  1.00  0.00     0.202 C 
BRANCH  35  36
ATOM     36  C   UNL A   1      35.441  31.841  28.041  1.00  0.00     0.261 C 
BRANCH  36  37
ATOM     37  O   UNL A   1      35.977  31.547  29.342  1.00  0.00    -0.460 OA
BRANCH  37  38
ATOM     38  C   UNL A   1      35.458  32.298  30.344  1.00  0.00     0.338 C 
ATOM     39  O   UNL A   1      34.346  32.792  30.405  1.00  0.00    -0.246 OA
BRANCH  38  40
ATOM     40  C   UNL A   1      36.389  32.317  31.486  1.00  0.00     0.060 A 
ATOM     41  C   UNL A   1      37.669  32.846  31.275  1.00  0.00     0.016 A 
ATOM     42  C   UNL A   1      36.046  31.746  32.713  1.00  0.00     0.016 A 
ATOM     43  C   UNL A   1      38.628  32.770  32.280  1.00  0.00     0.010 A 
ATOM     44  C   UNL A   1      37.014  31.664  33.719  1.00  0.00     0.010 A 
ATOM     45  C   UNL A   1      38.318  32.144  33.496  1.00  0.00    -0.014 A 
BRANCH  45  46
ATOM     46  C   UNL A   1      39.392  31.878  34.482  1.00  0.00     0.031 A 
ATOM     47  C   UNL A   1      39.585  32.829  35.632  1.00  0.00     0.074 A 
ATOM     48  C   UNL A   1      40.177  30.793  34.364  1.00  0.00     0.049 A 
ATOM     49  N   UNL A   1      40.489  32.814  36.577  1.00  0.00    -0.248 NA
ATOM     50  C   UNL A   1      38.631  33.946  35.725  1.00  0.00     0.031 C 
ATOM     51  C   UNL A   1      40.060  29.773  33.324  1.00  0.00     0.029 A 
ATOM     52  N   UNL A   1      41.235  30.374  35.132  1.00  0.00    -0.354 N 
ATOM     53  C   UNL A   1      40.224  33.924  37.370  1.00  0.00     0.074 A 
ATOM     54  C   UNL A   1      39.095  34.607  36.776  1.00  0.00     0.031 C 
ATOM     55  C   UNL A   1      41.015  28.847  33.515  1.00  0.00     0.029 A 
ATOM     56  C   UNL A   1      41.832  29.230  34.665  1.00  0.00     0.049 A 
ATOM     57  H   UNL A   1      41.538  30.850  35.939  1.00  0.00     0.167 HD
ATOM     58  C   UNL A   1      40.860  34.336  38.493  1.00  0.00     0.031 A 
ATOM     59  C   UNL A   1      42.927  28.579  35.101  1.00  0.00     0.031 A 
ATOM     60  C   UNL A   1      41.991  33.662  39.074  1.00  0.00     0.049 A 
ATOM     61  C   UNL A   1      43.669  29.103  36.300  1.00  0.00     0.074 A 
ATOM     62  C   UNL A   1      42.694  33.989  40.219  1.00  0.00     0.029 A 
ATOM     63  N   UNL A   1      42.591  32.529  38.546  1.00  0.00    -0.354 N 
ATOM     64  N   UNL A   1      43.394  30.140  37.055  1.00  0.00    -0.248 NA
ATOM     65  C   UNL A   1      44.870  28.362  36.713  1.00  0.00     0.031 C 
ATOM     66  C   UNL A   1      43.761  33.094  40.349  1.00  0.00     0.029 A 
ATOM     67  C   UNL A   1      43.677  32.165  39.325  1.00  0.00     0.049 A 
ATOM     68  H   UNL A   1      42.290  32.054  37.738  1.00  0.00     0.167 HD
ATOM     69  C   UNL A   1      44.367  30.154  38.050  1.00  0.00     0.074 A 
ATOM     70  C   UNL A   1      45.228  29.016  37.808  1.00  0.00     0.031 C 
ATOM     71  C   UNL A   1      44.529  31.030  39.072  1.00  0.00     0.031 A 
BRANCH  58  72
ATOM     72  C   UNL A   1      40.368  35.599  39.144  1.00  0.00    -0.014 A 
ATOM     73  C   UNL A   1      40.978  36.839  38.897  1.00  0.00     0.009 A 
ATOM     74  C   UNL A   1      39.254  35.551  39.998  1.00  0.00     0.009 A 
ATOM     75  C   UNL A   1      40.504  37.997  39.519  1.00  0.00     0.001 A 
ATOM     76  C   UNL A   1      38.764  36.714  40.594  1.00  0.00     0.001 A 
ATOM     77  C   UNL A   1      39.396  37.934  40.362  1.00  0.00     0.000 A 
ENDBRANCH  58  72
BRANCH  59  78
ATOM     78  C   UNL A   1      43.406  27.366  34.385  1.00  0.00    -0.014 A 
ATOM     79  C   UNL A   1      43.072  26.083  34.845  1.00  0.00     0.009 A 
ATOM     80  C   UNL A   1      44.218  27.487  33.246  1.00  0.00     0.009 A 
ATOM     81  C   UNL A   1      43.562  24.949  34.195  1.00  0.00     0.001 A 
ATOM     82  C   UNL A   1      44.680  26.350  32.578  1.00  0.00     0.001 A 
ATOM     83  C   UNL A   1      44.361  25.082  33.060  1.00  0.00     0.000 A 
ENDBRANCH  59  78
BRANCH  71  84
ATOM     84  C   UNL A   1      45.656  30.769  40.035  1.00  0.00    -0.014 A 
ATOM     85  C   UNL A   1      45.487  29.944  41.158  1.00  0.00     0.009 A 
ATOM     86  C   UNL A   1      46.921  31.326  39.786  1.00  0.00     0.009 A 
ATOM     87  C   UNL A   1      46.553  29.713  42.030  1.00  0.00     0.001 A 
ATOM     88  C   UNL A   1      47.993  31.066  40.641  1.00  0.00     0.001 A 
ATOM     89  C   UNL A   1      47.805  30.269  41.769  1.00  0.00     0.000 A 
ENDBRANCH  71  84
ENDBRANCH  45  46
ENDBRANCH  38  40
ENDBRANCH  37  38
ENDBRANCH  36  37
ENDBRANCH  35  36
ENDBRANCH  34  35
ENDBRANCH   1  34
TORSDOF 18
ENDMDL
