MODEL 1
REMARK VINA RESULT:     -11.0      0.000      0.000
REMARK SMILES O=C(OCCOCCOC(=O)c1ccc2c(c1)[C@@H](C1CCOCC1)C(=O)N2)c1ccc(-c2c3nc(c(-c4ccccc4)c4ccc([nH]4)c(-c4ccccc4)c4nc(c(-c5ccccc5)c5ccc2[nH]5)C=C4)C=C3)cc1
REMARK SMILES IDX 5 1 4 2 3 3 2 4 1 5 28 6 29 7 75 8 30 9 74 10 31 11 32 12
REMARK SMILES IDX 33 13 68 14 34 15 73 16 67 17 69 18 35 19 72 20 66 21 65 22
REMARK SMILES IDX 36 24 58 25 43 26 57 27 44 28 47 29 56 30 70 31 45 32 46 33
REMARK SMILES IDX 55 35 71 36 48 37 37 38 38 39 42 40 39 41 41 42 40 43 59 44
REMARK SMILES IDX 60 45 64 46 61 47 63 48 62 49 49 50 50 51 54 52 51 53 53 54
REMARK SMILES IDX 52 55 6 56 7 57 8 58 9 59 10 60 11 61 12 62 13 63 17 64
REMARK SMILES IDX 14 65 16 66 15 67 18 68 27 69 25 70 26 72 19 73 20 74 24 75
REMARK SMILES IDX 21 76 23 77 22 78
REMARK H PARENT 69 23 47 34 27 71
REMARK Flexibility Score: inf
ROOT
ATOM      1  C   UNL A   1      42.286  19.813  26.032  1.00  0.00     0.202 C 
ENDROOT
BRANCH   1   2
ATOM      2  C   UNL A   1      43.357  20.799  25.565  1.00  0.00     0.261 C 
BRANCH   2   3
ATOM      3  O   UNL A   1      42.747  22.018  25.123  1.00  0.00    -0.460 OA
BRANCH   3   4
ATOM      4  C   UNL A   1      43.222  23.278  25.253  1.00  0.00     0.338 C 
ATOM      5  O   UNL A   1      44.045  23.684  24.433  1.00  0.00    -0.246 OA
BRANCH   4   6
ATOM      6  C   UNL A   1      42.783  24.228  26.319  1.00  0.00     0.060 A 
ATOM      7  C   UNL A   1      41.971  23.906  27.411  1.00  0.00     0.016 A 
ATOM      8  C   UNL A   1      43.324  25.522  26.260  1.00  0.00     0.016 A 
ATOM      9  C   UNL A   1      41.684  24.825  28.406  1.00  0.00     0.010 A 
ATOM     10  C   UNL A   1      43.051  26.455  27.259  1.00  0.00     0.010 A 
ATOM     11  C   UNL A   1      42.223  26.101  28.329  1.00  0.00    -0.014 A 
BRANCH  11  12
ATOM     12  C   UNL A   1      41.790  27.094  29.317  1.00  0.00     0.031 A 
ATOM     13  C   UNL A   1      42.607  27.238  30.557  1.00  0.00     0.074 A 
ATOM     14  C   UNL A   1      40.738  27.884  29.052  1.00  0.00     0.049 A 
ATOM     15  N   UNL A   1      42.362  27.934  31.631  1.00  0.00    -0.248 NA
ATOM     16  C   UNL A   1      43.879  26.495  30.586  1.00  0.00     0.031 C 
ATOM     17  C   UNL A   1      39.986  27.895  27.795  1.00  0.00     0.029 A 
ATOM     18  N   UNL A   1      40.125  28.831  29.823  1.00  0.00    -0.354 N 
ATOM     19  C   UNL A   1      43.425  27.674  32.484  1.00  0.00     0.074 A 
ATOM     20  C   UNL A   1      44.320  26.768  31.802  1.00  0.00     0.031 C 
ATOM     21  C   UNL A   1      38.996  28.798  27.890  1.00  0.00     0.029 A 
ATOM     22  C   UNL A   1      39.008  29.366  29.233  1.00  0.00     0.049 A 
ATOM     23  H   UNL A   1      40.452  29.101  30.711  1.00  0.00     0.167 HD
ATOM     24  C   UNL A   1      43.608  28.139  33.740  1.00  0.00     0.031 A 
ATOM     25  C   UNL A   1      38.072  30.179  29.755  1.00  0.00     0.031 A 
ATOM     26  C   UNL A   1      42.670  29.012  34.388  1.00  0.00     0.049 A 
ATOM     27  C   UNL A   1      38.239  30.607  31.187  1.00  0.00     0.074 A 
ATOM     28  C   UNL A   1      42.695  29.515  35.673  1.00  0.00     0.029 A 
ATOM     29  N   UNL A   1      41.521  29.505  33.779  1.00  0.00    -0.354 N 
ATOM     30  N   UNL A   1      39.207  30.313  32.025  1.00  0.00    -0.248 NA
ATOM     31  C   UNL A   1      37.190  31.462  31.751  1.00  0.00     0.031 C 
ATOM     32  C   UNL A   1      41.529  30.267  35.859  1.00  0.00     0.029 A 
ATOM     33  C   UNL A   1      40.814  30.290  34.669  1.00  0.00     0.049 A 
ATOM     34  H   UNL A   1      41.251  29.322  32.851  1.00  0.00     0.167 HD
ATOM     35  C   UNL A   1      38.900  30.965  33.210  1.00  0.00     0.074 A 
ATOM     36  C   UNL A   1      37.653  31.673  32.976  1.00  0.00     0.031 C 
ATOM     37  C   UNL A   1      39.580  30.982  34.382  1.00  0.00     0.031 A 
BRANCH  24  38
ATOM     38  C   UNL A   1      44.793  27.601  34.490  1.00  0.00    -0.014 A 
ATOM     39  C   UNL A   1      44.713  26.437  35.274  1.00  0.00     0.009 A 
ATOM     40  C   UNL A   1      45.994  28.328  34.480  1.00  0.00     0.009 A 
ATOM     41  C   UNL A   1      45.789  26.051  36.078  1.00  0.00     0.001 A 
ATOM     42  C   UNL A   1      47.079  27.921  35.259  1.00  0.00     0.001 A 
ATOM     43  C   UNL A   1      46.970  26.794  36.071  1.00  0.00     0.000 A 
ENDBRANCH  24  38
BRANCH  25  44
ATOM     44  C   UNL A   1      36.891  30.563  28.939  1.00  0.00    -0.014 A 
ATOM     45  C   UNL A   1      35.878  29.637  28.650  1.00  0.00     0.009 A 
ATOM     46  C   UNL A   1      36.744  31.887  28.486  1.00  0.00     0.009 A 
ATOM     47  C   UNL A   1      34.749  30.028  27.923  1.00  0.00     0.001 A 
ATOM     48  C   UNL A   1      35.602  32.281  27.785  1.00  0.00     0.001 A 
ATOM     49  C   UNL A   1      34.608  31.349  27.499  1.00  0.00     0.000 A 
ENDBRANCH  25  44
BRANCH  37  50
ATOM     50  C   UNL A   1      39.021  31.833  35.483  1.00  0.00    -0.014 A 
ATOM     51  C   UNL A   1      38.249  31.278  36.514  1.00  0.00     0.009 A 
ATOM     52  C   UNL A   1      39.370  33.191  35.539  1.00  0.00     0.009 A 
ATOM     53  C   UNL A   1      37.825  32.076  37.576  1.00  0.00     0.001 A 
ATOM     54  C   UNL A   1      38.967  33.979  36.616  1.00  0.00     0.001 A 
ATOM     55  C   UNL A   1      38.193  33.421  37.631  1.00  0.00     0.000 A 
ENDBRANCH  37  50
ENDBRANCH  11  12
ENDBRANCH   4   6
ENDBRANCH   3   4
ENDBRANCH   2   3
ENDBRANCH   1   2
BRANCH   1  56
ATOM     56  O   UNL A   1      41.225  20.422  26.767  1.00  0.00    -0.374 OA
BRANCH  56  57
ATOM     57  C   UNL A   1      39.934  20.406  26.149  1.00  0.00     0.202 C 
BRANCH  57  58
ATOM     58  C   UNL A   1      39.359  21.822  26.143  1.00  0.00     0.261 C 
BRANCH  58  59
ATOM     59  O   UNL A   1      37.990  21.751  25.716  1.00  0.00    -0.460 OA
BRANCH  59  60
ATOM     60  C   UNL A   1      37.313  22.932  25.774  1.00  0.00     0.338 C 
ATOM     61  O   UNL A   1      37.755  24.051  25.647  1.00  0.00    -0.246 OA
BRANCH  60  62
ATOM     62  C   UNL A   1      35.867  22.613  25.824  1.00  0.00     0.060 A 
ATOM     63  C   UNL A   1      35.405  21.348  25.408  1.00  0.00     0.018 A 
ATOM     64  C   UNL A   1      34.974  23.606  26.278  1.00  0.00     0.022 A 
ATOM     65  C   UNL A   1      34.053  21.030  25.506  1.00  0.00     0.027 A 
ATOM     66  C   UNL A   1      33.626  23.299  26.313  1.00  0.00    -0.011 A 
ATOM     67  C   UNL A   1      33.207  22.006  25.988  1.00  0.00     0.045 A 
ATOM     68  C   UNL A   1      32.428  24.112  26.763  1.00  0.00     0.114 C 
ATOM     69  N   UNL A   1      31.877  21.847  26.324  1.00  0.00    -0.325 N 
ATOM     70  C   UNL A   1      31.365  22.994  26.911  1.00  0.00     0.232 C 
ATOM     71  H   UNL A   1      31.360  21.024  26.168  1.00  0.00     0.169 HD
ATOM     72  O   UNL A   1      30.269  23.079  27.439  1.00  0.00    -0.274 OA
BRANCH  68  73
ATOM     73  C   UNL A   1      31.961  25.220  25.770  1.00  0.00     0.010 C 
ATOM     74  C   UNL A   1      32.426  24.912  24.329  1.00  0.00     0.033 C 
ATOM     75  C   UNL A   1      32.403  26.646  26.164  1.00  0.00     0.033 C 
ATOM     76  C   UNL A   1      32.140  26.048  23.356  1.00  0.00     0.160 C 
ATOM     77  C   UNL A   1      32.094  27.666  25.073  1.00  0.00     0.160 C 
ATOM     78  O   UNL A   1      32.682  27.275  23.837  1.00  0.00    -0.381 OA
ENDBRANCH  68  73
ENDBRANCH  60  62
ENDBRANCH  59  60
ENDBRANCH  58  59
ENDBRANCH  57  58
ENDBRANCH  56  57
ENDBRANCH   1  56
TORSDOF 15
ENDMDL
MODEL 2
REMARK VINA RESULT:     -10.8      2.810      8.747
REMARK SMILES O=C(OCCOCCOC(=O)c1ccc2c(c1)[C@@H](C1CCOCC1)C(=O)N2)c1ccc(-c2c3nc(c(-c4ccccc4)c4ccc([nH]4)c(-c4ccccc4)c4nc(c(-c5ccccc5)c5ccc2[nH]5)C=C4)C=C3)cc1
REMARK SMILES IDX 5 1 4 2 3 3 2 4 1 5 28 6 29 7 75 8 30 9 74 10 31 11 32 12
REMARK SMILES IDX 33 13 68 14 34 15 73 16 67 17 69 18 35 19 72 20 66 21 65 22
REMARK SMILES IDX 36 24 58 25 43 26 57 27 44 28 47 29 56 30 70 31 45 32 46 33
REMARK SMILES IDX 55 35 71 36 48 37 37 38 38 39 42 40 39 41 41 42 40 43 59 44
REMARK SMILES IDX 60 45 64 46 61 47 63 48 62 49 49 50 50 51 54 52 51 53 53 54
REMARK SMILES IDX 52 55 6 56 7 57 8 58 9 59 10 60 11 61 12 62 13 63 17 64
REMARK SMILES IDX 14 65 16 66 15 67 18 68 27 69 25 70 26 72 19 73 20 74 24 75
REMARK SMILES IDX 21 76 23 77 22 78
REMARK H PARENT 69 23 47 34 27 71
REMARK Flexibility Score: inf
ROOT
ATOM      1  C   UNL A   1      31.265  32.091  26.531  1.00  0.00     0.202 C 
ENDROOT
BRANCH   1   2
ATOM      2  C   UNL A   1      32.525  32.761  27.080  1.00  0.00     0.261 C 
BRANCH   2   3
ATOM      3  O   UNL A   1      32.184  33.984  27.745  1.00  0.00    -0.460 OA
BRANCH   3   4
ATOM      4  C   UNL A   1      32.941  34.698  28.609  1.00  0.00     0.338 C 
ATOM      5  O   UNL A   1      32.554  35.817  28.943  1.00  0.00    -0.246 OA
BRANCH   4   6
ATOM      6  C   UNL A   1      34.212  34.198  29.213  1.00  0.00     0.060 A 
ATOM      7  C   UNL A   1      35.500  34.478  28.746  1.00  0.00     0.016 A 
ATOM      8  C   UNL A   1      34.088  33.472  30.409  1.00  0.00     0.016 A 
ATOM      9  C   UNL A   1      36.631  34.048  29.419  1.00  0.00     0.010 A 
ATOM     10  C   UNL A   1      35.219  33.041  31.101  1.00  0.00     0.010 A 
ATOM     11  C   UNL A   1      36.491  33.327  30.596  1.00  0.00    -0.014 A 
BRANCH  11  12
ATOM     12  C   UNL A   1      37.698  32.765  31.210  1.00  0.00     0.031 A 
ATOM     13  C   UNL A   1      38.360  31.624  30.514  1.00  0.00     0.074 A 
ATOM     14  C   UNL A   1      38.210  33.329  32.314  1.00  0.00     0.049 A 
ATOM     15  N   UNL A   1      39.344  30.870  30.916  1.00  0.00    -0.248 NA
ATOM     16  C   UNL A   1      37.839  31.289  29.177  1.00  0.00     0.031 C 
ATOM     17  C   UNL A   1      37.694  34.539  32.961  1.00  0.00     0.029 A 
ATOM     18  N   UNL A   1      39.277  32.961  33.083  1.00  0.00    -0.354 N 
ATOM     19  C   UNL A   1      39.528  29.940  29.903  1.00  0.00     0.074 A 
ATOM     20  C   UNL A   1      38.565  30.228  28.866  1.00  0.00     0.031 C 
ATOM     21  C   UNL A   1      38.442  34.803  34.045  1.00  0.00     0.029 A 
ATOM     22  C   UNL A   1      39.432  33.744  34.200  1.00  0.00     0.049 A 
ATOM     23  H   UNL A   1      39.873  32.212  32.859  1.00  0.00     0.167 HD
ATOM     24  C   UNL A   1      40.414  28.919  29.871  1.00  0.00     0.031 A 
ATOM     25  C   UNL A   1      40.249  33.574  35.256  1.00  0.00     0.031 A 
ATOM     26  C   UNL A   1      41.329  28.653  30.945  1.00  0.00     0.049 A 
ATOM     27  C   UNL A   1      41.158  32.377  35.250  1.00  0.00     0.074 A 
ATOM     28  C   UNL A   1      42.240  27.624  31.076  1.00  0.00     0.029 A 
ATOM     29  N   UNL A   1      41.434  29.439  32.087  1.00  0.00    -0.354 N 
ATOM     30  N   UNL A   1      41.293  31.452  34.326  1.00  0.00    -0.248 NA
ATOM     31  C   UNL A   1      42.014  32.187  36.425  1.00  0.00     0.031 C 
ATOM     32  C   UNL A   1      42.856  27.757  32.326  1.00  0.00     0.029 A 
ATOM     33  C   UNL A   1      42.380  28.907  32.942  1.00  0.00     0.049 A 
ATOM     34  H   UNL A   1      40.913  30.255  32.262  1.00  0.00     0.167 HD
ATOM     35  C   UNL A   1      42.266  30.582  34.794  1.00  0.00     0.074 A 
ATOM     36  C   UNL A   1      42.688  31.095  36.086  1.00  0.00     0.031 C 
ATOM     37  C   UNL A   1      42.769  29.464  34.215  1.00  0.00     0.031 A 
BRANCH  24  38
ATOM     38  C   UNL A   1      40.320  27.984  28.699  1.00  0.00    -0.014 A 
ATOM     39  C   UNL A   1      39.579  26.791  28.756  1.00  0.00     0.009 A 
ATOM     40  C   UNL A   1      41.063  28.263  27.542  1.00  0.00     0.009 A 
ATOM     41  C   UNL A   1      39.637  25.872  27.705  1.00  0.00     0.001 A 
ATOM     42  C   UNL A   1      41.093  27.358  26.479  1.00  0.00     0.001 A 
ATOM     43  C   UNL A   1      40.395  26.156  26.569  1.00  0.00     0.000 A 
ENDBRANCH  24  38
BRANCH  25  44
ATOM     44  C   UNL A   1      40.177  34.518  36.402  1.00  0.00    -0.014 A 
ATOM     45  C   UNL A   1      39.387  34.234  37.524  1.00  0.00     0.009 A 
ATOM     46  C   UNL A   1      40.951  35.692  36.399  1.00  0.00     0.009 A 
ATOM     47  C   UNL A   1      39.370  35.109  38.616  1.00  0.00     0.001 A 
ATOM     48  C   UNL A   1      40.953  36.549  37.503  1.00  0.00     0.001 A 
ATOM     49  C   UNL A   1      40.158  36.258  38.609  1.00  0.00     0.000 A 
ENDBRANCH  25  44
BRANCH  37  50
ATOM     50  C   UNL A   1      43.868  28.751  34.947  1.00  0.00    -0.014 A 
ATOM     51  C   UNL A   1      45.212  29.109  34.773  1.00  0.00     0.009 A 
ATOM     52  C   UNL A   1      43.531  27.781  35.904  1.00  0.00     0.009 A 
ATOM     53  C   UNL A   1      46.203  28.496  35.539  1.00  0.00     0.001 A 
ATOM     54  C   UNL A   1      44.521  27.189  36.686  1.00  0.00     0.001 A 
ATOM     55  C   UNL A   1      45.856  27.545  36.501  1.00  0.00     0.000 A 
ENDBRANCH  37  50
ENDBRANCH  11  12
ENDBRANCH   4   6
ENDBRANCH   3   4
ENDBRANCH   2   3
ENDBRANCH   1   2
BRANCH   1  56
ATOM     56  O   UNL A   1      31.420  30.696  26.275  1.00  0.00    -0.374 OA
BRANCH  56  57
ATOM     57  C   UNL A   1      32.762  30.229  26.099  1.00  0.00     0.202 C 
BRANCH  57  58
ATOM     58  C   UNL A   1      33.215  29.502  27.365  1.00  0.00     0.261 C 
BRANCH  58  59
ATOM     59  O   UNL A   1      33.215  28.091  27.100  1.00  0.00    -0.460 OA
BRANCH  59  60
ATOM     60  C   UNL A   1      31.990  27.500  27.162  1.00  0.00     0.338 C 
ATOM     61  O   UNL A   1      31.080  27.746  27.920  1.00  0.00    -0.246 OA
BRANCH  60  62
ATOM     62  C   UNL A   1      31.868  26.606  25.985  1.00  0.00     0.060 A 
ATOM     63  C   UNL A   1      30.597  26.174  25.554  1.00  0.00     0.018 A 
ATOM     64  C   UNL A   1      33.044  26.192  25.329  1.00  0.00     0.022 A 
ATOM     65  C   UNL A   1      30.478  25.379  24.417  1.00  0.00     0.027 A 
ATOM     66  C   UNL A   1      32.917  25.352  24.238  1.00  0.00    -0.011 A 
ATOM     67  C   UNL A   1      31.642  25.019  23.772  1.00  0.00     0.045 A 
ATOM     68  C   UNL A   1      33.957  24.755  23.311  1.00  0.00     0.114 C 
ATOM     69  N   UNL A   1      31.741  24.389  22.547  1.00  0.00    -0.325 N 
ATOM     70  C   UNL A   1      33.061  24.305  22.129  1.00  0.00     0.232 C 
ATOM     71  H   UNL A   1      30.974  24.044  22.037  1.00  0.00     0.169 HD
ATOM     72  O   UNL A   1      33.421  23.937  21.024  1.00  0.00    -0.274 OA
BRANCH  68  73
ATOM     73  C   UNL A   1      34.771  23.562  23.900  1.00  0.00     0.010 C 
ATOM     74  C   UNL A   1      33.858  22.350  24.188  1.00  0.00     0.033 C 
ATOM     75  C   UNL A   1      35.580  23.916  25.166  1.00  0.00     0.033 C 
ATOM     76  C   UNL A   1      34.578  21.225  24.920  1.00  0.00     0.160 C 
ATOM     77  C   UNL A   1      36.202  22.684  25.815  1.00  0.00     0.160 C 
ATOM     78  O   UNL A   1      35.205  21.709  26.103  1.00  0.00    -0.381 OA
ENDBRANCH  68  73
ENDBRANCH  60  62
ENDBRANCH  59  60
ENDBRANCH  58  59
ENDBRANCH  57  58
ENDBRANCH  56  57
ENDBRANCH   1  56
TORSDOF 15
ENDMDL
MODEL 3
REMARK VINA RESULT:     -10.7      2.508      8.529
REMARK SMILES O=C(OCCOCCOC(=O)c1ccc2c(c1)[C@@H](C1CCOCC1)C(=O)N2)c1ccc(-c2c3nc(c(-c4ccccc4)c4ccc([nH]4)c(-c4ccccc4)c4nc(c(-c5ccccc5)c5ccc2[nH]5)C=C4)C=C3)cc1
REMARK SMILES IDX 5 1 4 2 3 3 2 4 1 5 28 6 29 7 75 8 30 9 74 10 31 11 32 12
REMARK SMILES IDX 33 13 68 14 34 15 73 16 67 17 69 18 35 19 72 20 66 21 65 22
REMARK SMILES IDX 36 24 58 25 43 26 57 27 44 28 47 29 56 30 70 31 45 32 46 33
REMARK SMILES IDX 55 35 71 36 48 37 37 38 38 39 42 40 39 41 41 42 40 43 59 44
REMARK SMILES IDX 60 45 64 46 61 47 63 48 62 49 49 50 50 51 54 52 51 53 53 54
REMARK SMILES IDX 52 55 6 56 7 57 8 58 9 59 10 60 11 61 12 62 13 63 17 64
REMARK SMILES IDX 14 65 16 66 15 67 18 68 27 69 25 70 26 72 19 73 20 74 24 75
REMARK SMILES IDX 21 76 23 77 22 78
REMARK H PARENT 69 23 47 34 27 71
REMARK Flexibility Score: inf
ROOT
ATOM      1  C   UNL A   1      32.690  31.130  27.036  1.00  0.00     0.202 C 
ENDROOT
BRANCH   1   2
ATOM      2  C   UNL A   1      31.796  32.362  27.176  1.00  0.00     0.261 C 
BRANCH   2   3
ATOM      3  O   UNL A   1      32.596  33.552  27.209  1.00  0.00    -0.460 OA
BRANCH   3   4
ATOM      4  C   UNL A   1      33.126  34.166  28.291  1.00  0.00     0.338 C 
ATOM      5  O   UNL A   1      32.528  35.128  28.771  1.00  0.00    -0.246 OA
BRANCH   4   6
ATOM      6  C   UNL A   1      34.384  33.728  28.965  1.00  0.00     0.060 A 
ATOM      7  C   UNL A   1      35.664  34.224  28.699  1.00  0.00     0.016 A 
ATOM      8  C   UNL A   1      34.238  32.814  30.021  1.00  0.00     0.016 A 
ATOM      9  C   UNL A   1      36.769  33.828  29.434  1.00  0.00     0.010 A 
ATOM     10  C   UNL A   1      35.341  32.414  30.775  1.00  0.00     0.010 A 
ATOM     11  C   UNL A   1      36.608  32.921  30.471  1.00  0.00    -0.014 A 
BRANCH  11  12
ATOM     12  C   UNL A   1      37.811  32.414  31.137  1.00  0.00     0.031 A 
ATOM     13  C   UNL A   1      38.542  31.290  30.483  1.00  0.00     0.074 A 
ATOM     14  C   UNL A   1      38.258  33.010  32.253  1.00  0.00     0.049 A 
ATOM     15  N   UNL A   1      39.537  30.580  30.932  1.00  0.00    -0.248 NA
ATOM     16  C   UNL A   1      38.086  30.919  29.132  1.00  0.00     0.031 C 
ATOM     17  C   UNL A   1      37.672  34.206  32.863  1.00  0.00     0.029 A 
ATOM     18  N   UNL A   1      39.308  32.693  33.067  1.00  0.00    -0.354 N 
ATOM     19  C   UNL A   1      39.796  29.645  29.940  1.00  0.00     0.074 A 
ATOM     20  C   UNL A   1      38.864  29.883  28.863  1.00  0.00     0.031 C 
ATOM     21  C   UNL A   1      38.367  34.512  33.971  1.00  0.00     0.029 A 
ATOM     22  C   UNL A   1      39.390  33.494  34.178  1.00  0.00     0.049 A 
ATOM     23  H   UNL A   1      39.941  31.964  32.875  1.00  0.00     0.167 HD
ATOM     24  C   UNL A   1      40.721  28.659  29.955  1.00  0.00     0.031 A 
ATOM     25  C   UNL A   1      40.171  33.369  35.266  1.00  0.00     0.031 A 
ATOM     26  C   UNL A   1      41.603  28.441  31.067  1.00  0.00     0.049 A 
ATOM     27  C   UNL A   1      41.125  32.207  35.311  1.00  0.00     0.074 A 
ATOM     28  C   UNL A   1      42.547  27.450  31.246  1.00  0.00     0.029 A 
ATOM     29  N   UNL A   1      41.634  29.245  32.201  1.00  0.00    -0.354 N 
ATOM     30  N   UNL A   1      41.331  31.278  34.406  1.00  0.00    -0.248 NA
ATOM     31  C   UNL A   1      41.942  32.065  36.520  1.00  0.00     0.031 C 
ATOM     32  C   UNL A   1      43.109  27.622  32.516  1.00  0.00     0.029 A 
ATOM     33  C   UNL A   1      42.566  28.760  33.099  1.00  0.00     0.049 A 
ATOM     34  H   UNL A   1      41.076  30.042  32.345  1.00  0.00     0.167 HD
ATOM     35  C   UNL A   1      42.318  30.452  34.922  1.00  0.00     0.074 A 
ATOM     36  C   UNL A   1      42.670  30.996  36.222  1.00  0.00     0.031 C 
ATOM     37  C   UNL A   1      42.885  29.347  34.378  1.00  0.00     0.031 A 
BRANCH  24  38
ATOM     38  C   UNL A   1      40.708  27.707  28.793  1.00  0.00    -0.014 A 
ATOM     39  C   UNL A   1      41.446  27.951  27.623  1.00  0.00     0.009 A 
ATOM     40  C   UNL A   1      39.868  26.583  28.841  1.00  0.00     0.009 A 
ATOM     41  C   UNL A   1      41.293  27.125  26.506  1.00  0.00     0.001 A 
ATOM     42  C   UNL A   1      39.741  25.741  27.734  1.00  0.00     0.001 A 
ATOM     43  C   UNL A   1      40.440  26.022  26.562  1.00  0.00     0.000 A 
ENDBRANCH  24  38
BRANCH  25  44
ATOM     44  C   UNL A   1      40.020  34.323  36.396  1.00  0.00    -0.014 A 
ATOM     45  C   UNL A   1      40.709  35.543  36.410  1.00  0.00     0.009 A 
ATOM     46  C   UNL A   1      39.133  34.036  37.449  1.00  0.00     0.009 A 
ATOM     47  C   UNL A   1      40.517  36.452  37.456  1.00  0.00     0.001 A 
ATOM     48  C   UNL A   1      38.923  34.957  38.478  1.00  0.00     0.001 A 
ATOM     49  C   UNL A   1      39.619  36.163  38.482  1.00  0.00     0.000 A 
ENDBRANCH  25  44
BRANCH  37  50
ATOM     50  C   UNL A   1      43.980  28.686  35.161  1.00  0.00    -0.014 A 
ATOM     51  C   UNL A   1      43.717  27.605  36.014  1.00  0.00     0.009 A 
ATOM     52  C   UNL A   1      45.308  29.090  34.950  1.00  0.00     0.009 A 
ATOM     53  C   UNL A   1      44.768  26.948  36.654  1.00  0.00     0.001 A 
ATOM     54  C   UNL A   1      46.357  28.414  35.569  1.00  0.00     0.001 A 
ATOM     55  C   UNL A   1      46.086  27.346  36.423  1.00  0.00     0.000 A 
ENDBRANCH  37  50
ENDBRANCH  11  12
ENDBRANCH   4   6
ENDBRANCH   3   4
ENDBRANCH   2   3
ENDBRANCH   1   2
BRANCH   1  56
ATOM     56  O   UNL A   1      31.982  29.942  26.688  1.00  0.00    -0.374 OA
BRANCH  56  57
ATOM     57  C   UNL A   1      31.481  29.872  25.348  1.00  0.00     0.202 C 
BRANCH  57  58
ATOM     58  C   UNL A   1      31.880  28.533  24.728  1.00  0.00     0.261 C 
BRANCH  58  59
ATOM     59  O   UNL A   1      30.683  27.802  24.422  1.00  0.00    -0.460 OA
BRANCH  59  60
ATOM     60  C   UNL A   1      30.837  26.820  23.491  1.00  0.00     0.338 C 
ATOM     61  O   UNL A   1      30.996  26.942  22.298  1.00  0.00    -0.246 OA
BRANCH  60  62
ATOM     62  C   UNL A   1      30.980  25.537  24.218  1.00  0.00     0.060 A 
ATOM     63  C   UNL A   1      30.319  25.342  25.448  1.00  0.00     0.018 A 
ATOM     64  C   UNL A   1      31.800  24.535  23.661  1.00  0.00     0.022 A 
ATOM     65  C   UNL A   1      30.410  24.118  26.104  1.00  0.00     0.027 A 
ATOM     66  C   UNL A   1      31.932  23.344  24.352  1.00  0.00    -0.011 A 
ATOM     67  C   UNL A   1      31.188  23.142  25.518  1.00  0.00     0.045 A 
ATOM     68  C   UNL A   1      32.698  22.079  24.025  1.00  0.00     0.114 C 
ATOM     69  N   UNL A   1      31.275  21.819  25.905  1.00  0.00    -0.325 N 
ATOM     70  C   UNL A   1      32.037  21.082  25.011  1.00  0.00     0.232 C 
ATOM     71  H   UNL A   1      30.849  21.447  26.710  1.00  0.00     0.169 HD
ATOM     72  O   UNL A   1      32.151  19.868  25.026  1.00  0.00    -0.274 OA
BRANCH  68  73
ATOM     73  C   UNL A   1      34.241  22.158  24.238  1.00  0.00     0.010 C 
ATOM     74  C   UNL A   1      34.584  22.736  25.629  1.00  0.00     0.033 C 
ATOM     75  C   UNL A   1      34.988  22.955  23.147  1.00  0.00     0.033 C 
ATOM     76  C   UNL A   1      36.075  22.991  25.816  1.00  0.00     0.160 C 
ATOM     77  C   UNL A   1      36.457  23.171  23.495  1.00  0.00     0.160 C 
ATOM     78  O   UNL A   1      36.586  23.803  24.764  1.00  0.00    -0.381 OA
ENDBRANCH  68  73
ENDBRANCH  60  62
ENDBRANCH  59  60
ENDBRANCH  58  59
ENDBRANCH  57  58
ENDBRANCH  56  57
ENDBRANCH   1  56
TORSDOF 15
ENDMDL
