MODEL 1
REMARK VINA RESULT:      -9.1      0.000      0.000
REMARK SMILES Cc1c(Cl)cc2c(c1C)O[C@H](C(F)(F)F)C(C(=O)OCCOCCOC(=O)c1ccc(-c3c4nc(c(-c5ccccc5)c5ccc([nH]5)c(-c5ccccc5)c5nc(c(-c6ccccc6)c6ccc3[nH]6)C=C5)C=C4)cc1)=C2
REMARK SMILES IDX 23 1 22 2 21 3 20 4 19 5 17 6 18 7 16 8 1 9 2 10 3 11 8 12
REMARK SMILES IDX 4 13 5 14 7 15 9 16 6 17 10 18 76 19 11 20 12 21 13 22 14 23
REMARK SMILES IDX 15 24 24 25 25 26 26 27 27 28 28 29 29 30 75 31 30 32 74 33
REMARK SMILES IDX 31 34 32 35 33 36 68 37 34 38 73 39 67 40 69 41 35 42 72 43
REMARK SMILES IDX 66 44 65 45 36 47 58 48 43 49 57 50 44 51 47 52 56 53 70 54
REMARK SMILES IDX 45 55 46 56 55 58 71 59 48 60 37 61 38 62 42 63 39 64 41 65
REMARK SMILES IDX 40 66 59 67 60 68 64 69 61 70 63 71 62 72 49 73 50 74 54 75
REMARK SMILES IDX 51 76 53 77 52 78
REMARK H PARENT 69 46 47 57
REMARK Flexibility Score: inf
ROOT
ATOM      1  C   UNL A   1      33.890  36.882  32.109  1.00  0.00     0.202 C 
ENDROOT
BRANCH   1   2
ATOM      2  O   UNL A   1      33.549  36.423  33.418  1.00  0.00    -0.374 OA
BRANCH   2   3
ATOM      3  C   UNL A   1      34.502  35.617  34.107  1.00  0.00     0.202 C 
BRANCH   3   4
ATOM      4  C   UNL A   1      35.610  34.998  33.252  1.00  0.00     0.261 C 
BRANCH   4   5
ATOM      5  O   UNL A   1      36.686  34.505  34.066  1.00  0.00    -0.460 OA
BRANCH   5   6
ATOM      6  C   UNL A   1      36.680  33.166  34.255  1.00  0.00     0.338 C 
ATOM      7  O   UNL A   1      35.760  32.395  34.017  1.00  0.00    -0.246 OA
BRANCH   6   8
ATOM      8  C   UNL A   1      38.012  32.714  34.693  1.00  0.00     0.087 C 
ATOM      9  C   UNL A   1      43.163  29.030  36.162  1.00  0.00     0.046 C 
ATOM     10  C   UNL A   1      42.022  29.795  35.539  1.00  0.00    -0.026 A 
ATOM     11  C   UNL A   1      41.420  29.349  34.347  1.00  0.00     0.045 A 
ATOM     12  C   UNL A   1      41.545  30.992  36.135  1.00  0.00    -0.004 A 
ATOM     13  Cl  UNL A   1      41.993  27.971  33.472  1.00  0.00    -0.084 Cl
ATOM     14  C   UNL A   1      40.306  30.003  33.819  1.00  0.00     0.032 A 
ATOM     15  C   UNL A   1      40.413  31.638  35.591  1.00  0.00     0.131 A 
ATOM     16  C   UNL A   1      42.175  31.581  37.377  1.00  0.00     0.049 C 
ATOM     17  C   UNL A   1      39.779  31.122  34.461  1.00  0.00     0.019 A 
ATOM     18  O   UNL A   1      39.983  32.776  36.220  1.00  0.00    -0.475 OA
ATOM     19  C   UNL A   1      38.536  31.703  33.990  1.00  0.00     0.027 C 
ATOM     20  C   UNL A   1      38.688  33.346  35.874  1.00  0.00     0.316 C 
BRANCH  20  21
ATOM     21  C   UNL A   1      37.811  33.347  37.135  1.00  0.00     0.430 C 
ATOM     22  F   UNL A   1      37.611  32.086  37.591  1.00  0.00    -0.167 F 
ATOM     23  F   UNL A   1      38.389  34.035  38.149  1.00  0.00    -0.167 F 
ATOM     24  F   UNL A   1      36.597  33.895  36.911  1.00  0.00    -0.167 F 
ENDBRANCH  20  21
ENDBRANCH   6   8
ENDBRANCH   5   6
ENDBRANCH   4   5
ENDBRANCH   3   4
ENDBRANCH   2   3
ENDBRANCH   1   2
BRANCH   1  25
ATOM     25  C   UNL A   1      32.900  36.555  30.985  1.00  0.00     0.261 C 
BRANCH  25  26
ATOM     26  O   UNL A   1      32.864  35.143  30.696  1.00  0.00    -0.460 OA
BRANCH  26  27
ATOM     27  C   UNL A   1      33.157  34.818  29.417  1.00  0.00     0.338 C 
ATOM     28  O   UNL A   1      32.617  35.236  28.399  1.00  0.00    -0.246 OA
BRANCH  27  29
ATOM     29  C   UNL A   1      34.379  33.998  29.370  1.00  0.00     0.060 A 
ATOM     30  C   UNL A   1      34.556  33.040  30.376  1.00  0.00     0.016 A 
ATOM     31  C   UNL A   1      35.377  34.224  28.419  1.00  0.00     0.016 A 
ATOM     32  C   UNL A   1      35.754  32.338  30.466  1.00  0.00     0.010 A 
ATOM     33  C   UNL A   1      36.585  33.526  28.519  1.00  0.00     0.010 A 
ATOM     34  C   UNL A   1      36.792  32.608  29.564  1.00  0.00    -0.014 A 
BRANCH  34  35
ATOM     35  C   UNL A   1      38.136  32.044  29.824  1.00  0.00     0.031 A 
ATOM     36  C   UNL A   1      39.096  32.815  30.687  1.00  0.00     0.074 A 
ATOM     37  C   UNL A   1      38.476  30.830  29.354  1.00  0.00     0.049 A 
ATOM     38  N   UNL A   1      40.304  32.492  31.075  1.00  0.00    -0.248 NA
ATOM     39  C   UNL A   1      38.631  34.119  31.188  1.00  0.00     0.031 C 
ATOM     40  C   UNL A   1      37.614  29.961  28.555  1.00  0.00     0.029 A 
ATOM     41  N   UNL A   1      39.639  30.116  29.496  1.00  0.00    -0.354 N 
ATOM     42  C   UNL A   1      40.736  33.545  31.871  1.00  0.00     0.074 A 
ATOM     43  C   UNL A   1      39.681  34.533  31.882  1.00  0.00     0.031 C 
ATOM     44  C   UNL A   1      38.276  28.822  28.286  1.00  0.00     0.029 A 
ATOM     45  C   UNL A   1      39.615  28.894  28.870  1.00  0.00     0.049 A 
ATOM     46  H   UNL A   1      40.417  30.448  30.000  1.00  0.00     0.167 HD
ATOM     47  C   UNL A   1      41.904  33.671  32.543  1.00  0.00     0.031 A 
ATOM     48  C   UNL A   1      40.567  27.947  28.772  1.00  0.00     0.031 A 
ATOM     49  C   UNL A   1      42.963  32.699  32.522  1.00  0.00     0.049 A 
ATOM     50  C   UNL A   1      41.898  28.161  29.439  1.00  0.00     0.074 A 
ATOM     51  C   UNL A   1      44.182  32.741  33.175  1.00  0.00     0.029 A 
ATOM     52  N   UNL A   1      42.930  31.516  31.804  1.00  0.00    -0.354 N 
ATOM     53  N   UNL A   1      42.289  29.154  30.200  1.00  0.00    -0.248 NA
ATOM     54  C   UNL A   1      42.920  27.124  29.231  1.00  0.00     0.031 C 
ATOM     55  C   UNL A   1      44.909  31.605  32.808  1.00  0.00     0.029 A 
ATOM     56  C   UNL A   1      44.122  30.833  31.970  1.00  0.00     0.049 A 
ATOM     57  H   UNL A   1      42.173  31.207  31.255  1.00  0.00     0.167 HD
ATOM     58  C   UNL A   1      43.592  28.853  30.577  1.00  0.00     0.074 A 
ATOM     59  C   UNL A   1      43.922  27.579  29.972  1.00  0.00     0.031 C 
ATOM     60  C   UNL A   1      44.439  29.570  31.356  1.00  0.00     0.031 A 
BRANCH  47  61
ATOM     61  C   UNL A   1      42.108  34.922  33.349  1.00  0.00    -0.014 A 
ATOM     62  C   UNL A   1      41.581  35.040  34.645  1.00  0.00     0.009 A 
ATOM     63  C   UNL A   1      42.880  35.972  32.829  1.00  0.00     0.009 A 
ATOM     64  C   UNL A   1      41.806  36.196  35.395  1.00  0.00     0.001 A 
ATOM     65  C   UNL A   1      43.122  37.116  33.590  1.00  0.00     0.001 A 
ATOM     66  C   UNL A   1      42.580  37.230  34.869  1.00  0.00     0.000 A 
ENDBRANCH  47  61
BRANCH  48  67
ATOM     67  C   UNL A   1      40.296  26.704  28.004  1.00  0.00    -0.014 A 
ATOM     68  C   UNL A   1      39.580  25.648  28.586  1.00  0.00     0.009 A 
ATOM     69  C   UNL A   1      40.751  26.570  26.682  1.00  0.00     0.009 A 
ATOM     70  C   UNL A   1      39.336  24.477  27.864  1.00  0.00     0.001 A 
ATOM     71  C   UNL A   1      40.483  25.409  25.955  1.00  0.00     0.001 A 
ATOM     72  C   UNL A   1      39.782  24.361  26.548  1.00  0.00     0.000 A 
ENDBRANCH  48  67
BRANCH  60  73
ATOM     73  C   UNL A   1      45.803  28.999  31.613  1.00  0.00    -0.014 A 
ATOM     74  C   UNL A   1      46.013  28.065  32.638  1.00  0.00     0.009 A 
ATOM     75  C   UNL A   1      46.871  29.330  30.763  1.00  0.00     0.009 A 
ATOM     76  C   UNL A   1      47.270  27.482  32.815  1.00  0.00     0.001 A 
ATOM     77  C   UNL A   1      48.119  28.728  30.927  1.00  0.00     0.001 A 
ATOM     78  C   UNL A   1      48.318  27.808  31.956  1.00  0.00     0.000 A 
ENDBRANCH  60  73
ENDBRANCH  34  35
ENDBRANCH  27  29
ENDBRANCH  26  27
ENDBRANCH  25  26
ENDBRANCH   1  25
TORSDOF 15
ENDMDL
MODEL 2
REMARK VINA RESULT:      -8.9      2.195      4.032
REMARK SMILES Cc1c(Cl)cc2c(c1C)O[C@H](C(F)(F)F)C(C(=O)OCCOCCOC(=O)c1ccc(-c3c4nc(c(-c5ccccc5)c5ccc([nH]5)c(-c5ccccc5)c5nc(c(-c6ccccc6)c6ccc3[nH]6)C=C5)C=C4)cc1)=C2
REMARK SMILES IDX 23 1 22 2 21 3 20 4 19 5 17 6 18 7 16 8 1 9 2 10 3 11 8 12
REMARK SMILES IDX 4 13 5 14 7 15 9 16 6 17 10 18 76 19 11 20 12 21 13 22 14 23
REMARK SMILES IDX 15 24 24 25 25 26 26 27 27 28 28 29 29 30 75 31 30 32 74 33
REMARK SMILES IDX 31 34 32 35 33 36 68 37 34 38 73 39 67 40 69 41 35 42 72 43
REMARK SMILES IDX 66 44 65 45 36 47 58 48 43 49 57 50 44 51 47 52 56 53 70 54
REMARK SMILES IDX 45 55 46 56 55 58 71 59 48 60 37 61 38 62 42 63 39 64 41 65
REMARK SMILES IDX 40 66 59 67 60 68 64 69 61 70 63 71 62 72 49 73 50 74 54 75
REMARK SMILES IDX 51 76 53 77 52 78
REMARK H PARENT 69 46 47 57
REMARK Flexibility Score: inf
ROOT
ATOM      1  C   UNL A   1      33.479  35.538  28.425  1.00  0.00     0.202 C 
ENDROOT
BRANCH   1   2
ATOM      2  O   UNL A   1      32.506  36.143  29.280  1.00  0.00    -0.374 OA
BRANCH   2   3
ATOM      3  C   UNL A   1      32.905  36.469  30.610  1.00  0.00     0.202 C 
BRANCH   3   4
ATOM      4  C   UNL A   1      32.864  35.328  31.628  1.00  0.00     0.261 C 
BRANCH   4   5
ATOM      5  O   UNL A   1      34.116  35.200  32.321  1.00  0.00    -0.460 OA
BRANCH   5   6
ATOM      6  C   UNL A   1      34.868  34.145  31.934  1.00  0.00     0.338 C 
ATOM      7  O   UNL A   1      34.488  33.165  31.307  1.00  0.00    -0.246 OA
BRANCH   6   8
ATOM      8  C   UNL A   1      36.282  34.381  32.273  1.00  0.00     0.087 C 
ATOM      9  C   UNL A   1      42.770  34.047  32.498  1.00  0.00     0.046 C 
ATOM     10  C   UNL A   1      41.309  34.218  32.163  1.00  0.00    -0.026 A 
ATOM     11  C   UNL A   1      40.854  34.100  30.836  1.00  0.00     0.045 A 
ATOM     12  C   UNL A   1      40.366  34.520  33.181  1.00  0.00    -0.004 A 
ATOM     13  Cl  UNL A   1      41.926  33.850  29.501  1.00  0.00    -0.084 Cl
ATOM     14  C   UNL A   1      39.492  34.166  30.537  1.00  0.00     0.032 A 
ATOM     15  C   UNL A   1      38.992  34.578  32.862  1.00  0.00     0.131 A 
ATOM     16  C   UNL A   1      40.774  34.731  34.620  1.00  0.00     0.049 C 
ATOM     17  C   UNL A   1      38.559  34.366  31.553  1.00  0.00     0.019 A 
ATOM     18  O   UNL A   1      38.125  34.851  33.887  1.00  0.00    -0.475 OA
ATOM     19  C   UNL A   1      37.143  34.283  31.254  1.00  0.00     0.027 C 
ATOM     20  C   UNL A   1      36.693  34.676  33.687  1.00  0.00     0.316 C 
BRANCH  20  21
ATOM     21  C   UNL A   1      36.194  33.623  34.687  1.00  0.00     0.430 C 
ATOM     22  F   UNL A   1      36.729  33.824  35.916  1.00  0.00    -0.167 F 
ATOM     23  F   UNL A   1      34.849  33.673  34.840  1.00  0.00    -0.167 F 
ATOM     24  F   UNL A   1      36.514  32.367  34.306  1.00  0.00    -0.167 F 
ENDBRANCH  20  21
ENDBRANCH   6   8
ENDBRANCH   5   6
ENDBRANCH   4   5
ENDBRANCH   3   4
ENDBRANCH   2   3
ENDBRANCH   1   2
BRANCH   1  25
ATOM     25  C   UNL A   1      33.256  34.065  28.064  1.00  0.00     0.261 C 
BRANCH  25  26
ATOM     26  O   UNL A   1      34.497  33.336  27.997  1.00  0.00    -0.460 OA
BRANCH  26  27
ATOM     27  C   UNL A   1      34.364  31.991  27.936  1.00  0.00     0.338 C 
ATOM     28  O   UNL A   1      33.374  31.355  27.592  1.00  0.00    -0.246 OA
BRANCH  27  29
ATOM     29  C   UNL A   1      35.665  31.343  28.170  1.00  0.00     0.060 A 
ATOM     30  C   UNL A   1      35.676  29.952  28.334  1.00  0.00     0.016 A 
ATOM     31  C   UNL A   1      36.837  32.087  28.321  1.00  0.00     0.016 A 
ATOM     32  C   UNL A   1      36.852  29.304  28.699  1.00  0.00     0.010 A 
ATOM     33  C   UNL A   1      38.016  31.435  28.701  1.00  0.00     0.010 A 
ATOM     34  C   UNL A   1      38.018  30.047  28.928  1.00  0.00    -0.014 A 
BRANCH  34  35
ATOM     35  C   UNL A   1      39.183  29.383  29.556  1.00  0.00     0.031 A 
ATOM     36  C   UNL A   1      39.565  29.758  30.961  1.00  0.00     0.074 A 
ATOM     37  C   UNL A   1      39.853  28.411  28.911  1.00  0.00     0.049 A 
ATOM     38  N   UNL A   1      40.521  29.276  31.716  1.00  0.00    -0.248 NA
ATOM     39  C   UNL A   1      38.758  30.807  31.607  1.00  0.00     0.031 C 
ATOM     40  C   UNL A   1      39.544  27.919  27.569  1.00  0.00     0.029 A 
ATOM     41  N   UNL A   1      40.927  27.656  29.310  1.00  0.00    -0.354 N 
ATOM     42  C   UNL A   1      40.423  29.955  32.923  1.00  0.00     0.074 A 
ATOM     43  C   UNL A   1      39.342  30.907  32.792  1.00  0.00     0.031 C 
ATOM     44  C   UNL A   1      40.405  26.933  27.260  1.00  0.00     0.029 A 
ATOM     45  C   UNL A   1      41.339  26.745  28.369  1.00  0.00     0.049 A 
ATOM     46  H   UNL A   1      41.360  27.758  30.188  1.00  0.00     0.167 HD
ATOM     47  C   UNL A   1      41.160  29.792  34.046  1.00  0.00     0.031 A 
ATOM     48  C   UNL A   1      42.360  25.867  28.396  1.00  0.00     0.031 A 
ATOM     49  C   UNL A   1      42.246  28.859  34.177  1.00  0.00     0.049 A 
ATOM     50  C   UNL A   1      43.233  25.782  29.617  1.00  0.00     0.074 A 
ATOM     51  C   UNL A   1      43.048  28.622  35.278  1.00  0.00     0.029 A 
ATOM     52  N   UNL A   1      42.685  28.017  33.168  1.00  0.00    -0.354 N 
ATOM     53  N   UNL A   1      43.121  26.418  30.758  1.00  0.00    -0.248 NA
ATOM     54  C   UNL A   1      44.375  24.857  29.555  1.00  0.00     0.031 C 
ATOM     55  C   UNL A   1      44.009  27.672  34.919  1.00  0.00     0.029 A 
ATOM     56  C   UNL A   1      43.770  27.282  33.611  1.00  0.00     0.049 A 
ATOM     57  H   UNL A   1      42.286  27.953  32.271  1.00  0.00     0.167 HD
ATOM     58  C   UNL A   1      44.163  25.959  31.553  1.00  0.00     0.074 A 
ATOM     59  C   UNL A   1      44.890  24.980  30.772  1.00  0.00     0.031 C 
ATOM     60  C   UNL A   1      44.488  26.317  32.819  1.00  0.00     0.031 A 
BRANCH  47  61
ATOM     61  C   UNL A   1      40.826  30.658  35.227  1.00  0.00    -0.014 A 
ATOM     62  C   UNL A   1      41.825  31.380  35.898  1.00  0.00     0.009 A 
ATOM     63  C   UNL A   1      39.491  30.796  35.638  1.00  0.00     0.009 A 
ATOM     64  C   UNL A   1      41.495  32.207  36.974  1.00  0.00     0.001 A 
ATOM     65  C   UNL A   1      39.163  31.641  36.699  1.00  0.00     0.001 A 
ATOM     66  C   UNL A   1      40.164  32.340  37.370  1.00  0.00     0.000 A 
ENDBRANCH  47  61
BRANCH  48  67
ATOM     67  C   UNL A   1      42.616  24.996  27.220  1.00  0.00    -0.014 A 
ATOM     68  C   UNL A   1      43.451  25.428  26.180  1.00  0.00     0.009 A 
ATOM     69  C   UNL A   1      42.026  23.724  27.133  1.00  0.00     0.009 A 
ATOM     70  C   UNL A   1      43.683  24.610  25.071  1.00  0.00     0.001 A 
ATOM     71  C   UNL A   1      42.279  22.898  26.036  1.00  0.00     0.001 A 
ATOM     72  C   UNL A   1      43.102  23.345  25.003  1.00  0.00     0.000 A 
ENDBRANCH  48  67
BRANCH  60  73
ATOM     73  C   UNL A   1      45.673  25.648  33.453  1.00  0.00    -0.014 A 
ATOM     74  C   UNL A   1      45.540  24.414  34.107  1.00  0.00     0.009 A 
ATOM     75  C   UNL A   1      46.952  26.212  33.314  1.00  0.00     0.009 A 
ATOM     76  C   UNL A   1      46.664  23.764  34.622  1.00  0.00     0.001 A 
ATOM     77  C   UNL A   1      48.075  25.548  33.807  1.00  0.00     0.001 A 
ATOM     78  C   UNL A   1      47.930  24.327  34.464  1.00  0.00     0.000 A 
ENDBRANCH  60  73
ENDBRANCH  34  35
ENDBRANCH  27  29
ENDBRANCH  26  27
ENDBRANCH  25  26
ENDBRANCH   1  25
TORSDOF 15
ENDMDL
MODEL 3
REMARK VINA RESULT:      -8.7      6.048     11.133
REMARK SMILES Cc1c(Cl)cc2c(c1C)O[C@H](C(F)(F)F)C(C(=O)OCCOCCOC(=O)c1ccc(-c3c4nc(c(-c5ccccc5)c5ccc([nH]5)c(-c5ccccc5)c5nc(c(-c6ccccc6)c6ccc3[nH]6)C=C5)C=C4)cc1)=C2
REMARK SMILES IDX 23 1 22 2 21 3 20 4 19 5 17 6 18 7 16 8 1 9 2 10 3 11 8 12
REMARK SMILES IDX 4 13 5 14 7 15 9 16 6 17 10 18 76 19 11 20 12 21 13 22 14 23
REMARK SMILES IDX 15 24 24 25 25 26 26 27 27 28 28 29 29 30 75 31 30 32 74 33
REMARK SMILES IDX 31 34 32 35 33 36 68 37 34 38 73 39 67 40 69 41 35 42 72 43
REMARK SMILES IDX 66 44 65 45 36 47 58 48 43 49 57 50 44 51 47 52 56 53 70 54
REMARK SMILES IDX 45 55 46 56 55 58 71 59 48 60 37 61 38 62 42 63 39 64 41 65
REMARK SMILES IDX 40 66 59 67 60 68 64 69 61 70 63 71 62 72 49 73 50 74 54 75
REMARK SMILES IDX 51 76 53 77 52 78
REMARK H PARENT 69 46 47 57
REMARK Flexibility Score: inf
ROOT
ATOM      1  C   UNL A   1      40.249  19.698  26.142  1.00  0.00     0.202 C 
ENDROOT
BRANCH   1   2
ATOM      2  O   UNL A   1      41.399  19.450  25.331  1.00  0.00    -0.374 OA
BRANCH   2   3
ATOM      3  C   UNL A   1      42.636  19.198  25.995  1.00  0.00     0.202 C 
BRANCH   3   4
ATOM      4  C   UNL A   1      43.896  19.276  25.131  1.00  0.00     0.261 C 
BRANCH   4   5
ATOM      5  O   UNL A   1      44.140  20.619  24.682  1.00  0.00    -0.460 OA
BRANCH   5   6
ATOM      6  C   UNL A   1      45.293  21.162  25.133  1.00  0.00     0.338 C 
ATOM      7  O   UNL A   1      46.301  20.560  25.480  1.00  0.00    -0.246 OA
BRANCH   6   8
ATOM      8  C   UNL A   1      45.228  22.631  25.044  1.00  0.00     0.087 C 
ATOM      9  C   UNL A   1      46.607  28.966  25.532  1.00  0.00     0.046 C 
ATOM     10  C   UNL A   1      46.527  27.488  25.237  1.00  0.00    -0.026 A 
ATOM     11  C   UNL A   1      47.682  26.756  24.902  1.00  0.00     0.045 A 
ATOM     12  C   UNL A   1      45.280  26.811  25.276  1.00  0.00    -0.004 A 
ATOM     13  Cl  UNL A   1      49.234  27.497  24.711  1.00  0.00    -0.084 Cl
ATOM     14  C   UNL A   1      47.625  25.373  24.720  1.00  0.00     0.032 A 
ATOM     15  C   UNL A   1      45.242  25.411  25.094  1.00  0.00     0.131 A 
ATOM     16  C   UNL A   1      43.981  27.529  25.560  1.00  0.00     0.049 C 
ATOM     17  C   UNL A   1      46.415  24.696  24.854  1.00  0.00     0.019 A 
ATOM     18  O   UNL A   1      44.014  24.807  25.164  1.00  0.00    -0.475 OA
ATOM     19  C   UNL A   1      46.393  23.246  24.811  1.00  0.00     0.027 C 
ATOM     20  C   UNL A   1      43.927  23.355  25.240  1.00  0.00     0.316 C 
BRANCH  20  21
ATOM     21  C   UNL A   1      43.230  22.985  26.558  1.00  0.00     0.430 C 
ATOM     22  F   UNL A   1      42.089  22.290  26.328  1.00  0.00    -0.167 F 
ATOM     23  F   UNL A   1      44.010  22.197  27.335  1.00  0.00    -0.167 F 
ATOM     24  F   UNL A   1      42.902  24.076  27.284  1.00  0.00    -0.167 F 
ENDBRANCH  20  21
ENDBRANCH   6   8
ENDBRANCH   5   6
ENDBRANCH   4   5
ENDBRANCH   3   4
ENDBRANCH   2   3
ENDBRANCH   1   2
BRANCH   1  25
ATOM     25  C   UNL A   1      39.277  20.776  25.648  1.00  0.00     0.261 C 
BRANCH  25  26
ATOM     26  O   UNL A   1      39.128  21.842  26.606  1.00  0.00    -0.460 OA
BRANCH  26  27
ATOM     27  C   UNL A   1      38.676  23.009  26.092  1.00  0.00     0.338 C 
ATOM     28  O   UNL A   1      37.726  23.171  25.333  1.00  0.00    -0.246 OA
BRANCH  27  29
ATOM     29  C   UNL A   1      39.376  24.142  26.718  1.00  0.00     0.060 A 
ATOM     30  C   UNL A   1      39.211  24.324  28.096  1.00  0.00     0.016 A 
ATOM     31  C   UNL A   1      40.102  25.064  25.959  1.00  0.00     0.016 A 
ATOM     32  C   UNL A   1      39.731  25.457  28.716  1.00  0.00     0.010 A 
ATOM     33  C   UNL A   1      40.612  26.208  26.581  1.00  0.00     0.010 A 
ATOM     34  C   UNL A   1      40.396  26.427  27.954  1.00  0.00    -0.014 A 
BRANCH  34  35
ATOM     35  C   UNL A   1      40.717  27.733  28.574  1.00  0.00     0.031 A 
ATOM     36  C   UNL A   1      42.135  28.012  28.991  1.00  0.00     0.074 A 
ATOM     37  C   UNL A   1      39.776  28.685  28.701  1.00  0.00     0.049 A 
ATOM     38  N   UNL A   1      42.646  29.098  29.514  1.00  0.00    -0.248 NA
ATOM     39  C   UNL A   1      43.109  26.927  28.785  1.00  0.00     0.031 C 
ATOM     40  C   UNL A   1      38.381  28.558  28.282  1.00  0.00     0.029 A 
ATOM     41  N   UNL A   1      39.862  29.956  29.212  1.00  0.00    -0.354 N 
ATOM     42  C   UNL A   1      43.997  28.831  29.688  1.00  0.00     0.074 A 
ATOM     43  C   UNL A   1      44.223  27.471  29.252  1.00  0.00     0.031 C 
ATOM     44  C   UNL A   1      37.743  29.712  28.543  1.00  0.00     0.029 A 
ATOM     45  C   UNL A   1      38.675  30.646  29.171  1.00  0.00     0.049 A 
ATOM     46  H   UNL A   1      40.695  30.338  29.573  1.00  0.00     0.167 HD
ATOM     47  C   UNL A   1      44.967  29.650  30.158  1.00  0.00     0.031 A 
ATOM     48  C   UNL A   1      38.374  31.887  29.599  1.00  0.00     0.031 A 
ATOM     49  C   UNL A   1      44.744  30.997  30.608  1.00  0.00     0.049 A 
ATOM     50  C   UNL A   1      39.448  32.739  30.219  1.00  0.00     0.074 A 
ATOM     51  C   UNL A   1      45.667  31.904  31.098  1.00  0.00     0.029 A 
ATOM     52  N   UNL A   1      43.510  31.626  30.630  1.00  0.00    -0.354 N 
ATOM     53  N   UNL A   1      40.725  32.480  30.365  1.00  0.00    -0.248 NA
ATOM     54  C   UNL A   1      39.039  34.054  30.735  1.00  0.00     0.031 C 
ATOM     55  C   UNL A   1      44.982  33.065  31.467  1.00  0.00     0.029 A 
ATOM     56  C   UNL A   1      43.642  32.898  31.157  1.00  0.00     0.049 A 
ATOM     57  H   UNL A   1      42.666  31.226  30.319  1.00  0.00     0.167 HD
ATOM     58  C   UNL A   1      41.274  33.604  30.970  1.00  0.00     0.074 A 
ATOM     59  C   UNL A   1      40.195  34.553  31.153  1.00  0.00     0.031 C 
ATOM     60  C   UNL A   1      42.558  33.829  31.340  1.00  0.00     0.031 A 
BRANCH  47  61
ATOM     61  C   UNL A   1      46.364  29.103  30.227  1.00  0.00    -0.014 A 
ATOM     62  C   UNL A   1      46.762  28.271  31.285  1.00  0.00     0.009 A 
ATOM     63  C   UNL A   1      47.275  29.379  29.196  1.00  0.00     0.009 A 
ATOM     64  C   UNL A   1      48.054  27.743  31.319  1.00  0.00     0.001 A 
ATOM     65  C   UNL A   1      48.558  28.832  29.222  1.00  0.00     0.001 A 
ATOM     66  C   UNL A   1      48.949  28.020  30.285  1.00  0.00     0.000 A 
ENDBRANCH  47  61
BRANCH  48  67
ATOM     67  C   UNL A   1      36.987  32.400  29.461  1.00  0.00    -0.014 A 
ATOM     68  C   UNL A   1      36.591  33.083  28.302  1.00  0.00     0.009 A 
ATOM     69  C   UNL A   1      36.050  32.207  30.489  1.00  0.00     0.009 A 
ATOM     70  C   UNL A   1      35.288  33.572  28.180  1.00  0.00     0.001 A 
ATOM     71  C   UNL A   1      34.741  32.675  30.354  1.00  0.00     0.001 A 
ATOM     72  C   UNL A   1      34.363  33.363  29.202  1.00  0.00     0.000 A 
ENDBRANCH  48  67
BRANCH  60  73
ATOM     73  C   UNL A   1      42.882  35.151  31.973  1.00  0.00    -0.014 A 
ATOM     74  C   UNL A   1      42.692  35.359  33.347  1.00  0.00     0.009 A 
ATOM     75  C   UNL A   1      43.470  36.168  31.204  1.00  0.00     0.009 A 
ATOM     76  C   UNL A   1      43.072  36.566  33.936  1.00  0.00     0.001 A 
ATOM     77  C   UNL A   1      43.871  37.364  31.801  1.00  0.00     0.001 A 
ATOM     78  C   UNL A   1      43.668  37.563  33.166  1.00  0.00     0.000 A 
ENDBRANCH  60  73
ENDBRANCH  34  35
ENDBRANCH  27  29
ENDBRANCH  26  27
ENDBRANCH  25  26
ENDBRANCH   1  25
TORSDOF 15
ENDMDL
