MODEL 1
REMARK VINA RESULT:     -10.6      0.000      0.000
REMARK SMILES O=C(OCCOCCOC(=O)c1cc(Br)ccc1OCc1ccc(O)cc1)c1ccc(-c2c3nc(c(-c4ccccc4)c4ccc([nH]4)c(-c4ccccc4)c4nc(c(-c5ccccc5)c5ccc2[nH]5)C=C4)C=C3)cc1
REMARK SMILES IDX 7 1 6 2 5 3 4 4 3 5 2 6 1 7 28 8 29 9 75 10 30 11 74 12
REMARK SMILES IDX 31 13 32 14 33 15 68 16 34 17 73 18 67 19 69 20 35 21 72 22
REMARK SMILES IDX 66 23 65 24 36 26 58 27 43 28 57 29 44 30 47 31 56 32 70 33
REMARK SMILES IDX 45 34 46 35 55 37 71 38 48 39 37 40 38 41 42 42 39 43 41 44
REMARK SMILES IDX 40 45 59 46 60 47 64 48 61 49 63 50 62 51 49 52 50 53 54 54
REMARK SMILES IDX 51 55 53 56 52 57 8 58 9 59 10 60 11 61 12 62 13 63 18 64
REMARK SMILES IDX 14 65 17 66 15 67 16 68 19 69 20 70 21 71 22 72 27 73 23 74
REMARK SMILES IDX 26 75 24 76 25 77
REMARK H PARENT 69 25 47 36 25 78
REMARK Flexibility Score: inf
ROOT
ATOM      1  C   UNL A   1      31.989  26.798  26.536  1.00  0.00     0.202 C 
ENDROOT
BRANCH   1   2
ATOM      2  O   UNL A   1      32.098  27.741  25.468  1.00  0.00    -0.374 OA
BRANCH   2   3
ATOM      3  C   UNL A   1      33.244  28.593  25.533  1.00  0.00     0.202 C 
BRANCH   3   4
ATOM      4  C   UNL A   1      33.828  28.553  26.949  1.00  0.00     0.261 C 
BRANCH   4   5
ATOM      5  O   UNL A   1      33.716  29.844  27.580  1.00  0.00    -0.460 OA
BRANCH   5   6
ATOM      6  C   UNL A   1      34.747  30.690  27.826  1.00  0.00     0.338 C 
ATOM      7  O   UNL A   1      34.549  31.903  27.840  1.00  0.00    -0.246 OA
BRANCH   6   8
ATOM      8  C   UNL A   1      36.065  30.186  28.318  1.00  0.00     0.060 A 
ATOM      9  C   UNL A   1      36.305  29.624  29.578  1.00  0.00     0.016 A 
ATOM     10  C   UNL A   1      37.113  30.192  27.384  1.00  0.00     0.016 A 
ATOM     11  C   UNL A   1      37.553  29.100  29.914  1.00  0.00     0.010 A 
ATOM     12  C   UNL A   1      38.362  29.657  27.707  1.00  0.00     0.010 A 
ATOM     13  C   UNL A   1      38.584  29.111  28.977  1.00  0.00    -0.014 A 
BRANCH  13  14
ATOM     14  C   UNL A   1      39.917  28.592  29.332  1.00  0.00     0.031 A 
ATOM     15  C   UNL A   1      40.857  29.474  30.087  1.00  0.00     0.074 A 
ATOM     16  C   UNL A   1      40.276  27.350  28.966  1.00  0.00     0.049 A 
ATOM     17  N   UNL A   1      42.130  29.311  30.329  1.00  0.00    -0.248 NA
ATOM     18  C   UNL A   1      40.282  30.710  30.643  1.00  0.00     0.031 C 
ATOM     19  C   UNL A   1      39.407  26.377  28.305  1.00  0.00     0.029 A 
ATOM     20  N   UNL A   1      41.478  26.704  29.088  1.00  0.00    -0.354 N 
ATOM     21  C   UNL A   1      42.521  30.444  31.027  1.00  0.00     0.074 A 
ATOM     22  C   UNL A   1      41.348  31.275  31.188  1.00  0.00     0.031 C 
ATOM     23  C   UNL A   1      40.111  25.258  28.066  1.00  0.00     0.029 A 
ATOM     24  C   UNL A   1      41.490  25.463  28.502  1.00  0.00     0.049 A 
ATOM     25  H   UNL A   1      42.256  27.091  29.552  1.00  0.00     0.167 HD
ATOM     26  C   UNL A   1      43.758  30.768  31.467  1.00  0.00     0.031 A 
ATOM     27  C   UNL A   1      42.513  24.614  28.296  1.00  0.00     0.031 A 
ATOM     28  C   UNL A   1      44.917  29.942  31.277  1.00  0.00     0.049 A 
ATOM     29  C   UNL A   1      43.891  25.019  28.739  1.00  0.00     0.074 A 
ATOM     30  C   UNL A   1      46.230  30.192  31.632  1.00  0.00     0.029 A 
ATOM     31  N   UNL A   1      44.892  28.694  30.672  1.00  0.00    -0.354 N 
ATOM     32  N   UNL A   1      44.271  26.118  29.347  1.00  0.00    -0.248 NA
ATOM     33  C   UNL A   1      44.983  24.079  28.451  1.00  0.00     0.031 C 
ATOM     34  C   UNL A   1      47.005  29.104  31.212  1.00  0.00     0.029 A 
ATOM     35  C   UNL A   1      46.168  28.165  30.629  1.00  0.00     0.049 A 
ATOM     36  H   UNL A   1      44.085  28.251  30.324  1.00  0.00     0.167 HD
ATOM     37  C   UNL A   1      45.643  26.002  29.517  1.00  0.00     0.074 A 
ATOM     38  C   UNL A   1      46.027  24.717  28.964  1.00  0.00     0.031 C 
ATOM     39  C   UNL A   1      46.513  26.882  30.072  1.00  0.00     0.031 A 
BRANCH  26  40
ATOM     40  C   UNL A   1      43.904  32.114  32.112  1.00  0.00    -0.014 A 
ATOM     41  C   UNL A   1      44.209  33.257  31.359  1.00  0.00     0.009 A 
ATOM     42  C   UNL A   1      43.794  32.223  33.507  1.00  0.00     0.009 A 
ATOM     43  C   UNL A   1      44.443  34.478  31.996  1.00  0.00     0.001 A 
ATOM     44  C   UNL A   1      44.010  33.448  34.139  1.00  0.00     0.001 A 
ATOM     45  C   UNL A   1      44.346  34.571  33.384  1.00  0.00     0.000 A 
ENDBRANCH  26  40
BRANCH  27  46
ATOM     46  C   UNL A   1      42.276  23.335  27.579  1.00  0.00    -0.014 A 
ATOM     47  C   UNL A   1      42.522  23.231  26.203  1.00  0.00     0.009 A 
ATOM     48  C   UNL A   1      41.828  22.203  28.279  1.00  0.00     0.009 A 
ATOM     49  C   UNL A   1      42.319  22.016  25.540  1.00  0.00     0.001 A 
ATOM     50  C   UNL A   1      41.648  20.986  27.618  1.00  0.00     0.001 A 
ATOM     51  C   UNL A   1      41.889  20.895  26.248  1.00  0.00     0.000 A 
ENDBRANCH  27  46
BRANCH  39  52
ATOM     52  C   UNL A   1      47.955  26.477  30.121  1.00  0.00    -0.014 A 
ATOM     53  C   UNL A   1      48.841  26.853  29.102  1.00  0.00     0.009 A 
ATOM     54  C   UNL A   1      48.442  25.774  31.234  1.00  0.00     0.009 A 
ATOM     55  C   UNL A   1      50.193  26.519  29.190  1.00  0.00     0.001 A 
ATOM     56  C   UNL A   1      49.797  25.456  31.326  1.00  0.00     0.001 A 
ATOM     57  C   UNL A   1      50.671  25.827  30.303  1.00  0.00     0.000 A 
ENDBRANCH  39  52
ENDBRANCH  13  14
ENDBRANCH   6   8
ENDBRANCH   5   6
ENDBRANCH   4   5
ENDBRANCH   3   4
ENDBRANCH   2   3
ENDBRANCH   1   2
BRANCH   1  58
ATOM     58  C   UNL A   1      31.223  25.564  26.079  1.00  0.00     0.261 C 
BRANCH  58  59
ATOM     59  O   UNL A   1      32.179  24.599  25.624  1.00  0.00    -0.460 OA
BRANCH  59  60
ATOM     60  C   UNL A   1      32.281  23.473  26.369  1.00  0.00     0.342 C 
ATOM     61  O   UNL A   1      31.646  23.169  27.358  1.00  0.00    -0.246 OA
BRANCH  60  62
ATOM     62  C   UNL A   1      33.442  22.753  25.834  1.00  0.00     0.103 A 
ATOM     63  C   UNL A   1      34.666  23.413  26.062  1.00  0.00     0.035 A 
ATOM     64  C   UNL A   1      33.412  21.516  25.182  1.00  0.00     0.134 A 
ATOM     65  C   UNL A   1      35.857  22.848  25.631  1.00  0.00     0.019 A 
ATOM     66  C   UNL A   1      34.634  20.964  24.763  1.00  0.00     0.048 A 
ATOM     67  Br  UNL A   1      37.488  23.741  25.958  1.00  0.00    -0.051 Br
ATOM     68  C   UNL A   1      35.847  21.625  24.974  1.00  0.00     0.019 A 
BRANCH  64  69
ATOM     69  O   UNL A   1      32.361  20.679  24.945  1.00  0.00    -0.488 OA
BRANCH  69  70
ATOM     70  C   UNL A   1      32.365  19.818  23.806  1.00  0.00     0.265 C 
BRANCH  70  71
ATOM     71  C   UNL A   1      32.794  18.416  24.158  1.00  0.00    -0.010 A 
ATOM     72  C   UNL A   1      33.514  17.622  23.250  1.00  0.00     0.011 A 
ATOM     73  C   UNL A   1      32.487  17.890  25.422  1.00  0.00     0.011 A 
ATOM     74  C   UNL A   1      34.005  16.374  23.633  1.00  0.00     0.046 A 
ATOM     75  C   UNL A   1      32.968  16.636  25.801  1.00  0.00     0.046 A 
ATOM     76  C   UNL A   1      33.748  15.905  24.916  1.00  0.00     0.115 A 
BRANCH  76  77
ATOM     77  O   UNL A   1      34.270  14.723  25.351  1.00  0.00    -0.508 OA
ATOM     78  H   UNL A   1      35.100  14.708  25.787  1.00  0.00     0.293 HD
ENDBRANCH  76  77
ENDBRANCH  70  71
ENDBRANCH  69  70
ENDBRANCH  64  69
ENDBRANCH  60  62
ENDBRANCH  59  60
ENDBRANCH  58  59
ENDBRANCH   1  58
TORSDOF 18
ENDMDL
MODEL 2
REMARK VINA RESULT:     -10.4      4.173      6.376
REMARK SMILES O=C(OCCOCCOC(=O)c1cc(Br)ccc1OCc1ccc(O)cc1)c1ccc(-c2c3nc(c(-c4ccccc4)c4ccc([nH]4)c(-c4ccccc4)c4nc(c(-c5ccccc5)c5ccc2[nH]5)C=C4)C=C3)cc1
REMARK SMILES IDX 7 1 6 2 5 3 4 4 3 5 2 6 1 7 28 8 29 9 75 10 30 11 74 12
REMARK SMILES IDX 31 13 32 14 33 15 68 16 34 17 73 18 67 19 69 20 35 21 72 22
REMARK SMILES IDX 66 23 65 24 36 26 58 27 43 28 57 29 44 30 47 31 56 32 70 33
REMARK SMILES IDX 45 34 46 35 55 37 71 38 48 39 37 40 38 41 42 42 39 43 41 44
REMARK SMILES IDX 40 45 59 46 60 47 64 48 61 49 63 50 62 51 49 52 50 53 54 54
REMARK SMILES IDX 51 55 53 56 52 57 8 58 9 59 10 60 11 61 12 62 13 63 18 64
REMARK SMILES IDX 14 65 17 66 15 67 16 68 19 69 20 70 21 71 22 72 27 73 23 74
REMARK SMILES IDX 26 75 24 76 25 77
REMARK H PARENT 69 25 47 36 25 78
REMARK Flexibility Score: inf
ROOT
ATOM      1  C   UNL A   1      34.522  31.924  27.626  1.00  0.00     0.202 C 
ENDROOT
BRANCH   1   2
ATOM      2  O   UNL A   1      33.563  32.753  28.285  1.00  0.00    -0.374 OA
BRANCH   2   3
ATOM      3  C   UNL A   1      33.968  34.112  28.467  1.00  0.00     0.202 C 
BRANCH   3   4
ATOM      4  C   UNL A   1      33.799  34.500  29.940  1.00  0.00     0.261 C 
BRANCH   4   5
ATOM      5  O   UNL A   1      34.998  34.204  30.683  1.00  0.00    -0.460 OA
BRANCH   5   6
ATOM      6  C   UNL A   1      35.322  32.994  31.203  1.00  0.00     0.338 C 
ATOM      7  O   UNL A   1      34.463  32.327  31.774  1.00  0.00    -0.246 OA
BRANCH   6   8
ATOM      8  C   UNL A   1      36.631  32.342  30.894  1.00  0.00     0.060 A 
ATOM      9  C   UNL A   1      37.443  31.668  31.815  1.00  0.00     0.016 A 
ATOM     10  C   UNL A   1      37.007  32.326  29.542  1.00  0.00     0.016 A 
ATOM     11  C   UNL A   1      38.607  31.013  31.413  1.00  0.00     0.010 A 
ATOM     12  C   UNL A   1      38.164  31.661  29.129  1.00  0.00     0.010 A 
ATOM     13  C   UNL A   1      38.968  31.004  30.067  1.00  0.00    -0.014 A 
BRANCH  13  14
ATOM     14  C   UNL A   1      40.214  30.345  29.636  1.00  0.00     0.031 A 
ATOM     15  C   UNL A   1      41.482  31.134  29.628  1.00  0.00     0.074 A 
ATOM     16  C   UNL A   1      40.196  29.059  29.246  1.00  0.00     0.049 A 
ATOM     17  N   UNL A   1      42.640  30.832  29.107  1.00  0.00    -0.248 NA
ATOM     18  C   UNL A   1      41.435  32.444  30.298  1.00  0.00     0.031 C 
ATOM     19  C   UNL A   1      39.033  28.174  29.298  1.00  0.00     0.029 A 
ATOM     20  N   UNL A   1      41.190  28.282  28.712  1.00  0.00    -0.354 N 
ATOM     21  C   UNL A   1      43.450  31.932  29.346  1.00  0.00     0.074 A 
ATOM     22  C   UNL A   1      42.659  32.898  30.076  1.00  0.00     0.031 C 
ATOM     23  C   UNL A   1      39.377  26.975  28.800  1.00  0.00     0.029 A 
ATOM     24  C   UNL A   1      40.763  27.032  28.343  1.00  0.00     0.049 A 
ATOM     25  H   UNL A   1      42.119  28.590  28.606  1.00  0.00     0.167 HD
ATOM     26  C   UNL A   1      44.734  32.124  28.962  1.00  0.00     0.031 A 
ATOM     27  C   UNL A   1      41.406  26.064  27.663  1.00  0.00     0.031 A 
ATOM     28  C   UNL A   1      45.497  31.164  28.216  1.00  0.00     0.049 A 
ATOM     29  C   UNL A   1      42.811  26.320  27.193  1.00  0.00     0.074 A 
ATOM     30  C   UNL A   1      46.786  31.271  27.726  1.00  0.00     0.029 A 
ATOM     31  N   UNL A   1      45.029  29.910  27.852  1.00  0.00    -0.354 N 
ATOM     32  N   UNL A   1      43.557  27.385  27.368  1.00  0.00    -0.248 NA
ATOM     33  C   UNL A   1      43.454  25.252  26.416  1.00  0.00     0.031 C 
ATOM     34  C   UNL A   1      47.085  30.088  27.037  1.00  0.00     0.029 A 
ATOM     35  C   UNL A   1      45.996  29.236  27.131  1.00  0.00     0.049 A 
ATOM     36  H   UNL A   1      44.138  29.553  28.074  1.00  0.00     0.167 HD
ATOM     37  C   UNL A   1      44.757  27.116  26.727  1.00  0.00     0.074 A 
ATOM     38  C   UNL A   1      44.648  25.780  26.174  1.00  0.00     0.031 C 
ATOM     39  C   UNL A   1      45.852  27.906  26.597  1.00  0.00     0.031 A 
BRANCH  26  40
ATOM     40  C   UNL A   1      45.331  33.462  29.279  1.00  0.00    -0.014 A 
ATOM     41  C   UNL A   1      45.212  34.545  28.394  1.00  0.00     0.009 A 
ATOM     42  C   UNL A   1      46.076  33.620  30.457  1.00  0.00     0.009 A 
ATOM     43  C   UNL A   1      45.867  35.749  28.664  1.00  0.00     0.001 A 
ATOM     44  C   UNL A   1      46.713  34.831  30.733  1.00  0.00     0.001 A 
ATOM     45  C   UNL A   1      46.618  35.889  29.831  1.00  0.00     0.000 A 
ENDBRANCH  26  40
BRANCH  27  46
ATOM     46  C   UNL A   1      40.698  24.801  27.334  1.00  0.00    -0.014 A 
ATOM     47  C   UNL A   1      41.098  23.587  27.911  1.00  0.00     0.009 A 
ATOM     48  C   UNL A   1      39.598  24.811  26.462  1.00  0.00     0.009 A 
ATOM     49  C   UNL A   1      40.412  22.405  27.614  1.00  0.00     0.001 A 
ATOM     50  C   UNL A   1      38.901  23.632  26.186  1.00  0.00     0.001 A 
ATOM     51  C   UNL A   1      39.312  22.430  26.758  1.00  0.00     0.000 A 
ENDBRANCH  27  46
BRANCH  39  52
ATOM     52  C   UNL A   1      47.017  27.338  25.844  1.00  0.00    -0.014 A 
ATOM     53  C   UNL A   1      47.111  27.483  24.453  1.00  0.00     0.009 A 
ATOM     54  C   UNL A   1      48.062  26.716  26.545  1.00  0.00     0.009 A 
ATOM     55  C   UNL A   1      48.230  27.001  23.772  1.00  0.00     0.001 A 
ATOM     56  C   UNL A   1      49.186  26.250  25.863  1.00  0.00     0.001 A 
ATOM     57  C   UNL A   1      49.268  26.391  24.477  1.00  0.00     0.000 A 
ENDBRANCH  39  52
ENDBRANCH  13  14
ENDBRANCH   6   8
ENDBRANCH   5   6
ENDBRANCH   4   5
ENDBRANCH   3   4
ENDBRANCH   2   3
ENDBRANCH   1   2
BRANCH   1  58
ATOM     58  C   UNL A   1      34.145  30.456  27.773  1.00  0.00     0.261 C 
BRANCH  58  59
ATOM     59  O   UNL A   1      33.563  30.028  26.536  1.00  0.00    -0.460 OA
BRANCH  59  60
ATOM     60  C   UNL A   1      32.609  29.072  26.632  1.00  0.00     0.342 C 
ATOM     61  O   UNL A   1      31.797  28.910  27.520  1.00  0.00    -0.246 OA
BRANCH  60  62
ATOM     62  C   UNL A   1      32.859  28.156  25.513  1.00  0.00     0.103 A 
ATOM     63  C   UNL A   1      33.644  27.041  25.865  1.00  0.00     0.035 A 
ATOM     64  C   UNL A   1      32.368  28.299  24.210  1.00  0.00     0.134 A 
ATOM     65  C   UNL A   1      33.951  26.074  24.918  1.00  0.00     0.019 A 
ATOM     66  C   UNL A   1      32.689  27.301  23.275  1.00  0.00     0.048 A 
ATOM     67  Br  UNL A   1      34.994  24.580  25.412  1.00  0.00    -0.051 Br
ATOM     68  C   UNL A   1      33.481  26.202  23.618  1.00  0.00     0.019 A 
BRANCH  64  69
ATOM     69  O   UNL A   1      31.527  29.240  23.692  1.00  0.00    -0.488 OA
BRANCH  69  70
ATOM     70  C   UNL A   1      30.134  28.962  23.547  1.00  0.00     0.265 C 
BRANCH  70  71
ATOM     71  C   UNL A   1      29.382  30.129  22.959  1.00  0.00    -0.010 A 
ATOM     72  C   UNL A   1      29.093  31.272  23.723  1.00  0.00     0.011 A 
ATOM     73  C   UNL A   1      28.973  30.089  21.618  1.00  0.00     0.011 A 
ATOM     74  C   UNL A   1      28.502  32.389  23.133  1.00  0.00     0.046 A 
ATOM     75  C   UNL A   1      28.371  31.202  21.030  1.00  0.00     0.046 A 
ATOM     76  C   UNL A   1      28.171  32.352  21.783  1.00  0.00     0.115 A 
BRANCH  76  77
ATOM     77  O   UNL A   1      27.658  33.447  21.153  1.00  0.00    -0.508 OA
ATOM     78  H   UNL A   1      26.734  33.606  21.167  1.00  0.00     0.293 HD
ENDBRANCH  76  77
ENDBRANCH  70  71
ENDBRANCH  69  70
ENDBRANCH  64  69
ENDBRANCH  60  62
ENDBRANCH  59  60
ENDBRANCH  58  59
ENDBRANCH   1  58
TORSDOF 18
ENDMDL
MODEL 3
REMARK VINA RESULT:     -10.4      4.511      9.020
REMARK SMILES O=C(OCCOCCOC(=O)c1cc(Br)ccc1OCc1ccc(O)cc1)c1ccc(-c2c3nc(c(-c4ccccc4)c4ccc([nH]4)c(-c4ccccc4)c4nc(c(-c5ccccc5)c5ccc2[nH]5)C=C4)C=C3)cc1
REMARK SMILES IDX 7 1 6 2 5 3 4 4 3 5 2 6 1 7 28 8 29 9 75 10 30 11 74 12
REMARK SMILES IDX 31 13 32 14 33 15 68 16 34 17 73 18 67 19 69 20 35 21 72 22
REMARK SMILES IDX 66 23 65 24 36 26 58 27 43 28 57 29 44 30 47 31 56 32 70 33
REMARK SMILES IDX 45 34 46 35 55 37 71 38 48 39 37 40 38 41 42 42 39 43 41 44
REMARK SMILES IDX 40 45 59 46 60 47 64 48 61 49 63 50 62 51 49 52 50 53 54 54
REMARK SMILES IDX 51 55 53 56 52 57 8 58 9 59 10 60 11 61 12 62 13 63 18 64
REMARK SMILES IDX 14 65 17 66 15 67 16 68 19 69 20 70 21 71 22 72 27 73 23 74
REMARK SMILES IDX 26 75 24 76 25 77
REMARK H PARENT 69 25 47 36 25 78
REMARK Flexibility Score: inf
ROOT
ATOM      1  C   UNL A   1      32.599  29.406  26.441  1.00  0.00     0.202 C 
ENDROOT
BRANCH   1   2
ATOM      2  O   UNL A   1      31.988  30.585  25.911  1.00  0.00    -0.374 OA
BRANCH   2   3
ATOM      3  C   UNL A   1      31.601  31.552  26.889  1.00  0.00     0.202 C 
BRANCH   3   4
ATOM      4  C   UNL A   1      32.625  32.692  26.908  1.00  0.00     0.261 C 
BRANCH   4   5
ATOM      5  O   UNL A   1      32.136  33.798  27.694  1.00  0.00    -0.460 OA
BRANCH   5   6
ATOM      6  C   UNL A   1      32.895  34.593  28.488  1.00  0.00     0.338 C 
ATOM      7  O   UNL A   1      32.476  35.701  28.819  1.00  0.00    -0.246 OA
BRANCH   6   8
ATOM      8  C   UNL A   1      34.117  34.070  29.171  1.00  0.00     0.060 A 
ATOM      9  C   UNL A   1      34.130  33.155  30.231  1.00  0.00     0.016 A 
ATOM     10  C   UNL A   1      35.346  34.463  28.618  1.00  0.00     0.016 A 
ATOM     11  C   UNL A   1      35.327  32.657  30.745  1.00  0.00     0.010 A 
ATOM     12  C   UNL A   1      36.549  33.958  29.118  1.00  0.00     0.010 A 
ATOM     13  C   UNL A   1      36.540  33.054  30.186  1.00  0.00    -0.014 A 
BRANCH  13  14
ATOM     14  C   UNL A   1      37.812  32.561  30.744  1.00  0.00     0.031 A 
ATOM     15  C   UNL A   1      38.496  31.413  30.076  1.00  0.00     0.074 A 
ATOM     16  C   UNL A   1      38.332  33.132  31.843  1.00  0.00     0.049 A 
ATOM     17  N   UNL A   1      39.499  30.691  30.496  1.00  0.00    -0.248 NA
ATOM     18  C   UNL A   1      37.974  31.025  28.756  1.00  0.00     0.031 C 
ATOM     19  C   UNL A   1      37.794  34.311  32.521  1.00  0.00     0.029 A 
ATOM     20  N   UNL A   1      39.426  32.781  32.590  1.00  0.00    -0.354 N 
ATOM     21  C   UNL A   1      39.703  29.734  29.513  1.00  0.00     0.074 A 
ATOM     22  C   UNL A   1      38.734  29.980  28.467  1.00  0.00     0.031 C 
ATOM     23  C   UNL A   1      38.553  34.578  33.597  1.00  0.00     0.029 A 
ATOM     24  C   UNL A   1      39.588  33.555  33.712  1.00  0.00     0.049 A 
ATOM     25  H   UNL A   1      40.035  32.047  32.346  1.00  0.00     0.167 HD
ATOM     26  C   UNL A   1      40.603  28.724  29.503  1.00  0.00     0.031 A 
ATOM     27  C   UNL A   1      40.444  33.416  34.741  1.00  0.00     0.031 A 
ATOM     28  C   UNL A   1      41.542  28.480  30.561  1.00  0.00     0.049 A 
ATOM     29  C   UNL A   1      41.397  32.253  34.740  1.00  0.00     0.074 A 
ATOM     30  C   UNL A   1      42.464  27.456  30.685  1.00  0.00     0.029 A 
ATOM     31  N   UNL A   1      41.673  29.280  31.686  1.00  0.00    -0.354 N 
ATOM     32  N   UNL A   1      41.548  31.314  33.837  1.00  0.00    -0.248 NA
ATOM     33  C   UNL A   1      42.280  32.119  35.906  1.00  0.00     0.031 C 
ATOM     34  C   UNL A   1      43.133  27.623  31.904  1.00  0.00     0.029 A 
ATOM     35  C   UNL A   1      42.650  28.768  32.518  1.00  0.00     0.049 A 
ATOM     36  H   UNL A   1      41.147  30.093  31.866  1.00  0.00     0.167 HD
ATOM     37  C   UNL A   1      42.544  30.478  34.323  1.00  0.00     0.074 A 
ATOM     38  C   UNL A   1      42.974  31.032  35.592  1.00  0.00     0.031 C 
ATOM     39  C   UNL A   1      43.053  29.348  33.774  1.00  0.00     0.031 A 
BRANCH  26  40
ATOM     40  C   UNL A   1      40.529  27.777  28.343  1.00  0.00    -0.014 A 
ATOM     41  C   UNL A   1      39.766  26.601  28.405  1.00  0.00     0.009 A 
ATOM     42  C   UNL A   1      41.286  28.040  27.191  1.00  0.00     0.009 A 
ATOM     43  C   UNL A   1      39.798  25.685  27.352  1.00  0.00     0.001 A 
ATOM     44  C   UNL A   1      41.301  27.132  26.132  1.00  0.00     0.001 A 
ATOM     45  C   UNL A   1      40.567  25.950  26.219  1.00  0.00     0.000 A 
ENDBRANCH  26  40
BRANCH  27  46
ATOM     46  C   UNL A   1      40.386  34.367  35.880  1.00  0.00    -0.014 A 
ATOM     47  C   UNL A   1      41.162  35.535  35.876  1.00  0.00     0.009 A 
ATOM     48  C   UNL A   1      39.529  34.123  36.965  1.00  0.00     0.009 A 
ATOM     49  C   UNL A   1      41.084  36.438  36.941  1.00  0.00     0.001 A 
ATOM     50  C   UNL A   1      39.437  35.037  38.016  1.00  0.00     0.001 A 
ATOM     51  C   UNL A   1      40.218  36.191  38.006  1.00  0.00     0.000 A 
ENDBRANCH  27  46
BRANCH  39  52
ATOM     52  C   UNL A   1      44.138  28.649  34.536  1.00  0.00    -0.014 A 
ATOM     53  C   UNL A   1      45.485  28.979  34.331  1.00  0.00     0.009 A 
ATOM     54  C   UNL A   1      43.802  27.704  35.518  1.00  0.00     0.009 A 
ATOM     55  C   UNL A   1      46.481  28.362  35.090  1.00  0.00     0.001 A 
ATOM     56  C   UNL A   1      44.799  27.102  36.285  1.00  0.00     0.001 A 
ATOM     57  C   UNL A   1      46.137  27.430  36.069  1.00  0.00     0.000 A 
ENDBRANCH  39  52
ENDBRANCH  13  14
ENDBRANCH   6   8
ENDBRANCH   5   6
ENDBRANCH   4   5
ENDBRANCH   3   4
ENDBRANCH   2   3
ENDBRANCH   1   2
BRANCH   1  58
ATOM     58  C   UNL A   1      33.545  28.793  25.418  1.00  0.00     0.261 C 
BRANCH  58  59
ATOM     59  O   UNL A   1      32.988  29.018  24.117  1.00  0.00    -0.460 OA
BRANCH  59  60
ATOM     60  C   UNL A   1      33.549  28.315  23.105  1.00  0.00     0.342 C 
ATOM     61  O   UNL A   1      34.402  28.679  22.322  1.00  0.00    -0.246 OA
BRANCH  60  62
ATOM     62  C   UNL A   1      32.793  27.059  23.035  1.00  0.00     0.103 A 
ATOM     63  C   UNL A   1      33.468  25.964  23.609  1.00  0.00     0.035 A 
ATOM     64  C   UNL A   1      31.511  26.902  22.495  1.00  0.00     0.134 A 
ATOM     65  C   UNL A   1      32.872  24.711  23.637  1.00  0.00     0.019 A 
ATOM     66  C   UNL A   1      30.930  25.624  22.544  1.00  0.00     0.048 A 
ATOM     67  Br  UNL A   1      33.787  23.258  24.423  1.00  0.00    -0.051 Br
ATOM     68  C   UNL A   1      31.605  24.534  23.099  1.00  0.00     0.019 A 
BRANCH  64  69
ATOM     69  O   UNL A   1      30.659  27.836  21.983  1.00  0.00    -0.488 OA
BRANCH  69  70
ATOM     70  C   UNL A   1      29.495  28.228  22.710  1.00  0.00     0.265 C 
BRANCH  70  71
ATOM     71  C   UNL A   1      29.260  29.716  22.644  1.00  0.00    -0.010 A 
ATOM     72  C   UNL A   1      28.897  30.346  21.442  1.00  0.00     0.011 A 
ATOM     73  C   UNL A   1      29.388  30.493  23.805  1.00  0.00     0.011 A 
ATOM     74  C   UNL A   1      28.568  31.701  21.423  1.00  0.00     0.046 A 
ATOM     75  C   UNL A   1      29.071  31.851  23.783  1.00  0.00     0.046 A 
ATOM     76  C   UNL A   1      28.633  32.435  22.602  1.00  0.00     0.115 A 
BRANCH  76  77
ATOM     77  O   UNL A   1      28.252  33.744  22.638  1.00  0.00    -0.508 OA
ATOM     78  H   UNL A   1      27.741  34.104  21.940  1.00  0.00     0.293 HD
ENDBRANCH  76  77
ENDBRANCH  70  71
ENDBRANCH  69  70
ENDBRANCH  64  69
ENDBRANCH  60  62
ENDBRANCH  59  60
ENDBRANCH  58  59
ENDBRANCH   1  58
TORSDOF 18
ENDMDL
