MODEL 1
REMARK VINA RESULT:      -9.6      0.000      0.000
REMARK SMILES C[C@@](NC(=O)CCOC1CC[NH2+]CC1)(C(=O)OCCOCCOC(=O)c1ccc(-c2c3nc(c(-c4ccccc4)c4ccc([nH]4)c(-c4ccccc4)c4nc(c(-c5ccccc5)c5ccc2[nH]5)C=C4)C=C3)cc1)C(F)(F)F
REMARK SMILES IDX 18 1 17 2 15 3 16 4 2 5 1 6 3 7 4 8 5 10 6 11 7 12 8 13 9 14
REMARK SMILES IDX 10 15 14 16 11 17 13 18 12 19 74 22 75 23 76 24 77 25 19 26
REMARK SMILES IDX 20 27 21 28 22 29 23 30 24 31 25 32 26 33 27 34 73 35 28 36
REMARK SMILES IDX 72 37 29 38 30 39 31 40 66 41 32 42 71 43 65 44 67 45 33 46
REMARK SMILES IDX 70 47 64 48 63 49 34 51 56 52 41 53 55 54 42 55 45 56 54 57
REMARK SMILES IDX 68 58 43 59 44 60 53 62 69 63 46 64 35 65 36 66 40 67 37 68
REMARK SMILES IDX 39 69 38 70 57 71 58 72 62 73 59 74 61 75 60 76 47 77 48 78
REMARK SMILES IDX 52 79 49 80 51 81 50 82
REMARK H PARENT 3 9 12 20 12 21 67 50 45 61
REMARK Flexibility Score: inf
ROOT
ATOM      1  C   UNL A   1      31.871  27.982  26.564  1.00  0.00     0.261 C 
ENDROOT
BRANCH   1   2
ATOM      2  O   UNL A   1      32.426  27.506  25.330  1.00  0.00    -0.461 OA
BRANCH   2   3
ATOM      3  C   UNL A   1      31.548  27.137  24.355  1.00  0.00     0.341 C 
ATOM      4  O   UNL A   1      30.743  26.224  24.476  1.00  0.00    -0.249 OA
BRANCH   3   5
ATOM      5  C   UNL A   1      31.855  27.854  23.043  1.00  0.00     0.231 C 
ATOM      6  C   UNL A   1      33.021  28.855  23.104  1.00  0.00     0.058 C 
BRANCH   5   7
ATOM      7  N   UNL A   1      32.045  26.867  21.921  1.00  0.00    -0.333 N 
ATOM      8  C   UNL A   1      32.972  25.907  21.661  1.00  0.00     0.223 C 
ATOM      9  H   UNL A   1      31.348  26.930  21.228  1.00  0.00     0.164 HD
ATOM     10  O   UNL A   1      33.057  25.515  20.494  1.00  0.00    -0.275 OA
BRANCH   8  11
ATOM     11  C   UNL A   1      33.822  25.266  22.732  1.00  0.00     0.128 C 
BRANCH  11  12
ATOM     12  C   UNL A   1      33.667  23.755  22.844  1.00  0.00     0.170 C 
BRANCH  12  13
ATOM     13  O   UNL A   1      32.563  23.400  23.655  1.00  0.00    -0.377 OA
BRANCH  13  14
ATOM     14  C   UNL A   1      32.787  22.861  24.966  1.00  0.00     0.129 C 
ATOM     15  C   UNL A   1      34.250  22.588  25.323  1.00  0.00     0.093 C 
ATOM     16  C   UNL A   1      31.862  21.707  25.350  1.00  0.00     0.093 C 
ATOM     17  C   UNL A   1      34.715  21.176  24.991  1.00  0.00     0.263 C 
ATOM     18  C   UNL A   1      32.442  20.331  25.046  1.00  0.00     0.263 C 
ATOM     19  N   UNL A   1      33.805  20.180  25.550  1.00  0.00    -0.346 N 
ATOM     20  H   UNL A   1      33.793  20.278  26.566  1.00  0.00     0.346 HD
ATOM     21  H   UNL A   1      34.142  19.257  25.272  1.00  0.00     0.346 HD
ENDBRANCH  13  14
ENDBRANCH  12  13
ENDBRANCH  11  12
ENDBRANCH   8  11
ENDBRANCH   5   7
BRANCH   5  22
ATOM     22  C   UNL A   1      30.591  28.715  22.817  1.00  0.00     0.422 C 
ATOM     23  F   UNL A   1      30.199  29.353  23.943  1.00  0.00    -0.168 F 
ATOM     24  F   UNL A   1      30.853  29.681  21.893  1.00  0.00    -0.168 F 
ATOM     25  F   UNL A   1      29.540  28.018  22.340  1.00  0.00    -0.168 F 
ENDBRANCH   5  22
ENDBRANCH   3   5
ENDBRANCH   2   3
ENDBRANCH   1   2
BRANCH   1  26
ATOM     26  C   UNL A   1      32.715  29.119  27.130  1.00  0.00     0.202 C 
BRANCH  26  27
ATOM     27  O   UNL A   1      32.764  30.290  26.320  1.00  0.00    -0.374 OA
BRANCH  27  28
ATOM     28  C   UNL A   1      31.633  31.161  26.382  1.00  0.00     0.202 C 
BRANCH  28  29
ATOM     29  C   UNL A   1      31.883  32.559  26.959  1.00  0.00     0.261 C 
BRANCH  29  30
ATOM     30  O   UNL A   1      33.196  32.706  27.538  1.00  0.00    -0.460 OA
BRANCH  30  31
ATOM     31  C   UNL A   1      33.334  33.770  28.358  1.00  0.00     0.338 C 
ATOM     32  O   UNL A   1      32.544  34.699  28.502  1.00  0.00    -0.246 OA
BRANCH  31  33
ATOM     33  C   UNL A   1      34.543  33.663  29.191  1.00  0.00     0.060 A 
ATOM     34  C   UNL A   1      35.748  34.133  28.656  1.00  0.00     0.016 A 
ATOM     35  C   UNL A   1      34.533  32.936  30.384  1.00  0.00     0.016 A 
ATOM     36  C   UNL A   1      36.959  33.802  29.262  1.00  0.00     0.010 A 
ATOM     37  C   UNL A   1      35.749  32.601  30.990  1.00  0.00     0.010 A 
ATOM     38  C   UNL A   1      36.968  32.986  30.400  1.00  0.00    -0.014 A 
BRANCH  38  39
ATOM     39  C   UNL A   1      38.245  32.395  30.869  1.00  0.00     0.031 A 
ATOM     40  C   UNL A   1      38.742  31.123  30.232  1.00  0.00     0.074 A 
ATOM     41  C   UNL A   1      38.974  32.992  31.827  1.00  0.00     0.049 A 
ATOM     42  N   UNL A   1      39.808  30.415  30.513  1.00  0.00    -0.248 NA
ATOM     43  C   UNL A   1      37.930  30.575  29.132  1.00  0.00     0.031 C 
ATOM     44  C   UNL A   1      38.634  34.250  32.487  1.00  0.00     0.029 A 
ATOM     45  N   UNL A   1      40.155  32.610  32.411  1.00  0.00    -0.354 N 
ATOM     46  C   UNL A   1      39.788  29.337  29.636  1.00  0.00     0.074 A 
ATOM     47  C   UNL A   1      38.593  29.468  28.830  1.00  0.00     0.031 C 
ATOM     48  C   UNL A   1      39.585  34.534  33.395  1.00  0.00     0.029 A 
ATOM     49  C   UNL A   1      40.578  33.461  33.400  1.00  0.00     0.049 A 
ATOM     50  H   UNL A   1      40.652  31.803  32.146  1.00  0.00     0.167 HD
ATOM     51  C   UNL A   1      40.683  28.328  29.508  1.00  0.00     0.031 A 
ATOM     52  C   UNL A   1      41.633  33.375  34.231  1.00  0.00     0.031 A 
ATOM     53  C   UNL A   1      41.869  28.188  30.309  1.00  0.00     0.049 A 
ATOM     54  C   UNL A   1      42.573  32.204  34.123  1.00  0.00     0.074 A 
ATOM     55  C   UNL A   1      42.846  27.208  30.241  1.00  0.00     0.029 A 
ATOM     56  N   UNL A   1      42.237  29.049  31.329  1.00  0.00    -0.354 N 
ATOM     57  N   UNL A   1      42.550  31.200  33.280  1.00  0.00    -0.248 NA
ATOM     58  C   UNL A   1      43.688  32.159  35.082  1.00  0.00     0.031 C 
ATOM     59  C   UNL A   1      43.779  27.449  31.255  1.00  0.00     0.029 A 
ATOM     60  C   UNL A   1      43.410  28.610  31.918  1.00  0.00     0.049 A 
ATOM     61  H   UNL A   1      41.738  29.855  31.597  1.00  0.00     0.167 HD
ATOM     62  C   UNL A   1      43.658  30.420  33.590  1.00  0.00     0.074 A 
ATOM     63  C   UNL A   1      44.338  31.073  34.689  1.00  0.00     0.031 C 
ATOM     64  C   UNL A   1      44.075  29.266  33.012  1.00  0.00     0.031 A 
BRANCH  51  65
ATOM     65  C   UNL A   1      40.393  27.271  28.480  1.00  0.00    -0.014 A 
ATOM     66  C   UNL A   1      40.938  27.340  27.188  1.00  0.00     0.009 A 
ATOM     67  C   UNL A   1      39.590  26.171  28.820  1.00  0.00     0.009 A 
ATOM     68  C   UNL A   1      40.659  26.343  26.249  1.00  0.00     0.001 A 
ATOM     69  C   UNL A   1      39.333  25.165  27.888  1.00  0.00     0.001 A 
ATOM     70  C   UNL A   1      39.860  25.255  26.601  1.00  0.00     0.000 A 
ENDBRANCH  51  65
BRANCH  52  71
ATOM     71  C   UNL A   1      41.850  34.420  35.265  1.00  0.00    -0.014 A 
ATOM     72  C   UNL A   1      41.250  34.313  36.527  1.00  0.00     0.009 A 
ATOM     73  C   UNL A   1      42.650  35.539  34.983  1.00  0.00     0.009 A 
ATOM     74  C   UNL A   1      41.430  35.317  37.483  1.00  0.00     0.001 A 
ATOM     75  C   UNL A   1      42.849  36.528  35.948  1.00  0.00     0.001 A 
ATOM     76  C   UNL A   1      42.233  36.420  37.193  1.00  0.00     0.000 A 
ENDBRANCH  52  71
BRANCH  64  77
ATOM     77  C   UNL A   1      45.343  28.654  33.536  1.00  0.00    -0.014 A 
ATOM     78  C   UNL A   1      45.319  27.693  34.561  1.00  0.00     0.009 A 
ATOM     79  C   UNL A   1      46.575  29.013  32.969  1.00  0.00     0.009 A 
ATOM     80  C   UNL A   1      46.509  27.130  35.026  1.00  0.00     0.001 A 
ATOM     81  C   UNL A   1      47.760  28.428  33.418  1.00  0.00     0.001 A 
ATOM     82  C   UNL A   1      47.727  27.494  34.451  1.00  0.00     0.000 A 
ENDBRANCH  64  77
ENDBRANCH  38  39
ENDBRANCH  31  33
ENDBRANCH  30  31
ENDBRANCH  29  30
ENDBRANCH  28  29
ENDBRANCH  27  28
ENDBRANCH  26  27
ENDBRANCH   1  26
TORSDOF 20
ENDMDL
MODEL 2
REMARK VINA RESULT:      -9.4      1.984      3.960
REMARK SMILES C[C@@](NC(=O)CCOC1CC[NH2+]CC1)(C(=O)OCCOCCOC(=O)c1ccc(-c2c3nc(c(-c4ccccc4)c4ccc([nH]4)c(-c4ccccc4)c4nc(c(-c5ccccc5)c5ccc2[nH]5)C=C4)C=C3)cc1)C(F)(F)F
REMARK SMILES IDX 18 1 17 2 15 3 16 4 2 5 1 6 3 7 4 8 5 10 6 11 7 12 8 13 9 14
REMARK SMILES IDX 10 15 14 16 11 17 13 18 12 19 74 22 75 23 76 24 77 25 19 26
REMARK SMILES IDX 20 27 21 28 22 29 23 30 24 31 25 32 26 33 27 34 73 35 28 36
REMARK SMILES IDX 72 37 29 38 30 39 31 40 66 41 32 42 71 43 65 44 67 45 33 46
REMARK SMILES IDX 70 47 64 48 63 49 34 51 56 52 41 53 55 54 42 55 45 56 54 57
REMARK SMILES IDX 68 58 43 59 44 60 53 62 69 63 46 64 35 65 36 66 40 67 37 68
REMARK SMILES IDX 39 69 38 70 57 71 58 72 62 73 59 74 61 75 60 76 47 77 48 78
REMARK SMILES IDX 52 79 49 80 51 81 50 82
REMARK H PARENT 3 9 12 20 12 21 67 50 45 61
REMARK Flexibility Score: inf
ROOT
ATOM      1  C   UNL A   1      31.214  27.450  26.434  1.00  0.00     0.261 C 
ENDROOT
BRANCH   1   2
ATOM      2  O   UNL A   1      31.913  26.204  26.296  1.00  0.00    -0.461 OA
BRANCH   2   3
ATOM      3  C   UNL A   1      32.799  26.100  25.265  1.00  0.00     0.341 C 
ATOM      4  O   UNL A   1      33.703  26.899  25.063  1.00  0.00    -0.249 OA
BRANCH   3   5
ATOM      5  C   UNL A   1      32.376  25.004  24.290  1.00  0.00     0.231 C 
ATOM      6  C   UNL A   1      31.093  24.249  24.674  1.00  0.00     0.058 C 
BRANCH   5   7
ATOM      7  N   UNL A   1      32.293  25.537  22.884  1.00  0.00    -0.333 N 
ATOM      8  C   UNL A   1      31.393  26.314  22.225  1.00  0.00     0.223 C 
ATOM      9  H   UNL A   1      33.054  25.264  22.322  1.00  0.00     0.164 HD
ATOM     10  O   UNL A   1      31.420  26.277  20.992  1.00  0.00    -0.275 OA
BRANCH   8  11
ATOM     11  C   UNL A   1      30.441  27.254  22.927  1.00  0.00     0.128 C 
BRANCH  11  12
ATOM     12  C   UNL A   1      30.349  28.642  22.306  1.00  0.00     0.170 C 
BRANCH  12  13
ATOM     13  O   UNL A   1      29.938  29.612  23.251  1.00  0.00    -0.377 OA
BRANCH  13  14
ATOM     14  C   UNL A   1      28.642  30.218  23.131  1.00  0.00     0.129 C 
ATOM     15  C   UNL A   1      28.026  30.182  21.730  1.00  0.00     0.093 C 
ATOM     16  C   UNL A   1      28.511  31.586  23.797  1.00  0.00     0.093 C 
ATOM     17  C   UNL A   1      28.345  31.407  20.883  1.00  0.00     0.263 C 
ATOM     18  C   UNL A   1      28.778  32.753  22.854  1.00  0.00     0.263 C 
ATOM     19  N   UNL A   1      28.031  32.638  21.604  1.00  0.00    -0.346 N 
ATOM     20  H   UNL A   1      27.033  32.650  21.815  1.00  0.00     0.346 HD
ATOM     21  H   UNL A   1      28.293  33.425  21.008  1.00  0.00     0.346 HD
ENDBRANCH  13  14
ENDBRANCH  12  13
ENDBRANCH  11  12
ENDBRANCH   8  11
ENDBRANCH   5   7
BRANCH   5  22
ATOM     22  C   UNL A   1      33.515  23.967  24.425  1.00  0.00     0.422 C 
ATOM     23  F   UNL A   1      33.113  22.720  24.085  1.00  0.00    -0.168 F 
ATOM     24  F   UNL A   1      34.532  24.291  23.579  1.00  0.00    -0.168 F 
ATOM     25  F   UNL A   1      34.057  23.914  25.658  1.00  0.00    -0.168 F 
ENDBRANCH   5  22
ENDBRANCH   3   5
ENDBRANCH   2   3
ENDBRANCH   1   2
BRANCH   1  26
ATOM     26  C   UNL A   1      32.040  28.442  27.246  1.00  0.00     0.202 C 
BRANCH  26  27
ATOM     27  O   UNL A   1      32.447  29.607  26.534  1.00  0.00    -0.374 OA
BRANCH  27  28
ATOM     28  C   UNL A   1      31.437  30.583  26.269  1.00  0.00     0.202 C 
BRANCH  28  29
ATOM     29  C   UNL A   1      31.659  31.972  26.879  1.00  0.00     0.261 C 
BRANCH  29  30
ATOM     30  O   UNL A   1      33.009  32.177  27.345  1.00  0.00    -0.460 OA
BRANCH  30  31
ATOM     31  C   UNL A   1      33.208  33.340  28.002  1.00  0.00     0.338 C 
ATOM     32  O   UNL A   1      32.451  34.306  28.038  1.00  0.00    -0.246 OA
BRANCH  31  33
ATOM     33  C   UNL A   1      34.441  33.309  28.805  1.00  0.00     0.060 A 
ATOM     34  C   UNL A   1      35.632  33.709  28.186  1.00  0.00     0.016 A 
ATOM     35  C   UNL A   1      34.465  32.710  30.067  1.00  0.00     0.016 A 
ATOM     36  C   UNL A   1      36.859  33.431  28.787  1.00  0.00     0.010 A 
ATOM     37  C   UNL A   1      35.697  32.429  30.667  1.00  0.00     0.010 A 
ATOM     38  C   UNL A   1      36.899  32.739  30.003  1.00  0.00    -0.014 A 
BRANCH  38  39
ATOM     39  C   UNL A   1      38.186  32.187  30.492  1.00  0.00     0.031 A 
ATOM     40  C   UNL A   1      38.703  30.900  29.904  1.00  0.00     0.074 A 
ATOM     41  C   UNL A   1      38.906  32.833  31.425  1.00  0.00     0.049 A 
ATOM     42  N   UNL A   1      39.782  30.221  30.210  1.00  0.00    -0.248 NA
ATOM     43  C   UNL A   1      37.899  30.296  28.828  1.00  0.00     0.031 C 
ATOM     44  C   UNL A   1      38.546  34.111  32.036  1.00  0.00     0.029 A 
ATOM     45  N   UNL A   1      40.095  32.493  32.021  1.00  0.00    -0.354 N 
ATOM     46  C   UNL A   1      39.778  29.109  29.376  1.00  0.00     0.074 A 
ATOM     47  C   UNL A   1      38.580  29.189  28.568  1.00  0.00     0.031 C 
ATOM     48  C   UNL A   1      39.494  34.445  32.930  1.00  0.00     0.029 A 
ATOM     49  C   UNL A   1      40.505  33.390  32.975  1.00  0.00     0.049 A 
ATOM     50  H   UNL A   1      40.604  31.685  31.786  1.00  0.00     0.167 HD
ATOM     51  C   UNL A   1      40.690  28.111  29.285  1.00  0.00     0.031 A 
ATOM     52  C   UNL A   1      41.563  33.353  33.807  1.00  0.00     0.031 A 
ATOM     53  C   UNL A   1      41.879  28.022  30.089  1.00  0.00     0.049 A 
ATOM     54  C   UNL A   1      42.522  32.195  33.742  1.00  0.00     0.074 A 
ATOM     55  C   UNL A   1      42.872  27.057  30.057  1.00  0.00     0.029 A 
ATOM     56  N   UNL A   1      42.234  28.928  31.074  1.00  0.00    -0.354 N 
ATOM     57  N   UNL A   1      42.514  31.159  32.939  1.00  0.00    -0.248 NA
ATOM     58  C   UNL A   1      43.638  32.206  34.700  1.00  0.00     0.031 C 
ATOM     59  C   UNL A   1      43.802  27.353  31.059  1.00  0.00     0.029 A 
ATOM     60  C   UNL A   1      43.416  28.532  31.677  1.00  0.00     0.049 A 
ATOM     61  H   UNL A   1      41.722  29.736  31.311  1.00  0.00     0.167 HD
ATOM     62  C   UNL A   1      43.635  30.410  33.276  1.00  0.00     0.074 A 
ATOM     63  C   UNL A   1      44.306  31.116  34.348  1.00  0.00     0.031 C 
ATOM     64  C   UNL A   1      44.071  29.242  32.744  1.00  0.00     0.031 A 
BRANCH  51  65
ATOM     65  C   UNL A   1      40.416  27.011  28.299  1.00  0.00    -0.014 A 
ATOM     66  C   UNL A   1      41.033  26.990  27.038  1.00  0.00     0.009 A 
ATOM     67  C   UNL A   1      39.554  25.960  28.652  1.00  0.00     0.009 A 
ATOM     68  C   UNL A   1      40.767  25.953  26.139  1.00  0.00     0.001 A 
ATOM     69  C   UNL A   1      39.311  24.913  27.761  1.00  0.00     0.001 A 
ATOM     70  C   UNL A   1      39.909  24.915  26.503  1.00  0.00     0.000 A 
ENDBRANCH  51  65
BRANCH  52  71
ATOM     71  C   UNL A   1      41.763  34.442  34.798  1.00  0.00    -0.014 A 
ATOM     72  C   UNL A   1      42.562  35.552  34.489  1.00  0.00     0.009 A 
ATOM     73  C   UNL A   1      41.164  34.366  36.065  1.00  0.00     0.009 A 
ATOM     74  C   UNL A   1      42.775  36.555  35.439  1.00  0.00     0.001 A 
ATOM     75  C   UNL A   1      41.357  35.382  37.002  1.00  0.00     0.001 A 
ATOM     76  C   UNL A   1      42.168  36.471  36.691  1.00  0.00     0.000 A 
ENDBRANCH  52  71
BRANCH  64  77
ATOM     77  C   UNL A   1      45.349  28.671  33.288  1.00  0.00    -0.014 A 
ATOM     78  C   UNL A   1      45.343  27.751  34.349  1.00  0.00     0.009 A 
ATOM     79  C   UNL A   1      46.575  29.028  32.705  1.00  0.00     0.009 A 
ATOM     80  C   UNL A   1      46.543  27.226  34.833  1.00  0.00     0.001 A 
ATOM     81  C   UNL A   1      47.770  28.481  33.174  1.00  0.00     0.001 A 
ATOM     82  C   UNL A   1      47.754  27.588  34.243  1.00  0.00     0.000 A 
ENDBRANCH  64  77
ENDBRANCH  38  39
ENDBRANCH  31  33
ENDBRANCH  30  31
ENDBRANCH  29  30
ENDBRANCH  28  29
ENDBRANCH  27  28
ENDBRANCH  26  27
ENDBRANCH   1  26
TORSDOF 20
ENDMDL
MODEL 3
REMARK VINA RESULT:      -9.2      2.300      6.588
REMARK SMILES C[C@@](NC(=O)CCOC1CC[NH2+]CC1)(C(=O)OCCOCCOC(=O)c1ccc(-c2c3nc(c(-c4ccccc4)c4ccc([nH]4)c(-c4ccccc4)c4nc(c(-c5ccccc5)c5ccc2[nH]5)C=C4)C=C3)cc1)C(F)(F)F
REMARK SMILES IDX 18 1 17 2 15 3 16 4 2 5 1 6 3 7 4 8 5 10 6 11 7 12 8 13 9 14
REMARK SMILES IDX 10 15 14 16 11 17 13 18 12 19 74 22 75 23 76 24 77 25 19 26
REMARK SMILES IDX 20 27 21 28 22 29 23 30 24 31 25 32 26 33 27 34 73 35 28 36
REMARK SMILES IDX 72 37 29 38 30 39 31 40 66 41 32 42 71 43 65 44 67 45 33 46
REMARK SMILES IDX 70 47 64 48 63 49 34 51 56 52 41 53 55 54 42 55 45 56 54 57
REMARK SMILES IDX 68 58 43 59 44 60 53 62 69 63 46 64 35 65 36 66 40 67 37 68
REMARK SMILES IDX 39 69 38 70 57 71 58 72 62 73 59 74 61 75 60 76 47 77 48 78
REMARK SMILES IDX 52 79 49 80 51 81 50 82
REMARK H PARENT 3 9 12 20 12 21 67 50 45 61
REMARK Flexibility Score: inf
ROOT
ATOM      1  C   UNL A   1      33.842  31.793  27.604  1.00  0.00     0.261 C 
ENDROOT
BRANCH   1   2
ATOM      2  O   UNL A   1      33.306  30.462  27.578  1.00  0.00    -0.461 OA
BRANCH   2   3
ATOM      3  C   UNL A   1      32.420  30.168  26.586  1.00  0.00     0.341 C 
ATOM      4  O   UNL A   1      31.768  31.012  25.985  1.00  0.00    -0.249 OA
BRANCH   3   5
ATOM      5  C   UNL A   1      32.190  28.662  26.485  1.00  0.00     0.231 C 
ATOM      6  C   UNL A   1      31.670  27.996  27.769  1.00  0.00     0.058 C 
BRANCH   5   7
ATOM      7  N   UNL A   1      31.315  28.329  25.306  1.00  0.00    -0.333 N 
ATOM      8  C   UNL A   1      30.853  27.163  24.779  1.00  0.00     0.223 C 
ATOM      9  H   UNL A   1      31.012  29.124  24.811  1.00  0.00     0.164 HD
ATOM     10  O   UNL A   1      30.458  27.198  23.609  1.00  0.00    -0.275 OA
BRANCH   8  11
ATOM     11  C   UNL A   1      30.734  25.885  25.574  1.00  0.00     0.128 C 
BRANCH  11  12
ATOM     12  C   UNL A   1      31.192  24.634  24.834  1.00  0.00     0.170 C 
BRANCH  12  13
ATOM     13  O   UNL A   1      31.736  23.673  25.719  1.00  0.00    -0.377 OA
BRANCH  13  14
ATOM     14  C   UNL A   1      33.127  23.329  25.629  1.00  0.00     0.129 C 
ATOM     15  C   UNL A   1      33.481  22.295  24.557  1.00  0.00     0.093 C 
ATOM     16  C   UNL A   1      33.804  23.044  26.968  1.00  0.00     0.093 C 
ATOM     17  C   UNL A   1      33.467  20.857  25.057  1.00  0.00     0.263 C 
ATOM     18  C   UNL A   1      33.805  21.569  27.351  1.00  0.00     0.263 C 
ATOM     19  N   UNL A   1      34.277  20.714  26.265  1.00  0.00    -0.346 N 
ATOM     20  H   UNL A   1      35.242  20.963  26.045  1.00  0.00     0.346 HD
ATOM     21  H   UNL A   1      34.207  19.744  26.575  1.00  0.00     0.346 HD
ENDBRANCH  13  14
ENDBRANCH  12  13
ENDBRANCH  11  12
ENDBRANCH   8  11
ENDBRANCH   5   7
BRANCH   5  22
ATOM     22  C   UNL A   1      33.620  28.108  26.289  1.00  0.00     0.422 C 
ATOM     23  F   UNL A   1      33.635  26.760  26.178  1.00  0.00    -0.168 F 
ATOM     24  F   UNL A   1      34.147  28.599  25.133  1.00  0.00    -0.168 F 
ATOM     25  F   UNL A   1      34.477  28.460  27.269  1.00  0.00    -0.168 F 
ENDBRANCH   5  22
ENDBRANCH   3   5
ENDBRANCH   2   3
ENDBRANCH   1   2
BRANCH   1  26
ATOM     26  C   UNL A   1      34.725  31.993  28.831  1.00  0.00     0.202 C 
BRANCH  26  27
ATOM     27  O   UNL A   1      34.655  33.290  29.416  1.00  0.00    -0.374 OA
BRANCH  27  28
ATOM     28  C   UNL A   1      34.115  34.333  28.602  1.00  0.00     0.202 C 
BRANCH  28  29
ATOM     29  C   UNL A   1      33.291  35.402  29.327  1.00  0.00     0.261 C 
BRANCH  29  30
ATOM     30  O   UNL A   1      32.589  34.892  30.479  1.00  0.00    -0.460 OA
BRANCH  30  31
ATOM     31  C   UNL A   1      32.809  35.576  31.622  1.00  0.00     0.338 C 
ATOM     32  O   UNL A   1      32.168  36.536  32.043  1.00  0.00    -0.246 OA
BRANCH  31  33
ATOM     33  C   UNL A   1      33.887  34.973  32.422  1.00  0.00     0.060 A 
ATOM     34  C   UNL A   1      35.119  35.637  32.463  1.00  0.00     0.016 A 
ATOM     35  C   UNL A   1      33.758  33.686  32.950  1.00  0.00     0.016 A 
ATOM     36  C   UNL A   1      36.249  34.984  32.951  1.00  0.00     0.010 A 
ATOM     37  C   UNL A   1      34.894  33.030  33.437  1.00  0.00     0.010 A 
ATOM     38  C   UNL A   1      36.153  33.657  33.388  1.00  0.00    -0.014 A 
BRANCH  38  39
ATOM     39  C   UNL A   1      37.389  32.872  33.626  1.00  0.00     0.031 A 
ATOM     40  C   UNL A   1      38.161  33.086  34.902  1.00  0.00     0.074 A 
ATOM     41  C   UNL A   1      37.809  31.956  32.736  1.00  0.00     0.049 A 
ATOM     42  N   UNL A   1      39.284  32.538  35.295  1.00  0.00    -0.248 NA
ATOM     43  C   UNL A   1      37.592  34.045  35.864  1.00  0.00     0.031 C 
ATOM     44  C   UNL A   1      37.128  31.615  31.489  1.00  0.00     0.029 A 
ATOM     45  N   UNL A   1      38.918  31.148  32.751  1.00  0.00    -0.354 N 
ATOM     46  C   UNL A   1      39.560  33.093  36.539  1.00  0.00     0.074 A 
ATOM     47  C   UNL A   1      38.502  34.038  36.826  1.00  0.00     0.031 C 
ATOM     48  C   UNL A   1      37.841  30.669  30.851  1.00  0.00     0.029 A 
ATOM     49  C   UNL A   1      39.040  30.365  31.630  1.00  0.00     0.049 A 
ATOM     50  H   UNL A   1      39.563  31.130  33.494  1.00  0.00     0.167 HD
ATOM     51  C   UNL A   1      40.598  32.838  37.372  1.00  0.00     0.031 A 
ATOM     52  C   UNL A   1      40.019  29.518  31.263  1.00  0.00     0.031 A 
ATOM     53  C   UNL A   1      41.656  31.906  37.091  1.00  0.00     0.049 A 
ATOM     54  C   UNL A   1      41.203  29.309  32.169  1.00  0.00     0.074 A 
ATOM     55  C   UNL A   1      42.742  31.568  37.882  1.00  0.00     0.029 A 
ATOM     56  N   UNL A   1      41.764  31.166  35.925  1.00  0.00    -0.354 N 
ATOM     57  N   UNL A   1      41.443  29.829  33.348  1.00  0.00    -0.248 NA
ATOM     58  C   UNL A   1      42.248  28.391  31.691  1.00  0.00     0.031 C 
ATOM     59  C   UNL A   1      43.535  30.661  37.171  1.00  0.00     0.029 A 
ATOM     60  C   UNL A   1      42.913  30.393  35.961  1.00  0.00     0.049 A 
ATOM     61  H   UNL A   1      41.121  31.186  35.181  1.00  0.00     0.167 HD
ATOM     62  C   UNL A   1      42.652  29.282  33.764  1.00  0.00     0.074 A 
ATOM     63  C   UNL A   1      43.088  28.383  32.717  1.00  0.00     0.031 C 
ATOM     64  C   UNL A   1      43.337  29.505  34.912  1.00  0.00     0.031 A 
BRANCH  51  65
ATOM     65  C   UNL A   1      40.658  33.612  38.660  1.00  0.00    -0.014 A 
ATOM     66  C   UNL A   1      41.301  34.857  38.734  1.00  0.00     0.009 A 
ATOM     67  C   UNL A   1      40.030  33.102  39.807  1.00  0.00     0.009 A 
ATOM     68  C   UNL A   1      41.340  35.561  39.941  1.00  0.00     0.001 A 
ATOM     69  C   UNL A   1      40.048  33.819  41.004  1.00  0.00     0.001 A 
ATOM     70  C   UNL A   1      40.710  35.043  41.073  1.00  0.00     0.000 A 
ENDBRANCH  51  65
BRANCH  52  71
ATOM     71  C   UNL A   1      39.938  28.814  29.957  1.00  0.00    -0.014 A 
ATOM     72  C   UNL A   1      40.349  29.448  28.776  1.00  0.00     0.009 A 
ATOM     73  C   UNL A   1      39.435  27.505  29.888  1.00  0.00     0.009 A 
ATOM     74  C   UNL A   1      40.237  28.793  27.547  1.00  0.00     0.001 A 
ATOM     75  C   UNL A   1      39.349  26.843  28.662  1.00  0.00     0.001 A 
ATOM     76  C   UNL A   1      39.742  27.491  27.492  1.00  0.00     0.000 A 
ENDBRANCH  52  71
BRANCH  64  77
ATOM     77  C   UNL A   1      44.615  28.739  35.111  1.00  0.00    -0.014 A 
ATOM     78  C   UNL A   1      45.852  29.269  34.712  1.00  0.00     0.009 A 
ATOM     79  C   UNL A   1      44.584  27.487  35.744  1.00  0.00     0.009 A 
ATOM     80  C   UNL A   1      47.028  28.544  34.916  1.00  0.00     0.001 A 
ATOM     81  C   UNL A   1      45.763  26.777  35.970  1.00  0.00     0.001 A 
ATOM     82  C   UNL A   1      46.983  27.302  35.548  1.00  0.00     0.000 A 
ENDBRANCH  64  77
ENDBRANCH  38  39
ENDBRANCH  31  33
ENDBRANCH  30  31
ENDBRANCH  29  30
ENDBRANCH  28  29
ENDBRANCH  27  28
ENDBRANCH  26  27
ENDBRANCH   1  26
TORSDOF 20
ENDMDL
