MODEL 1
REMARK VINA RESULT:     -11.0      0.000      0.000
REMARK SMILES Cc1ccc(C(=O)N2CCC(CC(=O)OCCOCCOC(=O)c3ccc(-c4c5nc(c(-c6ccccc6)c6ccc([nH]6)c(-c6ccccc6)c6nc(c(-c7ccccc7)c7ccc4[nH]7)C=C6)C=C5)cc3)CC2)cn1
REMARK SMILES IDX 18 1 17 2 16 3 15 4 13 5 14 6 12 7 11 8 6 9 7 10 8 11 9 12
REMARK SMILES IDX 73 13 10 14 72 15 5 16 1 17 2 18 3 19 75 20 4 21 74 22 19 23
REMARK SMILES IDX 20 24 21 25 22 26 23 27 24 28 25 29 71 30 26 31 70 32 27 33
REMARK SMILES IDX 28 34 29 35 64 36 30 37 69 38 63 39 65 40 31 41 68 42 62 43
REMARK SMILES IDX 61 44 32 46 54 47 39 48 53 49 40 50 43 51 52 52 66 53 41 54
REMARK SMILES IDX 42 55 51 57 67 58 44 59 33 60 34 61 38 62 35 63 37 64 36 65
REMARK SMILES IDX 55 66 56 67 60 68 57 69 59 70 58 71 45 72 46 73 50 74 47 75
REMARK SMILES IDX 49 76 48 77
REMARK H PARENT 65 45 43 56
REMARK Flexibility Score: inf
ROOT
ATOM      1  O   UNL A   1      41.816  19.964  25.706  1.00  0.00    -0.374 OA
ENDROOT
BRANCH   1   2
ATOM      2  C   UNL A   1      40.469  20.054  26.171  1.00  0.00     0.202 C 
BRANCH   2   3
ATOM      3  C   UNL A   1      39.921  21.474  26.329  1.00  0.00     0.261 C 
BRANCH   3   4
ATOM      4  O   UNL A   1      38.628  21.595  25.703  1.00  0.00    -0.463 OA
BRANCH   4   5
ATOM      5  C   UNL A   1      37.960  22.759  25.884  1.00  0.00     0.306 C 
ATOM      6  O   UNL A   1      38.480  23.823  26.196  1.00  0.00    -0.252 OA
BRANCH   5   7
ATOM      7  C   UNL A   1      36.460  22.604  25.716  1.00  0.00     0.126 C 
BRANCH   7   8
ATOM      8  C   UNL A   1      35.743  23.532  24.711  1.00  0.00     0.003 C 
ATOM      9  C   UNL A   1      31.940  24.307  23.515  1.00  0.00     0.255 C 
ATOM     10  O   UNL A   1      31.498  23.163  23.561  1.00  0.00    -0.269 OA
ATOM     11  N   UNL A   1      33.304  24.573  23.508  1.00  0.00    -0.339 N 
ATOM     12  C   UNL A   1      34.166  23.692  22.746  1.00  0.00     0.120 C 
ATOM     13  C   UNL A   1      33.949  25.366  24.546  1.00  0.00     0.120 C 
ATOM     14  C   UNL A   1      34.949  22.751  23.648  1.00  0.00     0.026 C 
ATOM     15  C   UNL A   1      34.783  24.477  25.476  1.00  0.00     0.026 C 
BRANCH   9  16
ATOM     16  C   UNL A   1      31.013  25.440  23.250  1.00  0.00     0.058 A 
ATOM     17  C   UNL A   1      28.976  29.143  22.711  1.00  0.00     0.066 C 
ATOM     18  C   UNL A   1      29.630  27.804  22.873  1.00  0.00     0.037 A 
ATOM     19  C   UNL A   1      29.174  26.896  23.823  1.00  0.00     0.024 A 
ATOM     20  N   UNL A   1      30.715  27.559  22.102  1.00  0.00    -0.261 NA
ATOM     21  C   UNL A   1      29.875  25.704  24.014  1.00  0.00     0.017 A 
ATOM     22  C   UNL A   1      31.382  26.394  22.310  1.00  0.00     0.125 A 
ENDBRANCH   9  16
ENDBRANCH   7   8
ENDBRANCH   5   7
ENDBRANCH   4   5
ENDBRANCH   3   4
ENDBRANCH   2   3
ENDBRANCH   1   2
BRANCH   1  23
ATOM     23  C   UNL A   1      42.768  20.835  26.311  1.00  0.00     0.202 C 
BRANCH  23  24
ATOM     24  C   UNL A   1      43.693  21.580  25.342  1.00  0.00     0.261 C 
BRANCH  24  25
ATOM     25  O   UNL A   1      43.081  22.778  24.828  1.00  0.00    -0.460 OA
BRANCH  25  26
ATOM     26  C   UNL A   1      43.821  23.902  24.972  1.00  0.00     0.338 C 
ATOM     27  O   UNL A   1      44.862  24.184  24.391  1.00  0.00    -0.246 OA
BRANCH  26  28
ATOM     28  C   UNL A   1      43.117  24.864  25.837  1.00  0.00     0.060 A 
ATOM     29  C   UNL A   1      43.614  26.174  25.897  1.00  0.00     0.016 A 
ATOM     30  C   UNL A   1      42.037  24.479  26.634  1.00  0.00     0.016 A 
ATOM     31  C   UNL A   1      43.063  27.091  26.791  1.00  0.00     0.010 A 
ATOM     32  C   UNL A   1      41.491  25.397  27.535  1.00  0.00     0.010 A 
ATOM     33  C   UNL A   1      42.025  26.695  27.644  1.00  0.00    -0.014 A 
BRANCH  33  34
ATOM     34  C   UNL A   1      41.608  27.564  28.770  1.00  0.00     0.031 A 
ATOM     35  C   UNL A   1      42.350  27.454  30.074  1.00  0.00     0.074 A 
ATOM     36  C   UNL A   1      40.590  28.433  28.645  1.00  0.00     0.049 A 
ATOM     37  N   UNL A   1      42.078  27.998  31.233  1.00  0.00    -0.248 NA
ATOM     38  C   UNL A   1      43.563  26.617  30.070  1.00  0.00     0.031 C 
ATOM     39  C   UNL A   1      39.841  28.693  27.417  1.00  0.00     0.029 A 
ATOM     40  N   UNL A   1      40.002  29.249  29.579  1.00  0.00    -0.354 N 
ATOM     41  C   UNL A   1      43.074  27.559  32.096  1.00  0.00     0.074 A 
ATOM     42  C   UNL A   1      43.947  26.691  31.336  1.00  0.00     0.031 C 
ATOM     43  C   UNL A   1      38.878  29.595  27.679  1.00  0.00     0.029 A 
ATOM     44  C   UNL A   1      38.914  29.936  29.099  1.00  0.00     0.049 A 
ATOM     45  H   UNL A   1      40.329  29.333  30.504  1.00  0.00     0.167 HD
ATOM     46  C   UNL A   1      43.249  27.854  33.406  1.00  0.00     0.031 A 
ATOM     47  C   UNL A   1      38.027  30.719  29.746  1.00  0.00     0.031 A 
ATOM     48  C   UNL A   1      42.375  28.704  34.166  1.00  0.00     0.049 A 
ATOM     49  C   UNL A   1      38.176  30.940  31.229  1.00  0.00     0.074 A 
ATOM     50  C   UNL A   1      42.452  29.043  35.506  1.00  0.00     0.029 A 
ATOM     51  N   UNL A   1      41.265  29.352  33.650  1.00  0.00    -0.354 N 
ATOM     52  N   UNL A   1      39.110  30.505  32.041  1.00  0.00    -0.248 NA
ATOM     53  C   UNL A   1      37.146  31.760  31.885  1.00  0.00     0.031 C 
ATOM     54  C   UNL A   1      41.363  29.865  35.810  1.00  0.00     0.029 A 
ATOM     55  C   UNL A   1      40.643  30.081  34.647  1.00  0.00     0.049 A 
ATOM     56  H   UNL A   1      40.965  29.301  32.713  1.00  0.00     0.167 HD
ATOM     57  C   UNL A   1      38.804  31.037  33.289  1.00  0.00     0.074 A 
ATOM     58  C   UNL A   1      37.601  31.823  33.129  1.00  0.00     0.031 C 
ATOM     59  C   UNL A   1      39.466  30.888  34.462  1.00  0.00     0.031 A 
BRANCH  46  60
ATOM     60  C   UNL A   1      44.418  27.226  34.108  1.00  0.00    -0.014 A 
ATOM     61  C   UNL A   1      45.654  27.884  34.190  1.00  0.00     0.009 A 
ATOM     62  C   UNL A   1      44.266  25.981  34.739  1.00  0.00     0.009 A 
ATOM     63  C   UNL A   1      46.724  27.296  34.868  1.00  0.00     0.001 A 
ATOM     64  C   UNL A   1      45.329  25.409  35.439  1.00  0.00     0.001 A 
ATOM     65  C   UNL A   1      46.559  26.063  35.497  1.00  0.00     0.000 A 
ENDBRANCH  46  60
BRANCH  47  66
ATOM     66  C   UNL A   1      36.887  31.330  29.012  1.00  0.00    -0.014 A 
ATOM     67  C   UNL A   1      36.931  32.677  28.618  1.00  0.00     0.009 A 
ATOM     68  C   UNL A   1      35.727  30.586  28.748  1.00  0.00     0.009 A 
ATOM     69  C   UNL A   1      35.826  33.272  28.005  1.00  0.00     0.001 A 
ATOM     70  C   UNL A   1      34.635  31.175  28.108  1.00  0.00     0.001 A 
ATOM     71  C   UNL A   1      34.680  32.521  27.749  1.00  0.00     0.000 A 
ENDBRANCH  47  66
BRANCH  59  72
ATOM     72  C   UNL A   1      38.961  31.655  35.651  1.00  0.00    -0.014 A 
ATOM     73  C   UNL A   1      38.105  31.068  36.595  1.00  0.00     0.009 A 
ATOM     74  C   UNL A   1      39.414  32.967  35.863  1.00  0.00     0.009 A 
ATOM     75  C   UNL A   1      37.700  31.790  37.719  1.00  0.00     0.001 A 
ATOM     76  C   UNL A   1      39.027  33.675  37.001  1.00  0.00     0.001 A 
ATOM     77  C   UNL A   1      38.166  33.088  37.926  1.00  0.00     0.000 A 
ENDBRANCH  59  72
ENDBRANCH  33  34
ENDBRANCH  26  28
ENDBRANCH  25  26
ENDBRANCH  24  25
ENDBRANCH  23  24
ENDBRANCH   1  23
TORSDOF 16
ENDMDL
MODEL 2
REMARK VINA RESULT:     -10.5      4.886     10.249
REMARK SMILES Cc1ccc(C(=O)N2CCC(CC(=O)OCCOCCOC(=O)c3ccc(-c4c5nc(c(-c6ccccc6)c6ccc([nH]6)c(-c6ccccc6)c6nc(c(-c7ccccc7)c7ccc4[nH]7)C=C6)C=C5)cc3)CC2)cn1
REMARK SMILES IDX 18 1 17 2 16 3 15 4 13 5 14 6 12 7 11 8 6 9 7 10 8 11 9 12
REMARK SMILES IDX 73 13 10 14 72 15 5 16 1 17 2 18 3 19 75 20 4 21 74 22 19 23
REMARK SMILES IDX 20 24 21 25 22 26 23 27 24 28 25 29 71 30 26 31 70 32 27 33
REMARK SMILES IDX 28 34 29 35 64 36 30 37 69 38 63 39 65 40 31 41 68 42 62 43
REMARK SMILES IDX 61 44 32 46 54 47 39 48 53 49 40 50 43 51 52 52 66 53 41 54
REMARK SMILES IDX 42 55 51 57 67 58 44 59 33 60 34 61 38 62 35 63 37 64 36 65
REMARK SMILES IDX 55 66 56 67 60 68 57 69 59 70 58 71 45 72 46 73 50 74 47 75
REMARK SMILES IDX 49 76 48 77
REMARK H PARENT 65 45 43 56
REMARK Flexibility Score: inf
ROOT
ATOM      1  O   UNL A   1      35.014  35.519  32.420  1.00  0.00    -0.374 OA
ENDROOT
BRANCH   1   2
ATOM      2  C   UNL A   1      33.704  35.302  31.896  1.00  0.00     0.202 C 
BRANCH   2   3
ATOM      3  C   UNL A   1      33.584  35.371  30.372  1.00  0.00     0.261 C 
BRANCH   3   4
ATOM      4  O   UNL A   1      34.171  34.204  29.761  1.00  0.00    -0.463 OA
BRANCH   4   5
ATOM      5  C   UNL A   1      34.593  34.323  28.480  1.00  0.00     0.306 C 
ATOM      6  O   UNL A   1      34.444  35.320  27.784  1.00  0.00    -0.252 OA
BRANCH   5   7
ATOM      7  C   UNL A   1      35.235  33.052  27.955  1.00  0.00     0.126 C 
BRANCH   7   8
ATOM      8  C   UNL A   1      34.437  31.735  28.071  1.00  0.00     0.003 C 
ATOM      9  C   UNL A   1      33.205  28.736  25.624  1.00  0.00     0.255 C 
ATOM     10  O   UNL A   1      32.945  29.409  24.631  1.00  0.00    -0.269 OA
ATOM     11  N   UNL A   1      33.356  29.306  26.883  1.00  0.00    -0.339 N 
ATOM     12  C   UNL A   1      32.465  30.388  27.253  1.00  0.00     0.120 C 
ATOM     13  C   UNL A   1      34.596  29.205  27.641  1.00  0.00     0.120 C 
ATOM     14  C   UNL A   1      33.165  31.736  27.203  1.00  0.00     0.026 C 
ATOM     15  C   UNL A   1      35.339  30.546  27.657  1.00  0.00     0.026 C 
BRANCH   9  16
ATOM     16  C   UNL A   1      33.158  27.252  25.538  1.00  0.00     0.058 A 
ATOM     17  C   UNL A   1      33.150  23.027  26.080  1.00  0.00     0.066 C 
ATOM     18  C   UNL A   1      33.134  24.502  25.814  1.00  0.00     0.037 A 
ATOM     19  C   UNL A   1      34.110  25.095  25.020  1.00  0.00     0.024 A 
ATOM     20  N   UNL A   1      32.174  25.223  26.438  1.00  0.00    -0.261 NA
ATOM     21  C   UNL A   1      34.122  26.484  24.883  1.00  0.00     0.017 A 
ATOM     22  C   UNL A   1      32.210  26.573  26.293  1.00  0.00     0.125 A 
ENDBRANCH   9  16
ENDBRANCH   7   8
ENDBRANCH   5   7
ENDBRANCH   4   5
ENDBRANCH   3   4
ENDBRANCH   2   3
ENDBRANCH   1   2
BRANCH   1  23
ATOM     23  C   UNL A   1      35.275  35.027  33.732  1.00  0.00     0.202 C 
BRANCH  23  24
ATOM     24  C   UNL A   1      34.758  33.614  34.023  1.00  0.00     0.261 C 
BRANCH  24  25
ATOM     25  O   UNL A   1      35.736  32.606  33.702  1.00  0.00    -0.460 OA
BRANCH  25  26
ATOM     26  C   UNL A   1      35.623  32.078  32.462  1.00  0.00     0.338 C 
ATOM     27  O   UNL A   1      34.603  31.969  31.792  1.00  0.00    -0.246 OA
BRANCH  26  28
ATOM     28  C   UNL A   1      36.958  31.774  31.917  1.00  0.00     0.060 A 
ATOM     29  C   UNL A   1      37.213  32.119  30.583  1.00  0.00     0.016 A 
ATOM     30  C   UNL A   1      37.919  31.098  32.671  1.00  0.00     0.016 A 
ATOM     31  C   UNL A   1      38.414  31.745  29.980  1.00  0.00     0.010 A 
ATOM     32  C   UNL A   1      39.119  30.716  32.063  1.00  0.00     0.010 A 
ATOM     33  C   UNL A   1      39.356  31.005  30.706  1.00  0.00    -0.014 A 
BRANCH  33  34
ATOM     34  C   UNL A   1      40.507  30.377  30.016  1.00  0.00     0.031 A 
ATOM     35  C   UNL A   1      41.750  31.197  29.802  1.00  0.00     0.074 A 
ATOM     36  C   UNL A   1      40.455  29.105  29.582  1.00  0.00     0.049 A 
ATOM     37  N   UNL A   1      42.821  30.916  29.104  1.00  0.00    -0.248 NA
ATOM     38  C   UNL A   1      41.791  32.510  30.468  1.00  0.00     0.031 C 
ATOM     39  C   UNL A   1      39.344  28.180  29.793  1.00  0.00     0.029 A 
ATOM     40  N   UNL A   1      41.366  28.379  28.855  1.00  0.00    -0.354 N 
ATOM     41  C   UNL A   1      43.654  32.021  29.233  1.00  0.00     0.074 A 
ATOM     42  C   UNL A   1      42.960  32.984  30.061  1.00  0.00     0.031 C 
ATOM     43  C   UNL A   1      39.631  27.012  29.191  1.00  0.00     0.029 A 
ATOM     44  C   UNL A   1      40.921  27.126  28.515  1.00  0.00     0.049 A 
ATOM     45  H   UNL A   1      42.253  28.725  28.603  1.00  0.00     0.167 HD
ATOM     46  C   UNL A   1      44.887  32.216  28.711  1.00  0.00     0.031 A 
ATOM     47  C   UNL A   1      41.478  26.194  27.715  1.00  0.00     0.031 A 
ATOM     48  C   UNL A   1      45.571  31.266  27.877  1.00  0.00     0.049 A 
ATOM     49  C   UNL A   1      42.800  26.481  27.051  1.00  0.00     0.074 A 
ATOM     50  C   UNL A   1      46.812  31.383  27.277  1.00  0.00     0.029 A 
ATOM     51  N   UNL A   1      45.069  30.024  27.528  1.00  0.00    -0.354 N 
ATOM     52  N   UNL A   1      43.571  27.536  27.164  1.00  0.00    -0.248 NA
ATOM     53  C   UNL A   1      43.328  25.447  26.148  1.00  0.00     0.031 C 
ATOM     54  C   UNL A   1      47.044  30.224  26.530  1.00  0.00     0.029 A 
ATOM     55  C   UNL A   1      45.973  29.366  26.712  1.00  0.00     0.049 A 
ATOM     56  H   UNL A   1      44.200  29.662  27.817  1.00  0.00     0.167 HD
ATOM     57  C   UNL A   1      44.691  27.271  26.385  1.00  0.00     0.074 A 
ATOM     58  C   UNL A   1      44.501  25.960  25.804  1.00  0.00     0.031 C 
ATOM     59  C   UNL A   1      45.783  28.045  26.173  1.00  0.00     0.031 A 
BRANCH  46  60
ATOM     60  C   UNL A   1      45.566  33.522  29.005  1.00  0.00    -0.014 A 
ATOM     61  C   UNL A   1      46.532  33.626  30.017  1.00  0.00     0.009 A 
ATOM     62  C   UNL A   1      45.270  34.653  28.226  1.00  0.00     0.009 A 
ATOM     63  C   UNL A   1      47.172  34.844  30.260  1.00  0.00     0.001 A 
ATOM     64  C   UNL A   1      45.930  35.861  28.455  1.00  0.00     0.001 A 
ATOM     65  C   UNL A   1      46.875  35.958  29.476  1.00  0.00     0.000 A 
ENDBRANCH  46  60
BRANCH  47  66
ATOM     66  C   UNL A   1      40.777  24.908  27.456  1.00  0.00    -0.014 A 
ATOM     67  C   UNL A   1      41.279  23.704  27.973  1.00  0.00     0.009 A 
ATOM     68  C   UNL A   1      39.631  24.870  26.645  1.00  0.00     0.009 A 
ATOM     69  C   UNL A   1      40.669  22.488  27.658  1.00  0.00     0.001 A 
ATOM     70  C   UNL A   1      39.006  23.656  26.357  1.00  0.00     0.001 A 
ATOM     71  C   UNL A   1      39.532  22.465  26.852  1.00  0.00     0.000 A 
ENDBRANCH  47  66
BRANCH  59  72
ATOM     72  C   UNL A   1      46.900  27.470  25.348  1.00  0.00    -0.014 A 
ATOM     73  C   UNL A   1      47.055  27.793  23.993  1.00  0.00     0.009 A 
ATOM     74  C   UNL A   1      47.854  26.647  25.968  1.00  0.00     0.009 A 
ATOM     75  C   UNL A   1      48.136  27.287  23.269  1.00  0.00     0.001 A 
ATOM     76  C   UNL A   1      48.947  26.163  25.248  1.00  0.00     0.001 A 
ATOM     77  C   UNL A   1      49.084  26.479  23.898  1.00  0.00     0.000 A 
ENDBRANCH  59  72
ENDBRANCH  33  34
ENDBRANCH  26  28
ENDBRANCH  25  26
ENDBRANCH  24  25
ENDBRANCH  23  24
ENDBRANCH   1  23
TORSDOF 16
ENDMDL
MODEL 3
REMARK VINA RESULT:     -10.4      4.091      9.005
REMARK SMILES Cc1ccc(C(=O)N2CCC(CC(=O)OCCOCCOC(=O)c3ccc(-c4c5nc(c(-c6ccccc6)c6ccc([nH]6)c(-c6ccccc6)c6nc(c(-c7ccccc7)c7ccc4[nH]7)C=C6)C=C5)cc3)CC2)cn1
REMARK SMILES IDX 18 1 17 2 16 3 15 4 13 5 14 6 12 7 11 8 6 9 7 10 8 11 9 12
REMARK SMILES IDX 73 13 10 14 72 15 5 16 1 17 2 18 3 19 75 20 4 21 74 22 19 23
REMARK SMILES IDX 20 24 21 25 22 26 23 27 24 28 25 29 71 30 26 31 70 32 27 33
REMARK SMILES IDX 28 34 29 35 64 36 30 37 69 38 63 39 65 40 31 41 68 42 62 43
REMARK SMILES IDX 61 44 32 46 54 47 39 48 53 49 40 50 43 51 52 52 66 53 41 54
REMARK SMILES IDX 42 55 51 57 67 58 44 59 33 60 34 61 38 62 35 63 37 64 36 65
REMARK SMILES IDX 55 66 56 67 60 68 57 69 59 70 58 71 45 72 46 73 50 74 47 75
REMARK SMILES IDX 49 76 48 77
REMARK H PARENT 65 45 43 56
REMARK Flexibility Score: inf
ROOT
ATOM      1  O   UNL A   1      32.616  29.712  25.111  1.00  0.00    -0.374 OA
ENDROOT
BRANCH   1   2
ATOM      2  C   UNL A   1      31.924  28.741  24.325  1.00  0.00     0.202 C 
BRANCH   2   3
ATOM      3  C   UNL A   1      32.478  28.516  22.917  1.00  0.00     0.261 C 
BRANCH   3   4
ATOM      4  O   UNL A   1      32.101  27.217  22.421  1.00  0.00    -0.463 OA
BRANCH   4   5
ATOM      5  C   UNL A   1      33.100  26.350  22.131  1.00  0.00     0.306 C 
ATOM      6  O   UNL A   1      33.367  25.940  21.009  1.00  0.00    -0.252 OA
BRANCH   5   7
ATOM      7  C   UNL A   1      33.843  25.880  23.369  1.00  0.00     0.126 C 
BRANCH   7   8
ATOM      8  C   UNL A   1      33.309  24.631  24.103  1.00  0.00     0.003 C 
ATOM      9  C   UNL A   1      32.281  20.810  23.185  1.00  0.00     0.255 C 
ATOM     10  O   UNL A   1      31.769  21.019  22.089  1.00  0.00    -0.269 OA
ATOM     11  N   UNL A   1      32.508  21.831  24.100  1.00  0.00    -0.339 N 
ATOM     12  C   UNL A   1      31.504  22.869  24.227  1.00  0.00     0.120 C 
ATOM     13  C   UNL A   1      33.841  22.162  24.584  1.00  0.00     0.120 C 
ATOM     14  C   UNL A   1      31.947  24.163  23.560  1.00  0.00     0.026 C 
ATOM     15  C   UNL A   1      34.336  23.478  23.973  1.00  0.00     0.026 C 
BRANCH   9  16
ATOM     16  C   UNL A   1      32.480  19.410  23.647  1.00  0.00     0.058 A 
ATOM     17  C   UNL A   1      33.675  15.700  25.365  1.00  0.00     0.066 C 
ATOM     18  C   UNL A   1      33.192  16.970  24.730  1.00  0.00     0.037 A 
ATOM     19  C   UNL A   1      33.214  17.130  23.349  1.00  0.00     0.024 A 
ATOM     20  N   UNL A   1      32.807  17.960  25.567  1.00  0.00    -0.261 NA
ATOM     21  C   UNL A   1      32.856  18.363  22.803  1.00  0.00     0.017 A 
ATOM     22  C   UNL A   1      32.468  19.153  25.012  1.00  0.00     0.125 A 
ENDBRANCH   9  16
ENDBRANCH   7   8
ENDBRANCH   5   7
ENDBRANCH   4   5
ENDBRANCH   3   4
ENDBRANCH   2   3
ENDBRANCH   1   2
BRANCH   1  23
ATOM     23  C   UNL A   1      31.928  30.236  26.244  1.00  0.00     0.202 C 
BRANCH  23  24
ATOM     24  C   UNL A   1      32.791  31.025  27.235  1.00  0.00     0.261 C 
BRANCH  24  25
ATOM     25  O   UNL A   1      34.155  30.563  27.247  1.00  0.00    -0.460 OA
BRANCH  25  26
ATOM     26  C   UNL A   1      34.907  31.038  28.266  1.00  0.00     0.338 C 
ATOM     27  O   UNL A   1      34.597  31.903  29.077  1.00  0.00    -0.246 OA
BRANCH  26  28
ATOM     28  C   UNL A   1      36.145  30.249  28.393  1.00  0.00     0.060 A 
ATOM     29  C   UNL A   1      36.376  29.585  29.606  1.00  0.00     0.016 A 
ATOM     30  C   UNL A   1      37.100  30.215  27.375  1.00  0.00     0.016 A 
ATOM     31  C   UNL A   1      37.585  28.926  29.825  1.00  0.00     0.010 A 
ATOM     32  C   UNL A   1      38.315  29.562  27.599  1.00  0.00     0.010 A 
ATOM     33  C   UNL A   1      38.577  28.946  28.837  1.00  0.00    -0.014 A 
BRANCH  33  34
ATOM     34  C   UNL A   1      39.951  28.485  29.146  1.00  0.00     0.031 A 
ATOM     35  C   UNL A   1      40.885  29.431  29.850  1.00  0.00     0.074 A 
ATOM     36  C   UNL A   1      40.369  27.253  28.808  1.00  0.00     0.049 A 
ATOM     37  N   UNL A   1      42.165  29.308  30.093  1.00  0.00    -0.248 NA
ATOM     38  C   UNL A   1      40.294  30.686  30.347  1.00  0.00     0.031 C 
ATOM     39  C   UNL A   1      39.544  26.214  28.194  1.00  0.00     0.029 A 
ATOM     40  N   UNL A   1      41.610  26.675  28.924  1.00  0.00    -0.354 N 
ATOM     41  C   UNL A   1      42.534  30.472  30.757  1.00  0.00     0.074 A 
ATOM     42  C   UNL A   1      41.350  31.297  30.863  1.00  0.00     0.031 C 
ATOM     43  C   UNL A   1      40.308  25.129  27.970  1.00  0.00     0.029 A 
ATOM     44  C   UNL A   1      41.680  25.416  28.379  1.00  0.00     0.049 A 
ATOM     45  H   UNL A   1      42.373  27.120  29.356  1.00  0.00     0.167 HD
ATOM     46  C   UNL A   1      43.750  30.822  31.237  1.00  0.00     0.031 A 
ATOM     47  C   UNL A   1      42.744  24.607  28.198  1.00  0.00     0.031 A 
ATOM     48  C   UNL A   1      44.930  30.010  31.119  1.00  0.00     0.049 A 
ATOM     49  C   UNL A   1      44.109  25.068  28.637  1.00  0.00     0.074 A 
ATOM     50  C   UNL A   1      46.215  30.289  31.549  1.00  0.00     0.029 A 
ATOM     51  N   UNL A   1      44.966  28.758  30.529  1.00  0.00    -0.354 N 
ATOM     52  N   UNL A   1      44.453  26.178  29.246  1.00  0.00    -0.248 NA
ATOM     53  C   UNL A   1      45.236  24.163  28.363  1.00  0.00     0.031 C 
ATOM     54  C   UNL A   1      47.038  29.220  31.182  1.00  0.00     0.029 A 
ATOM     55  C   UNL A   1      46.253  28.254  30.575  1.00  0.00     0.049 A 
ATOM     56  H   UNL A   1      44.190  28.295  30.136  1.00  0.00     0.167 HD
ATOM     57  C   UNL A   1      45.822  26.082  29.466  1.00  0.00     0.074 A 
ATOM     58  C   UNL A   1      46.247  24.808  28.926  1.00  0.00     0.031 C 
ATOM     59  C   UNL A   1      46.652  26.969  30.066  1.00  0.00     0.031 A 
BRANCH  46  60
ATOM     60  C   UNL A   1      43.872  32.159  31.910  1.00  0.00    -0.014 A 
ATOM     61  C   UNL A   1      43.763  32.282  33.303  1.00  0.00     0.009 A 
ATOM     62  C   UNL A   1      44.148  33.303  31.144  1.00  0.00     0.009 A 
ATOM     63  C   UNL A   1      43.903  33.530  33.915  1.00  0.00     0.001 A 
ATOM     64  C   UNL A   1      44.314  34.543  31.761  1.00  0.00     0.001 A 
ATOM     65  C   UNL A   1      44.184  34.657  33.145  1.00  0.00     0.000 A 
ENDBRANCH  46  60
BRANCH  47  66
ATOM     66  C   UNL A   1      42.580  23.286  27.534  1.00  0.00    -0.014 A 
ATOM     67  C   UNL A   1      42.800  23.147  26.155  1.00  0.00     0.009 A 
ATOM     68  C   UNL A   1      42.151  22.168  28.266  1.00  0.00     0.009 A 
ATOM     69  C   UNL A   1      42.563  21.927  25.519  1.00  0.00     0.001 A 
ATOM     70  C   UNL A   1      41.943  20.941  27.633  1.00  0.00     0.001 A 
ATOM     71  C   UNL A   1      42.137  20.825  26.258  1.00  0.00     0.000 A 
ENDBRANCH  47  66
BRANCH  59  72
ATOM     72  C   UNL A   1      48.088  26.567  30.253  1.00  0.00    -0.014 A 
ATOM     73  C   UNL A   1      48.514  25.876  31.395  1.00  0.00     0.009 A 
ATOM     74  C   UNL A   1      49.010  26.826  29.227  1.00  0.00     0.009 A 
ATOM     75  C   UNL A   1      49.844  25.467  31.513  1.00  0.00     0.001 A 
ATOM     76  C   UNL A   1      50.332  26.393  29.336  1.00  0.00     0.001 A 
ATOM     77  C   UNL A   1      50.749  25.718  30.482  1.00  0.00     0.000 A 
ENDBRANCH  59  72
ENDBRANCH  33  34
ENDBRANCH  26  28
ENDBRANCH  25  26
ENDBRANCH  24  25
ENDBRANCH  23  24
ENDBRANCH   1  23
TORSDOF 16
ENDMDL
