MODEL 1
REMARK VINA RESULT:     -10.7      0.000      0.000
REMARK SMILES C[C@@H](NC(=O)[C@H]1CC=CC[C@@H]1C(=O)OCCOCCOC(=O)c1ccc(-c2c3nc(c(-c4ccccc4)c4ccc([nH]4)c(-c4ccccc4)c4nc(c(-c5ccccc5)c5ccc2[nH]5)C=C4)C=C3)cc1)c1ccc(-n2ccnc2)cc1
REMARK SMILES IDX 16 1 15 2 14 3 12 4 13 5 11 6 6 7 7 8 8 9 10 10 9 11 4 12
REMARK SMILES IDX 3 13 5 15 2 16 1 17 71 18 72 19 81 20 73 21 80 22 74 23
REMARK SMILES IDX 75 24 76 25 79 26 77 27 78 28 17 29 18 30 19 31 20 32 21 33
REMARK SMILES IDX 22 34 23 35 24 36 70 37 25 38 69 39 26 40 27 41 28 42 63 43
REMARK SMILES IDX 29 44 68 45 62 46 64 47 30 48 67 49 61 50 60 51 31 53 53 54
REMARK SMILES IDX 38 55 52 56 39 57 42 58 51 59 65 60 40 61 41 62 50 64 66 65
REMARK SMILES IDX 43 66 32 67 33 68 37 69 34 70 36 71 35 72 54 73 55 74 59 75
REMARK SMILES IDX 56 76 58 77 57 78 44 79 45 80 49 81 46 82 48 83 47 84
REMARK H PARENT 3 14 64 52 42 63
REMARK Flexibility Score: inf
ROOT
ATOM      1  C   UNL A   1      33.635  28.486  24.797  1.00  0.00     0.202 C 
ENDROOT
BRANCH   1   2
ATOM      2  C   UNL A   1      33.563  27.349  23.773  1.00  0.00     0.261 C 
BRANCH   2   3
ATOM      3  O   UNL A   1      33.961  26.076  24.321  1.00  0.00    -0.463 OA
BRANCH   3   4
ATOM      4  C   UNL A   1      34.096  25.054  23.432  1.00  0.00     0.310 C 
ATOM      5  O   UNL A   1      34.036  25.180  22.214  1.00  0.00    -0.252 OA
BRANCH   4   6
ATOM      6  C   UNL A   1      34.383  23.711  24.088  1.00  0.00     0.115 C 
ATOM      7  C   UNL A   1      34.687  23.820  25.594  1.00  0.00     0.097 C 
ATOM      8  C   UNL A   1      36.169  24.123  25.898  1.00  0.00     0.041 C 
ATOM      9  C   UNL A   1      37.153  23.496  24.956  1.00  0.00    -0.030 C 
ATOM     10  C   UNL A   1      35.403  22.906  23.270  1.00  0.00     0.043 C 
ATOM     11  C   UNL A   1      36.808  22.938  23.790  1.00  0.00    -0.030 C 
BRANCH   7  12
ATOM     12  C   UNL A   1      34.291  22.539  26.327  1.00  0.00     0.224 C 
ATOM     13  N   UNL A   1      32.989  22.244  26.599  1.00  0.00    -0.349 N 
ATOM     14  H   UNL A   1      32.834  21.995  27.538  1.00  0.00     0.164 HD
ATOM     15  O   UNL A   1      35.139  21.801  26.838  1.00  0.00    -0.275 OA
BRANCH  13  16
ATOM     16  C   UNL A   1      31.764  22.220  25.780  1.00  0.00     0.109 C 
ATOM     17  C   UNL A   1      31.906  21.110  24.727  1.00  0.00     0.036 C 
BRANCH  16  18
ATOM     18  C   UNL A   1      31.293  23.551  25.228  1.00  0.00    -0.026 A 
ATOM     19  C   UNL A   1      30.906  23.652  23.882  1.00  0.00     0.008 A 
ATOM     20  C   UNL A   1      31.201  24.699  26.033  1.00  0.00     0.008 A 
ATOM     21  C   UNL A   1      30.335  24.831  23.389  1.00  0.00     0.027 A 
ATOM     22  C   UNL A   1      30.621  25.873  25.555  1.00  0.00     0.027 A 
ATOM     23  C   UNL A   1      30.152  25.924  24.247  1.00  0.00     0.046 A 
BRANCH  23  24
ATOM     24  N   UNL A   1      29.437  27.059  23.810  1.00  0.00    -0.306 N 
ATOM     25  C   UNL A   1      29.971  28.235  23.360  1.00  0.00     0.113 A 
ATOM     26  C   UNL A   1      28.073  27.196  23.694  1.00  0.00     0.204 A 
ATOM     27  C   UNL A   1      28.916  28.993  22.914  1.00  0.00     0.131 A 
ATOM     28  N   UNL A   1      27.736  28.331  23.117  1.00  0.00    -0.245 NA
ENDBRANCH  23  24
ENDBRANCH  16  18
ENDBRANCH  13  16
ENDBRANCH   7  12
ENDBRANCH   4   6
ENDBRANCH   3   4
ENDBRANCH   2   3
ENDBRANCH   1   2
BRANCH   1  29
ATOM     29  O   UNL A   1      33.976  28.103  26.129  1.00  0.00    -0.374 OA
BRANCH  29  30
ATOM     30  C   UNL A   1      33.175  28.649  27.175  1.00  0.00     0.202 C 
BRANCH  30  31
ATOM     31  C   UNL A   1      32.929  30.159  27.105  1.00  0.00     0.261 C 
BRANCH  31  32
ATOM     32  O   UNL A   1      34.156  30.914  27.040  1.00  0.00    -0.460 OA
BRANCH  32  33
ATOM     33  C   UNL A   1      34.769  31.093  28.232  1.00  0.00     0.338 C 
ATOM     34  O   UNL A   1      34.378  31.775  29.172  1.00  0.00    -0.246 OA
BRANCH  33  35
ATOM     35  C   UNL A   1      35.977  30.256  28.347  1.00  0.00     0.060 A 
ATOM     36  C   UNL A   1      36.272  29.730  29.610  1.00  0.00     0.016 A 
ATOM     37  C   UNL A   1      36.887  30.126  27.296  1.00  0.00     0.016 A 
ATOM     38  C   UNL A   1      37.514  29.145  29.851  1.00  0.00     0.010 A 
ATOM     39  C   UNL A   1      38.137  29.539  27.540  1.00  0.00     0.010 A 
ATOM     40  C   UNL A   1      38.476  29.093  28.831  1.00  0.00    -0.014 A 
BRANCH  40  41
ATOM     41  C   UNL A   1      39.868  28.694  29.164  1.00  0.00     0.031 A 
ATOM     42  C   UNL A   1      40.368  27.341  28.759  1.00  0.00     0.074 A 
ATOM     43  C   UNL A   1      40.709  29.550  29.771  1.00  0.00     0.049 A 
ATOM     44  N   UNL A   1      41.555  26.820  28.935  1.00  0.00    -0.248 NA
ATOM     45  C   UNL A   1      39.414  26.467  28.062  1.00  0.00     0.031 C 
ATOM     46  C   UNL A   1      40.351  30.903  30.156  1.00  0.00     0.029 A 
ATOM     47  N   UNL A   1      42.018  29.429  30.159  1.00  0.00    -0.354 N 
ATOM     48  C   UNL A   1      41.492  25.556  28.368  1.00  0.00     0.074 A 
ATOM     49  C   UNL A   1      40.143  25.377  27.872  1.00  0.00     0.031 C 
ATOM     50  C   UNL A   1      41.407  31.502  30.731  1.00  0.00     0.029 A 
ATOM     51  C   UNL A   1      42.515  30.553  30.773  1.00  0.00     0.049 A 
ATOM     52  H   UNL A   1      42.551  28.614  30.012  1.00  0.00     0.167 HD
ATOM     53  C   UNL A   1      42.474  24.632  28.261  1.00  0.00     0.031 A 
ATOM     54  C   UNL A   1      43.724  30.793  31.316  1.00  0.00     0.031 A 
ATOM     55  C   UNL A   1      43.811  24.801  28.766  1.00  0.00     0.049 A 
ATOM     56  C   UNL A   1      44.772  29.719  31.258  1.00  0.00     0.074 A 
ATOM     57  C   UNL A   1      44.874  23.917  28.702  1.00  0.00     0.029 A 
ATOM     58  N   UNL A   1      44.266  25.928  29.432  1.00  0.00    -0.354 N 
ATOM     59  N   UNL A   1      44.701  28.532  30.706  1.00  0.00    -0.248 NA
ATOM     60  C   UNL A   1      46.065  30.017  31.888  1.00  0.00     0.031 C 
ATOM     61  C   UNL A   1      45.960  24.492  29.371  1.00  0.00     0.029 A 
ATOM     62  C   UNL A   1      45.587  25.752  29.810  1.00  0.00     0.049 A 
ATOM     63  H   UNL A   1      43.729  26.734  29.612  1.00  0.00     0.167 HD
ATOM     64  C   UNL A   1      45.945  27.949  30.902  1.00  0.00     0.074 A 
ATOM     65  C   UNL A   1      46.755  28.918  31.612  1.00  0.00     0.031 C 
ATOM     66  C   UNL A   1      46.376  26.722  30.523  1.00  0.00     0.031 A 
BRANCH  53  67
ATOM     67  C   UNL A   1      42.115  23.335  27.599  1.00  0.00    -0.014 A 
ATOM     68  C   UNL A   1      42.393  23.112  26.240  1.00  0.00     0.009 A 
ATOM     69  C   UNL A   1      41.494  22.322  28.344  1.00  0.00     0.009 A 
ATOM     70  C   UNL A   1      42.026  21.910  25.634  1.00  0.00     0.001 A 
ATOM     71  C   UNL A   1      41.150  21.112  27.741  1.00  0.00     0.001 A 
ATOM     72  C   UNL A   1      41.407  20.910  26.386  1.00  0.00     0.000 A 
ENDBRANCH  53  67
BRANCH  54  73
ATOM     73  C   UNL A   1      44.006  32.094  31.975  1.00  0.00    -0.014 A 
ATOM     74  C   UNL A   1      43.739  32.280  33.341  1.00  0.00     0.009 A 
ATOM     75  C   UNL A   1      44.531  33.165  31.234  1.00  0.00     0.009 A 
ATOM     76  C   UNL A   1      43.973  33.519  33.944  1.00  0.00     0.001 A 
ATOM     77  C   UNL A   1      44.786  34.395  31.846  1.00  0.00     0.001 A 
ATOM     78  C   UNL A   1      44.500  34.572  33.198  1.00  0.00     0.000 A 
ENDBRANCH  54  73
BRANCH  66  79
ATOM     79  C   UNL A   1      47.798  26.370  30.851  1.00  0.00    -0.014 A 
ATOM     80  C   UNL A   1      48.142  25.821  32.096  1.00  0.00     0.009 A 
ATOM     81  C   UNL A   1      48.801  26.562  29.888  1.00  0.00     0.009 A 
ATOM     82  C   UNL A   1      49.469  25.498  32.380  1.00  0.00     0.001 A 
ATOM     83  C   UNL A   1      50.123  26.215  30.167  1.00  0.00     0.001 A 
ATOM     84  C   UNL A   1      50.457  25.691  31.415  1.00  0.00     0.000 A 
ENDBRANCH  66  79
ENDBRANCH  40  41
ENDBRANCH  33  35
ENDBRANCH  32  33
ENDBRANCH  31  32
ENDBRANCH  30  31
ENDBRANCH  29  30
ENDBRANCH   1  29
TORSDOF 18
ENDMDL
MODEL 2
REMARK VINA RESULT:     -10.5      2.126      3.344
REMARK SMILES C[C@@H](NC(=O)[C@H]1CC=CC[C@@H]1C(=O)OCCOCCOC(=O)c1ccc(-c2c3nc(c(-c4ccccc4)c4ccc([nH]4)c(-c4ccccc4)c4nc(c(-c5ccccc5)c5ccc2[nH]5)C=C4)C=C3)cc1)c1ccc(-n2ccnc2)cc1
REMARK SMILES IDX 16 1 15 2 14 3 12 4 13 5 11 6 6 7 7 8 8 9 10 10 9 11 4 12
REMARK SMILES IDX 3 13 5 15 2 16 1 17 71 18 72 19 81 20 73 21 80 22 74 23
REMARK SMILES IDX 75 24 76 25 79 26 77 27 78 28 17 29 18 30 19 31 20 32 21 33
REMARK SMILES IDX 22 34 23 35 24 36 70 37 25 38 69 39 26 40 27 41 28 42 63 43
REMARK SMILES IDX 29 44 68 45 62 46 64 47 30 48 67 49 61 50 60 51 31 53 53 54
REMARK SMILES IDX 38 55 52 56 39 57 42 58 51 59 65 60 40 61 41 62 50 64 66 65
REMARK SMILES IDX 43 66 32 67 33 68 37 69 34 70 36 71 35 72 54 73 55 74 59 75
REMARK SMILES IDX 56 76 58 77 57 78 44 79 45 80 49 81 46 82 48 83 47 84
REMARK H PARENT 3 14 64 52 42 63
REMARK Flexibility Score: inf
ROOT
ATOM      1  C   UNL A   1      34.020  28.219  25.858  1.00  0.00     0.202 C 
ENDROOT
BRANCH   1   2
ATOM      2  C   UNL A   1      34.003  27.507  24.501  1.00  0.00     0.261 C 
BRANCH   2   3
ATOM      3  O   UNL A   1      33.518  26.151  24.586  1.00  0.00    -0.463 OA
BRANCH   3   4
ATOM      4  C   UNL A   1      33.930  25.302  23.606  1.00  0.00     0.310 C 
ATOM      5  O   UNL A   1      34.112  25.627  22.438  1.00  0.00    -0.252 OA
BRANCH   4   6
ATOM      6  C   UNL A   1      34.201  23.888  24.099  1.00  0.00     0.115 C 
ATOM      7  C   UNL A   1      34.479  23.813  25.612  1.00  0.00     0.097 C 
ATOM      8  C   UNL A   1      35.957  24.068  25.976  1.00  0.00     0.041 C 
ATOM      9  C   UNL A   1      36.955  23.555  24.982  1.00  0.00    -0.030 C 
ATOM     10  C   UNL A   1      35.233  23.182  23.207  1.00  0.00     0.043 C 
ATOM     11  C   UNL A   1      36.629  23.144  23.751  1.00  0.00    -0.030 C 
BRANCH   7  12
ATOM     12  C   UNL A   1      34.066  22.454  26.178  1.00  0.00     0.224 C 
ATOM     13  N   UNL A   1      32.762  22.063  26.217  1.00  0.00    -0.349 N 
ATOM     14  H   UNL A   1      32.483  21.728  27.099  1.00  0.00     0.164 HD
ATOM     15  O   UNL A   1      34.875  21.727  26.762  1.00  0.00    -0.275 OA
BRANCH  13  16
ATOM     16  C   UNL A   1      31.681  22.036  25.214  1.00  0.00     0.109 C 
ATOM     17  C   UNL A   1      32.160  21.215  24.008  1.00  0.00     0.036 C 
BRANCH  16  18
ATOM     18  C   UNL A   1      31.058  23.370  24.857  1.00  0.00    -0.026 A 
ATOM     19  C   UNL A   1      30.842  24.331  25.858  1.00  0.00     0.008 A 
ATOM     20  C   UNL A   1      30.708  23.698  23.536  1.00  0.00     0.008 A 
ATOM     21  C   UNL A   1      30.402  25.618  25.531  1.00  0.00     0.027 A 
ATOM     22  C   UNL A   1      30.282  24.982  23.198  1.00  0.00     0.027 A 
ATOM     23  C   UNL A   1      30.169  25.951  24.189  1.00  0.00     0.046 A 
BRANCH  23  24
ATOM     24  N   UNL A   1      29.879  27.283  23.827  1.00  0.00    -0.306 N 
ATOM     25  C   UNL A   1      28.736  27.734  23.226  1.00  0.00     0.113 A 
ATOM     26  C   UNL A   1      30.651  28.400  24.052  1.00  0.00     0.204 A 
ATOM     27  C   UNL A   1      28.832  29.103  23.193  1.00  0.00     0.131 A 
ATOM     28  N   UNL A   1      30.025  29.510  23.721  1.00  0.00    -0.245 NA
ENDBRANCH  23  24
ENDBRANCH  16  18
ENDBRANCH  13  16
ENDBRANCH   7  12
ENDBRANCH   4   6
ENDBRANCH   3   4
ENDBRANCH   2   3
ENDBRANCH   1   2
BRANCH   1  29
ATOM     29  O   UNL A   1      33.553  29.567  25.860  1.00  0.00    -0.374 OA
BRANCH  29  30
ATOM     30  C   UNL A   1      33.752  30.311  27.060  1.00  0.00     0.202 C 
BRANCH  30  31
ATOM     31  C   UNL A   1      32.755  31.447  27.311  1.00  0.00     0.261 C 
BRANCH  31  32
ATOM     32  O   UNL A   1      33.304  32.741  26.988  1.00  0.00    -0.460 OA
BRANCH  32  33
ATOM     33  C   UNL A   1      33.346  33.607  28.026  1.00  0.00     0.338 C 
ATOM     34  O   UNL A   1      32.467  34.383  28.382  1.00  0.00    -0.246 OA
BRANCH  33  35
ATOM     35  C   UNL A   1      34.587  33.451  28.807  1.00  0.00     0.060 A 
ATOM     36  C   UNL A   1      35.795  33.702  28.146  1.00  0.00     0.016 A 
ATOM     37  C   UNL A   1      34.585  32.913  30.096  1.00  0.00     0.016 A 
ATOM     38  C   UNL A   1      37.004  33.338  28.736  1.00  0.00     0.010 A 
ATOM     39  C   UNL A   1      35.802  32.547  30.688  1.00  0.00     0.010 A 
ATOM     40  C   UNL A   1      37.013  32.710  29.989  1.00  0.00    -0.014 A 
BRANCH  40  41
ATOM     41  C   UNL A   1      38.276  32.111  30.493  1.00  0.00     0.031 A 
ATOM     42  C   UNL A   1      38.760  30.812  29.924  1.00  0.00     0.074 A 
ATOM     43  C   UNL A   1      39.027  32.745  31.412  1.00  0.00     0.049 A 
ATOM     44  N   UNL A   1      39.847  30.145  30.213  1.00  0.00    -0.248 NA
ATOM     45  C   UNL A   1      37.917  30.189  28.894  1.00  0.00     0.031 C 
ATOM     46  C   UNL A   1      38.686  34.033  31.989  1.00  0.00     0.029 A 
ATOM     47  N   UNL A   1      40.215  32.416  32.010  1.00  0.00    -0.354 N 
ATOM     48  C   UNL A   1      39.821  29.023  29.399  1.00  0.00     0.074 A 
ATOM     49  C   UNL A   1      38.596  29.083  28.629  1.00  0.00     0.031 C 
ATOM     50  C   UNL A   1      39.636  34.398  32.865  1.00  0.00     0.029 A 
ATOM     51  C   UNL A   1      40.647  33.347  32.924  1.00  0.00     0.049 A 
ATOM     52  H   UNL A   1      40.713  31.591  31.805  1.00  0.00     0.167 HD
ATOM     53  C   UNL A   1      40.741  28.036  29.296  1.00  0.00     0.031 A 
ATOM     54  C   UNL A   1      41.729  33.352  33.725  1.00  0.00     0.031 A 
ATOM     55  C   UNL A   1      41.951  27.966  30.070  1.00  0.00     0.049 A 
ATOM     56  C   UNL A   1      42.693  32.203  33.650  1.00  0.00     0.074 A 
ATOM     57  C   UNL A   1      42.944  27.002  30.032  1.00  0.00     0.029 A 
ATOM     58  N   UNL A   1      42.331  28.894  31.027  1.00  0.00    -0.354 N 
ATOM     59  N   UNL A   1      42.661  31.154  32.865  1.00  0.00    -0.248 NA
ATOM     60  C   UNL A   1      43.843  32.240  34.564  1.00  0.00     0.031 C 
ATOM     61  C   UNL A   1      43.902  27.325  31.000  1.00  0.00     0.029 A 
ATOM     62  C   UNL A   1      43.529  28.513  31.606  1.00  0.00     0.049 A 
ATOM     63  H   UNL A   1      41.822  29.705  31.262  1.00  0.00     0.167 HD
ATOM     64  C   UNL A   1      43.795  30.418  33.172  1.00  0.00     0.074 A 
ATOM     65  C   UNL A   1      44.501  31.145  34.206  1.00  0.00     0.031 C 
ATOM     66  C   UNL A   1      44.215  29.244  32.640  1.00  0.00     0.031 A 
BRANCH  53  67
ATOM     67  C   UNL A   1      40.443  26.931  28.326  1.00  0.00    -0.014 A 
ATOM     68  C   UNL A   1      40.940  26.964  27.013  1.00  0.00     0.009 A 
ATOM     69  C   UNL A   1      39.658  25.842  28.733  1.00  0.00     0.009 A 
ATOM     70  C   UNL A   1      40.629  25.941  26.117  1.00  0.00     0.001 A 
ATOM     71  C   UNL A   1      39.369  24.809  27.841  1.00  0.00     0.001 A 
ATOM     72  C   UNL A   1      39.847  24.862  26.532  1.00  0.00     0.000 A 
ENDBRANCH  53  67
BRANCH  54  73
ATOM     73  C   UNL A   1      41.952  34.470  34.677  1.00  0.00    -0.014 A 
ATOM     74  C   UNL A   1      41.425  34.423  35.978  1.00  0.00     0.009 A 
ATOM     75  C   UNL A   1      42.684  35.602  34.284  1.00  0.00     0.009 A 
ATOM     76  C   UNL A   1      41.608  35.495  36.854  1.00  0.00     0.001 A 
ATOM     77  C   UNL A   1      42.886  36.662  35.170  1.00  0.00     0.001 A 
ATOM     78  C   UNL A   1      42.341  36.610  36.452  1.00  0.00     0.000 A 
ENDBRANCH  54  73
BRANCH  66  79
ATOM     79  C   UNL A   1      45.511  28.689  33.156  1.00  0.00    -0.014 A 
ATOM     80  C   UNL A   1      46.737  29.047  32.574  1.00  0.00     0.009 A 
ATOM     81  C   UNL A   1      45.505  27.821  34.259  1.00  0.00     0.009 A 
ATOM     82  C   UNL A   1      47.931  28.523  33.071  1.00  0.00     0.001 A 
ATOM     83  C   UNL A   1      46.703  27.319  34.767  1.00  0.00     0.001 A 
ATOM     84  C   UNL A   1      47.913  27.663  34.168  1.00  0.00     0.000 A 
ENDBRANCH  66  79
ENDBRANCH  40  41
ENDBRANCH  33  35
ENDBRANCH  32  33
ENDBRANCH  31  32
ENDBRANCH  30  31
ENDBRANCH  29  30
ENDBRANCH   1  29
TORSDOF 18
ENDMDL
MODEL 3
REMARK VINA RESULT:     -10.4      1.661      7.280
REMARK SMILES C[C@@H](NC(=O)[C@H]1CC=CC[C@@H]1C(=O)OCCOCCOC(=O)c1ccc(-c2c3nc(c(-c4ccccc4)c4ccc([nH]4)c(-c4ccccc4)c4nc(c(-c5ccccc5)c5ccc2[nH]5)C=C4)C=C3)cc1)c1ccc(-n2ccnc2)cc1
REMARK SMILES IDX 16 1 15 2 14 3 12 4 13 5 11 6 6 7 7 8 8 9 10 10 9 11 4 12
REMARK SMILES IDX 3 13 5 15 2 16 1 17 71 18 72 19 81 20 73 21 80 22 74 23
REMARK SMILES IDX 75 24 76 25 79 26 77 27 78 28 17 29 18 30 19 31 20 32 21 33
REMARK SMILES IDX 22 34 23 35 24 36 70 37 25 38 69 39 26 40 27 41 28 42 63 43
REMARK SMILES IDX 29 44 68 45 62 46 64 47 30 48 67 49 61 50 60 51 31 53 53 54
REMARK SMILES IDX 38 55 52 56 39 57 42 58 51 59 65 60 40 61 41 62 50 64 66 65
REMARK SMILES IDX 43 66 32 67 33 68 37 69 34 70 36 71 35 72 54 73 55 74 59 75
REMARK SMILES IDX 56 76 58 77 57 78 44 79 45 80 49 81 46 82 48 83 47 84
REMARK H PARENT 3 14 64 52 42 63
REMARK Flexibility Score: inf
ROOT
ATOM      1  C   UNL A   1      34.973  22.533  25.803  1.00  0.00     0.202 C 
ENDROOT
BRANCH   1   2
ATOM      2  C   UNL A   1      34.223  23.662  26.519  1.00  0.00     0.261 C 
BRANCH   2   3
ATOM      3  O   UNL A   1      33.457  24.485  25.616  1.00  0.00    -0.463 OA
BRANCH   3   4
ATOM      4  C   UNL A   1      32.354  25.086  26.139  1.00  0.00     0.310 C 
ATOM      5  O   UNL A   1      31.624  24.581  26.986  1.00  0.00    -0.252 OA
BRANCH   4   6
ATOM      6  C   UNL A   1      32.116  26.492  25.608  1.00  0.00     0.115 C 
ATOM      7  C   UNL A   1      33.382  27.144  25.022  1.00  0.00     0.097 C 
ATOM      8  C   UNL A   1      34.255  27.847  26.084  1.00  0.00     0.041 C 
ATOM      9  C   UNL A   1      33.497  28.501  27.200  1.00  0.00    -0.030 C 
ATOM     10  C   UNL A   1      31.353  27.345  26.632  1.00  0.00     0.043 C 
ATOM     11  C   UNL A   1      32.197  28.288  27.435  1.00  0.00    -0.030 C 
BRANCH   7  12
ATOM     12  C   UNL A   1      33.024  28.159  23.937  1.00  0.00     0.224 C 
ATOM     13  N   UNL A   1      32.413  27.782  22.780  1.00  0.00    -0.349 N 
ATOM     14  H   UNL A   1      32.857  28.130  21.974  1.00  0.00     0.164 HD
ATOM     15  O   UNL A   1      33.412  29.329  23.996  1.00  0.00    -0.275 OA
BRANCH  13  16
ATOM     16  C   UNL A   1      31.225  26.960  22.482  1.00  0.00     0.109 C 
ATOM     17  C   UNL A   1      30.017  27.576  23.202  1.00  0.00     0.036 C 
BRANCH  16  18
ATOM     18  C   UNL A   1      31.374  25.464  22.673  1.00  0.00    -0.026 A 
ATOM     19  C   UNL A   1      32.577  24.830  22.320  1.00  0.00     0.008 A 
ATOM     20  C   UNL A   1      30.347  24.679  23.225  1.00  0.00     0.008 A 
ATOM     21  C   UNL A   1      32.787  23.480  22.619  1.00  0.00     0.027 A 
ATOM     22  C   UNL A   1      30.553  23.337  23.539  1.00  0.00     0.027 A 
ATOM     23  C   UNL A   1      31.786  22.750  23.274  1.00  0.00     0.046 A 
BRANCH  23  24
ATOM     24  N   UNL A   1      32.041  21.437  23.723  1.00  0.00    -0.306 N 
ATOM     25  C   UNL A   1      32.414  20.371  22.952  1.00  0.00     0.113 A 
ATOM     26  C   UNL A   1      32.021  20.976  25.019  1.00  0.00     0.204 A 
ATOM     27  C   UNL A   1      32.686  19.342  23.821  1.00  0.00     0.131 A 
ATOM     28  N   UNL A   1      32.448  19.734  25.109  1.00  0.00    -0.245 NA
ENDBRANCH  23  24
ENDBRANCH  16  18
ENDBRANCH  13  16
ENDBRANCH   7  12
ENDBRANCH   4   6
ENDBRANCH   3   4
ENDBRANCH   2   3
ENDBRANCH   1   2
BRANCH   1  29
ATOM     29  O   UNL A   1      36.354  22.393  26.138  1.00  0.00    -0.374 OA
BRANCH  29  30
ATOM     30  C   UNL A   1      37.110  21.470  25.358  1.00  0.00     0.202 C 
BRANCH  30  31
ATOM     31  C   UNL A   1      38.629  21.530  25.543  1.00  0.00     0.261 C 
BRANCH  31  32
ATOM     32  O   UNL A   1      39.123  20.470  26.387  1.00  0.00    -0.460 OA
BRANCH  32  33
ATOM     33  C   UNL A   1      40.432  20.177  26.211  1.00  0.00     0.338 C 
ATOM     34  O   UNL A   1      40.903  19.193  25.652  1.00  0.00    -0.246 OA
BRANCH  33  35
ATOM     35  C   UNL A   1      41.298  21.269  26.691  1.00  0.00     0.060 A 
ATOM     36  C   UNL A   1      41.251  21.569  28.057  1.00  0.00     0.016 A 
ATOM     37  C   UNL A   1      42.008  22.089  25.811  1.00  0.00     0.016 A 
ATOM     38  C   UNL A   1      41.843  22.735  28.538  1.00  0.00     0.010 A 
ATOM     39  C   UNL A   1      42.602  23.263  26.297  1.00  0.00     0.010 A 
ATOM     40  C   UNL A   1      42.478  23.617  27.653  1.00  0.00    -0.014 A 
BRANCH  40  41
ATOM     41  C   UNL A   1      42.887  24.963  28.134  1.00  0.00     0.031 A 
ATOM     42  C   UNL A   1      41.845  26.012  28.373  1.00  0.00     0.074 A 
ATOM     43  C   UNL A   1      44.172  25.237  28.418  1.00  0.00     0.049 A 
ATOM     44  N   UNL A   1      41.999  27.234  28.815  1.00  0.00    -0.248 NA
ATOM     45  C   UNL A   1      40.453  25.638  28.084  1.00  0.00     0.031 C 
ATOM     46  C   UNL A   1      45.256  24.281  28.280  1.00  0.00     0.029 A 
ATOM     47  N   UNL A   1      44.786  26.371  28.882  1.00  0.00    -0.354 N 
ATOM     48  C   UNL A   1      40.723  27.775  28.860  1.00  0.00     0.074 A 
ATOM     49  C   UNL A   1      39.812  26.762  28.370  1.00  0.00     0.031 C 
ATOM     50  C   UNL A   1      46.413  24.855  28.647  1.00  0.00     0.029 A 
ATOM     51  C   UNL A   1      46.147  26.239  29.027  1.00  0.00     0.049 A 
ATOM     52  H   UNL A   1      44.300  27.201  29.093  1.00  0.00     0.167 HD
ATOM     53  C   UNL A   1      40.344  29.004  29.281  1.00  0.00     0.031 A 
ATOM     54  C   UNL A   1      47.077  27.132  29.413  1.00  0.00     0.031 A 
ATOM     55  C   UNL A   1      41.249  30.018  29.754  1.00  0.00     0.049 A 
ATOM     56  C   UNL A   1      46.640  28.517  29.797  1.00  0.00     0.074 A 
ATOM     57  C   UNL A   1      40.954  31.294  30.204  1.00  0.00     0.029 A 
ATOM     58  N   UNL A   1      42.625  29.873  29.834  1.00  0.00    -0.354 N 
ATOM     59  N   UNL A   1      45.426  29.010  29.846  1.00  0.00    -0.248 NA
ATOM     60  C   UNL A   1      47.694  29.464  30.184  1.00  0.00     0.031 C 
ATOM     61  C   UNL A   1      42.158  31.936  30.512  1.00  0.00     0.029 A 
ATOM     62  C   UNL A   1      43.197  31.045  30.299  1.00  0.00     0.049 A 
ATOM     63  H   UNL A   1      43.123  29.057  29.594  1.00  0.00     0.167 HD
ATOM     64  C   UNL A   1      45.568  30.316  30.291  1.00  0.00     0.074 A 
ATOM     65  C   UNL A   1      46.983  30.535  30.510  1.00  0.00     0.031 C 
ATOM     66  C   UNL A   1      44.608  31.249  30.503  1.00  0.00     0.031 A 
BRANCH  53  67
ATOM     67  C   UNL A   1      38.880  29.323  29.211  1.00  0.00    -0.014 A 
ATOM     68  C   UNL A   1      38.041  29.131  30.320  1.00  0.00     0.009 A 
ATOM     69  C   UNL A   1      38.335  29.825  28.020  1.00  0.00     0.009 A 
ATOM     70  C   UNL A   1      36.676  29.407  30.226  1.00  0.00     0.001 A 
ATOM     71  C   UNL A   1      36.975  30.123  27.937  1.00  0.00     0.001 A 
ATOM     72  C   UNL A   1      36.145  29.905  29.036  1.00  0.00     0.000 A 
ENDBRANCH  53  67
BRANCH  54  73
ATOM     73  C   UNL A   1      48.514  26.755  29.441  1.00  0.00    -0.014 A 
ATOM     74  C   UNL A   1      49.088  26.196  30.594  1.00  0.00     0.009 A 
ATOM     75  C   UNL A   1      49.324  26.965  28.314  1.00  0.00     0.009 A 
ATOM     76  C   UNL A   1      50.448  25.878  30.622  1.00  0.00     0.001 A 
ATOM     77  C   UNL A   1      50.678  26.624  28.338  1.00  0.00     0.001 A 
ATOM     78  C   UNL A   1      51.240  26.088  29.495  1.00  0.00     0.000 A 
ENDBRANCH  54  73
BRANCH  66  79
ATOM     79  C   UNL A   1      45.060  32.584  31.018  1.00  0.00    -0.014 A 
ATOM     80  C   UNL A   1      45.391  33.628  30.140  1.00  0.00     0.009 A 
ATOM     81  C   UNL A   1      45.123  32.810  32.403  1.00  0.00     0.009 A 
ATOM     82  C   UNL A   1      45.806  34.863  30.640  1.00  0.00     0.001 A 
ATOM     83  C   UNL A   1      45.515  34.053  32.898  1.00  0.00     0.001 A 
ATOM     84  C   UNL A   1      45.864  35.076  32.017  1.00  0.00     0.000 A 
ENDBRANCH  66  79
ENDBRANCH  40  41
ENDBRANCH  33  35
ENDBRANCH  32  33
ENDBRANCH  31  32
ENDBRANCH  30  31
ENDBRANCH  29  30
ENDBRANCH   1  29
TORSDOF 18
ENDMDL
