MODEL 1
REMARK VINA RESULT:     -10.8      0.000      0.000
REMARK SMILES COc1ccccc1[C@@H]1CN(C(=O)CCc2cc(Cl)no2)C[C@H]1C(=O)OCCOCCOC(=O)c1ccc(-c2c3nc(c(-c4ccccc4)c4ccc([nH]4)c(-c4ccccc4)c4nc(c(-c5ccccc5)c5ccc2[nH]5)C=C4)C=C3)cc1
REMARK SMILES IDX 28 1 27 2 26 3 24 4 25 5 23 6 9 7 10 8 11 9 22 10 8 11 3 12
REMARK SMILES IDX 4 13 5 14 7 15 6 16 2 17 1 18 12 19 13 20 14 21 15 22 16 23
REMARK SMILES IDX 17 24 21 25 18 26 20 27 19 28 29 29 30 30 31 31 32 32 33 33
REMARK SMILES IDX 34 34 35 35 36 36 82 37 37 38 81 39 38 40 39 41 40 42 75 43
REMARK SMILES IDX 41 44 80 45 74 46 76 47 42 48 79 49 73 50 72 51 43 53 65 54
REMARK SMILES IDX 50 55 64 56 51 57 54 58 63 59 77 60 52 61 53 62 62 64 78 65
REMARK SMILES IDX 55 66 44 67 45 68 49 69 46 70 48 71 47 72 66 73 67 74 71 75
REMARK SMILES IDX 68 76 70 77 69 78 56 79 57 80 61 81 58 82 60 83 59 84
REMARK H PARENT 76 52 54 63
REMARK Flexibility Score: inf
ROOT
ATOM      1  C   UNL A   1      32.184  30.429  26.478  1.00  0.00     0.202 C 
ENDROOT
BRANCH   1   2
ATOM      2  C   UNL A   1      32.308  29.358  25.396  1.00  0.00     0.261 C 
BRANCH   2   3
ATOM      3  O   UNL A   1      33.599  29.366  24.763  1.00  0.00    -0.463 OA
BRANCH   3   4
ATOM      4  C   UNL A   1      33.696  28.536  23.698  1.00  0.00     0.311 C 
ATOM      5  O   UNL A   1      34.449  28.706  22.744  1.00  0.00    -0.252 OA
BRANCH   4   6
ATOM      6  C   UNL A   1      32.774  27.346  23.743  1.00  0.00     0.128 C 
ATOM      7  C   UNL A   1      31.682  27.145  22.670  1.00  0.00     0.058 C 
ATOM      8  C   UNL A   1      31.781  25.652  22.305  1.00  0.00     0.129 C 
ATOM      9  N   UNL A   1      33.038  25.162  22.824  1.00  0.00    -0.341 N 
ATOM     10  C   UNL A   1      33.667  26.118  23.701  1.00  0.00     0.135 C 
BRANCH   7  11
ATOM     11  C   UNL A   1      30.204  27.457  22.944  1.00  0.00    -0.000 A 
ATOM     12  C   UNL A   1      29.478  28.593  22.544  1.00  0.00     0.122 A 
ATOM     13  C   UNL A   1      28.118  28.733  22.867  1.00  0.00     0.047 A 
ATOM     14  C   UNL A   1      27.452  27.758  23.607  1.00  0.00     0.004 A 
ATOM     15  C   UNL A   1      29.505  26.508  23.733  1.00  0.00     0.008 A 
ATOM     16  C   UNL A   1      28.149  26.641  24.042  1.00  0.00     0.001 A 
BRANCH  12  17
ATOM     17  O   UNL A   1      29.976  29.544  21.697  1.00  0.00    -0.496 OA
ATOM     18  C   UNL A   1      29.122  30.682  21.564  1.00  0.00     0.278 C 
ENDBRANCH  12  17
ENDBRANCH   7  11
BRANCH   9  19
ATOM     19  C   UNL A   1      33.612  23.925  22.647  1.00  0.00     0.223 C 
ATOM     20  O   UNL A   1      33.491  23.304  21.589  1.00  0.00    -0.275 OA
BRANCH  19  21
ATOM     21  C   UNL A   1      34.434  23.331  23.772  1.00  0.00     0.108 C 
BRANCH  21  22
ATOM     22  C   UNL A   1      33.712  22.146  24.408  1.00  0.00     0.088 C 
BRANCH  22  23
ATOM     23  C   UNL A   1      32.632  22.578  25.329  1.00  0.00     0.138 A 
ATOM     24  C   UNL A   1      31.274  22.369  25.385  1.00  0.00     0.089 A 
ATOM     25  O   UNL A   1      33.019  23.313  26.408  1.00  0.00    -0.360 OA
ATOM     26  C   UNL A   1      30.891  22.986  26.589  1.00  0.00     0.172 A 
ATOM     27  N   UNL A   1      31.918  23.564  27.212  1.00  0.00    -0.068 NA
ATOM     28  Cl  UNL A   1      29.340  22.982  27.265  1.00  0.00    -0.058 Cl
ENDBRANCH  22  23
ENDBRANCH  21  22
ENDBRANCH  19  21
ENDBRANCH   9  19
ENDBRANCH   4   6
ENDBRANCH   3   4
ENDBRANCH   2   3
ENDBRANCH   1   2
BRANCH   1  29
ATOM     29  O   UNL A   1      33.169  30.455  27.506  1.00  0.00    -0.374 OA
BRANCH  29  30
ATOM     30  C   UNL A   1      33.866  31.664  27.801  1.00  0.00     0.202 C 
BRANCH  30  31
ATOM     31  C   UNL A   1      35.380  31.591  27.937  1.00  0.00     0.261 C 
BRANCH  31  32
ATOM     32  O   UNL A   1      35.840  30.243  28.012  1.00  0.00    -0.460 OA
BRANCH  32  33
ATOM     33  C   UNL A   1      36.717  30.013  29.016  1.00  0.00     0.338 C 
ATOM     34  O   UNL A   1      36.735  30.536  30.112  1.00  0.00    -0.246 OA
BRANCH  33  35
ATOM     35  C   UNL A   1      37.786  29.131  28.535  1.00  0.00     0.060 A 
ATOM     36  C   UNL A   1      38.272  28.219  29.470  1.00  0.00     0.016 A 
ATOM     37  C   UNL A   1      38.490  29.440  27.364  1.00  0.00     0.016 A 
ATOM     38  C   UNL A   1      39.587  27.836  29.371  1.00  0.00     0.010 A 
ATOM     39  C   UNL A   1      39.811  29.073  27.272  1.00  0.00     0.010 A 
ATOM     40  C   UNL A   1      40.362  28.360  28.331  1.00  0.00    -0.014 A 
BRANCH  40  41
ATOM     41  C   UNL A   1      41.766  28.023  28.327  1.00  0.00     0.031 A 
ATOM     42  C   UNL A   1      42.019  26.741  27.638  1.00  0.00     0.074 A 
ATOM     43  C   UNL A   1      42.713  28.827  28.841  1.00  0.00     0.049 A 
ATOM     44  N   UNL A   1      42.392  25.628  28.171  1.00  0.00    -0.248 NA
ATOM     45  C   UNL A   1      41.605  26.633  26.227  1.00  0.00     0.031 C 
ATOM     46  C   UNL A   1      42.594  30.215  29.292  1.00  0.00     0.029 A 
ATOM     47  N   UNL A   1      44.043  28.588  28.959  1.00  0.00    -0.354 N 
ATOM     48  C   UNL A   1      42.457  24.722  27.121  1.00  0.00     0.074 A 
ATOM     49  C   UNL A   1      41.772  25.330  26.010  1.00  0.00     0.031 C 
ATOM     50  C   UNL A   1      43.832  30.761  29.365  1.00  0.00     0.029 A 
ATOM     51  C   UNL A   1      44.820  29.729  29.088  1.00  0.00     0.049 A 
ATOM     52  H   UNL A   1      44.425  27.681  28.954  1.00  0.00     0.167 HD
ATOM     53  C   UNL A   1      43.324  23.676  27.154  1.00  0.00     0.031 A 
ATOM     54  C   UNL A   1      46.159  29.812  28.873  1.00  0.00     0.031 A 
ATOM     55  C   UNL A   1      43.777  23.400  28.493  1.00  0.00     0.049 A 
ATOM     56  C   UNL A   1      46.704  28.428  28.914  1.00  0.00     0.074 A 
ATOM     57  C   UNL A   1      43.145  23.075  29.678  1.00  0.00     0.029 A 
ATOM     58  N   UNL A   1      45.026  23.859  28.845  1.00  0.00    -0.354 N 
ATOM     59  N   UNL A   1      46.752  27.714  30.002  1.00  0.00    -0.248 NA
ATOM     60  C   UNL A   1      46.718  27.670  27.669  1.00  0.00     0.031 C 
ATOM     61  C   UNL A   1      43.842  23.814  30.679  1.00  0.00     0.029 A 
ATOM     62  C   UNL A   1      44.907  24.473  30.065  1.00  0.00     0.049 A 
ATOM     63  H   UNL A   1      45.851  23.763  28.317  1.00  0.00     0.167 HD
ATOM     64  C   UNL A   1      46.351  26.444  29.611  1.00  0.00     0.074 A 
ATOM     65  C   UNL A   1      46.413  26.459  28.148  1.00  0.00     0.031 C 
ATOM     66  C   UNL A   1      45.717  25.598  30.476  1.00  0.00     0.031 A 
BRANCH  53  67
ATOM     67  C   UNL A   1      44.096  23.243  25.934  1.00  0.00    -0.014 A 
ATOM     68  C   UNL A   1      44.089  21.883  25.583  1.00  0.00     0.009 A 
ATOM     69  C   UNL A   1      45.058  24.057  25.301  1.00  0.00     0.009 A 
ATOM     70  C   UNL A   1      45.049  21.357  24.711  1.00  0.00     0.001 A 
ATOM     71  C   UNL A   1      45.988  23.544  24.398  1.00  0.00     0.001 A 
ATOM     72  C   UNL A   1      46.002  22.185  24.126  1.00  0.00     0.000 A 
ENDBRANCH  53  67
BRANCH  54  73
ATOM     73  C   UNL A   1      46.915  30.939  28.274  1.00  0.00    -0.014 A 
ATOM     74  C   UNL A   1      46.479  31.558  27.091  1.00  0.00     0.009 A 
ATOM     75  C   UNL A   1      47.928  31.586  29.008  1.00  0.00     0.009 A 
ATOM     76  C   UNL A   1      47.014  32.789  26.679  1.00  0.00     0.001 A 
ATOM     77  C   UNL A   1      48.464  32.811  28.596  1.00  0.00     0.001 A 
ATOM     78  C   UNL A   1      47.997  33.420  27.437  1.00  0.00     0.000 A 
ENDBRANCH  54  73
BRANCH  66  79
ATOM     79  C   UNL A   1      45.650  25.977  31.936  1.00  0.00    -0.014 A 
ATOM     80  C   UNL A   1      46.657  25.665  32.869  1.00  0.00     0.009 A 
ATOM     81  C   UNL A   1      44.602  26.814  32.349  1.00  0.00     0.009 A 
ATOM     82  C   UNL A   1      46.592  26.150  34.180  1.00  0.00     0.001 A 
ATOM     83  C   UNL A   1      44.550  27.315  33.650  1.00  0.00     0.001 A 
ATOM     84  C   UNL A   1      45.540  26.977  34.568  1.00  0.00     0.000 A 
ENDBRANCH  66  79
ENDBRANCH  40  41
ENDBRANCH  33  35
ENDBRANCH  32  33
ENDBRANCH  31  32
ENDBRANCH  30  31
ENDBRANCH  29  30
ENDBRANCH   1  29
TORSDOF 20
ENDMDL
MODEL 2
REMARK VINA RESULT:     -10.5      2.864      7.140
REMARK SMILES COc1ccccc1[C@@H]1CN(C(=O)CCc2cc(Cl)no2)C[C@H]1C(=O)OCCOCCOC(=O)c1ccc(-c2c3nc(c(-c4ccccc4)c4ccc([nH]4)c(-c4ccccc4)c4nc(c(-c5ccccc5)c5ccc2[nH]5)C=C4)C=C3)cc1
REMARK SMILES IDX 28 1 27 2 26 3 24 4 25 5 23 6 9 7 10 8 11 9 22 10 8 11 3 12
REMARK SMILES IDX 4 13 5 14 7 15 6 16 2 17 1 18 12 19 13 20 14 21 15 22 16 23
REMARK SMILES IDX 17 24 21 25 18 26 20 27 19 28 29 29 30 30 31 31 32 32 33 33
REMARK SMILES IDX 34 34 35 35 36 36 82 37 37 38 81 39 38 40 39 41 40 42 75 43
REMARK SMILES IDX 41 44 80 45 74 46 76 47 42 48 79 49 73 50 72 51 43 53 65 54
REMARK SMILES IDX 50 55 64 56 51 57 54 58 63 59 77 60 52 61 53 62 62 64 78 65
REMARK SMILES IDX 55 66 44 67 45 68 49 69 46 70 48 71 47 72 66 73 67 74 71 75
REMARK SMILES IDX 68 76 70 77 69 78 56 79 57 80 61 81 58 82 60 83 59 84
REMARK H PARENT 76 52 54 63
REMARK Flexibility Score: inf
ROOT
ATOM      1  C   UNL A   1      36.095  21.864  24.354  1.00  0.00     0.202 C 
ENDROOT
BRANCH   1   2
ATOM      2  C   UNL A   1      35.544  22.996  23.488  1.00  0.00     0.261 C 
BRANCH   2   3
ATOM      3  O   UNL A   1      35.847  24.294  24.026  1.00  0.00    -0.463 OA
BRANCH   3   4
ATOM      4  C   UNL A   1      35.825  24.349  25.378  1.00  0.00     0.311 C 
ATOM      5  O   UNL A   1      36.764  24.042  26.107  1.00  0.00    -0.252 OA
BRANCH   4   6
ATOM      6  C   UNL A   1      34.519  24.814  25.967  1.00  0.00     0.128 C 
ATOM      7  C   UNL A   1      33.509  25.619  25.122  1.00  0.00     0.058 C 
ATOM      8  C   UNL A   1      32.147  24.977  25.445  1.00  0.00     0.129 C 
ATOM      9  N   UNL A   1      32.409  23.710  26.090  1.00  0.00    -0.341 N 
ATOM     10  C   UNL A   1      33.800  23.563  26.442  1.00  0.00     0.135 C 
BRANCH   7  11
ATOM     11  C   UNL A   1      33.351  27.140  25.273  1.00  0.00    -0.000 A 
ATOM     12  C   UNL A   1      33.197  28.092  24.250  1.00  0.00     0.122 A 
ATOM     13  C   UNL A   1      33.055  29.458  24.549  1.00  0.00     0.047 A 
ATOM     14  C   UNL A   1      33.078  29.910  25.867  1.00  0.00     0.004 A 
ATOM     15  C   UNL A   1      33.414  27.641  26.597  1.00  0.00     0.008 A 
ATOM     16  C   UNL A   1      33.259  28.998  26.895  1.00  0.00     0.001 A 
BRANCH  12  17
ATOM     17  O   UNL A   1      33.014  27.763  22.936  1.00  0.00    -0.496 OA
ATOM     18  C   UNL A   1      31.641  27.580  22.586  1.00  0.00     0.278 C 
ENDBRANCH  12  17
ENDBRANCH   7  11
BRANCH   9  19
ATOM     19  C   UNL A   1      31.512  22.736  26.458  1.00  0.00     0.223 C 
ATOM     20  O   UNL A   1      30.656  22.942  27.321  1.00  0.00    -0.275 OA
BRANCH  19  21
ATOM     21  C   UNL A   1      31.562  21.392  25.762  1.00  0.00     0.108 C 
BRANCH  21  22
ATOM     22  C   UNL A   1      32.977  20.819  25.787  1.00  0.00     0.088 C 
BRANCH  22  23
ATOM     23  C   UNL A   1      33.053  19.491  25.130  1.00  0.00     0.138 A 
ATOM     24  C   UNL A   1      34.011  18.835  24.393  1.00  0.00     0.089 A 
ATOM     25  O   UNL A   1      31.978  18.672  25.299  1.00  0.00    -0.360 OA
ATOM     26  C   UNL A   1      33.454  17.563  24.176  1.00  0.00     0.172 A 
ATOM     27  N   UNL A   1      32.234  17.447  24.703  1.00  0.00    -0.068 NA
ATOM     28  Cl  UNL A   1      34.207  16.259  23.405  1.00  0.00    -0.058 Cl
ENDBRANCH  22  23
ENDBRANCH  21  22
ENDBRANCH  19  21
ENDBRANCH   9  19
ENDBRANCH   4   6
ENDBRANCH   3   4
ENDBRANCH   2   3
ENDBRANCH   1   2
BRANCH   1  29
ATOM     29  O   UNL A   1      37.490  21.588  24.280  1.00  0.00    -0.374 OA
BRANCH  29  30
ATOM     30  C   UNL A   1      38.126  20.827  25.306  1.00  0.00     0.202 C 
BRANCH  30  31
ATOM     31  C   UNL A   1      39.534  21.235  25.717  1.00  0.00     0.261 C 
BRANCH  31  32
ATOM     32  O   UNL A   1      40.251  20.147  26.296  1.00  0.00    -0.460 OA
BRANCH  32  33
ATOM     33  C   UNL A   1      41.544  20.066  25.905  1.00  0.00     0.338 C 
ATOM     34  O   UNL A   1      42.047  19.219  25.194  1.00  0.00    -0.246 OA
BRANCH  33  35
ATOM     35  C   UNL A   1      42.329  21.086  26.609  1.00  0.00     0.060 A 
ATOM     36  C   UNL A   1      42.266  21.032  28.000  1.00  0.00     0.016 A 
ATOM     37  C   UNL A   1      42.789  22.222  25.931  1.00  0.00     0.016 A 
ATOM     38  C   UNL A   1      42.393  22.208  28.696  1.00  0.00     0.010 A 
ATOM     39  C   UNL A   1      42.900  23.404  26.623  1.00  0.00     0.010 A 
ATOM     40  C   UNL A   1      42.600  23.392  27.980  1.00  0.00    -0.014 A 
BRANCH  40  41
ATOM     41  C   UNL A   1      42.616  24.621  28.738  1.00  0.00     0.031 A 
ATOM     42  C   UNL A   1      41.538  25.539  28.314  1.00  0.00     0.074 A 
ATOM     43  C   UNL A   1      43.478  24.850  29.744  1.00  0.00     0.049 A 
ATOM     44  N   UNL A   1      41.667  26.655  27.684  1.00  0.00    -0.248 NA
ATOM     45  C   UNL A   1      40.150  25.054  28.418  1.00  0.00     0.031 C 
ATOM     46  C   UNL A   1      44.387  23.913  30.406  1.00  0.00     0.029 A 
ATOM     47  N   UNL A   1      43.635  25.983  30.473  1.00  0.00    -0.354 N 
ATOM     48  C   UNL A   1      40.373  27.119  27.488  1.00  0.00     0.074 A 
ATOM     49  C   UNL A   1      39.494  26.012  27.767  1.00  0.00     0.031 C 
ATOM     50  C   UNL A   1      44.777  24.441  31.592  1.00  0.00     0.029 A 
ATOM     51  C   UNL A   1      44.245  25.791  31.703  1.00  0.00     0.049 A 
ATOM     52  H   UNL A   1      43.340  26.867  30.156  1.00  0.00     0.167 HD
ATOM     53  C   UNL A   1      40.111  28.449  27.406  1.00  0.00     0.031 A 
ATOM     54  C   UNL A   1      44.211  26.651  32.755  1.00  0.00     0.031 A 
ATOM     55  C   UNL A   1      41.298  29.209  27.106  1.00  0.00     0.049 A 
ATOM     56  C   UNL A   1      43.802  27.982  32.229  1.00  0.00     0.074 A 
ATOM     57  C   UNL A   1      42.215  29.198  26.072  1.00  0.00     0.029 A 
ATOM     58  N   UNL A   1      41.916  29.856  28.152  1.00  0.00    -0.354 N 
ATOM     59  N   UNL A   1      44.557  28.701  31.448  1.00  0.00    -0.248 NA
ATOM     60  C   UNL A   1      42.376  28.272  32.158  1.00  0.00     0.031 C 
ATOM     61  C   UNL A   1      43.480  29.383  26.703  1.00  0.00     0.029 A 
ATOM     62  C   UNL A   1      43.257  29.584  28.066  1.00  0.00     0.049 A 
ATOM     63  H   UNL A   1      41.475  30.411  28.834  1.00  0.00     0.167 HD
ATOM     64  C   UNL A   1      43.694  29.199  30.482  1.00  0.00     0.074 A 
ATOM     65  C   UNL A   1      42.350  28.961  31.012  1.00  0.00     0.031 C 
ATOM     66  C   UNL A   1      44.126  29.479  29.217  1.00  0.00     0.031 A 
BRANCH  53  67
ATOM     67  C   UNL A   1      38.902  29.066  28.061  1.00  0.00    -0.014 A 
ATOM     68  C   UNL A   1      38.687  28.831  29.428  1.00  0.00     0.009 A 
ATOM     69  C   UNL A   1      37.823  29.610  27.333  1.00  0.00     0.009 A 
ATOM     70  C   UNL A   1      37.434  29.051  30.011  1.00  0.00     0.001 A 
ATOM     71  C   UNL A   1      36.586  29.871  27.921  1.00  0.00     0.001 A 
ATOM     72  C   UNL A   1      36.382  29.562  29.255  1.00  0.00     0.000 A 
ENDBRANCH  53  67
BRANCH  54  73
ATOM     73  C   UNL A   1      44.140  26.319  34.198  1.00  0.00    -0.014 A 
ATOM     74  C   UNL A   1      44.746  27.140  35.163  1.00  0.00     0.009 A 
ATOM     75  C   UNL A   1      43.248  25.330  34.658  1.00  0.00     0.009 A 
ATOM     76  C   UNL A   1      44.447  26.996  36.527  1.00  0.00     0.001 A 
ATOM     77  C   UNL A   1      42.951  25.184  36.017  1.00  0.00     0.001 A 
ATOM     78  C   UNL A   1      43.541  26.026  36.952  1.00  0.00     0.000 A 
ENDBRANCH  54  73
BRANCH  66  79
ATOM     79  C   UNL A   1      45.610  29.448  28.937  1.00  0.00    -0.014 A 
ATOM     80  C   UNL A   1      46.314  28.276  28.603  1.00  0.00     0.009 A 
ATOM     81  C   UNL A   1      46.288  30.673  28.859  1.00  0.00     0.009 A 
ATOM     82  C   UNL A   1      47.664  28.333  28.236  1.00  0.00     0.001 A 
ATOM     83  C   UNL A   1      47.628  30.732  28.472  1.00  0.00     0.001 A 
ATOM     84  C   UNL A   1      48.318  29.562  28.168  1.00  0.00     0.000 A 
ENDBRANCH  66  79
ENDBRANCH  40  41
ENDBRANCH  33  35
ENDBRANCH  32  33
ENDBRANCH  31  32
ENDBRANCH  30  31
ENDBRANCH  29  30
ENDBRANCH   1  29
TORSDOF 20
ENDMDL
MODEL 3
REMARK VINA RESULT:     -10.5      2.268      5.957
REMARK SMILES COc1ccccc1[C@@H]1CN(C(=O)CCc2cc(Cl)no2)C[C@H]1C(=O)OCCOCCOC(=O)c1ccc(-c2c3nc(c(-c4ccccc4)c4ccc([nH]4)c(-c4ccccc4)c4nc(c(-c5ccccc5)c5ccc2[nH]5)C=C4)C=C3)cc1
REMARK SMILES IDX 28 1 27 2 26 3 24 4 25 5 23 6 9 7 10 8 11 9 22 10 8 11 3 12
REMARK SMILES IDX 4 13 5 14 7 15 6 16 2 17 1 18 12 19 13 20 14 21 15 22 16 23
REMARK SMILES IDX 17 24 21 25 18 26 20 27 19 28 29 29 30 30 31 31 32 32 33 33
REMARK SMILES IDX 34 34 35 35 36 36 82 37 37 38 81 39 38 40 39 41 40 42 75 43
REMARK SMILES IDX 41 44 80 45 74 46 76 47 42 48 79 49 73 50 72 51 43 53 65 54
REMARK SMILES IDX 50 55 64 56 51 57 54 58 63 59 77 60 52 61 53 62 62 64 78 65
REMARK SMILES IDX 55 66 44 67 45 68 49 69 46 70 48 71 47 72 66 73 67 74 71 75
REMARK SMILES IDX 68 76 70 77 69 78 56 79 57 80 61 81 58 82 60 83 59 84
REMARK H PARENT 76 52 54 63
REMARK Flexibility Score: inf
ROOT
ATOM      1  C   UNL A   1      34.451  30.011  27.030  1.00  0.00     0.202 C 
ENDROOT
BRANCH   1   2
ATOM      2  C   UNL A   1      33.610  28.781  26.692  1.00  0.00     0.261 C 
BRANCH   2   3
ATOM      3  O   UNL A   1      34.144  28.041  25.582  1.00  0.00    -0.463 OA
BRANCH   3   4
ATOM      4  C   UNL A   1      33.424  28.161  24.442  1.00  0.00     0.311 C 
ATOM      5  O   UNL A   1      33.529  29.086  23.642  1.00  0.00    -0.252 OA
BRANCH   4   6
ATOM      6  C   UNL A   1      32.431  27.054  24.206  1.00  0.00     0.128 C 
ATOM      7  C   UNL A   1      31.484  27.082  22.988  1.00  0.00     0.058 C 
ATOM      8  C   UNL A   1      31.535  25.645  22.435  1.00  0.00     0.129 C 
ATOM      9  N   UNL A   1      32.677  24.992  23.034  1.00  0.00    -0.341 N 
ATOM     10  C   UNL A   1      33.241  25.773  24.107  1.00  0.00     0.135 C 
BRANCH   7  11
ATOM     11  C   UNL A   1      30.004  27.476  23.116  1.00  0.00    -0.000 A 
ATOM     12  C   UNL A   1      29.380  28.636  22.625  1.00  0.00     0.122 A 
ATOM     13  C   UNL A   1      28.005  28.852  22.817  1.00  0.00     0.047 A 
ATOM     14  C   UNL A   1      27.223  27.932  23.511  1.00  0.00     0.004 A 
ATOM     15  C   UNL A   1      29.187  26.584  23.855  1.00  0.00     0.008 A 
ATOM     16  C   UNL A   1      27.817  26.793  24.033  1.00  0.00     0.001 A 
BRANCH  12  17
ATOM     17  O   UNL A   1      30.003  29.538  21.809  1.00  0.00    -0.496 OA
ATOM     18  C   UNL A   1      29.176  30.651  21.464  1.00  0.00     0.278 C 
ENDBRANCH  12  17
ENDBRANCH   7  11
BRANCH   9  19
ATOM     19  C   UNL A   1      33.190  23.746  22.762  1.00  0.00     0.223 C 
ATOM     20  O   UNL A   1      34.396  23.574  22.573  1.00  0.00    -0.275 OA
BRANCH  19  21
ATOM     21  C   UNL A   1      32.251  22.559  22.723  1.00  0.00     0.108 C 
BRANCH  21  22
ATOM     22  C   UNL A   1      32.096  21.941  24.110  1.00  0.00     0.088 C 
BRANCH  22  23
ATOM     23  C   UNL A   1      32.874  20.686  24.253  1.00  0.00     0.138 A 
ATOM     24  C   UNL A   1      32.643  19.369  23.933  1.00  0.00     0.089 A 
ATOM     25  O   UNL A   1      34.127  20.809  24.771  1.00  0.00    -0.360 OA
ATOM     26  C   UNL A   1      33.855  18.730  24.251  1.00  0.00     0.172 A 
ATOM     27  N   UNL A   1      34.753  19.573  24.761  1.00  0.00    -0.068 NA
ATOM     28  Cl  UNL A   1      34.226  17.101  23.984  1.00  0.00    -0.058 Cl
ENDBRANCH  22  23
ENDBRANCH  21  22
ENDBRANCH  19  21
ENDBRANCH   9  19
ENDBRANCH   4   6
ENDBRANCH   3   4
ENDBRANCH   2   3
ENDBRANCH   1   2
BRANCH   1  29
ATOM     29  O   UNL A   1      33.979  30.880  28.054  1.00  0.00    -0.374 OA
BRANCH  29  30
ATOM     30  C   UNL A   1      34.317  32.266  28.032  1.00  0.00     0.202 C 
BRANCH  30  31
ATOM     31  C   UNL A   1      34.889  32.874  29.305  1.00  0.00     0.261 C 
BRANCH  31  32
ATOM     32  O   UNL A   1      35.015  31.904  30.343  1.00  0.00    -0.460 OA
BRANCH  32  33
ATOM     33  C   UNL A   1      36.219  31.909  30.960  1.00  0.00     0.338 C 
ATOM     34  O   UNL A   1      36.570  32.615  31.884  1.00  0.00    -0.246 OA
BRANCH  33  35
ATOM     35  C   UNL A   1      37.140  31.025  30.236  1.00  0.00     0.060 A 
ATOM     36  C   UNL A   1      36.868  29.663  30.346  1.00  0.00     0.016 A 
ATOM     37  C   UNL A   1      38.380  31.501  29.792  1.00  0.00     0.016 A 
ATOM     38  C   UNL A   1      37.925  28.789  30.284  1.00  0.00     0.010 A 
ATOM     39  C   UNL A   1      39.443  30.631  29.747  1.00  0.00     0.010 A 
ATOM     40  C   UNL A   1      39.212  29.305  30.094  1.00  0.00    -0.014 A 
BRANCH  40  41
ATOM     41  C   UNL A   1      40.308  28.367  30.148  1.00  0.00     0.031 A 
ATOM     42  C   UNL A   1      40.933  28.332  31.486  1.00  0.00     0.074 A 
ATOM     43  C   UNL A   1      40.657  27.588  29.108  1.00  0.00     0.049 A 
ATOM     44  N   UNL A   1      42.103  28.762  31.813  1.00  0.00    -0.248 NA
ATOM     45  C   UNL A   1      40.075  27.970  32.628  1.00  0.00     0.031 C 
ATOM     46  C   UNL A   1      39.941  27.357  27.852  1.00  0.00     0.029 A 
ATOM     47  N   UNL A   1      41.704  26.730  29.017  1.00  0.00    -0.354 N 
ATOM     48  C   UNL A   1      42.209  28.537  33.179  1.00  0.00     0.074 A 
ATOM     49  C   UNL A   1      40.879  28.249  33.652  1.00  0.00     0.031 C 
ATOM     50  C   UNL A   1      40.425  26.233  27.270  1.00  0.00     0.029 A 
ATOM     51  C   UNL A   1      41.556  25.750  28.048  1.00  0.00     0.049 A 
ATOM     52  H   UNL A   1      42.501  26.797  29.591  1.00  0.00     0.167 HD
ATOM     53  C   UNL A   1      43.417  28.309  33.759  1.00  0.00     0.031 A 
ATOM     54  C   UNL A   1      42.255  24.586  27.976  1.00  0.00     0.031 A 
ATOM     55  C   UNL A   1      44.502  28.757  32.924  1.00  0.00     0.049 A 
ATOM     56  C   UNL A   1      43.469  24.742  28.821  1.00  0.00     0.074 A 
ATOM     57  C   UNL A   1      44.856  29.974  32.372  1.00  0.00     0.029 A 
ATOM     58  N   UNL A   1      45.178  27.803  32.198  1.00  0.00    -0.354 N 
ATOM     59  N   UNL A   1      44.449  25.545  28.517  1.00  0.00    -0.248 NA
ATOM     60  C   UNL A   1      43.360  24.397  30.232  1.00  0.00     0.031 C 
ATOM     61  C   UNL A   1      45.314  29.661  31.058  1.00  0.00     0.029 A 
ATOM     62  C   UNL A   1      45.297  28.272  30.916  1.00  0.00     0.049 A 
ATOM     63  H   UNL A   1      45.513  26.943  32.539  1.00  0.00     0.167 HD
ATOM     64  C   UNL A   1      44.791  26.156  29.716  1.00  0.00     0.074 A 
ATOM     65  C   UNL A   1      44.135  25.356  30.752  1.00  0.00     0.031 C 
ATOM     66  C   UNL A   1      45.314  27.418  29.750  1.00  0.00     0.031 A 
BRANCH  53  67
ATOM     67  C   UNL A   1      43.601  27.270  34.834  1.00  0.00    -0.014 A 
ATOM     68  C   UNL A   1      43.738  25.926  34.452  1.00  0.00     0.009 A 
ATOM     69  C   UNL A   1      43.348  27.519  36.199  1.00  0.00     0.009 A 
ATOM     70  C   UNL A   1      43.548  24.890  35.372  1.00  0.00     0.001 A 
ATOM     71  C   UNL A   1      43.201  26.489  37.128  1.00  0.00     0.001 A 
ATOM     72  C   UNL A   1      43.271  25.171  36.707  1.00  0.00     0.000 A 
ENDBRANCH  53  67
BRANCH  54  73
ATOM     73  C   UNL A   1      41.762  23.256  27.543  1.00  0.00    -0.014 A 
ATOM     74  C   UNL A   1      40.386  22.987  27.449  1.00  0.00     0.009 A 
ATOM     75  C   UNL A   1      42.645  22.323  26.965  1.00  0.00     0.009 A 
ATOM     76  C   UNL A   1      39.916  21.848  26.777  1.00  0.00     0.001 A 
ATOM     77  C   UNL A   1      42.177  21.186  26.298  1.00  0.00     0.001 A 
ATOM     78  C   UNL A   1      40.811  20.955  26.192  1.00  0.00     0.000 A 
ENDBRANCH  54  73
BRANCH  66  79
ATOM     79  C   UNL A   1      45.723  28.064  28.448  1.00  0.00    -0.014 A 
ATOM     80  C   UNL A   1      44.870  28.879  27.681  1.00  0.00     0.009 A 
ATOM     81  C   UNL A   1      47.069  27.970  28.064  1.00  0.00     0.009 A 
ATOM     82  C   UNL A   1      45.347  29.548  26.547  1.00  0.00     0.001 A 
ATOM     83  C   UNL A   1      47.550  28.654  26.947  1.00  0.00     0.001 A 
ATOM     84  C   UNL A   1      46.687  29.436  26.184  1.00  0.00     0.000 A 
ENDBRANCH  66  79
ENDBRANCH  40  41
ENDBRANCH  33  35
ENDBRANCH  32  33
ENDBRANCH  31  32
ENDBRANCH  30  31
ENDBRANCH  29  30
ENDBRANCH   1  29
TORSDOF 20
ENDMDL
