MODEL 1
REMARK VINA RESULT:     -11.1      0.000      0.000
REMARK SMILES Cc1ccc2c(=O)c3cccc(CC(=O)OCCOCCOC(=O)c4ccc(-c5c6nc(c(-c7ccccc7)c7ccc([nH]7)c(-c7ccccc7)c7nc(c(-c8ccccc8)c8ccc5[nH]8)C=C7)C=C6)cc4)c3oc2c1C
REMARK SMILES IDX 20 1 19 2 18 3 17 4 16 5 14 6 15 7 13 8 12 9 1 10 2 11 3 12
REMARK SMILES IDX 76 13 4 14 75 15 77 16 5 17 74 18 6 19 73 20 7 21 8 22 9 23
REMARK SMILES IDX 11 24 10 25 21 26 22 27 23 28 24 29 25 30 26 31 72 32 27 33
REMARK SMILES IDX 71 34 28 35 29 36 30 37 65 38 31 39 70 40 64 41 66 42 32 43
REMARK SMILES IDX 69 44 63 45 62 46 33 48 55 49 40 50 54 51 41 52 44 53 53 54
REMARK SMILES IDX 67 55 42 56 43 57 52 59 68 60 45 61 34 62 35 63 39 64 36 65
REMARK SMILES IDX 38 66 37 67 56 68 57 69 61 70 58 71 60 72 59 73 46 74 47 75
REMARK SMILES IDX 51 76 48 77 50 78 49 79
REMARK H PARENT 66 47 44 58
REMARK Flexibility Score: inf
ROOT
ATOM      1  C   UNL A   1      45.591  21.964  25.525  1.00  0.00     0.202 C 
ENDROOT
BRANCH   1   2
ATOM      2  O   UNL A   1      46.254  20.961  24.758  1.00  0.00    -0.374 OA
BRANCH   2   3
ATOM      3  C   UNL A   1      45.412  19.977  24.164  1.00  0.00     0.202 C 
BRANCH   3   4
ATOM      4  C   UNL A   1      44.744  18.990  25.134  1.00  0.00     0.261 C 
BRANCH   4   5
ATOM      5  O   UNL A   1      43.302  18.995  25.028  1.00  0.00    -0.463 OA
BRANCH   5   6
ATOM      6  C   UNL A   1      42.633  18.576  26.136  1.00  0.00     0.310 C 
ATOM      7  O   UNL A   1      43.090  17.775  26.948  1.00  0.00    -0.252 OA
BRANCH   6   8
ATOM      8  C   UNL A   1      41.250  19.166  26.322  1.00  0.00     0.162 C 
BRANCH   8   9
ATOM      9  C   UNL A   1      41.079  20.595  26.807  1.00  0.00     0.007 A 
ATOM     10  C   UNL A   1      34.046  20.995  24.884  1.00  0.00     0.045 C 
ATOM     11  C   UNL A   1      35.367  21.677  25.150  1.00  0.00    -0.044 A 
ATOM     12  C   UNL A   1      35.315  23.002  25.608  1.00  0.00     0.005 A 
ATOM     13  C   UNL A   1      36.617  21.001  25.075  1.00  0.00    -0.005 A 
ATOM     14  C   UNL A   1      36.475  23.662  25.990  1.00  0.00     0.016 A 
ATOM     15  C   UNL A   1      37.790  21.656  25.536  1.00  0.00     0.141 A 
ATOM     16  C   UNL A   1      36.645  19.577  24.582  1.00  0.00     0.049 C 
ATOM     17  C   UNL A   1      37.694  22.981  25.969  1.00  0.00     0.066 A 
ATOM     18  O   UNL A   1      38.972  20.930  25.648  1.00  0.00    -0.455 OA
ATOM     19  C   UNL A   1      38.874  23.636  26.532  1.00  0.00     0.200 A 
ATOM     20  C   UNL A   1      39.999  21.435  26.435  1.00  0.00     0.142 A 
ATOM     21  O   UNL A   1      38.885  24.834  26.782  1.00  0.00    -0.288 OA
ATOM     22  C   UNL A   1      40.009  22.769  26.859  1.00  0.00     0.066 A 
ATOM     23  C   UNL A   1      41.057  23.294  27.622  1.00  0.00     0.016 A 
ATOM     24  C   UNL A   1      42.113  21.134  27.605  1.00  0.00     0.008 A 
ATOM     25  C   UNL A   1      42.108  22.471  28.000  1.00  0.00     0.001 A 
ENDBRANCH   8   9
ENDBRANCH   6   8
ENDBRANCH   5   6
ENDBRANCH   4   5
ENDBRANCH   3   4
ENDBRANCH   2   3
ENDBRANCH   1   2
BRANCH   1  26
ATOM     26  C   UNL A   1      46.162  23.371  25.426  1.00  0.00     0.261 C 
BRANCH  26  27
ATOM     27  O   UNL A   1      45.101  24.293  25.178  1.00  0.00    -0.460 OA
BRANCH  27  28
ATOM     28  C   UNL A   1      45.459  25.587  25.230  1.00  0.00     0.338 C 
ATOM     29  O   UNL A   1      46.216  26.193  24.488  1.00  0.00    -0.246 OA
BRANCH  28  30
ATOM     30  C   UNL A   1      44.597  26.225  26.226  1.00  0.00     0.060 A 
ATOM     31  C   UNL A   1      43.720  25.478  27.020  1.00  0.00     0.016 A 
ATOM     32  C   UNL A   1      44.667  27.617  26.326  1.00  0.00     0.016 A 
ATOM     33  C   UNL A   1      42.941  26.137  27.963  1.00  0.00     0.010 A 
ATOM     34  C   UNL A   1      43.899  28.271  27.276  1.00  0.00     0.010 A 
ATOM     35  C   UNL A   1      43.058  27.529  28.119  1.00  0.00    -0.014 A 
BRANCH  35  36
ATOM     36  C   UNL A   1      42.433  28.205  29.271  1.00  0.00     0.031 A 
ATOM     37  C   UNL A   1      43.116  28.260  30.597  1.00  0.00     0.074 A 
ATOM     38  C   UNL A   1      41.195  28.705  29.097  1.00  0.00     0.049 A 
ATOM     39  N   UNL A   1      42.693  28.800  31.708  1.00  0.00    -0.248 NA
ATOM     40  C   UNL A   1      44.438  27.621  30.696  1.00  0.00     0.031 C 
ATOM     41  C   UNL A   1      40.445  28.663  27.839  1.00  0.00     0.029 A 
ATOM     42  N   UNL A   1      40.353  29.343  29.968  1.00  0.00    -0.354 N 
ATOM     43  C   UNL A   1      43.697  28.578  32.639  1.00  0.00     0.074 A 
ATOM     44  C   UNL A   1      44.731  27.812  31.976  1.00  0.00     0.031 C 
ATOM     45  C   UNL A   1      39.270  29.284  28.009  1.00  0.00     0.029 A 
ATOM     46  C   UNL A   1      39.162  29.720  29.396  1.00  0.00     0.049 A 
ATOM     47  H   UNL A   1      40.579  29.515  30.910  1.00  0.00     0.167 HD
ATOM     48  C   UNL A   1      43.747  28.997  33.924  1.00  0.00     0.031 A 
ATOM     49  C   UNL A   1      38.098  30.344  29.932  1.00  0.00     0.031 A 
ATOM     50  C   UNL A   1      42.689  29.739  34.562  1.00  0.00     0.049 A 
ATOM     51  C   UNL A   1      38.160  30.753  31.374  1.00  0.00     0.074 A 
ATOM     52  C   UNL A   1      42.651  30.236  35.852  1.00  0.00     0.029 A 
ATOM     53  N   UNL A   1      41.483  30.079  33.964  1.00  0.00    -0.354 N 
ATOM     54  N   UNL A   1      39.144  30.599  32.229  1.00  0.00    -0.248 NA
ATOM     55  C   UNL A   1      36.981  31.430  31.928  1.00  0.00     0.031 C 
ATOM     56  C   UNL A   1      41.394  30.808  36.059  1.00  0.00     0.029 A 
ATOM     57  C   UNL A   1      40.681  30.749  34.871  1.00  0.00     0.049 A 
ATOM     58  H   UNL A   1      41.236  29.875  33.033  1.00  0.00     0.167 HD
ATOM     59  C   UNL A   1      38.715  31.181  33.414  1.00  0.00     0.074 A 
ATOM     60  C   UNL A   1      37.388  31.708  33.160  1.00  0.00     0.031 C 
ATOM     61  C   UNL A   1      39.361  31.268  34.602  1.00  0.00     0.031 A 
BRANCH  48  62
ATOM     62  C   UNL A   1      44.974  28.677  34.731  1.00  0.00    -0.014 A 
ATOM     63  C   UNL A   1      45.048  27.471  35.447  1.00  0.00     0.009 A 
ATOM     64  C   UNL A   1      46.010  29.613  34.877  1.00  0.00     0.009 A 
ATOM     65  C   UNL A   1      46.118  27.220  36.309  1.00  0.00     0.001 A 
ATOM     66  C   UNL A   1      47.095  29.346  35.713  1.00  0.00     0.001 A 
ATOM     67  C   UNL A   1      47.142  28.157  36.439  1.00  0.00     0.000 A 
ENDBRANCH  48  62
BRANCH  49  68
ATOM     68  C   UNL A   1      36.924  30.649  29.071  1.00  0.00    -0.014 A 
ATOM     69  C   UNL A   1      36.595  31.978  28.751  1.00  0.00     0.009 A 
ATOM     70  C   UNL A   1      36.076  29.621  28.635  1.00  0.00     0.009 A 
ATOM     71  C   UNL A   1      35.425  32.271  28.046  1.00  0.00     0.001 A 
ATOM     72  C   UNL A   1      34.926  29.914  27.898  1.00  0.00     0.001 A 
ATOM     73  C   UNL A   1      34.594  31.239  27.617  1.00  0.00     0.000 A 
ENDBRANCH  49  68
BRANCH  61  74
ATOM     74  C   UNL A   1      38.660  31.967  35.734  1.00  0.00    -0.014 A 
ATOM     75  C   UNL A   1      38.818  33.354  35.897  1.00  0.00     0.009 A 
ATOM     76  C   UNL A   1      37.954  31.245  36.708  1.00  0.00     0.009 A 
ATOM     77  C   UNL A   1      38.311  33.998  37.026  1.00  0.00     0.001 A 
ATOM     78  C   UNL A   1      37.415  31.898  37.817  1.00  0.00     0.001 A 
ATOM     79  C   UNL A   1      37.608  33.270  37.983  1.00  0.00     0.000 A 
ENDBRANCH  61  74
ENDBRANCH  35  36
ENDBRANCH  28  30
ENDBRANCH  27  28
ENDBRANCH  26  27
ENDBRANCH   1  26
TORSDOF 15
ENDMDL
MODEL 2
REMARK VINA RESULT:     -11.0      0.165      5.900
REMARK SMILES Cc1ccc2c(=O)c3cccc(CC(=O)OCCOCCOC(=O)c4ccc(-c5c6nc(c(-c7ccccc7)c7ccc([nH]7)c(-c7ccccc7)c7nc(c(-c8ccccc8)c8ccc5[nH]8)C=C7)C=C6)cc4)c3oc2c1C
REMARK SMILES IDX 20 1 19 2 18 3 17 4 16 5 14 6 15 7 13 8 12 9 1 10 2 11 3 12
REMARK SMILES IDX 76 13 4 14 75 15 77 16 5 17 74 18 6 19 73 20 7 21 8 22 9 23
REMARK SMILES IDX 11 24 10 25 21 26 22 27 23 28 24 29 25 30 26 31 72 32 27 33
REMARK SMILES IDX 71 34 28 35 29 36 30 37 65 38 31 39 70 40 64 41 66 42 32 43
REMARK SMILES IDX 69 44 63 45 62 46 33 48 55 49 40 50 54 51 41 52 44 53 53 54
REMARK SMILES IDX 67 55 42 56 43 57 52 59 68 60 45 61 34 62 35 63 39 64 36 65
REMARK SMILES IDX 38 66 37 67 56 68 57 69 61 70 58 71 60 72 59 73 46 74 47 75
REMARK SMILES IDX 51 76 48 77 50 78 49 79
REMARK H PARENT 66 47 44 58
REMARK Flexibility Score: inf
ROOT
ATOM      1  C   UNL A   1      45.369  21.988  25.420  1.00  0.00     0.202 C 
ENDROOT
BRANCH   1   2
ATOM      2  O   UNL A   1      45.987  21.232  24.382  1.00  0.00    -0.374 OA
BRANCH   2   3
ATOM      3  C   UNL A   1      45.281  20.070  23.956  1.00  0.00     0.202 C 
BRANCH   3   4
ATOM      4  C   UNL A   1      44.661  19.214  25.072  1.00  0.00     0.261 C 
BRANCH   4   5
ATOM      5  O   UNL A   1      43.229  19.071  24.933  1.00  0.00    -0.463 OA
BRANCH   5   6
ATOM      6  C   UNL A   1      42.582  18.586  26.027  1.00  0.00     0.310 C 
ATOM      7  O   UNL A   1      43.050  17.733  26.777  1.00  0.00    -0.252 OA
BRANCH   6   8
ATOM      8  C   UNL A   1      41.206  19.170  26.280  1.00  0.00     0.162 C 
BRANCH   8   9
ATOM      9  C   UNL A   1      41.053  20.592  26.790  1.00  0.00     0.007 A 
ATOM     10  C   UNL A   1      33.992  21.068  24.994  1.00  0.00     0.045 C 
ATOM     11  C   UNL A   1      35.321  21.738  25.249  1.00  0.00    -0.044 A 
ATOM     12  C   UNL A   1      35.287  23.056  25.728  1.00  0.00     0.005 A 
ATOM     13  C   UNL A   1      36.566  21.055  25.142  1.00  0.00    -0.005 A 
ATOM     14  C   UNL A   1      36.457  23.702  26.100  1.00  0.00     0.016 A 
ATOM     15  C   UNL A   1      37.751  21.695  25.592  1.00  0.00     0.141 A 
ATOM     16  C   UNL A   1      36.575  19.639  24.626  1.00  0.00     0.049 C 
ATOM     17  C   UNL A   1      37.671  23.013  26.048  1.00  0.00     0.066 A 
ATOM     18  O   UNL A   1      38.930  20.959  25.672  1.00  0.00    -0.455 OA
ATOM     19  C   UNL A   1      38.865  23.651  26.601  1.00  0.00     0.200 A 
ATOM     20  C   UNL A   1      39.973  21.445  26.450  1.00  0.00     0.142 A 
ATOM     21  O   UNL A   1      38.889  24.845  26.870  1.00  0.00    -0.288 OA
ATOM     22  C   UNL A   1      40.000  22.772  26.895  1.00  0.00     0.066 A 
ATOM     23  C   UNL A   1      41.064  23.278  27.648  1.00  0.00     0.016 A 
ATOM     24  C   UNL A   1      42.105  21.111  27.579  1.00  0.00     0.008 A 
ATOM     25  C   UNL A   1      42.115  22.442  27.995  1.00  0.00     0.001 A 
ENDBRANCH   8   9
ENDBRANCH   6   8
ENDBRANCH   5   6
ENDBRANCH   4   5
ENDBRANCH   3   4
ENDBRANCH   2   3
ENDBRANCH   1   2
BRANCH   1  26
ATOM     26  C   UNL A   1      45.947  23.373  25.676  1.00  0.00     0.261 C 
BRANCH  26  27
ATOM     27  O   UNL A   1      45.073  24.357  25.122  1.00  0.00    -0.460 OA
BRANCH  27  28
ATOM     28  C   UNL A   1      45.489  25.625  25.272  1.00  0.00     0.338 C 
ATOM     29  O   UNL A   1      46.320  26.231  24.615  1.00  0.00    -0.246 OA
BRANCH  28  30
ATOM     30  C   UNL A   1      44.596  26.252  26.248  1.00  0.00     0.060 A 
ATOM     31  C   UNL A   1      43.624  25.512  26.929  1.00  0.00     0.016 A 
ATOM     32  C   UNL A   1      44.739  27.627  26.447  1.00  0.00     0.016 A 
ATOM     33  C   UNL A   1      42.819  26.156  27.861  1.00  0.00     0.010 A 
ATOM     34  C   UNL A   1      43.945  28.266  27.385  1.00  0.00     0.010 A 
ATOM     35  C   UNL A   1      43.005  27.526  28.118  1.00  0.00    -0.014 A 
BRANCH  35  36
ATOM     36  C   UNL A   1      42.340  28.165  29.269  1.00  0.00     0.031 A 
ATOM     37  C   UNL A   1      40.996  28.798  29.128  1.00  0.00     0.074 A 
ATOM     38  C   UNL A   1      43.022  28.214  30.428  1.00  0.00     0.049 A 
ATOM     39  N   UNL A   1      40.287  29.413  30.037  1.00  0.00    -0.248 NA
ATOM     40  C   UNL A   1      40.367  28.747  27.799  1.00  0.00     0.031 C 
ATOM     41  C   UNL A   1      44.357  27.646  30.638  1.00  0.00     0.029 A 
ATOM     42  N   UNL A   1      42.697  28.761  31.640  1.00  0.00    -0.354 N 
ATOM     43  C   UNL A   1      39.124  29.814  29.398  1.00  0.00     0.074 A 
ATOM     44  C   UNL A   1      39.240  29.417  28.011  1.00  0.00     0.031 C 
ATOM     45  C   UNL A   1      44.719  27.839  31.913  1.00  0.00     0.029 A 
ATOM     46  C   UNL A   1      43.671  28.590  32.594  1.00  0.00     0.049 A 
ATOM     47  H   UNL A   1      41.849  29.231  31.811  1.00  0.00     0.167 HD
ATOM     48  C   UNL A   1      38.054  30.442  29.936  1.00  0.00     0.031 A 
ATOM     49  C   UNL A   1      43.715  28.996  33.875  1.00  0.00     0.031 A 
ATOM     50  C   UNL A   1      37.978  30.846  31.317  1.00  0.00     0.049 A 
ATOM     51  C   UNL A   1      42.534  29.735  34.433  1.00  0.00     0.074 A 
ATOM     52  C   UNL A   1      36.928  31.465  31.971  1.00  0.00     0.029 A 
ATOM     53  N   UNL A   1      38.993  30.684  32.251  1.00  0.00    -0.354 N 
ATOM     54  N   UNL A   1      41.407  30.050  33.838  1.00  0.00    -0.248 NA
ATOM     55  C   UNL A   1      42.617  30.165  35.833  1.00  0.00     0.031 C 
ATOM     56  C   UNL A   1      37.335  31.745  33.276  1.00  0.00     0.029 A 
ATOM     57  C   UNL A   1      38.605  31.221  33.465  1.00  0.00     0.049 A 
ATOM     58  H   UNL A   1      39.859  30.249  32.075  1.00  0.00     0.167 HD
ATOM     59  C   UNL A   1      40.637  30.693  34.796  1.00  0.00     0.074 A 
ATOM     60  C   UNL A   1      41.418  30.705  36.017  1.00  0.00     0.031 C 
ATOM     61  C   UNL A   1      39.396  31.225  34.672  1.00  0.00     0.031 A 
BRANCH  48  62
ATOM     62  C   UNL A   1      36.875  30.732  29.048  1.00  0.00    -0.014 A 
ATOM     63  C   UNL A   1      36.567  32.057  28.701  1.00  0.00     0.009 A 
ATOM     64  C   UNL A   1      36.003  29.708  28.646  1.00  0.00     0.009 A 
ATOM     65  C   UNL A   1      35.400  32.353  27.992  1.00  0.00     0.001 A 
ATOM     66  C   UNL A   1      34.856  30.002  27.908  1.00  0.00     0.001 A 
ATOM     67  C   UNL A   1      34.547  31.325  27.594  1.00  0.00     0.000 A 
ENDBRANCH  48  62
BRANCH  49  68
ATOM     68  C   UNL A   1      44.903  28.657  34.705  1.00  0.00    -0.014 A 
ATOM     69  C   UNL A   1      44.873  27.564  35.589  1.00  0.00     0.009 A 
ATOM     70  C   UNL A   1      46.041  29.475  34.681  1.00  0.00     0.009 A 
ATOM     71  C   UNL A   1      45.942  27.322  36.455  1.00  0.00     0.001 A 
ATOM     72  C   UNL A   1      47.124  29.209  35.523  1.00  0.00     0.001 A 
ATOM     73  C   UNL A   1      47.068  28.141  36.418  1.00  0.00     0.000 A 
ENDBRANCH  49  68
BRANCH  61  74
ATOM     74  C   UNL A   1      38.781  31.864  35.888  1.00  0.00    -0.014 A 
ATOM     75  C   UNL A   1      38.138  31.061  36.844  1.00  0.00     0.009 A 
ATOM     76  C   UNL A   1      38.725  33.260  36.024  1.00  0.00     0.009 A 
ATOM     77  C   UNL A   1      37.424  31.640  37.893  1.00  0.00     0.001 A 
ATOM     78  C   UNL A   1      38.043  33.836  37.097  1.00  0.00     0.001 A 
ATOM     79  C   UNL A   1      37.380  33.027  38.020  1.00  0.00     0.000 A 
ENDBRANCH  61  74
ENDBRANCH  35  36
ENDBRANCH  28  30
ENDBRANCH  27  28
ENDBRANCH  26  27
ENDBRANCH   1  26
TORSDOF 15
ENDMDL
MODEL 3
REMARK VINA RESULT:     -10.7      4.847     10.658
REMARK SMILES Cc1ccc2c(=O)c3cccc(CC(=O)OCCOCCOC(=O)c4ccc(-c5c6nc(c(-c7ccccc7)c7ccc([nH]7)c(-c7ccccc7)c7nc(c(-c8ccccc8)c8ccc5[nH]8)C=C7)C=C6)cc4)c3oc2c1C
REMARK SMILES IDX 20 1 19 2 18 3 17 4 16 5 14 6 15 7 13 8 12 9 1 10 2 11 3 12
REMARK SMILES IDX 76 13 4 14 75 15 77 16 5 17 74 18 6 19 73 20 7 21 8 22 9 23
REMARK SMILES IDX 11 24 10 25 21 26 22 27 23 28 24 29 25 30 26 31 72 32 27 33
REMARK SMILES IDX 71 34 28 35 29 36 30 37 65 38 31 39 70 40 64 41 66 42 32 43
REMARK SMILES IDX 69 44 63 45 62 46 33 48 55 49 40 50 54 51 41 52 44 53 53 54
REMARK SMILES IDX 67 55 42 56 43 57 52 59 68 60 45 61 34 62 35 63 39 64 36 65
REMARK SMILES IDX 38 66 37 67 56 68 57 69 61 70 58 71 60 72 59 73 46 74 47 75
REMARK SMILES IDX 51 76 48 77 50 78 49 79
REMARK H PARENT 66 47 44 58
REMARK Flexibility Score: inf
ROOT
ATOM      1  C   UNL A   1      33.989  35.615  28.888  1.00  0.00     0.202 C 
ENDROOT
BRANCH   1   2
ATOM      2  O   UNL A   1      34.667  34.381  29.107  1.00  0.00    -0.374 OA
BRANCH   2   3
ATOM      3  C   UNL A   1      34.675  33.473  28.009  1.00  0.00     0.202 C 
BRANCH   3   4
ATOM      4  C   UNL A   1      35.788  32.412  28.022  1.00  0.00     0.261 C 
BRANCH   4   5
ATOM      5  O   UNL A   1      35.310  31.109  28.423  1.00  0.00    -0.463 OA
BRANCH   5   6
ATOM      6  C   UNL A   1      35.805  30.061  27.711  1.00  0.00     0.310 C 
ATOM      7  O   UNL A   1      36.956  30.007  27.283  1.00  0.00    -0.252 OA
BRANCH   6   8
ATOM      8  C   UNL A   1      34.832  28.926  27.462  1.00  0.00     0.162 C 
BRANCH   8   9
ATOM      9  C   UNL A   1      33.575  29.153  26.640  1.00  0.00     0.007 A 
ATOM     10  C   UNL A   1      33.508  22.403  23.856  1.00  0.00     0.045 C 
ATOM     11  C   UNL A   1      33.148  23.864  23.743  1.00  0.00    -0.044 A 
ATOM     12  C   UNL A   1      31.996  24.178  23.005  1.00  0.00     0.005 A 
ATOM     13  C   UNL A   1      33.844  24.891  24.441  1.00  0.00    -0.005 A 
ATOM     14  C   UNL A   1      31.528  25.484  22.950  1.00  0.00     0.016 A 
ATOM     15  C   UNL A   1      33.320  26.211  24.441  1.00  0.00     0.141 A 
ATOM     16  C   UNL A   1      35.077  24.527  25.227  1.00  0.00     0.049 C 
ATOM     17  C   UNL A   1      32.179  26.481  23.680  1.00  0.00     0.066 A 
ATOM     18  O   UNL A   1      33.886  27.165  25.280  1.00  0.00    -0.455 OA
ATOM     19  C   UNL A   1      31.575  27.811  23.745  1.00  0.00     0.200 A 
ATOM     20  C   UNL A   1      33.165  28.317  25.570  1.00  0.00     0.142 A 
ATOM     21  O   UNL A   1      30.673  28.145  22.987  1.00  0.00    -0.288 OA
ATOM     22  C   UNL A   1      32.047  28.692  24.816  1.00  0.00     0.066 A 
ATOM     23  C   UNL A   1      31.338  29.868  25.081  1.00  0.00     0.016 A 
ATOM     24  C   UNL A   1      32.829  30.321  26.913  1.00  0.00     0.008 A 
ATOM     25  C   UNL A   1      31.728  30.680  26.135  1.00  0.00     0.001 A 
ENDBRANCH   8   9
ENDBRANCH   6   8
ENDBRANCH   5   6
ENDBRANCH   4   5
ENDBRANCH   3   4
ENDBRANCH   2   3
ENDBRANCH   1   2
BRANCH   1  26
ATOM     26  C   UNL A   1      32.763  35.870  29.753  1.00  0.00     0.261 C 
BRANCH  26  27
ATOM     27  O   UNL A   1      33.182  36.334  31.036  1.00  0.00    -0.460 OA
BRANCH  27  28
ATOM     28  C   UNL A   1      32.782  35.570  32.067  1.00  0.00     0.338 C 
ATOM     29  O   UNL A   1      31.642  35.319  32.424  1.00  0.00    -0.246 OA
BRANCH  28  30
ATOM     30  C   UNL A   1      33.973  34.889  32.576  1.00  0.00     0.060 A 
ATOM     31  C   UNL A   1      33.892  33.632  33.185  1.00  0.00     0.016 A 
ATOM     32  C   UNL A   1      35.190  35.564  32.454  1.00  0.00     0.016 A 
ATOM     33  C   UNL A   1      35.059  33.024  33.630  1.00  0.00     0.010 A 
ATOM     34  C   UNL A   1      36.355  34.950  32.886  1.00  0.00     0.010 A 
ATOM     35  C   UNL A   1      36.297  33.666  33.446  1.00  0.00    -0.014 A 
BRANCH  35  36
ATOM     36  C   UNL A   1      37.556  32.936  33.681  1.00  0.00     0.031 A 
ATOM     37  C   UNL A   1      38.063  31.934  32.697  1.00  0.00     0.074 A 
ATOM     38  C   UNL A   1      38.190  33.156  34.848  1.00  0.00     0.049 A 
ATOM     39  N   UNL A   1      39.140  31.200  32.764  1.00  0.00    -0.248 NA
ATOM     40  C   UNL A   1      37.256  31.720  31.485  1.00  0.00     0.031 C 
ATOM     41  C   UNL A   1      37.742  34.097  35.879  1.00  0.00     0.029 A 
ATOM     42  N   UNL A   1      39.337  32.615  35.364  1.00  0.00    -0.354 N 
ATOM     43  C   UNL A   1      39.152  30.442  31.603  1.00  0.00     0.074 A 
ATOM     44  C   UNL A   1      37.948  30.769  30.869  1.00  0.00     0.031 C 
ATOM     45  C   UNL A   1      38.625  34.095  36.887  1.00  0.00     0.029 A 
ATOM     46  C   UNL A   1      39.668  33.119  36.599  1.00  0.00     0.049 A 
ATOM     47  H   UNL A   1      39.871  31.934  34.897  1.00  0.00     0.167 HD
ATOM     48  C   UNL A   1      40.097  29.567  31.191  1.00  0.00     0.031 A 
ATOM     49  C   UNL A   1      40.699  32.823  37.411  1.00  0.00     0.031 A 
ATOM     50  C   UNL A   1      41.274  29.245  31.957  1.00  0.00     0.049 A 
ATOM     51  C   UNL A   1      41.707  31.812  36.949  1.00  0.00     0.074 A 
ATOM     52  C   UNL A   1      42.309  28.393  31.618  1.00  0.00     0.029 A 
ATOM     53  N   UNL A   1      41.566  29.750  33.217  1.00  0.00    -0.354 N 
ATOM     54  N   UNL A   1      41.745  31.149  35.817  1.00  0.00    -0.248 NA
ATOM     55  C   UNL A   1      42.816  31.511  37.862  1.00  0.00     0.031 C 
ATOM     56  C   UNL A   1      43.186  28.323  32.701  1.00  0.00     0.029 A 
ATOM     57  C   UNL A   1      42.748  29.201  33.681  1.00  0.00     0.049 A 
ATOM     58  H   UNL A   1      41.015  30.404  33.706  1.00  0.00     0.167 HD
ATOM     59  C   UNL A   1      42.894  30.373  35.868  1.00  0.00     0.074 A 
ATOM     60  C   UNL A   1      43.534  30.662  37.136  1.00  0.00     0.031 C 
ATOM     61  C   UNL A   1      43.372  29.500  34.948  1.00  0.00     0.031 A 
BRANCH  48  62
ATOM     62  C   UNL A   1      39.915  28.897  29.857  1.00  0.00    -0.014 A 
ATOM     63  C   UNL A   1      39.366  27.606  29.790  1.00  0.00     0.009 A 
ATOM     64  C   UNL A   1      40.388  29.492  28.677  1.00  0.00     0.009 A 
ATOM     65  C   UNL A   1      39.317  26.916  28.576  1.00  0.00     0.001 A 
ATOM     66  C   UNL A   1      40.306  28.814  27.459  1.00  0.00     0.001 A 
ATOM     67  C   UNL A   1      39.785  27.522  27.412  1.00  0.00     0.000 A 
ENDBRANCH  48  62
BRANCH  49  68
ATOM     68  C   UNL A   1      40.831  33.540  38.708  1.00  0.00    -0.014 A 
ATOM     69  C   UNL A   1      41.591  34.719  38.803  1.00  0.00     0.009 A 
ATOM     70  C   UNL A   1      40.270  33.003  39.876  1.00  0.00     0.009 A 
ATOM     71  C   UNL A   1      41.815  35.323  40.042  1.00  0.00     0.001 A 
ATOM     72  C   UNL A   1      40.466  33.629  41.110  1.00  0.00     0.001 A 
ATOM     73  C   UNL A   1      41.250  34.780  41.193  1.00  0.00     0.000 A 
ENDBRANCH  49  68
BRANCH  61  74
ATOM     74  C   UNL A   1      44.661  28.787  35.258  1.00  0.00    -0.014 A 
ATOM     75  C   UNL A   1      44.631  27.582  35.979  1.00  0.00     0.009 A 
ATOM     76  C   UNL A   1      45.901  29.366  34.952  1.00  0.00     0.009 A 
ATOM     77  C   UNL A   1      45.815  26.987  36.415  1.00  0.00     0.001 A 
ATOM     78  C   UNL A   1      47.086  28.749  35.357  1.00  0.00     0.001 A 
ATOM     79  C   UNL A   1      47.042  27.570  36.101  1.00  0.00     0.000 A 
ENDBRANCH  61  74
ENDBRANCH  35  36
ENDBRANCH  28  30
ENDBRANCH  27  28
ENDBRANCH  26  27
ENDBRANCH   1  26
TORSDOF 15
ENDMDL
