MODEL 1
REMARK VINA RESULT:     -12.1      0.000      0.000
REMARK SMILES COc1cccc(-c2nn(-c3cc4c(cc3C(N)=O)OCO4)cc2C(=O)OCCOCCOC(=O)c2ccc(-c3c4nc(c(-c5ccccc5)c5ccc([nH]5)c(-c5ccccc5)c5nc(c(-c6ccccc6)c6ccc3[nH]6)C=C5)C=C4)cc2)c1
REMARK SMILES IDX 30 1 29 2 28 3 27 4 25 5 26 6 24 7 8 8 9 9 10 10 23 11 7 12
REMARK SMILES IDX 3 13 4 14 84 15 5 16 6 17 2 18 1 19 11 20 12 21 16 22 13 23
REMARK SMILES IDX 15 24 14 25 22 26 20 27 21 28 17 29 18 30 19 31 31 34 32 35
REMARK SMILES IDX 33 36 34 37 35 38 36 39 37 40 83 41 38 42 82 43 39 44 40 45
REMARK SMILES IDX 41 46 76 47 42 48 81 49 75 50 77 51 43 52 80 53 74 54 73 55
REMARK SMILES IDX 44 57 66 58 51 59 65 60 52 61 55 62 64 63 78 64 53 65 54 66
REMARK SMILES IDX 63 68 79 69 56 70 45 71 46 72 50 73 47 74 49 75 48 76 67 77
REMARK SMILES IDX 68 78 72 79 69 80 71 81 70 82 57 83 58 84 62 85 59 86 61 87
REMARK SMILES IDX 60 88
REMARK H PARENT 18 32 18 33 77 56 55 67
REMARK Flexibility Score: inf
ROOT
ATOM      1  O   UNL A   1      32.201  33.636  27.557  1.00  0.00    -0.374 OA
ENDROOT
BRANCH   1   2
ATOM      2  C   UNL A   1      31.872  32.359  27.010  1.00  0.00     0.202 C 
BRANCH   2   3
ATOM      3  C   UNL A   1      32.813  31.180  27.265  1.00  0.00     0.261 C 
BRANCH   3   4
ATOM      4  O   UNL A   1      32.683  30.155  26.269  1.00  0.00    -0.460 OA
BRANCH   4   5
ATOM      5  C   UNL A   1      32.213  28.956  26.730  1.00  0.00     0.342 C 
ATOM      6  O   UNL A   1      31.510  28.817  27.717  1.00  0.00    -0.246 OA
BRANCH   5   7
ATOM      7  C   UNL A   1      32.557  27.861  25.852  1.00  0.00     0.106 A 
ATOM      8  C   UNL A   1      31.801  27.297  24.787  1.00  0.00     0.107 A 
ATOM      9  N   UNL A   1      32.399  26.188  24.310  1.00  0.00    -0.167 NA
ATOM     10  N   UNL A   1      33.379  25.951  25.223  1.00  0.00    -0.239 N 
ATOM     11  C   UNL A   1      33.711  27.109  25.884  1.00  0.00     0.131 A 
BRANCH   8  12
ATOM     12  C   UNL A   1      30.590  27.857  24.197  1.00  0.00     0.007 A 
ATOM     13  C   UNL A   1      29.466  29.589  22.932  1.00  0.00     0.119 A 
ATOM     14  C   UNL A   1      28.333  28.777  22.835  1.00  0.00     0.046 A 
ATOM     15  C   UNL A   1      30.599  29.129  23.612  1.00  0.00     0.056 A 
ATOM     16  C   UNL A   1      28.314  27.517  23.424  1.00  0.00     0.005 A 
ATOM     17  C   UNL A   1      29.433  27.070  24.126  1.00  0.00     0.011 A 
BRANCH  13  18
ATOM     18  O   UNL A   1      29.334  30.833  22.378  1.00  0.00    -0.497 OA
ATOM     19  C   UNL A   1      28.002  31.214  22.052  1.00  0.00     0.278 C 
ENDBRANCH  13  18
ENDBRANCH   8  12
BRANCH  10  20
ATOM     20  C   UNL A   1      33.991  24.681  25.376  1.00  0.00     0.081 A 
ATOM     21  C   UNL A   1      35.212  24.458  24.706  1.00  0.00     0.079 A 
ATOM     22  C   UNL A   1      33.407  23.655  26.184  1.00  0.00     0.069 A 
ATOM     23  C   UNL A   1      35.850  23.257  24.926  1.00  0.00     0.167 A 
ATOM     24  C   UNL A   1      34.163  22.508  26.473  1.00  0.00     0.066 A 
ATOM     25  C   UNL A   1      35.356  22.330  25.811  1.00  0.00     0.166 A 
ATOM     26  O   UNL A   1      36.994  22.825  24.330  1.00  0.00    -0.454 OA
ATOM     27  O   UNL A   1      36.127  21.211  25.883  1.00  0.00    -0.454 OA
ATOM     28  C   UNL A   1      37.024  21.453  24.779  1.00  0.00     0.468 C 
BRANCH  22  29
ATOM     29  C   UNL A   1      31.933  23.627  26.519  1.00  0.00     0.251 C 
ATOM     30  N   UNL A   1      31.110  22.786  25.823  1.00  0.00    -0.366 N 
ATOM     31  O   UNL A   1      31.395  24.380  27.319  1.00  0.00    -0.269 OA
ATOM     32  H   UNL A   1      31.488  22.158  25.166  1.00  0.00     0.159 HD
ATOM     33  H   UNL A   1      30.137  22.808  25.979  1.00  0.00     0.159 HD
ENDBRANCH  22  29
ENDBRANCH  10  20
ENDBRANCH   5   7
ENDBRANCH   4   5
ENDBRANCH   3   4
ENDBRANCH   2   3
ENDBRANCH   1   2
BRANCH   1  34
ATOM     34  C   UNL A   1      33.403  33.819  28.291  1.00  0.00     0.202 C 
BRANCH  34  35
ATOM     35  C   UNL A   1      33.489  34.950  29.306  1.00  0.00     0.261 C 
BRANCH  35  36
ATOM     36  O   UNL A   1      32.903  34.626  30.551  1.00  0.00    -0.460 OA
BRANCH  36  37
ATOM     37  C   UNL A   1      33.531  35.224  31.588  1.00  0.00     0.338 C 
ATOM     38  O   UNL A   1      33.443  36.387  31.940  1.00  0.00    -0.246 OA
BRANCH  37  39
ATOM     39  C   UNL A   1      34.520  34.289  32.126  1.00  0.00     0.060 A 
ATOM     40  C   UNL A   1      35.744  34.855  32.482  1.00  0.00     0.016 A 
ATOM     41  C   UNL A   1      34.359  32.912  31.910  1.00  0.00     0.016 A 
ATOM     42  C   UNL A   1      36.867  34.077  32.350  1.00  0.00     0.010 A 
ATOM     43  C   UNL A   1      35.482  32.140  31.770  1.00  0.00     0.010 A 
ATOM     44  C   UNL A   1      36.719  32.762  31.891  1.00  0.00    -0.014 A 
BRANCH  44  45
ATOM     45  C   UNL A   1      37.919  31.991  31.685  1.00  0.00     0.031 A 
ATOM     46  C   UNL A   1      38.613  31.768  32.964  1.00  0.00     0.074 A 
ATOM     47  C   UNL A   1      38.294  31.496  30.491  1.00  0.00     0.049 A 
ATOM     48  N   UNL A   1      39.604  32.448  33.430  1.00  0.00    -0.248 NA
ATOM     49  C   UNL A   1      37.967  30.882  33.947  1.00  0.00     0.031 C 
ATOM     50  C   UNL A   1      37.506  31.421  29.257  1.00  0.00     0.029 A 
ATOM     51  N   UNL A   1      39.446  30.857  30.159  1.00  0.00    -0.354 N 
ATOM     52  C   UNL A   1      39.876  31.872  34.662  1.00  0.00     0.074 A 
ATOM     53  C   UNL A   1      38.696  31.139  35.034  1.00  0.00     0.031 C 
ATOM     54  C   UNL A   1      38.108  30.564  28.398  1.00  0.00     0.029 A 
ATOM     55  C   UNL A   1      39.390  30.164  28.957  1.00  0.00     0.049 A 
ATOM     56  H   UNL A   1      40.254  30.885  30.721  1.00  0.00     0.167 HD
ATOM     57  C   UNL A   1      41.168  31.696  35.050  1.00  0.00     0.031 A 
ATOM     58  C   UNL A   1      40.320  29.291  28.501  1.00  0.00     0.031 A 
ATOM     59  C   UNL A   1      42.064  32.463  34.219  1.00  0.00     0.049 A 
ATOM     60  C   UNL A   1      41.589  29.590  29.202  1.00  0.00     0.074 A 
ATOM     61  C   UNL A   1      42.424  33.783  34.073  1.00  0.00     0.029 A 
ATOM     62  N   UNL A   1      42.412  31.812  33.063  1.00  0.00    -0.354 N 
ATOM     63  N   UNL A   1      42.250  30.699  29.030  1.00  0.00    -0.248 NA
ATOM     64  C   UNL A   1      41.948  28.828  30.393  1.00  0.00     0.031 C 
ATOM     65  C   UNL A   1      42.871  33.926  32.724  1.00  0.00     0.029 A 
ATOM     66  C   UNL A   1      42.823  32.683  32.094  1.00  0.00     0.049 A 
ATOM     67  H   UNL A   1      42.372  30.835  32.946  1.00  0.00     0.167 HD
ATOM     68  C   UNL A   1      42.766  30.987  30.279  1.00  0.00     0.074 A 
ATOM     69  C   UNL A   1      42.704  29.733  31.020  1.00  0.00     0.031 C 
ATOM     70  C   UNL A   1      42.885  32.277  30.706  1.00  0.00     0.031 A 
BRANCH  57  71
ATOM     71  C   UNL A   1      41.651  30.428  35.727  1.00  0.00    -0.014 A 
ATOM     72  C   UNL A   1      42.864  30.477  36.435  1.00  0.00     0.009 A 
ATOM     73  C   UNL A   1      41.136  29.144  35.452  1.00  0.00     0.009 A 
ATOM     74  C   UNL A   1      43.545  29.308  36.795  1.00  0.00     0.001 A 
ATOM     75  C   UNL A   1      41.796  27.976  35.837  1.00  0.00     0.001 A 
ATOM     76  C   UNL A   1      43.015  28.058  36.490  1.00  0.00     0.000 A 
ENDBRANCH  57  71
BRANCH  58  77
ATOM     77  C   UNL A   1      40.137  28.040  27.732  1.00  0.00    -0.014 A 
ATOM     78  C   UNL A   1      40.940  27.759  26.614  1.00  0.00     0.009 A 
ATOM     79  C   UNL A   1      39.389  26.984  28.283  1.00  0.00     0.009 A 
ATOM     80  C   UNL A   1      41.031  26.458  26.100  1.00  0.00     0.001 A 
ATOM     81  C   UNL A   1      39.482  25.685  27.771  1.00  0.00     0.001 A 
ATOM     82  C   UNL A   1      40.316  25.419  26.689  1.00  0.00     0.000 A 
ENDBRANCH  58  77
BRANCH  70  83
ATOM     83  C   UNL A   1      42.933  33.354  29.661  1.00  0.00    -0.014 A 
ATOM     84  C   UNL A   1      43.961  33.489  28.714  1.00  0.00     0.009 A 
ATOM     85  C   UNL A   1      41.835  34.225  29.590  1.00  0.00     0.009 A 
ATOM     86  C   UNL A   1      43.893  34.487  27.733  1.00  0.00     0.001 A 
ATOM     87  C   UNL A   1      41.759  35.203  28.602  1.00  0.00     0.001 A 
ATOM     88  C   UNL A   1      42.790  35.339  27.677  1.00  0.00     0.000 A 
ENDBRANCH  70  83
ENDBRANCH  44  45
ENDBRANCH  37  39
ENDBRANCH  36  37
ENDBRANCH  35  36
ENDBRANCH  34  35
ENDBRANCH   1  34
TORSDOF 18
ENDMDL
MODEL 2
REMARK VINA RESULT:     -11.9      2.920      4.225
REMARK SMILES COc1cccc(-c2nn(-c3cc4c(cc3C(N)=O)OCO4)cc2C(=O)OCCOCCOC(=O)c2ccc(-c3c4nc(c(-c5ccccc5)c5ccc([nH]5)c(-c5ccccc5)c5nc(c(-c6ccccc6)c6ccc3[nH]6)C=C5)C=C4)cc2)c1
REMARK SMILES IDX 30 1 29 2 28 3 27 4 25 5 26 6 24 7 8 8 9 9 10 10 23 11 7 12
REMARK SMILES IDX 3 13 4 14 84 15 5 16 6 17 2 18 1 19 11 20 12 21 16 22 13 23
REMARK SMILES IDX 15 24 14 25 22 26 20 27 21 28 17 29 18 30 19 31 31 34 32 35
REMARK SMILES IDX 33 36 34 37 35 38 36 39 37 40 83 41 38 42 82 43 39 44 40 45
REMARK SMILES IDX 41 46 76 47 42 48 81 49 75 50 77 51 43 52 80 53 74 54 73 55
REMARK SMILES IDX 44 57 66 58 51 59 65 60 52 61 55 62 64 63 78 64 53 65 54 66
REMARK SMILES IDX 63 68 79 69 56 70 45 71 46 72 50 73 47 74 49 75 48 76 67 77
REMARK SMILES IDX 68 78 72 79 69 80 71 81 70 82 57 83 58 84 62 85 59 86 61 87
REMARK SMILES IDX 60 88
REMARK H PARENT 18 32 18 33 77 56 55 67
REMARK Flexibility Score: inf
ROOT
ATOM      1  O   UNL A   1      33.196  30.502  27.630  1.00  0.00    -0.374 OA
ENDROOT
BRANCH   1   2
ATOM      2  C   UNL A   1      32.105  30.502  26.708  1.00  0.00     0.202 C 
BRANCH   2   3
ATOM      3  C   UNL A   1      31.736  29.197  25.999  1.00  0.00     0.261 C 
BRANCH   3   4
ATOM      4  O   UNL A   1      32.867  28.585  25.364  1.00  0.00    -0.460 OA
BRANCH   4   5
ATOM      5  C   UNL A   1      32.755  28.424  24.010  1.00  0.00     0.342 C 
ATOM      6  O   UNL A   1      33.224  29.183  23.178  1.00  0.00    -0.246 OA
BRANCH   5   7
ATOM      7  C   UNL A   1      32.101  27.184  23.660  1.00  0.00     0.106 A 
ATOM      8  C   UNL A   1      30.730  26.949  23.364  1.00  0.00     0.107 A 
ATOM      9  N   UNL A   1      30.486  25.630  23.239  1.00  0.00    -0.167 NA
ATOM     10  N   UNL A   1      31.641  25.061  23.679  1.00  0.00    -0.239 N 
ATOM     11  C   UNL A   1      32.688  25.942  23.556  1.00  0.00     0.131 A 
BRANCH   8  12
ATOM     12  C   UNL A   1      29.710  27.966  23.130  1.00  0.00     0.007 A 
ATOM     13  C   UNL A   1      29.005  30.054  22.127  1.00  0.00     0.119 A 
ATOM     14  C   UNL A   1      27.679  29.760  22.456  1.00  0.00     0.046 A 
ATOM     15  C   UNL A   1      30.024  29.155  22.462  1.00  0.00     0.056 A 
ATOM     16  C   UNL A   1      27.363  28.584  23.129  1.00  0.00     0.005 A 
ATOM     17  C   UNL A   1      28.382  27.702  23.488  1.00  0.00     0.011 A 
BRANCH  13  18
ATOM     18  O   UNL A   1      29.195  31.272  21.535  1.00  0.00    -0.497 OA
ATOM     19  C   UNL A   1      28.031  31.861  20.968  1.00  0.00     0.278 C 
ENDBRANCH  13  18
ENDBRANCH   8  12
BRANCH  10  20
ATOM     20  C   UNL A   1      31.710  23.717  24.123  1.00  0.00     0.081 A 
ATOM     21  C   UNL A   1      31.973  22.722  23.158  1.00  0.00     0.079 A 
ATOM     22  C   UNL A   1      31.530  23.366  25.498  1.00  0.00     0.069 A 
ATOM     23  C   UNL A   1      32.128  21.427  23.602  1.00  0.00     0.167 A 
ATOM     24  C   UNL A   1      31.828  22.056  25.907  1.00  0.00     0.066 A 
ATOM     25  C   UNL A   1      32.093  21.115  24.939  1.00  0.00     0.166 A 
ATOM     26  O   UNL A   1      32.320  20.323  22.831  1.00  0.00    -0.454 OA
ATOM     27  O   UNL A   1      32.262  19.785  25.172  1.00  0.00    -0.454 OA
ATOM     28  C   UNL A   1      32.178  19.282  23.822  1.00  0.00     0.468 C 
BRANCH  22  29
ATOM     29  C   UNL A   1      30.791  24.255  26.472  1.00  0.00     0.251 C 
ATOM     30  N   UNL A   1      29.535  23.895  26.877  1.00  0.00    -0.366 N 
ATOM     31  O   UNL A   1      31.201  25.339  26.862  1.00  0.00    -0.269 OA
ATOM     32  H   UNL A   1      29.154  23.033  26.593  1.00  0.00     0.159 HD
ATOM     33  H   UNL A   1      29.011  24.499  27.453  1.00  0.00     0.159 HD
ENDBRANCH  22  29
ENDBRANCH  10  20
ENDBRANCH   5   7
ENDBRANCH   4   5
ENDBRANCH   3   4
ENDBRANCH   2   3
ENDBRANCH   1   2
BRANCH   1  34
ATOM     34  C   UNL A   1      34.211  31.492  27.547  1.00  0.00     0.202 C 
BRANCH  34  35
ATOM     35  C   UNL A   1      34.276  32.579  28.611  1.00  0.00     0.261 C 
BRANCH  35  36
ATOM     36  O   UNL A   1      35.593  32.863  29.036  1.00  0.00    -0.460 OA
BRANCH  36  37
ATOM     37  C   UNL A   1      36.002  32.044  30.032  1.00  0.00     0.338 C 
ATOM     38  O   UNL A   1      35.832  32.189  31.230  1.00  0.00    -0.246 OA
BRANCH  37  39
ATOM     39  C   UNL A   1      36.879  31.024  29.457  1.00  0.00     0.060 A 
ATOM     40  C   UNL A   1      36.533  29.705  29.747  1.00  0.00     0.016 A 
ATOM     41  C   UNL A   1      38.158  31.387  29.006  1.00  0.00     0.016 A 
ATOM     42  C   UNL A   1      37.548  28.788  29.852  1.00  0.00     0.010 A 
ATOM     43  C   UNL A   1      39.171  30.472  29.120  1.00  0.00     0.010 A 
ATOM     44  C   UNL A   1      38.863  29.220  29.639  1.00  0.00    -0.014 A 
BRANCH  44  45
ATOM     45  C   UNL A   1      39.919  28.258  29.832  1.00  0.00     0.031 A 
ATOM     46  C   UNL A   1      40.333  28.226  31.244  1.00  0.00     0.074 A 
ATOM     47  C   UNL A   1      40.392  27.462  28.856  1.00  0.00     0.049 A 
ATOM     48  N   UNL A   1      41.339  28.843  31.764  1.00  0.00    -0.248 NA
ATOM     49  C   UNL A   1      39.379  27.683  32.225  1.00  0.00     0.031 C 
ATOM     50  C   UNL A   1      39.824  27.230  27.525  1.00  0.00     0.029 A 
ATOM     51  N   UNL A   1      41.448  26.607  28.893  1.00  0.00    -0.354 N 
ATOM     52  C   UNL A   1      41.289  28.521  33.112  1.00  0.00     0.074 A 
ATOM     53  C   UNL A   1      39.949  28.067  33.369  1.00  0.00     0.031 C 
ATOM     54  C   UNL A   1      40.396  26.126  26.985  1.00  0.00     0.029 A 
ATOM     55  C   UNL A   1      41.469  25.680  27.859  1.00  0.00     0.049 A 
ATOM     56  H   UNL A   1      42.140  26.642  29.592  1.00  0.00     0.167 HD
ATOM     57  C   UNL A   1      42.442  28.252  33.782  1.00  0.00     0.031 A 
ATOM     58  C   UNL A   1      42.287  24.603  27.777  1.00  0.00     0.031 A 
ATOM     59  C   UNL A   1      43.591  28.679  33.020  1.00  0.00     0.049 A 
ATOM     60  C   UNL A   1      43.453  24.864  28.652  1.00  0.00     0.074 A 
ATOM     61  C   UNL A   1      44.206  29.868  32.701  1.00  0.00     0.029 A 
ATOM     62  N   UNL A   1      44.004  27.744  32.104  1.00  0.00    -0.354 N 
ATOM     63  N   UNL A   1      44.325  25.801  28.410  1.00  0.00    -0.248 NA
ATOM     64  C   UNL A   1      43.459  24.341  30.013  1.00  0.00     0.031 C 
ATOM     65  C   UNL A   1      44.893  29.642  31.469  1.00  0.00     0.029 A 
ATOM     66  C   UNL A   1      44.725  28.311  31.092  1.00  0.00     0.049 A 
ATOM     67  H   UNL A   1      43.806  26.782  32.170  1.00  0.00     0.167 HD
ATOM     68  C   UNL A   1      44.666  26.281  29.659  1.00  0.00     0.074 A 
ATOM     69  C   UNL A   1      44.251  25.245  30.598  1.00  0.00     0.031 C 
ATOM     70  C   UNL A   1      44.946  27.603  29.848  1.00  0.00     0.031 A 
BRANCH  57  71
ATOM     71  C   UNL A   1      42.564  27.110  34.771  1.00  0.00    -0.014 A 
ATOM     72  C   UNL A   1      42.711  25.808  34.264  1.00  0.00     0.009 A 
ATOM     73  C   UNL A   1      42.243  27.217  36.140  1.00  0.00     0.009 A 
ATOM     74  C   UNL A   1      42.494  24.683  35.069  1.00  0.00     0.001 A 
ATOM     75  C   UNL A   1      42.056  26.099  36.954  1.00  0.00     0.001 A 
ATOM     76  C   UNL A   1      42.160  24.828  36.413  1.00  0.00     0.000 A 
ENDBRANCH  57  71
BRANCH  58  77
ATOM     77  C   UNL A   1      42.010  23.252  27.240  1.00  0.00    -0.014 A 
ATOM     78  C   UNL A   1      42.989  22.553  26.514  1.00  0.00     0.009 A 
ATOM     79  C   UNL A   1      40.900  22.527  27.708  1.00  0.00     0.009 A 
ATOM     80  C   UNL A   1      42.885  21.170  26.310  1.00  0.00     0.001 A 
ATOM     81  C   UNL A   1      40.798  21.146  27.506  1.00  0.00     0.001 A 
ATOM     82  C   UNL A   1      41.799  20.464  26.822  1.00  0.00     0.000 A 
ENDBRANCH  58  77
BRANCH  70  83
ATOM     83  C   UNL A   1      45.366  28.403  28.649  1.00  0.00    -0.014 A 
ATOM     84  C   UNL A   1      44.499  29.215  27.899  1.00  0.00     0.009 A 
ATOM     85  C   UNL A   1      46.729  28.390  28.318  1.00  0.00     0.009 A 
ATOM     86  C   UNL A   1      44.990  29.978  26.833  1.00  0.00     0.001 A 
ATOM     87  C   UNL A   1      47.220  29.165  27.270  1.00  0.00     0.001 A 
ATOM     88  C   UNL A   1      46.350  29.954  26.523  1.00  0.00     0.000 A 
ENDBRANCH  70  83
ENDBRANCH  44  45
ENDBRANCH  37  39
ENDBRANCH  36  37
ENDBRANCH  35  36
ENDBRANCH  34  35
ENDBRANCH   1  34
TORSDOF 18
ENDMDL
MODEL 3
REMARK VINA RESULT:     -11.9      3.604      7.373
REMARK SMILES COc1cccc(-c2nn(-c3cc4c(cc3C(N)=O)OCO4)cc2C(=O)OCCOCCOC(=O)c2ccc(-c3c4nc(c(-c5ccccc5)c5ccc([nH]5)c(-c5ccccc5)c5nc(c(-c6ccccc6)c6ccc3[nH]6)C=C5)C=C4)cc2)c1
REMARK SMILES IDX 30 1 29 2 28 3 27 4 25 5 26 6 24 7 8 8 9 9 10 10 23 11 7 12
REMARK SMILES IDX 3 13 4 14 84 15 5 16 6 17 2 18 1 19 11 20 12 21 16 22 13 23
REMARK SMILES IDX 15 24 14 25 22 26 20 27 21 28 17 29 18 30 19 31 31 34 32 35
REMARK SMILES IDX 33 36 34 37 35 38 36 39 37 40 83 41 38 42 82 43 39 44 40 45
REMARK SMILES IDX 41 46 76 47 42 48 81 49 75 50 77 51 43 52 80 53 74 54 73 55
REMARK SMILES IDX 44 57 66 58 51 59 65 60 52 61 55 62 64 63 78 64 53 65 54 66
REMARK SMILES IDX 63 68 79 69 56 70 45 71 46 72 50 73 47 74 49 75 48 76 67 77
REMARK SMILES IDX 68 78 72 79 69 80 71 81 70 82 57 83 58 84 62 85 59 86 61 87
REMARK SMILES IDX 60 88
REMARK H PARENT 18 32 18 33 77 56 55 67
REMARK Flexibility Score: inf
ROOT
ATOM      1  O   UNL A   1      33.729  30.028  27.614  1.00  0.00    -0.374 OA
ENDROOT
BRANCH   1   2
ATOM      2  C   UNL A   1      32.457  30.341  27.045  1.00  0.00     0.202 C 
BRANCH   2   3
ATOM      3  C   UNL A   1      31.778  29.310  26.141  1.00  0.00     0.261 C 
BRANCH   3   4
ATOM      4  O   UNL A   1      32.702  28.333  25.640  1.00  0.00    -0.460 OA
BRANCH   4   5
ATOM      5  C   UNL A   1      32.739  28.215  24.277  1.00  0.00     0.342 C 
ATOM      6  O   UNL A   1      33.283  29.006  23.525  1.00  0.00    -0.246 OA
BRANCH   5   7
ATOM      7  C   UNL A   1      32.143  26.981  23.820  1.00  0.00     0.106 A 
ATOM      8  C   UNL A   1      30.807  26.735  23.398  1.00  0.00     0.107 A 
ATOM      9  N   UNL A   1      30.603  25.419  23.196  1.00  0.00    -0.167 NA
ATOM     10  N   UNL A   1      31.728  24.852  23.709  1.00  0.00    -0.239 N 
ATOM     11  C   UNL A   1      32.762  25.755  23.714  1.00  0.00     0.131 A 
BRANCH   8  12
ATOM     12  C   UNL A   1      29.789  27.743  23.122  1.00  0.00     0.007 A 
ATOM     13  C   UNL A   1      29.078  29.771  22.006  1.00  0.00     0.119 A 
ATOM     14  C   UNL A   1      27.757  29.508  22.377  1.00  0.00     0.046 A 
ATOM     15  C   UNL A   1      30.097  28.888  22.376  1.00  0.00     0.056 A 
ATOM     16  C   UNL A   1      27.446  28.377  23.127  1.00  0.00     0.005 A 
ATOM     17  C   UNL A   1      28.466  27.512  23.520  1.00  0.00     0.011 A 
BRANCH  13  18
ATOM     18  O   UNL A   1      29.265  30.950  21.337  1.00  0.00    -0.497 OA
ATOM     19  C   UNL A   1      28.564  32.068  21.869  1.00  0.00     0.278 C 
ENDBRANCH  13  18
ENDBRANCH   8  12
BRANCH  10  20
ATOM     20  C   UNL A   1      31.788  23.490  24.099  1.00  0.00     0.081 A 
ATOM     21  C   UNL A   1      32.000  22.529  23.089  1.00  0.00     0.079 A 
ATOM     22  C   UNL A   1      31.648  23.090  25.466  1.00  0.00     0.069 A 
ATOM     23  C   UNL A   1      32.147  21.215  23.479  1.00  0.00     0.167 A 
ATOM     24  C   UNL A   1      31.936  21.760  25.815  1.00  0.00     0.066 A 
ATOM     25  C   UNL A   1      32.151  20.853  24.804  1.00  0.00     0.166 A 
ATOM     26  O   UNL A   1      32.293  20.138  22.661  1.00  0.00    -0.454 OA
ATOM     27  O   UNL A   1      32.304  19.513  24.980  1.00  0.00    -0.454 OA
ATOM     28  C   UNL A   1      32.166  19.063  23.617  1.00  0.00     0.468 C 
BRANCH  22  29
ATOM     29  C   UNL A   1      30.958  23.953  26.497  1.00  0.00     0.251 C 
ATOM     30  N   UNL A   1      29.655  23.689  26.819  1.00  0.00    -0.366 N 
ATOM     31  O   UNL A   1      31.457  24.945  27.010  1.00  0.00    -0.269 OA
ATOM     32  H   UNL A   1      29.203  22.904  26.436  1.00  0.00     0.159 HD
ATOM     33  H   UNL A   1      29.169  24.286  27.434  1.00  0.00     0.159 HD
ENDBRANCH  22  29
ENDBRANCH  10  20
ENDBRANCH   5   7
ENDBRANCH   4   5
ENDBRANCH   3   4
ENDBRANCH   2   3
ENDBRANCH   1   2
BRANCH   1  34
ATOM     34  C   UNL A   1      34.886  30.766  27.245  1.00  0.00     0.202 C 
BRANCH  34  35
ATOM     35  C   UNL A   1      35.577  31.633  28.289  1.00  0.00     0.261 C 
BRANCH  35  36
ATOM     36  O   UNL A   1      36.857  31.155  28.650  1.00  0.00    -0.460 OA
BRANCH  36  37
ATOM     37  C   UNL A   1      36.798  29.990  29.334  1.00  0.00     0.338 C 
ATOM     38  O   UNL A   1      36.140  29.744  30.329  1.00  0.00    -0.246 OA
BRANCH  37  39
ATOM     39  C   UNL A   1      37.827  29.095  28.803  1.00  0.00     0.060 A 
ATOM     40  C   UNL A   1      38.320  28.151  29.704  1.00  0.00     0.016 A 
ATOM     41  C   UNL A   1      38.509  29.445  27.628  1.00  0.00     0.016 A 
ATOM     42  C   UNL A   1      39.629  27.764  29.567  1.00  0.00     0.010 A 
ATOM     43  C   UNL A   1      39.819  29.064  27.498  1.00  0.00     0.010 A 
ATOM     44  C   UNL A   1      40.384  28.315  28.524  1.00  0.00    -0.014 A 
BRANCH  44  45
ATOM     45  C   UNL A   1      41.777  27.954  28.448  1.00  0.00     0.031 A 
ATOM     46  C   UNL A   1      41.945  26.715  27.671  1.00  0.00     0.074 A 
ATOM     47  C   UNL A   1      42.772  28.700  28.962  1.00  0.00     0.049 A 
ATOM     48  N   UNL A   1      42.070  25.523  28.144  1.00  0.00    -0.248 NA
ATOM     49  C   UNL A   1      41.669  26.771  26.226  1.00  0.00     0.031 C 
ATOM     50  C   UNL A   1      42.701  30.073  29.470  1.00  0.00     0.029 A 
ATOM     51  N   UNL A   1      44.096  28.409  29.048  1.00  0.00    -0.354 N 
ATOM     52  C   UNL A   1      42.169  24.710  27.025  1.00  0.00     0.074 A 
ATOM     53  C   UNL A   1      41.640  25.471  25.926  1.00  0.00     0.031 C 
ATOM     54  C   UNL A   1      43.956  30.571  29.578  1.00  0.00     0.029 A 
ATOM     55  C   UNL A   1      44.908  29.507  29.303  1.00  0.00     0.049 A 
ATOM     56  H   UNL A   1      44.451  27.497  28.941  1.00  0.00     0.167 HD
ATOM     57  C   UNL A   1      43.053  23.676  27.022  1.00  0.00     0.031 A 
ATOM     58  C   UNL A   1      46.261  29.525  29.236  1.00  0.00     0.031 A 
ATOM     59  C   UNL A   1      43.524  23.397  28.357  1.00  0.00     0.049 A 
ATOM     60  C   UNL A   1      46.729  28.126  29.366  1.00  0.00     0.074 A 
ATOM     61  C   UNL A   1      43.033  22.804  29.498  1.00  0.00     0.029 A 
ATOM     62  N   UNL A   1      44.581  24.189  28.729  1.00  0.00    -0.354 N 
ATOM     63  N   UNL A   1      46.589  27.431  30.458  1.00  0.00    -0.248 NA
ATOM     64  C   UNL A   1      47.018  27.351  28.165  1.00  0.00     0.031 C 
ATOM     65  C   UNL A   1      43.749  23.386  30.588  1.00  0.00     0.029 A 
ATOM     66  C   UNL A   1      44.693  24.280  30.087  1.00  0.00     0.049 A 
ATOM     67  H   UNL A   1      45.186  24.637  28.093  1.00  0.00     0.167 HD
ATOM     68  C   UNL A   1      46.332  26.148  30.016  1.00  0.00     0.074 A 
ATOM     69  C   UNL A   1      46.781  26.121  28.628  1.00  0.00     0.031 C 
ATOM     70  C   UNL A   1      45.482  25.328  30.700  1.00  0.00     0.031 A 
BRANCH  57  71
ATOM     71  C   UNL A   1      43.921  23.348  25.823  1.00  0.00    -0.014 A 
ATOM     72  C   UNL A   1      43.874  22.041  25.309  1.00  0.00     0.009 A 
ATOM     73  C   UNL A   1      44.983  24.160  25.374  1.00  0.00     0.009 A 
ATOM     74  C   UNL A   1      44.864  21.562  24.443  1.00  0.00     0.001 A 
ATOM     75  C   UNL A   1      45.955  23.696  24.486  1.00  0.00     0.001 A 
ATOM     76  C   UNL A   1      45.908  22.387  24.037  1.00  0.00     0.000 A 
ENDBRANCH  57  71
BRANCH  58  77
ATOM     77  C   UNL A   1      47.164  30.604  28.779  1.00  0.00    -0.014 A 
ATOM     78  C   UNL A   1      48.372  30.862  29.449  1.00  0.00     0.009 A 
ATOM     79  C   UNL A   1      46.990  31.169  27.503  1.00  0.00     0.009 A 
ATOM     80  C   UNL A   1      49.387  31.614  28.841  1.00  0.00     0.001 A 
ATOM     81  C   UNL A   1      48.004  31.918  26.896  1.00  0.00     0.001 A 
ATOM     82  C   UNL A   1      49.210  32.126  27.558  1.00  0.00     0.000 A 
ENDBRANCH  58  77
BRANCH  70  83
ATOM     83  C   UNL A   1      45.240  25.633  32.150  1.00  0.00    -0.014 A 
ATOM     84  C   UNL A   1      44.172  26.412  32.625  1.00  0.00     0.009 A 
ATOM     85  C   UNL A   1      46.098  25.029  33.081  1.00  0.00     0.009 A 
ATOM     86  C   UNL A   1      43.985  26.592  34.001  1.00  0.00     0.001 A 
ATOM     87  C   UNL A   1      45.899  25.193  34.450  1.00  0.00     0.001 A 
ATOM     88  C   UNL A   1      44.847  25.979  34.911  1.00  0.00     0.000 A 
ENDBRANCH  70  83
ENDBRANCH  44  45
ENDBRANCH  37  39
ENDBRANCH  36  37
ENDBRANCH  35  36
ENDBRANCH  34  35
ENDBRANCH   1  34
TORSDOF 18
ENDMDL
