MODEL 1
REMARK VINA RESULT:     -11.6      0.000      0.000
REMARK SMILES Cc1cccc2c1[C@H]1c3c(C)cccc3[C@H](CC(=O)OCCOCCOC(=O)c3ccc(-c4c5nc(c(-c6ccccc6)c6ccc([nH]6)c(-c6ccccc6)c6nc(c(-c7ccccc7)c7ccc4[nH]7)C=C6)C=C5)cc3)C[C@H]1CC2
REMARK SMILES IDX 24 1 23 2 22 3 21 4 20 5 18 6 19 7 17 8 16 9 1 10 2 11 3 12
REMARK SMILES IDX 7 13 4 14 6 15 8 16 5 17 80 18 9 19 78 20 79 21 10 22 15 23
REMARK SMILES IDX 77 24 12 25 11 26 14 27 13 28 25 29 26 30 27 31 28 32 29 33
REMARK SMILES IDX 30 34 76 35 31 36 75 37 32 38 33 39 34 40 69 41 35 42 74 43
REMARK SMILES IDX 68 44 70 45 36 46 73 47 67 48 66 49 37 51 59 52 44 53 58 54
REMARK SMILES IDX 45 55 48 56 57 57 71 58 46 59 47 60 56 62 72 63 49 64 38 65
REMARK SMILES IDX 39 66 43 67 40 68 42 69 41 70 60 71 61 72 65 73 62 74 64 75
REMARK SMILES IDX 63 76 50 77 51 78 55 79 52 80 54 81 53 82
REMARK H PARENT 70 50 48 61
REMARK Flexibility Score: inf
ROOT
ATOM      1  C   UNL A   1      34.380  33.718  29.123  1.00  0.00     0.202 C 
ENDROOT
BRANCH   1   2
ATOM      2  O   UNL A   1      33.624  32.703  28.457  1.00  0.00    -0.374 OA
BRANCH   2   3
ATOM      3  C   UNL A   1      34.329  31.794  27.618  1.00  0.00     0.202 C 
BRANCH   3   4
ATOM      4  C   UNL A   1      33.859  30.330  27.615  1.00  0.00     0.261 C 
BRANCH   4   5
ATOM      5  O   UNL A   1      32.754  30.109  26.725  1.00  0.00    -0.463 OA
BRANCH   5   6
ATOM      6  C   UNL A   1      32.970  29.163  25.775  1.00  0.00     0.306 C 
ATOM      7  O   UNL A   1      34.017  28.542  25.625  1.00  0.00    -0.252 OA
BRANCH   6   8
ATOM      8  C   UNL A   1      31.722  28.840  24.996  1.00  0.00     0.131 C 
BRANCH   8   9
ATOM      9  C   UNL A   1      31.150  27.416  25.177  1.00  0.00     0.031 C 
ATOM     10  C   UNL A   1      35.943  24.074  25.768  1.00  0.00     0.044 C 
ATOM     11  C   UNL A   1      34.753  23.154  25.649  1.00  0.00    -0.047 A 
ATOM     12  C   UNL A   1      35.040  21.776  25.602  1.00  0.00     0.004 A 
ATOM     13  C   UNL A   1      33.402  23.590  25.636  1.00  0.00    -0.034 A 
ATOM     14  C   UNL A   1      34.022  20.830  25.580  1.00  0.00     0.001 A 
ATOM     15  C   UNL A   1      32.384  22.614  25.763  1.00  0.00    -0.044 A 
ATOM     16  C   UNL A   1      33.001  25.061  25.480  1.00  0.00     0.053 C 
ATOM     17  C   UNL A   1      32.703  21.247  25.695  1.00  0.00     0.004 A 
ATOM     18  C   UNL A   1      30.962  22.969  26.131  1.00  0.00     0.036 C 
ATOM     19  C   UNL A   1      32.579  25.543  24.067  1.00  0.00    -0.034 A 
ATOM     20  C   UNL A   1      31.858  25.322  26.499  1.00  0.00     0.002 C 
ATOM     21  C   UNL A   1      30.627  24.457  26.189  1.00  0.00     0.009 C 
ATOM     22  C   UNL A   1      33.110  25.060  22.838  1.00  0.00    -0.047 A 
ATOM     23  C   UNL A   1      31.613  26.585  23.979  1.00  0.00    -0.040 A 
ATOM     24  C   UNL A   1      31.545  26.819  26.539  1.00  0.00     0.013 C 
ATOM     25  C   UNL A   1      32.575  25.506  21.608  1.00  0.00     0.004 A 
ATOM     26  C   UNL A   1      34.248  24.088  22.712  1.00  0.00     0.044 C 
ATOM     27  C   UNL A   1      31.062  26.958  22.732  1.00  0.00     0.004 A 
ATOM     28  C   UNL A   1      31.541  26.423  21.553  1.00  0.00     0.001 A 
ENDBRANCH   8   9
ENDBRANCH   6   8
ENDBRANCH   5   6
ENDBRANCH   4   5
ENDBRANCH   3   4
ENDBRANCH   2   3
ENDBRANCH   1   2
BRANCH   1  29
ATOM     29  C   UNL A   1      34.492  33.632  30.649  1.00  0.00     0.261 C 
BRANCH  29  30
ATOM     30  O   UNL A   1      34.557  32.263  31.100  1.00  0.00    -0.460 OA
BRANCH  30  31
ATOM     31  C   UNL A   1      35.531  32.023  32.007  1.00  0.00     0.338 C 
ATOM     32  O   UNL A   1      35.550  32.357  33.184  1.00  0.00    -0.246 OA
BRANCH  31  33
ATOM     33  C   UNL A   1      36.556  31.137  31.437  1.00  0.00     0.060 A 
ATOM     34  C   UNL A   1      37.558  30.655  32.288  1.00  0.00     0.016 A 
ATOM     35  C   UNL A   1      36.636  30.943  30.058  1.00  0.00     0.016 A 
ATOM     36  C   UNL A   1      38.674  30.015  31.754  1.00  0.00     0.010 A 
ATOM     37  C   UNL A   1      37.766  30.316  29.522  1.00  0.00     0.010 A 
ATOM     38  C   UNL A   1      38.809  29.892  30.364  1.00  0.00    -0.014 A 
BRANCH  38  39
ATOM     39  C   UNL A   1      40.124  29.503  29.802  1.00  0.00     0.031 A 
ATOM     40  C   UNL A   1      40.301  28.103  29.276  1.00  0.00     0.074 A 
ATOM     41  C   UNL A   1      41.123  30.395  29.689  1.00  0.00     0.049 A 
ATOM     42  N   UNL A   1      41.352  27.557  28.719  1.00  0.00    -0.248 NA
ATOM     43  C   UNL A   1      39.136  27.207  29.373  1.00  0.00     0.031 C 
ATOM     44  C   UNL A   1      41.053  31.800  30.084  1.00  0.00     0.029 A 
ATOM     45  N   UNL A   1      42.391  30.246  29.185  1.00  0.00    -0.354 N 
ATOM     46  C   UNL A   1      40.970  26.264  28.385  1.00  0.00     0.074 A 
ATOM     47  C   UNL A   1      39.602  26.094  28.823  1.00  0.00     0.031 C 
ATOM     48  C   UNL A   1      42.226  32.392  29.794  1.00  0.00     0.029 A 
ATOM     49  C   UNL A   1      43.136  31.400  29.220  1.00  0.00     0.049 A 
ATOM     50  H   UNL A   1      42.736  29.395  28.833  1.00  0.00     0.167 HD
ATOM     51  C   UNL A   1      41.690  25.305  27.760  1.00  0.00     0.031 A 
ATOM     52  C   UNL A   1      44.407  31.628  28.840  1.00  0.00     0.031 A 
ATOM     53  C   UNL A   1      43.055  25.455  27.341  1.00  0.00     0.049 A 
ATOM     54  C   UNL A   1      45.228  30.507  28.264  1.00  0.00     0.074 A 
ATOM     55  C   UNL A   1      43.871  24.523  26.725  1.00  0.00     0.029 A 
ATOM     56  N   UNL A   1      43.804  26.608  27.494  1.00  0.00    -0.354 N 
ATOM     57  N   UNL A   1      44.864  29.281  27.982  1.00  0.00    -0.248 NA
ATOM     58  C   UNL A   1      46.638  30.801  27.960  1.00  0.00     0.031 C 
ATOM     59  C   UNL A   1      45.129  25.101  26.539  1.00  0.00     0.029 A 
ATOM     60  C   UNL A   1      45.080  26.406  27.002  1.00  0.00     0.049 A 
ATOM     61  H   UNL A   1      43.477  27.447  27.894  1.00  0.00     0.167 HD
ATOM     62  C   UNL A   1      45.990  28.664  27.452  1.00  0.00     0.074 A 
ATOM     63  C   UNL A   1      47.050  29.649  27.447  1.00  0.00     0.031 C 
ATOM     64  C   UNL A   1      46.126  27.392  27.004  1.00  0.00     0.031 A 
BRANCH  51  65
ATOM     65  C   UNL A   1      41.022  23.990  27.496  1.00  0.00    -0.014 A 
ATOM     66  C   UNL A   1      39.991  23.891  26.550  1.00  0.00     0.009 A 
ATOM     67  C   UNL A   1      41.486  22.827  28.129  1.00  0.00     0.009 A 
ATOM     68  C   UNL A   1      39.435  22.648  26.244  1.00  0.00     0.001 A 
ATOM     69  C   UNL A   1      40.938  21.584  27.809  1.00  0.00     0.001 A 
ATOM     70  C   UNL A   1      39.913  21.496  26.868  1.00  0.00     0.000 A 
ENDBRANCH  51  65
BRANCH  52  71
ATOM     71  C   UNL A   1      44.990  32.985  28.994  1.00  0.00    -0.014 A 
ATOM     72  C   UNL A   1      44.795  33.957  28.003  1.00  0.00     0.009 A 
ATOM     73  C   UNL A   1      45.734  33.314  30.137  1.00  0.00     0.009 A 
ATOM     74  C   UNL A   1      45.342  35.234  28.151  1.00  0.00     0.001 A 
ATOM     75  C   UNL A   1      46.264  34.596  30.291  1.00  0.00     0.001 A 
ATOM     76  C   UNL A   1      46.071  35.554  29.295  1.00  0.00     0.000 A 
ENDBRANCH  52  71
BRANCH  64  77
ATOM     77  C   UNL A   1      47.459  26.977  26.455  1.00  0.00    -0.014 A 
ATOM     78  C   UNL A   1      48.405  26.341  27.271  1.00  0.00     0.009 A 
ATOM     79  C   UNL A   1      47.719  27.117  25.082  1.00  0.00     0.009 A 
ATOM     80  C   UNL A   1      49.592  25.856  26.721  1.00  0.00     0.001 A 
ATOM     81  C   UNL A   1      48.899  26.615  24.533  1.00  0.00     0.001 A 
ATOM     82  C   UNL A   1      49.835  25.985  25.352  1.00  0.00     0.000 A 
ENDBRANCH  64  77
ENDBRANCH  38  39
ENDBRANCH  31  33
ENDBRANCH  30  31
ENDBRANCH  29  30
ENDBRANCH   1  29
TORSDOF 15
ENDMDL
MODEL 2
REMARK VINA RESULT:     -11.6      4.013      9.194
REMARK SMILES Cc1cccc2c1[C@H]1c3c(C)cccc3[C@H](CC(=O)OCCOCCOC(=O)c3ccc(-c4c5nc(c(-c6ccccc6)c6ccc([nH]6)c(-c6ccccc6)c6nc(c(-c7ccccc7)c7ccc4[nH]7)C=C6)C=C5)cc3)C[C@H]1CC2
REMARK SMILES IDX 24 1 23 2 22 3 21 4 20 5 18 6 19 7 17 8 16 9 1 10 2 11 3 12
REMARK SMILES IDX 7 13 4 14 6 15 8 16 5 17 80 18 9 19 78 20 79 21 10 22 15 23
REMARK SMILES IDX 77 24 12 25 11 26 14 27 13 28 25 29 26 30 27 31 28 32 29 33
REMARK SMILES IDX 30 34 76 35 31 36 75 37 32 38 33 39 34 40 69 41 35 42 74 43
REMARK SMILES IDX 68 44 70 45 36 46 73 47 67 48 66 49 37 51 59 52 44 53 58 54
REMARK SMILES IDX 45 55 48 56 57 57 71 58 46 59 47 60 56 62 72 63 49 64 38 65
REMARK SMILES IDX 39 66 43 67 40 68 42 69 41 70 60 71 61 72 65 73 62 74 64 75
REMARK SMILES IDX 63 76 50 77 51 78 55 79 52 80 54 81 53 82
REMARK H PARENT 70 50 48 61
REMARK Flexibility Score: inf
ROOT
ATOM      1  C   UNL A   1      41.548  20.935  27.222  1.00  0.00     0.202 C 
ENDROOT
BRANCH   1   2
ATOM      2  O   UNL A   1      40.183  21.353  27.293  1.00  0.00    -0.374 OA
BRANCH   2   3
ATOM      3  C   UNL A   1      39.446  21.419  26.076  1.00  0.00     0.202 C 
BRANCH   3   4
ATOM      4  C   UNL A   1      38.278  22.417  26.015  1.00  0.00     0.261 C 
BRANCH   4   5
ATOM      5  O   UNL A   1      37.163  21.914  25.263  1.00  0.00    -0.463 OA
BRANCH   5   6
ATOM      6  C   UNL A   1      35.948  22.353  25.683  1.00  0.00     0.306 C 
ATOM      7  O   UNL A   1      35.764  23.319  26.416  1.00  0.00    -0.252 OA
BRANCH   6   8
ATOM      8  C   UNL A   1      34.814  21.607  25.030  1.00  0.00     0.131 C 
BRANCH   8   9
ATOM      9  C   UNL A   1      33.973  22.400  24.005  1.00  0.00     0.031 C 
ATOM     10  C   UNL A   1      34.027  27.878  26.119  1.00  0.00     0.044 C 
ATOM     11  C   UNL A   1      33.049  27.838  24.972  1.00  0.00    -0.047 A 
ATOM     12  C   UNL A   1      32.326  29.024  24.735  1.00  0.00     0.004 A 
ATOM     13  C   UNL A   1      32.867  26.722  24.114  1.00  0.00    -0.034 A 
ATOM     14  C   UNL A   1      31.460  29.133  23.654  1.00  0.00     0.001 A 
ATOM     15  C   UNL A   1      32.099  26.902  22.938  1.00  0.00    -0.044 A 
ATOM     16  C   UNL A   1      33.452  25.337  24.410  1.00  0.00     0.053 C 
ATOM     17  C   UNL A   1      31.375  28.091  22.741  1.00  0.00     0.004 A 
ATOM     18  C   UNL A   1      32.140  25.926  21.785  1.00  0.00     0.036 C 
ATOM     19  C   UNL A   1      32.510  24.283  25.051  1.00  0.00    -0.034 A 
ATOM     20  C   UNL A   1      34.025  24.799  23.070  1.00  0.00     0.002 C 
ATOM     21  C   UNL A   1      32.919  24.634  22.018  1.00  0.00     0.009 C 
ATOM     22  C   UNL A   1      31.462  24.565  25.970  1.00  0.00    -0.047 A 
ATOM     23  C   UNL A   1      32.730  22.913  24.735  1.00  0.00    -0.040 A 
ATOM     24  C   UNL A   1      34.802  23.508  23.332  1.00  0.00     0.013 C 
ATOM     25  C   UNL A   1      30.606  23.531  26.412  1.00  0.00     0.004 A 
ATOM     26  C   UNL A   1      31.170  25.916  26.560  1.00  0.00     0.044 C 
ATOM     27  C   UNL A   1      31.816  21.919  25.148  1.00  0.00     0.004 A 
ATOM     28  C   UNL A   1      30.759  22.225  25.983  1.00  0.00     0.001 A 
ENDBRANCH   8   9
ENDBRANCH   6   8
ENDBRANCH   5   6
ENDBRANCH   4   5
ENDBRANCH   3   4
ENDBRANCH   2   3
ENDBRANCH   1   2
BRANCH   1  29
ATOM     29  C   UNL A   1      42.421  21.550  26.124  1.00  0.00     0.261 C 
BRANCH  29  30
ATOM     30  O   UNL A   1      43.168  22.684  26.612  1.00  0.00    -0.460 OA
BRANCH  30  31
ATOM     31  C   UNL A   1      43.108  23.774  25.812  1.00  0.00     0.338 C 
ATOM     32  O   UNL A   1      43.397  23.843  24.626  1.00  0.00    -0.246 OA
BRANCH  31  33
ATOM     33  C   UNL A   1      42.477  24.897  26.522  1.00  0.00     0.060 A 
ATOM     34  C   UNL A   1      43.216  26.076  26.677  1.00  0.00     0.016 A 
ATOM     35  C   UNL A   1      41.262  24.722  27.185  1.00  0.00     0.016 A 
ATOM     36  C   UNL A   1      42.761  27.072  27.539  1.00  0.00     0.010 A 
ATOM     37  C   UNL A   1      40.817  25.716  28.064  1.00  0.00     0.010 A 
ATOM     38  C   UNL A   1      41.587  26.872  28.278  1.00  0.00    -0.014 A 
BRANCH  38  39
ATOM     39  C   UNL A   1      41.287  27.782  29.410  1.00  0.00     0.031 A 
ATOM     40  C   UNL A   1      40.135  28.742  29.279  1.00  0.00     0.074 A 
ATOM     41  C   UNL A   1      41.974  27.707  30.562  1.00  0.00     0.049 A 
ATOM     42  N   UNL A   1      39.678  29.607  30.149  1.00  0.00    -0.248 NA
ATOM     43  C   UNL A   1      39.388  28.712  28.009  1.00  0.00     0.031 C 
ATOM     44  C   UNL A   1      43.056  26.768  30.845  1.00  0.00     0.029 A 
ATOM     45  N   UNL A   1      41.843  28.433  31.720  1.00  0.00    -0.354 N 
ATOM     46  C   UNL A   1      38.584  30.209  29.541  1.00  0.00     0.074 A 
ATOM     47  C   UNL A   1      38.457  29.633  28.220  1.00  0.00     0.031 C 
ATOM     48  C   UNL A   1      43.483  26.963  32.105  1.00  0.00     0.029 A 
ATOM     49  C   UNL A   1      42.723  28.060  32.706  1.00  0.00     0.049 A 
ATOM     50  H   UNL A   1      41.180  29.152  31.834  1.00  0.00     0.167 HD
ATOM     51  C   UNL A   1      37.751  31.150  30.041  1.00  0.00     0.031 A 
ATOM     52  C   UNL A   1      42.901  28.552  33.947  1.00  0.00     0.031 A 
ATOM     53  C   UNL A   1      37.880  31.743  31.341  1.00  0.00     0.049 A 
ATOM     54  C   UNL A   1      42.043  29.688  34.431  1.00  0.00     0.074 A 
ATOM     55  C   UNL A   1      37.095  32.726  31.918  1.00  0.00     0.029 A 
ATOM     56  N   UNL A   1      38.854  31.410  32.266  1.00  0.00    -0.354 N 
ATOM     57  N   UNL A   1      41.032  30.268  33.834  1.00  0.00    -0.248 NA
ATOM     58  C   UNL A   1      42.355  30.241  35.759  1.00  0.00     0.031 C 
ATOM     59  C   UNL A   1      37.619  33.016  33.180  1.00  0.00     0.029 A 
ATOM     60  C   UNL A   1      38.704  32.183  33.403  1.00  0.00     0.049 A 
ATOM     61  H   UNL A   1      39.550  30.726  32.133  1.00  0.00     0.167 HD
ATOM     62  C   UNL A   1      40.576  31.238  34.717  1.00  0.00     0.074 A 
ATOM     63  C   UNL A   1      41.416  31.169  35.893  1.00  0.00     0.031 C 
ATOM     64  C   UNL A   1      39.546  32.106  34.565  1.00  0.00     0.031 A 
BRANCH  51  65
ATOM     65  C   UNL A   1      36.621  31.614  29.173  1.00  0.00    -0.014 A 
ATOM     66  C   UNL A   1      35.534  30.769  28.903  1.00  0.00     0.009 A 
ATOM     67  C   UNL A   1      36.598  32.934  28.698  1.00  0.00     0.009 A 
ATOM     68  C   UNL A   1      34.444  31.239  28.169  1.00  0.00     0.001 A 
ATOM     69  C   UNL A   1      35.499  33.405  27.978  1.00  0.00     0.001 A 
ATOM     70  C   UNL A   1      34.424  32.557  27.714  1.00  0.00     0.000 A 
ENDBRANCH  51  65
BRANCH  52  71
ATOM     71  C   UNL A   1      43.946  27.970  34.826  1.00  0.00    -0.014 A 
ATOM     72  C   UNL A   1      45.258  28.464  34.790  1.00  0.00     0.009 A 
ATOM     73  C   UNL A   1      43.633  26.927  35.710  1.00  0.00     0.009 A 
ATOM     74  C   UNL A   1      46.240  27.917  35.620  1.00  0.00     0.001 A 
ATOM     75  C   UNL A   1      44.612  26.395  36.551  1.00  0.00     0.001 A 
ATOM     76  C   UNL A   1      45.916  26.888  36.502  1.00  0.00     0.000 A 
ENDBRANCH  52  71
BRANCH  64  77
ATOM     77  C   UNL A   1      39.246  33.050  35.691  1.00  0.00    -0.014 A 
ATOM     78  C   UNL A   1      38.407  32.665  36.746  1.00  0.00     0.009 A 
ATOM     79  C   UNL A   1      39.905  34.288  35.754  1.00  0.00     0.009 A 
ATOM     80  C   UNL A   1      38.229  33.508  37.844  1.00  0.00     0.001 A 
ATOM     81  C   UNL A   1      39.739  35.120  36.862  1.00  0.00     0.001 A 
ATOM     82  C   UNL A   1      38.901  34.730  37.905  1.00  0.00     0.000 A 
ENDBRANCH  64  77
ENDBRANCH  38  39
ENDBRANCH  31  33
ENDBRANCH  30  31
ENDBRANCH  29  30
ENDBRANCH   1  29
TORSDOF 15
ENDMDL
MODEL 3
REMARK VINA RESULT:     -11.6      3.971      9.135
REMARK SMILES Cc1cccc2c1[C@H]1c3c(C)cccc3[C@H](CC(=O)OCCOCCOC(=O)c3ccc(-c4c5nc(c(-c6ccccc6)c6ccc([nH]6)c(-c6ccccc6)c6nc(c(-c7ccccc7)c7ccc4[nH]7)C=C6)C=C5)cc3)C[C@H]1CC2
REMARK SMILES IDX 24 1 23 2 22 3 21 4 20 5 18 6 19 7 17 8 16 9 1 10 2 11 3 12
REMARK SMILES IDX 7 13 4 14 6 15 8 16 5 17 80 18 9 19 78 20 79 21 10 22 15 23
REMARK SMILES IDX 77 24 12 25 11 26 14 27 13 28 25 29 26 30 27 31 28 32 29 33
REMARK SMILES IDX 30 34 76 35 31 36 75 37 32 38 33 39 34 40 69 41 35 42 74 43
REMARK SMILES IDX 68 44 70 45 36 46 73 47 67 48 66 49 37 51 59 52 44 53 58 54
REMARK SMILES IDX 45 55 48 56 57 57 71 58 46 59 47 60 56 62 72 63 49 64 38 65
REMARK SMILES IDX 39 66 43 67 40 68 42 69 41 70 60 71 61 72 65 73 62 74 64 75
REMARK SMILES IDX 63 76 50 77 51 78 55 79 52 80 54 81 53 82
REMARK H PARENT 70 50 48 61
REMARK Flexibility Score: inf
ROOT
ATOM      1  C   UNL A   1      41.368  20.556  27.215  1.00  0.00     0.202 C 
ENDROOT
BRANCH   1   2
ATOM      2  O   UNL A   1      40.028  21.055  27.248  1.00  0.00    -0.374 OA
BRANCH   2   3
ATOM      3  C   UNL A   1      39.457  21.502  26.023  1.00  0.00     0.202 C 
BRANCH   3   4
ATOM      4  C   UNL A   1      38.315  22.527  26.113  1.00  0.00     0.261 C 
BRANCH   4   5
ATOM      5  O   UNL A   1      37.244  22.240  25.200  1.00  0.00    -0.463 OA
BRANCH   5   6
ATOM      6  C   UNL A   1      36.000  22.480  25.689  1.00  0.00     0.306 C 
ATOM      7  O   UNL A   1      35.722  23.344  26.513  1.00  0.00    -0.252 OA
BRANCH   6   8
ATOM      8  C   UNL A   1      34.946  21.656  24.995  1.00  0.00     0.131 C 
BRANCH   8   9
ATOM      9  C   UNL A   1      34.059  22.400  23.971  1.00  0.00     0.031 C 
ATOM     10  C   UNL A   1      34.028  27.934  25.936  1.00  0.00     0.044 C 
ATOM     11  C   UNL A   1      33.023  27.839  24.815  1.00  0.00    -0.047 A 
ATOM     12  C   UNL A   1      32.264  28.999  24.565  1.00  0.00     0.004 A 
ATOM     13  C   UNL A   1      32.847  26.695  23.992  1.00  0.00    -0.034 A 
ATOM     14  C   UNL A   1      31.369  29.057  23.504  1.00  0.00     0.001 A 
ATOM     15  C   UNL A   1      32.046  26.824  22.833  1.00  0.00    -0.044 A 
ATOM     16  C   UNL A   1      33.474  25.333  24.310  1.00  0.00     0.053 C 
ATOM     17  C   UNL A   1      31.288  27.989  22.622  1.00  0.00     0.004 A 
ATOM     18  C   UNL A   1      32.083  25.817  21.705  1.00  0.00     0.036 C 
ATOM     19  C   UNL A   1      32.576  24.275  25.004  1.00  0.00    -0.034 A 
ATOM     20  C   UNL A   1      34.028  24.773  22.971  1.00  0.00     0.002 C 
ATOM     21  C   UNL A   1      32.900  24.552  21.952  1.00  0.00     0.009 C 
ATOM     22  C   UNL A   1      31.544  24.555  25.941  1.00  0.00    -0.047 A 
ATOM     23  C   UNL A   1      32.823  22.902  24.719  1.00  0.00    -0.040 A 
ATOM     24  C   UNL A   1      34.844  23.509  23.248  1.00  0.00     0.013 C 
ATOM     25  C   UNL A   1      30.726  23.513  26.432  1.00  0.00     0.004 A 
ATOM     26  C   UNL A   1      31.233  25.914  26.502  1.00  0.00     0.044 C 
ATOM     27  C   UNL A   1      31.944  21.897  25.182  1.00  0.00     0.004 A 
ATOM     28  C   UNL A   1      30.901  22.200  26.034  1.00  0.00     0.001 A 
ENDBRANCH   8   9
ENDBRANCH   6   8
ENDBRANCH   5   6
ENDBRANCH   4   5
ENDBRANCH   3   4
ENDBRANCH   2   3
ENDBRANCH   1   2
BRANCH   1  29
ATOM     29  C   UNL A   1      42.348  21.221  26.243  1.00  0.00     0.261 C 
BRANCH  29  30
ATOM     30  O   UNL A   1      42.866  22.459  26.775  1.00  0.00    -0.460 OA
BRANCH  30  31
ATOM     31  C   UNL A   1      42.755  23.513  25.934  1.00  0.00     0.338 C 
ATOM     32  O   UNL A   1      43.030  23.547  24.743  1.00  0.00    -0.246 OA
BRANCH  31  33
ATOM     33  C   UNL A   1      42.089  24.637  26.608  1.00  0.00     0.060 A 
ATOM     34  C   UNL A   1      42.602  25.925  26.406  1.00  0.00     0.016 A 
ATOM     35  C   UNL A   1      41.102  24.404  27.566  1.00  0.00     0.016 A 
ATOM     36  C   UNL A   1      42.161  26.981  27.200  1.00  0.00     0.010 A 
ATOM     37  C   UNL A   1      40.673  25.463  28.374  1.00  0.00     0.010 A 
ATOM     38  C   UNL A   1      41.234  26.743  28.225  1.00  0.00    -0.014 A 
BRANCH  38  39
ATOM     39  C   UNL A   1      41.016  27.789  29.252  1.00  0.00     0.031 A 
ATOM     40  C   UNL A   1      41.995  27.902  30.390  1.00  0.00     0.074 A 
ATOM     41  C   UNL A   1      40.011  28.674  29.140  1.00  0.00     0.049 A 
ATOM     42  N   UNL A   1      42.016  28.756  31.381  1.00  0.00    -0.248 NA
ATOM     43  C   UNL A   1      43.110  26.938  30.402  1.00  0.00     0.031 C 
ATOM     44  C   UNL A   1      39.043  28.724  28.046  1.00  0.00     0.029 A 
ATOM     45  N   UNL A   1      39.653  29.717  29.958  1.00  0.00    -0.354 N 
ATOM     46  C   UNL A   1      43.148  28.444  32.122  1.00  0.00     0.074 A 
ATOM     47  C   UNL A   1      43.778  27.309  31.486  1.00  0.00     0.031 C 
ATOM     48  C   UNL A   1      38.207  29.757  28.253  1.00  0.00     0.029 A 
ATOM     49  C   UNL A   1      38.564  30.421  29.507  1.00  0.00     0.049 A 
ATOM     50  H   UNL A   1      40.130  29.939  30.789  1.00  0.00     0.167 HD
ATOM     51  C   UNL A   1      43.628  29.055  33.229  1.00  0.00     0.031 A 
ATOM     52  C   UNL A   1      37.924  31.476  30.046  1.00  0.00     0.031 A 
ATOM     53  C   UNL A   1      43.000  30.169  33.881  1.00  0.00     0.049 A 
ATOM     54  C   UNL A   1      38.404  32.056  31.347  1.00  0.00     0.074 A 
ATOM     55  C   UNL A   1      43.404  30.832  35.026  1.00  0.00     0.029 A 
ATOM     56  N   UNL A   1      41.838  30.782  33.448  1.00  0.00    -0.354 N 
ATOM     57  N   UNL A   1      39.459  31.732  32.054  1.00  0.00    -0.248 NA
ATOM     58  C   UNL A   1      37.602  33.144  31.930  1.00  0.00     0.031 C 
ATOM     59  C   UNL A   1      42.463  31.826  35.308  1.00  0.00     0.029 A 
ATOM     60  C   UNL A   1      41.498  31.805  34.314  1.00  0.00     0.049 A 
ATOM     61  H   UNL A   1      41.329  30.528  32.644  1.00  0.00     0.167 HD
ATOM     62  C   UNL A   1      39.458  32.586  33.150  1.00  0.00     0.074 A 
ATOM     63  C   UNL A   1      38.301  33.445  33.016  1.00  0.00     0.031 C 
ATOM     64  C   UNL A   1      40.344  32.651  34.173  1.00  0.00     0.031 A 
BRANCH  51  65
ATOM     65  C   UNL A   1      44.899  28.527  33.823  1.00  0.00    -0.014 A 
ATOM     66  C   UNL A   1      46.138  29.074  33.459  1.00  0.00     0.009 A 
ATOM     67  C   UNL A   1      44.850  27.541  34.820  1.00  0.00     0.009 A 
ATOM     68  C   UNL A   1      47.308  28.639  34.082  1.00  0.00     0.001 A 
ATOM     69  C   UNL A   1      46.021  27.120  35.452  1.00  0.00     0.001 A 
ATOM     70  C   UNL A   1      47.248  27.669  35.082  1.00  0.00     0.000 A 
ENDBRANCH  51  65
BRANCH  52  71
ATOM     71  C   UNL A   1      36.746  32.056  29.353  1.00  0.00    -0.014 A 
ATOM     72  C   UNL A   1      36.863  33.259  28.643  1.00  0.00     0.009 A 
ATOM     73  C   UNL A   1      35.505  31.404  29.392  1.00  0.00     0.009 A 
ATOM     74  C   UNL A   1      35.754  33.803  27.989  1.00  0.00     0.001 A 
ATOM     75  C   UNL A   1      34.403  31.940  28.723  1.00  0.00     0.001 A 
ATOM     76  C   UNL A   1      34.528  33.141  28.025  1.00  0.00     0.000 A 
ENDBRANCH  52  71
BRANCH  64  77
ATOM     77  C   UNL A   1      40.123  33.689  35.233  1.00  0.00    -0.014 A 
ATOM     78  C   UNL A   1      40.558  35.008  35.048  1.00  0.00     0.009 A 
ATOM     79  C   UNL A   1      39.367  33.368  36.372  1.00  0.00     0.009 A 
ATOM     80  C   UNL A   1      40.243  35.989  35.989  1.00  0.00     0.001 A 
ATOM     81  C   UNL A   1      39.039  34.355  37.302  1.00  0.00     0.001 A 
ATOM     82  C   UNL A   1      39.478  35.665  37.111  1.00  0.00     0.000 A 
ENDBRANCH  64  77
ENDBRANCH  38  39
ENDBRANCH  31  33
ENDBRANCH  30  31
ENDBRANCH  29  30
ENDBRANCH   1  29
TORSDOF 15
ENDMDL
