MODEL 1
REMARK VINA RESULT:     -10.3      0.000      0.000
REMARK SMILES O=C(/C=C/c1ccc(Br)cc1-n1ccnc1)OCCOCCOC(=O)c1ccc(-c2c3nc(c(-c4ccccc4)c4ccc([nH]4)c(-c4ccccc4)c4nc(c(-c5ccccc5)c5ccc2[nH]5)C=C4)C=C3)cc1
REMARK SMILES IDX 20 1 19 2 18 3 17 4 2 5 1 6 3 7 4 8 5 9 6 10 11 11 7 12
REMARK SMILES IDX 10 13 8 14 9 15 12 16 13 17 16 18 14 19 15 20 21 21 22 22
REMARK SMILES IDX 23 23 24 24 25 25 26 26 27 27 73 28 28 29 72 30 29 31 30 32
REMARK SMILES IDX 31 33 66 34 32 35 71 36 65 37 67 38 33 39 70 40 64 41 63 42
REMARK SMILES IDX 34 44 56 45 41 46 55 47 42 48 45 49 54 50 68 51 43 52 44 53
REMARK SMILES IDX 53 55 69 56 46 57 35 58 36 59 40 60 37 61 39 62 38 63 57 64
REMARK SMILES IDX 58 65 62 66 59 67 61 68 60 69 47 70 48 71 52 72 49 73 51 74
REMARK SMILES IDX 50 75
REMARK H PARENT 67 43 45 54
REMARK Flexibility Score: inf
ROOT
ATOM      1  O   UNL A   1      31.597  29.174  25.276  1.00  0.00    -0.374 OA
ENDROOT
BRANCH   1   2
ATOM      2  C   UNL A   1      32.596  28.288  24.771  1.00  0.00     0.202 C 
BRANCH   2   3
ATOM      3  C   UNL A   1      32.261  27.717  23.396  1.00  0.00     0.261 C 
BRANCH   3   4
ATOM      4  O   UNL A   1      33.338  26.976  22.800  1.00  0.00    -0.460 OA
BRANCH   4   5
ATOM      5  C   UNL A   1      33.276  25.831  22.091  1.00  0.00     0.330 C 
ATOM      6  O   UNL A   1      33.224  25.889  20.861  1.00  0.00    -0.247 OA
BRANCH   5   7
ATOM      7  C   UNL A   1      33.163  24.491  22.704  1.00  0.00     0.094 C 
ATOM      8  C   UNL A   1      34.036  23.476  22.808  1.00  0.00     0.018 C 
BRANCH   8   9
ATOM      9  C   UNL A   1      33.743  22.228  23.536  1.00  0.00    -0.001 A 
ATOM     10  C   UNL A   1      32.522  21.579  23.298  1.00  0.00     0.011 A 
ATOM     11  C   UNL A   1      34.653  21.603  24.411  1.00  0.00     0.055 A 
ATOM     12  C   UNL A   1      32.235  20.339  23.880  1.00  0.00     0.016 A 
ATOM     13  C   UNL A   1      34.374  20.358  24.996  1.00  0.00     0.043 A 
ATOM     14  C   UNL A   1      33.171  19.727  24.708  1.00  0.00     0.020 A 
ATOM     15  Br  UNL A   1      32.816  18.018  25.429  1.00  0.00    -0.051 Br
BRANCH  11  16
ATOM     16  N   UNL A   1      35.870  22.203  24.789  1.00  0.00    -0.306 N 
ATOM     17  C   UNL A   1      36.004  23.197  25.724  1.00  0.00     0.113 A 
ATOM     18  C   UNL A   1      37.120  21.653  24.631  1.00  0.00     0.204 A 
ATOM     19  C   UNL A   1      37.343  23.240  26.031  1.00  0.00     0.131 A 
ATOM     20  N   UNL A   1      38.035  22.284  25.337  1.00  0.00    -0.245 NA
ENDBRANCH  11  16
ENDBRANCH   8   9
ENDBRANCH   5   7
ENDBRANCH   4   5
ENDBRANCH   3   4
ENDBRANCH   2   3
ENDBRANCH   1   2
BRANCH   1  21
ATOM     21  C   UNL A   1      31.879  29.754  26.558  1.00  0.00     0.202 C 
BRANCH  21  22
ATOM     22  C   UNL A   1      33.092  30.667  26.505  1.00  0.00     0.261 C 
BRANCH  22  23
ATOM     23  O   UNL A   1      33.227  31.256  27.788  1.00  0.00    -0.460 OA
BRANCH  23  24
ATOM     24  C   UNL A   1      32.978  32.579  27.845  1.00  0.00     0.338 C 
ATOM     25  O   UNL A   1      32.103  33.193  27.248  1.00  0.00    -0.246 OA
BRANCH  24  26
ATOM     26  C   UNL A   1      34.055  33.204  28.620  1.00  0.00     0.060 A 
ATOM     27  C   UNL A   1      35.043  33.850  27.876  1.00  0.00     0.016 A 
ATOM     28  C   UNL A   1      34.283  32.715  29.912  1.00  0.00     0.016 A 
ATOM     29  C   UNL A   1      36.346  33.656  28.264  1.00  0.00     0.010 A 
ATOM     30  C   UNL A   1      35.577  32.449  30.251  1.00  0.00     0.010 A 
ATOM     31  C   UNL A   1      36.583  32.835  29.369  1.00  0.00    -0.014 A 
BRANCH  31  32
ATOM     32  C   UNL A   1      37.913  32.321  29.571  1.00  0.00     0.031 A 
ATOM     33  C   UNL A   1      38.069  30.900  29.246  1.00  0.00     0.074 A 
ATOM     34  C   UNL A   1      38.958  33.117  29.852  1.00  0.00     0.049 A 
ATOM     35  N   UNL A   1      38.203  29.917  30.071  1.00  0.00    -0.248 NA
ATOM     36  C   UNL A   1      37.903  30.509  27.839  1.00  0.00     0.031 C 
ATOM     37  C   UNL A   1      39.026  34.580  29.805  1.00  0.00     0.029 A 
ATOM     38  N   UNL A   1      40.236  32.746  30.117  1.00  0.00    -0.354 N 
ATOM     39  C   UNL A   1      38.312  28.794  29.266  1.00  0.00     0.074 A 
ATOM     40  C   UNL A   1      37.880  29.184  27.949  1.00  0.00     0.031 C 
ATOM     41  C   UNL A   1      40.328  34.953  29.818  1.00  0.00     0.029 A 
ATOM     42  C   UNL A   1      41.158  33.769  29.990  1.00  0.00     0.049 A 
ATOM     43  H   UNL A   1      40.485  31.830  30.377  1.00  0.00     0.167 HD
ATOM     44  C   UNL A   1      39.026  27.705  29.648  1.00  0.00     0.031 A 
ATOM     45  C   UNL A   1      42.501  33.619  29.939  1.00  0.00     0.031 A 
ATOM     46  C   UNL A   1      39.356  27.731  31.049  1.00  0.00     0.049 A 
ATOM     47  C   UNL A   1      42.833  32.263  30.448  1.00  0.00     0.074 A 
ATOM     48  C   UNL A   1      38.632  27.797  32.221  1.00  0.00     0.029 A 
ATOM     49  N   UNL A   1      40.648  28.071  31.379  1.00  0.00    -0.354 N 
ATOM     50  N   UNL A   1      42.710  31.903  31.693  1.00  0.00    -0.248 NA
ATOM     51  C   UNL A   1      42.931  31.166  29.497  1.00  0.00     0.031 C 
ATOM     52  C   UNL A   1      39.421  28.588  33.107  1.00  0.00     0.029 A 
ATOM     53  C   UNL A   1      40.592  28.943  32.436  1.00  0.00     0.049 A 
ATOM     54  H   UNL A   1      41.464  27.746  30.937  1.00  0.00     0.167 HD
ATOM     55  C   UNL A   1      42.299  30.578  31.647  1.00  0.00     0.074 A 
ATOM     56  C   UNL A   1      42.581  30.144  30.283  1.00  0.00     0.031 C 
ATOM     57  C   UNL A   1      41.505  30.052  32.627  1.00  0.00     0.031 A 
BRANCH  44  58
ATOM     58  C   UNL A   1      39.756  26.833  28.663  1.00  0.00    -0.014 A 
ATOM     59  C   UNL A   1      39.373  25.491  28.537  1.00  0.00     0.009 A 
ATOM     60  C   UNL A   1      40.957  27.214  28.029  1.00  0.00     0.009 A 
ATOM     61  C   UNL A   1      40.169  24.575  27.839  1.00  0.00     0.001 A 
ATOM     62  C   UNL A   1      41.725  26.317  27.286  1.00  0.00     0.001 A 
ATOM     63  C   UNL A   1      41.341  24.989  27.213  1.00  0.00     0.000 A 
ENDBRANCH  44  58
BRANCH  45  64
ATOM     64  C   UNL A   1      43.494  34.468  29.249  1.00  0.00    -0.014 A 
ATOM     65  C   UNL A   1      44.625  34.942  29.930  1.00  0.00     0.009 A 
ATOM     66  C   UNL A   1      43.457  34.621  27.851  1.00  0.00     0.009 A 
ATOM     67  C   UNL A   1      45.692  35.521  29.232  1.00  0.00     0.001 A 
ATOM     68  C   UNL A   1      44.518  35.208  27.155  1.00  0.00     0.001 A 
ATOM     69  C   UNL A   1      45.642  35.645  27.845  1.00  0.00     0.000 A 
ENDBRANCH  45  64
BRANCH  57  70
ATOM     70  C   UNL A   1      41.336  30.851  33.895  1.00  0.00    -0.014 A 
ATOM     71  C   UNL A   1      40.381  31.875  34.026  1.00  0.00     0.009 A 
ATOM     72  C   UNL A   1      42.061  30.471  35.034  1.00  0.00     0.009 A 
ATOM     73  C   UNL A   1      40.187  32.526  35.248  1.00  0.00     0.001 A 
ATOM     74  C   UNL A   1      41.852  31.106  36.261  1.00  0.00     0.001 A 
ATOM     75  C   UNL A   1      40.922  32.138  36.366  1.00  0.00     0.000 A 
ENDBRANCH  57  70
ENDBRANCH  31  32
ENDBRANCH  24  26
ENDBRANCH  23  24
ENDBRANCH  22  23
ENDBRANCH  21  22
ENDBRANCH   1  21
TORSDOF 16
ENDMDL
MODEL 2
REMARK VINA RESULT:     -10.2      4.901      9.563
REMARK SMILES O=C(/C=C/c1ccc(Br)cc1-n1ccnc1)OCCOCCOC(=O)c1ccc(-c2c3nc(c(-c4ccccc4)c4ccc([nH]4)c(-c4ccccc4)c4nc(c(-c5ccccc5)c5ccc2[nH]5)C=C4)C=C3)cc1
REMARK SMILES IDX 20 1 19 2 18 3 17 4 2 5 1 6 3 7 4 8 5 9 6 10 11 11 7 12
REMARK SMILES IDX 10 13 8 14 9 15 12 16 13 17 16 18 14 19 15 20 21 21 22 22
REMARK SMILES IDX 23 23 24 24 25 25 26 26 27 27 73 28 28 29 72 30 29 31 30 32
REMARK SMILES IDX 31 33 66 34 32 35 71 36 65 37 67 38 33 39 70 40 64 41 63 42
REMARK SMILES IDX 34 44 56 45 41 46 55 47 42 48 45 49 54 50 68 51 43 52 44 53
REMARK SMILES IDX 53 55 69 56 46 57 35 58 36 59 40 60 37 61 39 62 38 63 57 64
REMARK SMILES IDX 58 65 62 66 59 67 61 68 60 69 47 70 48 71 52 72 49 73 51 74
REMARK SMILES IDX 50 75
REMARK H PARENT 67 43 45 54
REMARK Flexibility Score: inf
ROOT
ATOM      1  O   UNL A   1      33.858  34.004  29.751  1.00  0.00    -0.374 OA
ENDROOT
BRANCH   1   2
ATOM      2  C   UNL A   1      33.260  35.287  29.939  1.00  0.00     0.202 C 
BRANCH   2   3
ATOM      3  C   UNL A   1      32.926  35.592  31.396  1.00  0.00     0.261 C 
BRANCH   3   4
ATOM      4  O   UNL A   1      33.707  34.838  32.338  1.00  0.00    -0.460 OA
BRANCH   4   5
ATOM      5  C   UNL A   1      34.837  35.205  32.975  1.00  0.00     0.330 C 
ATOM      6  O   UNL A   1      34.754  35.871  34.008  1.00  0.00    -0.247 OA
BRANCH   5   7
ATOM      7  C   UNL A   1      36.195  34.941  32.454  1.00  0.00     0.094 C 
ATOM      8  C   UNL A   1      36.664  34.018  31.600  1.00  0.00     0.018 C 
BRANCH   8   9
ATOM      9  C   UNL A   1      38.066  33.972  31.147  1.00  0.00    -0.001 A 
ATOM     10  C   UNL A   1      38.421  34.666  29.980  1.00  0.00     0.011 A 
ATOM     11  C   UNL A   1      39.096  33.328  31.861  1.00  0.00     0.055 A 
ATOM     12  C   UNL A   1      39.754  34.745  29.562  1.00  0.00     0.016 A 
ATOM     13  C   UNL A   1      40.436  33.407  31.449  1.00  0.00     0.043 A 
ATOM     14  C   UNL A   1      40.755  34.133  30.310  1.00  0.00     0.020 A 
ATOM     15  Br  UNL A   1      42.561  34.308  29.787  1.00  0.00    -0.051 Br
BRANCH  11  16
ATOM     16  N   UNL A   1      38.845  32.534  32.997  1.00  0.00    -0.306 N 
ATOM     17  C   UNL A   1      38.880  32.978  34.294  1.00  0.00     0.113 A 
ATOM     18  C   UNL A   1      38.141  31.354  33.014  1.00  0.00     0.204 A 
ATOM     19  C   UNL A   1      38.252  32.006  35.036  1.00  0.00     0.131 A 
ATOM     20  N   UNL A   1      37.805  30.991  34.234  1.00  0.00    -0.245 NA
ENDBRANCH  11  16
ENDBRANCH   8   9
ENDBRANCH   5   7
ENDBRANCH   4   5
ENDBRANCH   3   4
ENDBRANCH   2   3
ENDBRANCH   1   2
BRANCH   1  21
ATOM     21  C   UNL A   1      34.150  33.653  28.390  1.00  0.00     0.202 C 
BRANCH  21  22
ATOM     22  C   UNL A   1      33.847  32.191  28.111  1.00  0.00     0.261 C 
BRANCH  22  23
ATOM     23  O   UNL A   1      34.962  31.662  27.414  1.00  0.00    -0.460 OA
BRANCH  23  24
ATOM     24  C   UNL A   1      35.335  30.419  27.779  1.00  0.00     0.338 C 
ATOM     25  O   UNL A   1      34.880  29.360  27.366  1.00  0.00    -0.246 OA
BRANCH  24  26
ATOM     26  C   UNL A   1      36.272  30.544  28.900  1.00  0.00     0.060 A 
ATOM     27  C   UNL A   1      37.322  31.443  28.717  1.00  0.00     0.016 A 
ATOM     28  C   UNL A   1      36.344  29.473  29.798  1.00  0.00     0.016 A 
ATOM     29  C   UNL A   1      38.569  31.043  29.132  1.00  0.00     0.010 A 
ATOM     30  C   UNL A   1      37.591  29.034  30.135  1.00  0.00     0.010 A 
ATOM     31  C   UNL A   1      38.689  29.775  29.706  1.00  0.00    -0.014 A 
BRANCH  31  32
ATOM     32  C   UNL A   1      40.000  29.188  29.808  1.00  0.00     0.031 A 
ATOM     33  C   UNL A   1      40.516  29.091  31.177  1.00  0.00     0.074 A 
ATOM     34  C   UNL A   1      40.614  28.612  28.761  1.00  0.00     0.049 A 
ATOM     35  N   UNL A   1      41.442  29.807  31.719  1.00  0.00    -0.248 NA
ATOM     36  C   UNL A   1      39.810  28.191  32.100  1.00  0.00     0.031 C 
ATOM     37  C   UNL A   1      40.056  28.278  27.449  1.00  0.00     0.029 A 
ATOM     38  N   UNL A   1      41.862  28.081  28.722  1.00  0.00    -0.354 N 
ATOM     39  C   UNL A   1      41.551  29.321  33.012  1.00  0.00     0.074 A 
ATOM     40  C   UNL A   1      40.380  28.520  33.255  1.00  0.00     0.031 C 
ATOM     41  C   UNL A   1      40.891  27.410  26.830  1.00  0.00     0.029 A 
ATOM     42  C   UNL A   1      42.079  27.230  27.653  1.00  0.00     0.049 A 
ATOM     43  H   UNL A   1      42.553  28.282  29.394  1.00  0.00     0.167 HD
ATOM     44  C   UNL A   1      42.724  29.356  33.695  1.00  0.00     0.031 A 
ATOM     45  C   UNL A   1      43.122  26.379  27.520  1.00  0.00     0.031 A 
ATOM     46  C   UNL A   1      43.697  30.212  33.067  1.00  0.00     0.049 A 
ATOM     47  C   UNL A   1      44.181  26.795  28.476  1.00  0.00     0.074 A 
ATOM     48  C   UNL A   1      43.741  31.546  32.717  1.00  0.00     0.029 A 
ATOM     49  N   UNL A   1      44.704  29.598  32.361  1.00  0.00    -0.354 N 
ATOM     50  N   UNL A   1      44.886  27.883  28.353  1.00  0.00    -0.248 NA
ATOM     51  C   UNL A   1      44.195  26.200  29.805  1.00  0.00     0.031 C 
ATOM     52  C   UNL A   1      44.483  31.590  31.499  1.00  0.00     0.029 A 
ATOM     53  C   UNL A   1      44.868  30.286  31.186  1.00  0.00     0.049 A 
ATOM     54  H   UNL A   1      45.216  28.808  32.647  1.00  0.00     0.167 HD
ATOM     55  C   UNL A   1      45.082  28.335  29.650  1.00  0.00     0.074 A 
ATOM     56  C   UNL A   1      44.752  27.196  30.500  1.00  0.00     0.031 C 
ATOM     57  C   UNL A   1      45.211  29.669  29.920  1.00  0.00     0.031 A 
BRANCH  44  58
ATOM     58  C   UNL A   1      43.105  28.302  34.698  1.00  0.00    -0.014 A 
ATOM     59  C   UNL A   1      43.484  28.703  35.987  1.00  0.00     0.009 A 
ATOM     60  C   UNL A   1      43.335  26.952  34.359  1.00  0.00     0.009 A 
ATOM     61  C   UNL A   1      44.090  27.805  36.873  1.00  0.00     0.001 A 
ATOM     62  C   UNL A   1      43.888  26.041  35.258  1.00  0.00     0.001 A 
ATOM     63  C   UNL A   1      44.288  26.476  36.510  1.00  0.00     0.000 A 
ENDBRANCH  44  58
BRANCH  45  64
ATOM     64  C   UNL A   1      43.166  25.086  26.808  1.00  0.00    -0.014 A 
ATOM     65  C   UNL A   1      42.351  24.019  27.214  1.00  0.00     0.009 A 
ATOM     66  C   UNL A   1      43.836  24.968  25.577  1.00  0.00     0.009 A 
ATOM     67  C   UNL A   1      42.191  22.889  26.403  1.00  0.00     0.001 A 
ATOM     68  C   UNL A   1      43.684  23.835  24.770  1.00  0.00     0.001 A 
ATOM     69  C   UNL A   1      42.848  22.802  25.178  1.00  0.00     0.000 A 
ENDBRANCH  45  64
BRANCH  57  70
ATOM     70  C   UNL A   1      45.429  30.601  28.754  1.00  0.00    -0.014 A 
ATOM     71  C   UNL A   1      46.706  30.888  28.241  1.00  0.00     0.009 A 
ATOM     72  C   UNL A   1      44.311  31.094  28.066  1.00  0.00     0.009 A 
ATOM     73  C   UNL A   1      46.861  31.679  27.098  1.00  0.00     0.001 A 
ATOM     74  C   UNL A   1      44.464  31.865  26.910  1.00  0.00     0.001 A 
ATOM     75  C   UNL A   1      45.738  32.164  26.431  1.00  0.00     0.000 A 
ENDBRANCH  57  70
ENDBRANCH  31  32
ENDBRANCH  24  26
ENDBRANCH  23  24
ENDBRANCH  22  23
ENDBRANCH  21  22
ENDBRANCH   1  21
TORSDOF 16
ENDMDL
MODEL 3
REMARK VINA RESULT:     -10.1      5.365     10.091
REMARK SMILES O=C(/C=C/c1ccc(Br)cc1-n1ccnc1)OCCOCCOC(=O)c1ccc(-c2c3nc(c(-c4ccccc4)c4ccc([nH]4)c(-c4ccccc4)c4nc(c(-c5ccccc5)c5ccc2[nH]5)C=C4)C=C3)cc1
REMARK SMILES IDX 20 1 19 2 18 3 17 4 2 5 1 6 3 7 4 8 5 9 6 10 11 11 7 12
REMARK SMILES IDX 10 13 8 14 9 15 12 16 13 17 16 18 14 19 15 20 21 21 22 22
REMARK SMILES IDX 23 23 24 24 25 25 26 26 27 27 73 28 28 29 72 30 29 31 30 32
REMARK SMILES IDX 31 33 66 34 32 35 71 36 65 37 67 38 33 39 70 40 64 41 63 42
REMARK SMILES IDX 34 44 56 45 41 46 55 47 42 48 45 49 54 50 68 51 43 52 44 53
REMARK SMILES IDX 53 55 69 56 46 57 35 58 36 59 40 60 37 61 39 62 38 63 57 64
REMARK SMILES IDX 58 65 62 66 59 67 61 68 60 69 47 70 48 71 52 72 49 73 51 74
REMARK SMILES IDX 50 75
REMARK H PARENT 67 43 45 54
REMARK Flexibility Score: inf
ROOT
ATOM      1  O   UNL A   1      34.782  36.353  32.876  1.00  0.00    -0.374 OA
ENDROOT
BRANCH   1   2
ATOM      2  C   UNL A   1      34.772  35.333  33.876  1.00  0.00     0.202 C 
BRANCH   2   3
ATOM      3  C   UNL A   1      36.024  34.461  33.863  1.00  0.00     0.261 C 
BRANCH   3   4
ATOM      4  O   UNL A   1      35.989  33.387  34.818  1.00  0.00    -0.460 OA
BRANCH   4   5
ATOM      5  C   UNL A   1      36.973  32.961  35.636  1.00  0.00     0.330 C 
ATOM      6  O   UNL A   1      37.403  31.813  35.509  1.00  0.00    -0.247 OA
BRANCH   5   7
ATOM      7  C   UNL A   1      37.509  33.759  36.758  1.00  0.00     0.094 C 
ATOM      8  C   UNL A   1      38.261  33.423  37.819  1.00  0.00     0.018 C 
BRANCH   8   9
ATOM      9  C   UNL A   1      38.758  34.403  38.801  1.00  0.00    -0.001 A 
ATOM     10  C   UNL A   1      39.430  35.543  38.336  1.00  0.00     0.011 A 
ATOM     11  C   UNL A   1      38.535  34.299  40.188  1.00  0.00     0.055 A 
ATOM     12  C   UNL A   1      39.830  36.556  39.214  1.00  0.00     0.016 A 
ATOM     13  C   UNL A   1      38.930  35.314  41.075  1.00  0.00     0.043 A 
ATOM     14  C   UNL A   1      39.559  36.445  40.574  1.00  0.00     0.020 A 
ATOM     15  Br  UNL A   1      40.029  37.850  41.746  1.00  0.00    -0.051 Br
BRANCH  11  16
ATOM     16  N   UNL A   1      37.947  33.162  40.776  1.00  0.00    -0.306 N 
ATOM     17  C   UNL A   1      36.609  32.861  40.749  1.00  0.00     0.113 A 
ATOM     18  C   UNL A   1      38.597  31.992  41.090  1.00  0.00     0.204 A 
ATOM     19  C   UNL A   1      36.518  31.540  41.116  1.00  0.00     0.131 A 
ATOM     20  N   UNL A   1      37.759  31.007  41.339  1.00  0.00    -0.245 NA
ENDBRANCH  11  16
ENDBRANCH   8   9
ENDBRANCH   5   7
ENDBRANCH   4   5
ENDBRANCH   3   4
ENDBRANCH   2   3
ENDBRANCH   1   2
BRANCH   1  21
ATOM     21  C   UNL A   1      33.583  37.137  32.784  1.00  0.00     0.202 C 
BRANCH  21  22
ATOM     22  C   UNL A   1      32.540  36.465  31.907  1.00  0.00     0.261 C 
BRANCH  22  23
ATOM     23  O   UNL A   1      33.142  35.302  31.363  1.00  0.00    -0.460 OA
BRANCH  23  24
ATOM     24  C   UNL A   1      33.495  35.387  30.065  1.00  0.00     0.338 C 
ATOM     25  O   UNL A   1      33.285  36.322  29.302  1.00  0.00    -0.246 OA
BRANCH  24  26
ATOM     26  C   UNL A   1      34.030  34.083  29.660  1.00  0.00     0.060 A 
ATOM     27  C   UNL A   1      34.289  33.185  30.695  1.00  0.00     0.016 A 
ATOM     28  C   UNL A   1      34.675  34.011  28.420  1.00  0.00     0.016 A 
ATOM     29  C   UNL A   1      35.461  32.472  30.627  1.00  0.00     0.010 A 
ATOM     30  C   UNL A   1      35.880  33.372  28.388  1.00  0.00     0.010 A 
ATOM     31  C   UNL A   1      36.299  32.697  29.531  1.00  0.00    -0.014 A 
BRANCH  31  32
ATOM     32  C   UNL A   1      37.669  32.261  29.612  1.00  0.00     0.031 A 
ATOM     33  C   UNL A   1      37.872  30.842  29.302  1.00  0.00     0.074 A 
ATOM     34  C   UNL A   1      38.690  33.119  29.773  1.00  0.00     0.049 A 
ATOM     35  N   UNL A   1      38.139  29.889  30.129  1.00  0.00    -0.248 NA
ATOM     36  C   UNL A   1      37.593  30.407  27.926  1.00  0.00     0.031 C 
ATOM     37  C   UNL A   1      38.672  34.581  29.690  1.00  0.00     0.029 A 
ATOM     38  N   UNL A   1      40.006  32.823  29.919  1.00  0.00    -0.354 N 
ATOM     39  C   UNL A   1      38.233  28.754  29.340  1.00  0.00     0.074 A 
ATOM     40  C   UNL A   1      37.654  29.086  28.064  1.00  0.00     0.031 C 
ATOM     41  C   UNL A   1      39.946  35.024  29.568  1.00  0.00     0.029 A 
ATOM     42  C   UNL A   1      40.853  33.891  29.682  1.00  0.00     0.049 A 
ATOM     43  H   UNL A   1      40.331  31.929  30.172  1.00  0.00     0.167 HD
ATOM     44  C   UNL A   1      39.040  27.714  29.672  1.00  0.00     0.031 A 
ATOM     45  C   UNL A   1      42.192  33.812  29.502  1.00  0.00     0.031 A 
ATOM     46  C   UNL A   1      39.503  27.794  31.033  1.00  0.00     0.049 A 
ATOM     47  C   UNL A   1      42.646  32.489  30.003  1.00  0.00     0.074 A 
ATOM     48  C   UNL A   1      38.893  27.850  32.269  1.00  0.00     0.029 A 
ATOM     49  N   UNL A   1      40.799  28.210  31.227  1.00  0.00    -0.354 N 
ATOM     50  N   UNL A   1      42.665  32.154  31.261  1.00  0.00    -0.248 NA
ATOM     51  C   UNL A   1      42.713  31.375  29.069  1.00  0.00     0.031 C 
ATOM     52  C   UNL A   1      39.719  28.704  33.058  1.00  0.00     0.029 A 
ATOM     53  C   UNL A   1      40.798  29.105  32.267  1.00  0.00     0.049 A 
ATOM     54  H   UNL A   1      41.586  27.919  30.714  1.00  0.00     0.167 HD
ATOM     55  C   UNL A   1      42.326  30.809  31.282  1.00  0.00     0.074 A 
ATOM     56  C   UNL A   1      42.498  30.356  29.906  1.00  0.00     0.031 C 
ATOM     57  C   UNL A   1      41.661  30.265  32.346  1.00  0.00     0.031 A 
BRANCH  44  58
ATOM     58  C   UNL A   1      39.718  26.858  28.638  1.00  0.00    -0.014 A 
ATOM     59  C   UNL A   1      40.682  27.443  27.805  1.00  0.00     0.009 A 
ATOM     60  C   UNL A   1      39.280  25.563  28.290  1.00  0.00     0.009 A 
ATOM     61  C   UNL A   1      41.154  26.777  26.668  1.00  0.00     0.001 A 
ATOM     62  C   UNL A   1      39.789  24.873  27.190  1.00  0.00     0.001 A 
ATOM     63  C   UNL A   1      40.711  25.494  26.364  1.00  0.00     0.000 A 
ENDBRANCH  44  58
BRANCH  45  64
ATOM     64  C   UNL A   1      43.063  34.695  28.701  1.00  0.00    -0.014 A 
ATOM     65  C   UNL A   1      42.519  35.531  27.715  1.00  0.00     0.009 A 
ATOM     66  C   UNL A   1      44.408  34.896  29.062  1.00  0.00     0.009 A 
ATOM     67  C   UNL A   1      43.286  36.549  27.134  1.00  0.00     0.001 A 
ATOM     68  C   UNL A   1      45.177  35.906  28.476  1.00  0.00     0.001 A 
ATOM     69  C   UNL A   1      44.610  36.742  27.521  1.00  0.00     0.000 A 
ENDBRANCH  45  64
BRANCH  57  70
ATOM     70  C   UNL A   1      41.572  31.087  33.608  1.00  0.00    -0.014 A 
ATOM     71  C   UNL A   1      40.721  32.200  33.732  1.00  0.00     0.009 A 
ATOM     72  C   UNL A   1      42.257  30.646  34.750  1.00  0.00     0.009 A 
ATOM     73  C   UNL A   1      40.592  32.875  34.949  1.00  0.00     0.001 A 
ATOM     74  C   UNL A   1      42.112  31.307  35.972  1.00  0.00     0.001 A 
ATOM     75  C   UNL A   1      41.286  32.426  36.070  1.00  0.00     0.000 A 
ENDBRANCH  57  70
ENDBRANCH  31  32
ENDBRANCH  24  26
ENDBRANCH  23  24
ENDBRANCH  22  23
ENDBRANCH  21  22
ENDBRANCH   1  21
TORSDOF 16
ENDMDL
