MODEL 1
REMARK VINA RESULT:     -10.8      0.000      0.000
REMARK SMILES CC1=C(C)C[C@@H](C(=O)OCCOCCOC(=O)c2ccc(-c3c4nc(c(-c5ccccc5)c5ccc([nH]5)c(-c5ccccc5)c5nc(c(-c6ccccc6)c6ccc3[nH]6)C=C5)C=C4)cc2)[C@@H](C(=O)NCC[NH+]2CCOCC2)C1
REMARK SMILES IDX 11 1 10 2 9 3 7 4 8 5 6 6 1 7 2 8 3 9 78 10 4 11 5 12 66 13
REMARK SMILES IDX 67 14 68 15 69 16 70 18 71 19 72 20 73 21 77 22 74 24 76 25
REMARK SMILES IDX 75 26 12 27 13 28 14 29 15 30 16 31 17 32 18 33 19 34 65 35
REMARK SMILES IDX 20 36 64 37 21 38 22 39 23 40 58 41 24 42 63 43 57 44 59 45
REMARK SMILES IDX 25 46 62 47 56 48 55 49 26 51 48 52 33 53 47 54 34 55 37 56
REMARK SMILES IDX 46 57 60 58 35 59 36 60 45 62 61 63 38 64 27 65 28 66 32 67
REMARK SMILES IDX 29 68 31 69 30 70 49 71 50 72 54 73 51 74 53 75 52 76 39 77
REMARK SMILES IDX 40 78 44 79 41 80 43 81 42 82
REMARK H PARENT 69 17 72 23 59 50 37 61
REMARK Flexibility Score: inf
ROOT
ATOM      1  C   UNL A   1      37.001  21.871  24.562  1.00  0.00     0.202 C 
ENDROOT
BRANCH   1   2
ATOM      2  C   UNL A   1      37.061  23.097  25.496  1.00  0.00     0.261 C 
BRANCH   2   3
ATOM      3  O   UNL A   1      36.057  24.136  25.309  1.00  0.00    -0.463 OA
BRANCH   3   4
ATOM      4  C   UNL A   1      34.845  23.865  25.832  1.00  0.00     0.310 C 
ATOM      5  O   UNL A   1      34.704  23.167  26.841  1.00  0.00    -0.252 OA
BRANCH   4   6
ATOM      6  C   UNL A   1      33.591  24.410  25.145  1.00  0.00     0.116 C 
ATOM      7  C   UNL A   1      31.199  27.382  27.311  1.00  0.00     0.039 C 
ATOM      8  C   UNL A   1      31.999  26.550  26.347  1.00  0.00    -0.074 C 
ATOM      9  C   UNL A   1      33.263  26.803  25.957  1.00  0.00    -0.073 C 
ATOM     10  C   UNL A   1      31.247  25.388  25.731  1.00  0.00     0.045 C 
ATOM     11  C   UNL A   1      34.123  27.956  26.399  1.00  0.00     0.039 C 
ATOM     12  C   UNL A   1      33.885  25.909  24.918  1.00  0.00     0.046 C 
ATOM     13  C   UNL A   1      32.083  24.114  25.421  1.00  0.00     0.097 C 
BRANCH  13  14
ATOM     14  C   UNL A   1      31.667  23.051  26.441  1.00  0.00     0.224 C 
ATOM     15  O   UNL A   1      31.035  23.363  27.452  1.00  0.00    -0.275 OA
ATOM     16  N   UNL A   1      31.919  21.708  26.245  1.00  0.00    -0.350 N 
ATOM     17  H   UNL A   1      31.757  21.162  27.048  1.00  0.00     0.163 HD
BRANCH  16  18
ATOM     18  C   UNL A   1      32.375  20.921  25.092  1.00  0.00     0.177 C 
BRANCH  18  19
ATOM     19  C   UNL A   1      33.050  19.533  25.374  1.00  0.00     0.283 C 
BRANCH  19  20
ATOM     20  N   UNL A   1      32.318  18.314  24.955  1.00  0.00    -0.330 N 
ATOM     21  C   UNL A   1      32.602  17.080  25.728  1.00  0.00     0.291 C 
ATOM     22  C   UNL A   1      32.548  17.981  23.522  1.00  0.00     0.291 C 
ATOM     23  H   UNL A   1      31.350  18.582  25.136  1.00  0.00     0.348 HD
ATOM     24  C   UNL A   1      33.886  16.293  25.332  1.00  0.00     0.221 C 
ATOM     25  C   UNL A   1      33.904  17.318  23.237  1.00  0.00     0.221 C 
ATOM     26  O   UNL A   1      33.972  16.063  23.922  1.00  0.00    -0.370 OA
ENDBRANCH  19  20
ENDBRANCH  18  19
ENDBRANCH  16  18
ENDBRANCH  13  14
ENDBRANCH   4   6
ENDBRANCH   3   4
ENDBRANCH   2   3
ENDBRANCH   1   2
BRANCH   1  27
ATOM     27  O   UNL A   1      37.763  20.706  24.843  1.00  0.00    -0.374 OA
BRANCH  27  28
ATOM     28  C   UNL A   1      38.934  20.835  25.616  1.00  0.00     0.202 C 
BRANCH  28  29
ATOM     29  C   UNL A   1      39.735  19.589  25.971  1.00  0.00     0.261 C 
BRANCH  29  30
ATOM     30  O   UNL A   1      40.972  19.353  25.306  1.00  0.00    -0.460 OA
BRANCH  30  31
ATOM     31  C   UNL A   1      42.079  19.255  26.064  1.00  0.00     0.338 C 
ATOM     32  O   UNL A   1      42.716  18.245  26.332  1.00  0.00    -0.246 OA
BRANCH  31  33
ATOM     33  C   UNL A   1      42.482  20.606  26.468  1.00  0.00     0.060 A 
ATOM     34  C   UNL A   1      42.351  20.952  27.814  1.00  0.00     0.016 A 
ATOM     35  C   UNL A   1      42.962  21.529  25.535  1.00  0.00     0.016 A 
ATOM     36  C   UNL A   1      42.704  22.230  28.235  1.00  0.00     0.010 A 
ATOM     37  C   UNL A   1      43.314  22.814  25.960  1.00  0.00     0.010 A 
ATOM     38  C   UNL A   1      43.173  23.174  27.311  1.00  0.00    -0.014 A 
BRANCH  38  39
ATOM     39  C   UNL A   1      43.438  24.558  27.771  1.00  0.00     0.031 A 
ATOM     40  C   UNL A   1      44.854  25.044  27.887  1.00  0.00     0.074 A 
ATOM     41  C   UNL A   1      42.414  25.395  28.017  1.00  0.00     0.049 A 
ATOM     42  N   UNL A   1      45.296  26.237  28.198  1.00  0.00    -0.248 NA
ATOM     43  C   UNL A   1      45.913  24.061  27.612  1.00  0.00     0.031 C 
ATOM     44  C   UNL A   1      40.996  25.049  27.911  1.00  0.00     0.029 A 
ATOM     45  N   UNL A   1      42.411  26.716  28.390  1.00  0.00    -0.354 N 
ATOM     46  C   UNL A   1      46.681  26.148  28.153  1.00  0.00     0.074 A 
ATOM     47  C   UNL A   1      47.007  24.777  27.823  1.00  0.00     0.031 C 
ATOM     48  C   UNL A   1      40.261  26.136  28.197  1.00  0.00     0.029 A 
ATOM     49  C   UNL A   1      41.151  27.242  28.538  1.00  0.00     0.049 A 
ATOM     50  H   UNL A   1      43.233  27.236  28.539  1.00  0.00     0.167 HD
ATOM     51  C   UNL A   1      47.599  27.123  28.357  1.00  0.00     0.031 A 
ATOM     52  C   UNL A   1      40.761  28.474  28.918  1.00  0.00     0.031 A 
ATOM     53  C   UNL A   1      47.274  28.482  28.706  1.00  0.00     0.049 A 
ATOM     54  C   UNL A   1      41.803  29.517  29.217  1.00  0.00     0.074 A 
ATOM     55  C   UNL A   1      48.133  29.546  28.919  1.00  0.00     0.029 A 
ATOM     56  N   UNL A   1      45.988  28.961  28.905  1.00  0.00    -0.354 N 
ATOM     57  N   UNL A   1      43.108  29.433  29.130  1.00  0.00    -0.248 NA
ATOM     58  C   UNL A   1      41.315  30.832  29.658  1.00  0.00     0.031 C 
ATOM     59  C   UNL A   1      47.372  30.651  29.313  1.00  0.00     0.029 A 
ATOM     60  C   UNL A   1      46.033  30.296  29.272  1.00  0.00     0.049 A 
ATOM     61  H   UNL A   1      45.165  28.431  28.801  1.00  0.00     0.167 HD
ATOM     62  C   UNL A   1      43.595  30.688  29.475  1.00  0.00     0.074 A 
ATOM     63  C   UNL A   1      42.444  31.521  29.755  1.00  0.00     0.031 C 
ATOM     64  C   UNL A   1      44.880  31.113  29.552  1.00  0.00     0.031 A 
BRANCH  51  65
ATOM     65  C   UNL A   1      49.049  26.744  28.241  1.00  0.00    -0.014 A 
ATOM     66  C   UNL A   1      49.786  26.320  29.359  1.00  0.00     0.009 A 
ATOM     67  C   UNL A   1      49.679  26.776  26.987  1.00  0.00     0.009 A 
ATOM     68  C   UNL A   1      51.132  25.971  29.228  1.00  0.00     0.001 A 
ATOM     69  C   UNL A   1      51.015  26.397  26.853  1.00  0.00     0.001 A 
ATOM     70  C   UNL A   1      51.744  26.004  27.975  1.00  0.00     0.000 A 
ENDBRANCH  51  65
BRANCH  52  71
ATOM     71  C   UNL A   1      39.313  28.788  29.054  1.00  0.00    -0.014 A 
ATOM     72  C   UNL A   1      38.575  29.280  27.967  1.00  0.00     0.009 A 
ATOM     73  C   UNL A   1      38.666  28.619  30.289  1.00  0.00     0.009 A 
ATOM     74  C   UNL A   1      37.229  29.623  28.121  1.00  0.00     0.001 A 
ATOM     75  C   UNL A   1      37.313  28.931  30.432  1.00  0.00     0.001 A 
ATOM     76  C   UNL A   1      36.598  29.443  29.351  1.00  0.00     0.000 A 
ENDBRANCH  52  71
BRANCH  64  77
ATOM     77  C   UNL A   1      45.110  32.556  29.917  1.00  0.00    -0.014 A 
ATOM     78  C   UNL A   1      45.254  32.961  31.253  1.00  0.00     0.009 A 
ATOM     79  C   UNL A   1      45.225  33.518  28.900  1.00  0.00     0.009 A 
ATOM     80  C   UNL A   1      45.470  34.306  31.564  1.00  0.00     0.001 A 
ATOM     81  C   UNL A   1      45.476  34.854  29.212  1.00  0.00     0.001 A 
ATOM     82  C   UNL A   1      45.586  35.250  30.544  1.00  0.00     0.000 A 
ENDBRANCH  64  77
ENDBRANCH  38  39
ENDBRANCH  31  33
ENDBRANCH  30  31
ENDBRANCH  29  30
ENDBRANCH  28  29
ENDBRANCH  27  28
ENDBRANCH   1  27
TORSDOF 18
ENDMDL
MODEL 2
REMARK VINA RESULT:     -10.6      0.478      5.823
REMARK SMILES CC1=C(C)C[C@@H](C(=O)OCCOCCOC(=O)c2ccc(-c3c4nc(c(-c5ccccc5)c5ccc([nH]5)c(-c5ccccc5)c5nc(c(-c6ccccc6)c6ccc3[nH]6)C=C5)C=C4)cc2)[C@@H](C(=O)NCC[NH+]2CCOCC2)C1
REMARK SMILES IDX 11 1 10 2 9 3 7 4 8 5 6 6 1 7 2 8 3 9 78 10 4 11 5 12 66 13
REMARK SMILES IDX 67 14 68 15 69 16 70 18 71 19 72 20 73 21 77 22 74 24 76 25
REMARK SMILES IDX 75 26 12 27 13 28 14 29 15 30 16 31 17 32 18 33 19 34 65 35
REMARK SMILES IDX 20 36 64 37 21 38 22 39 23 40 58 41 24 42 63 43 57 44 59 45
REMARK SMILES IDX 25 46 62 47 56 48 55 49 26 51 48 52 33 53 47 54 34 55 37 56
REMARK SMILES IDX 46 57 60 58 35 59 36 60 45 62 61 63 38 64 27 65 28 66 32 67
REMARK SMILES IDX 29 68 31 69 30 70 49 71 50 72 54 73 51 74 53 75 52 76 39 77
REMARK SMILES IDX 40 78 44 79 41 80 43 81 42 82
REMARK H PARENT 69 17 72 23 59 50 37 61
REMARK Flexibility Score: inf
ROOT
ATOM      1  C   UNL A   1      37.052  21.860  24.432  1.00  0.00     0.202 C 
ENDROOT
BRANCH   1   2
ATOM      2  C   UNL A   1      37.177  23.132  25.295  1.00  0.00     0.261 C 
BRANCH   2   3
ATOM      3  O   UNL A   1      36.185  24.181  25.097  1.00  0.00    -0.463 OA
BRANCH   3   4
ATOM      4  C   UNL A   1      34.993  23.963  25.688  1.00  0.00     0.310 C 
ATOM      5  O   UNL A   1      34.886  23.329  26.742  1.00  0.00    -0.252 OA
BRANCH   4   6
ATOM      6  C   UNL A   1      33.718  24.486  25.023  1.00  0.00     0.116 C 
ATOM      7  C   UNL A   1      31.220  27.277  27.307  1.00  0.00     0.039 C 
ATOM      8  C   UNL A   1      32.048  26.515  26.311  1.00  0.00    -0.074 C 
ATOM      9  C   UNL A   1      33.301  26.832  25.930  1.00  0.00    -0.073 C 
ATOM     10  C   UNL A   1      31.340  25.351  25.649  1.00  0.00     0.045 C 
ATOM     11  C   UNL A   1      34.118  27.998  26.417  1.00  0.00     0.039 C 
ATOM     12  C   UNL A   1      33.954  26.004  24.856  1.00  0.00     0.046 C 
ATOM     13  C   UNL A   1      32.222  24.122  25.289  1.00  0.00     0.097 C 
BRANCH  13  14
ATOM     14  C   UNL A   1      31.849  23.005  26.265  1.00  0.00     0.224 C 
ATOM     15  O   UNL A   1      31.183  23.248  27.273  1.00  0.00    -0.275 OA
ATOM     16  N   UNL A   1      32.180  21.686  26.031  1.00  0.00    -0.350 N 
ATOM     17  H   UNL A   1      32.035  21.106  26.813  1.00  0.00     0.163 HD
BRANCH  16  18
ATOM     18  C   UNL A   1      32.701  20.964  24.863  1.00  0.00     0.177 C 
BRANCH  18  19
ATOM     19  C   UNL A   1      33.311  19.538  25.097  1.00  0.00     0.283 C 
BRANCH  19  20
ATOM     20  N   UNL A   1      32.454  18.365  24.799  1.00  0.00    -0.330 N 
ATOM     21  C   UNL A   1      32.593  17.204  25.712  1.00  0.00     0.291 C 
ATOM     22  C   UNL A   1      32.664  17.848  23.418  1.00  0.00     0.291 C 
ATOM     23  H   UNL A   1      31.521  18.755  24.926  1.00  0.00     0.348 HD
ATOM     24  C   UNL A   1      33.786  16.243  25.437  1.00  0.00     0.221 C 
ATOM     25  C   UNL A   1      33.941  17.014  23.242  1.00  0.00     0.221 C 
ATOM     26  O   UNL A   1      33.864  15.846  24.065  1.00  0.00    -0.370 OA
ENDBRANCH  19  20
ENDBRANCH  18  19
ENDBRANCH  16  18
ENDBRANCH  13  14
ENDBRANCH   4   6
ENDBRANCH   3   4
ENDBRANCH   2   3
ENDBRANCH   1   2
BRANCH   1  27
ATOM     27  O   UNL A   1      37.764  20.680  24.771  1.00  0.00    -0.374 OA
BRANCH  27  28
ATOM     28  C   UNL A   1      38.901  20.791  25.596  1.00  0.00     0.202 C 
BRANCH  28  29
ATOM     29  C   UNL A   1      39.725  19.546  25.904  1.00  0.00     0.261 C 
BRANCH  29  30
ATOM     30  O   UNL A   1      41.048  19.451  25.386  1.00  0.00    -0.460 OA
BRANCH  30  31
ATOM     31  C   UNL A   1      42.063  19.437  26.267  1.00  0.00     0.338 C 
ATOM     32  O   UNL A   1      42.743  18.480  26.612  1.00  0.00    -0.246 OA
BRANCH  31  33
ATOM     33  C   UNL A   1      42.308  20.814  26.709  1.00  0.00     0.060 A 
ATOM     34  C   UNL A   1      42.735  21.740  25.755  1.00  0.00     0.016 A 
ATOM     35  C   UNL A   1      42.142  21.188  28.045  1.00  0.00     0.016 A 
ATOM     36  C   UNL A   1      42.998  23.051  26.137  1.00  0.00     0.010 A 
ATOM     37  C   UNL A   1      42.408  22.507  28.427  1.00  0.00     0.010 A 
ATOM     38  C   UNL A   1      42.851  23.441  27.476  1.00  0.00    -0.014 A 
BRANCH  38  39
ATOM     39  C   UNL A   1      43.242  24.816  27.869  1.00  0.00     0.031 A 
ATOM     40  C   UNL A   1      42.179  25.849  28.113  1.00  0.00     0.074 A 
ATOM     41  C   UNL A   1      44.537  25.117  28.074  1.00  0.00     0.049 A 
ATOM     42  N   UNL A   1      42.306  27.081  28.535  1.00  0.00    -0.248 NA
ATOM     43  C   UNL A   1      40.790  25.440  27.854  1.00  0.00     0.031 C 
ATOM     44  C   UNL A   1      45.657  24.192  27.898  1.00  0.00     0.029 A 
ATOM     45  N   UNL A   1      45.126  26.284  28.492  1.00  0.00    -0.354 N 
ATOM     46  C   UNL A   1      41.017  27.593  28.595  1.00  0.00     0.074 A 
ATOM     47  C   UNL A   1      40.126  26.552  28.130  1.00  0.00     0.031 C 
ATOM     48  C   UNL A   1      46.797  24.823  28.223  1.00  0.00     0.029 A 
ATOM     49  C   UNL A   1      46.493  26.203  28.594  1.00  0.00     0.049 A 
ATOM     50  H   UNL A   1      44.617  27.101  28.697  1.00  0.00     0.167 HD
ATOM     51  C   UNL A   1      40.610  28.817  29.011  1.00  0.00     0.031 A 
ATOM     52  C   UNL A   1      47.397  27.140  28.937  1.00  0.00     0.031 A 
ATOM     53  C   UNL A   1      41.499  29.859  29.453  1.00  0.00     0.049 A 
ATOM     54  C   UNL A   1      46.925  28.517  29.317  1.00  0.00     0.074 A 
ATOM     55  C   UNL A   1      41.181  31.128  29.906  1.00  0.00     0.029 A 
ATOM     56  N   UNL A   1      42.881  29.759  29.485  1.00  0.00    -0.354 N 
ATOM     57  N   UNL A   1      45.700  28.976  29.410  1.00  0.00    -0.248 NA
ATOM     58  C   UNL A   1      47.962  29.504  29.651  1.00  0.00     0.031 C 
ATOM     59  C   UNL A   1      42.372  31.817  30.148  1.00  0.00     0.029 A 
ATOM     60  C   UNL A   1      43.431  30.954  29.918  1.00  0.00     0.049 A 
ATOM     61  H   UNL A   1      43.395  28.957  29.237  1.00  0.00     0.167 HD
ATOM     62  C   UNL A   1      45.818  30.292  29.841  1.00  0.00     0.074 A 
ATOM     63  C   UNL A   1      47.232  30.552  30.008  1.00  0.00     0.031 C 
ATOM     64  C   UNL A   1      44.842  31.202  30.077  1.00  0.00     0.031 A 
BRANCH  51  65
ATOM     65  C   UNL A   1      39.135  29.105  28.972  1.00  0.00    -0.014 A 
ATOM     66  C   UNL A   1      38.516  29.603  27.814  1.00  0.00     0.009 A 
ATOM     67  C   UNL A   1      38.344  28.841  30.101  1.00  0.00     0.009 A 
ATOM     68  C   UNL A   1      37.144  29.863  27.800  1.00  0.00     0.001 A 
ATOM     69  C   UNL A   1      36.968  29.071  30.075  1.00  0.00     0.001 A 
ATOM     70  C   UNL A   1      36.370  29.592  28.928  1.00  0.00     0.000 A 
ENDBRANCH  51  65
BRANCH  52  71
ATOM     71  C   UNL A   1      48.850  26.814  28.923  1.00  0.00    -0.014 A 
ATOM     72  C   UNL A   1      49.602  26.921  27.745  1.00  0.00     0.009 A 
ATOM     73  C   UNL A   1      49.485  26.369  30.094  1.00  0.00     0.009 A 
ATOM     74  C   UNL A   1      50.953  26.562  27.731  1.00  0.00     0.001 A 
ATOM     75  C   UNL A   1      50.842  26.042  30.086  1.00  0.00     0.001 A 
ATOM     76  C   UNL A   1      51.573  26.128  28.902  1.00  0.00     0.000 A 
ENDBRANCH  52  71
BRANCH  64  77
ATOM     77  C   UNL A   1      45.267  32.556  30.581  1.00  0.00    -0.014 A 
ATOM     78  C   UNL A   1      45.433  32.811  31.950  1.00  0.00     0.009 A 
ATOM     79  C   UNL A   1      45.545  33.581  29.661  1.00  0.00     0.009 A 
ATOM     80  C   UNL A   1      45.832  34.076  32.390  1.00  0.00     0.001 A 
ATOM     81  C   UNL A   1      45.975  34.833  30.101  1.00  0.00     0.001 A 
ATOM     82  C   UNL A   1      46.108  35.083  31.466  1.00  0.00     0.000 A 
ENDBRANCH  64  77
ENDBRANCH  38  39
ENDBRANCH  31  33
ENDBRANCH  30  31
ENDBRANCH  29  30
ENDBRANCH  28  29
ENDBRANCH  27  28
ENDBRANCH   1  27
TORSDOF 18
ENDMDL
MODEL 3
REMARK VINA RESULT:     -10.6      1.357      1.879
REMARK SMILES CC1=C(C)C[C@@H](C(=O)OCCOCCOC(=O)c2ccc(-c3c4nc(c(-c5ccccc5)c5ccc([nH]5)c(-c5ccccc5)c5nc(c(-c6ccccc6)c6ccc3[nH]6)C=C5)C=C4)cc2)[C@@H](C(=O)NCC[NH+]2CCOCC2)C1
REMARK SMILES IDX 11 1 10 2 9 3 7 4 8 5 6 6 1 7 2 8 3 9 78 10 4 11 5 12 66 13
REMARK SMILES IDX 67 14 68 15 69 16 70 18 71 19 72 20 73 21 77 22 74 24 76 25
REMARK SMILES IDX 75 26 12 27 13 28 14 29 15 30 16 31 17 32 18 33 19 34 65 35
REMARK SMILES IDX 20 36 64 37 21 38 22 39 23 40 58 41 24 42 63 43 57 44 59 45
REMARK SMILES IDX 25 46 62 47 56 48 55 49 26 51 48 52 33 53 47 54 34 55 37 56
REMARK SMILES IDX 46 57 60 58 35 59 36 60 45 62 61 63 38 64 27 65 28 66 32 67
REMARK SMILES IDX 29 68 31 69 30 70 49 71 50 72 54 73 51 74 53 75 52 76 39 77
REMARK SMILES IDX 40 78 44 79 41 80 43 81 42 82
REMARK H PARENT 69 17 72 23 59 50 37 61
REMARK Flexibility Score: inf
ROOT
ATOM      1  C   UNL A   1      36.882  22.434  24.265  1.00  0.00     0.202 C 
ENDROOT
BRANCH   1   2
ATOM      2  C   UNL A   1      35.975  22.750  23.059  1.00  0.00     0.261 C 
BRANCH   2   3
ATOM      3  O   UNL A   1      35.212  23.991  23.096  1.00  0.00    -0.463 OA
BRANCH   3   4
ATOM      4  C   UNL A   1      33.921  23.883  22.726  1.00  0.00     0.310 C 
ATOM      5  O   UNL A   1      33.587  23.464  21.613  1.00  0.00    -0.252 OA
BRANCH   4   6
ATOM      6  C   UNL A   1      32.822  24.321  23.696  1.00  0.00     0.116 C 
ATOM      7  C   UNL A   1      33.733  27.590  26.477  1.00  0.00     0.039 C 
ATOM      8  C   UNL A   1      33.179  26.621  25.470  1.00  0.00    -0.074 C 
ATOM      9  C   UNL A   1      33.150  26.811  24.136  1.00  0.00    -0.073 C 
ATOM     10  C   UNL A   1      32.540  25.381  26.061  1.00  0.00     0.045 C 
ATOM     11  C   UNL A   1      33.659  28.015  23.391  1.00  0.00     0.039 C 
ATOM     12  C   UNL A   1      32.482  25.770  23.279  1.00  0.00     0.046 C 
ATOM     13  C   UNL A   1      32.678  24.074  25.231  1.00  0.00     0.097 C 
BRANCH  13  14
ATOM     14  C   UNL A   1      33.668  23.177  25.977  1.00  0.00     0.224 C 
ATOM     15  O   UNL A   1      34.526  23.665  26.714  1.00  0.00    -0.275 OA
ATOM     16  N   UNL A   1      33.604  21.800  25.911  1.00  0.00    -0.350 N 
ATOM     17  H   UNL A   1      34.397  21.356  26.291  1.00  0.00     0.163 HD
BRANCH  16  18
ATOM     18  C   UNL A   1      32.604  20.856  25.394  1.00  0.00     0.177 C 
BRANCH  18  19
ATOM     19  C   UNL A   1      33.112  19.662  24.512  1.00  0.00     0.283 C 
BRANCH  19  20
ATOM     20  N   UNL A   1      33.864  18.578  25.187  1.00  0.00    -0.330 N 
ATOM     21  C   UNL A   1      34.821  17.820  24.343  1.00  0.00     0.291 C 
ATOM     22  C   UNL A   1      32.964  17.573  25.818  1.00  0.00     0.291 C 
ATOM     23  H   UNL A   1      34.401  19.100  25.879  1.00  0.00     0.348 HD
ATOM     24  C   UNL A   1      34.222  16.684  23.464  1.00  0.00     0.221 C 
ATOM     25  C   UNL A   1      32.335  16.580  24.829  1.00  0.00     0.221 C 
ATOM     26  O   UNL A   1      33.368  15.810  24.207  1.00  0.00    -0.370 OA
ENDBRANCH  19  20
ENDBRANCH  18  19
ENDBRANCH  16  18
ENDBRANCH  13  14
ENDBRANCH   4   6
ENDBRANCH   3   4
ENDBRANCH   2   3
ENDBRANCH   1   2
BRANCH   1  27
ATOM     27  O   UNL A   1      36.691  21.251  25.027  1.00  0.00    -0.374 OA
BRANCH  27  28
ATOM     28  C   UNL A   1      37.672  20.242  24.965  1.00  0.00     0.202 C 
BRANCH  28  29
ATOM     29  C   UNL A   1      39.102  20.565  25.382  1.00  0.00     0.261 C 
BRANCH  29  30
ATOM     30  O   UNL A   1      39.852  19.583  26.090  1.00  0.00    -0.460 OA
BRANCH  30  31
ATOM     31  C   UNL A   1      41.193  19.659  26.029  1.00  0.00     0.338 C 
ATOM     32  O   UNL A   1      41.969  18.842  25.551  1.00  0.00    -0.246 OA
BRANCH  31  33
ATOM     33  C   UNL A   1      41.605  20.962  26.562  1.00  0.00     0.060 A 
ATOM     34  C   UNL A   1      41.403  21.205  27.922  1.00  0.00     0.016 A 
ATOM     35  C   UNL A   1      42.162  21.941  25.735  1.00  0.00     0.016 A 
ATOM     36  C   UNL A   1      41.761  22.435  28.463  1.00  0.00     0.010 A 
ATOM     37  C   UNL A   1      42.521  23.178  26.282  1.00  0.00     0.010 A 
ATOM     38  C   UNL A   1      42.308  23.435  27.646  1.00  0.00    -0.014 A 
BRANCH  38  39
ATOM     39  C   UNL A   1      42.580  24.770  28.231  1.00  0.00     0.031 A 
ATOM     40  C   UNL A   1      43.980  25.134  28.633  1.00  0.00     0.074 A 
ATOM     41  C   UNL A   1      41.589  25.674  28.336  1.00  0.00     0.049 A 
ATOM     42  N   UNL A   1      44.439  26.271  29.091  1.00  0.00    -0.248 NA
ATOM     43  C   UNL A   1      44.999  24.082  28.497  1.00  0.00     0.031 C 
ATOM     44  C   UNL A   1      40.195  25.449  27.952  1.00  0.00     0.029 A 
ATOM     45  N   UNL A   1      41.610  26.972  28.781  1.00  0.00    -0.354 N 
ATOM     46  C   UNL A   1      45.798  26.074  29.294  1.00  0.00     0.074 A 
ATOM     47  C   UNL A   1      46.083  24.698  28.947  1.00  0.00     0.031 C 
ATOM     48  C   UNL A   1      39.498  26.577  28.164  1.00  0.00     0.029 A 
ATOM     49  C   UNL A   1      40.385  27.590  28.729  1.00  0.00     0.049 A 
ATOM     50  H   UNL A   1      42.425  27.416  29.109  1.00  0.00     0.167 HD
ATOM     51  C   UNL A   1      46.729  26.961  29.721  1.00  0.00     0.031 A 
ATOM     52  C   UNL A   1      40.019  28.831  29.105  1.00  0.00     0.031 A 
ATOM     53  C   UNL A   1      46.441  28.324  30.086  1.00  0.00     0.049 A 
ATOM     54  C   UNL A   1      41.058  29.772  29.652  1.00  0.00     0.074 A 
ATOM     55  C   UNL A   1      47.318  29.304  30.517  1.00  0.00     0.029 A 
ATOM     56  N   UNL A   1      45.178  28.895  30.077  1.00  0.00    -0.354 N 
ATOM     57  N   UNL A   1      42.347  29.587  29.800  1.00  0.00    -0.248 NA
ATOM     58  C   UNL A   1      40.590  31.100  30.075  1.00  0.00     0.031 C 
ATOM     59  C   UNL A   1      46.577  30.446  30.832  1.00  0.00     0.029 A 
ATOM     60  C   UNL A   1      45.247  30.203  30.526  1.00  0.00     0.049 A 
ATOM     61  H   UNL A   1      44.353  28.438  29.792  1.00  0.00     0.167 HD
ATOM     62  C   UNL A   1      42.848  30.781  30.303  1.00  0.00     0.074 A 
ATOM     63  C   UNL A   1      41.727  31.690  30.419  1.00  0.00     0.031 C 
ATOM     64  C   UNL A   1      44.123  31.097  30.639  1.00  0.00     0.031 A 
BRANCH  51  65
ATOM     65  C   UNL A   1      48.144  26.472  29.849  1.00  0.00    -0.014 A 
ATOM     66  C   UNL A   1      49.069  26.622  28.803  1.00  0.00     0.009 A 
ATOM     67  C   UNL A   1      48.570  25.883  31.050  1.00  0.00     0.009 A 
ATOM     68  C   UNL A   1      50.379  26.161  28.945  1.00  0.00     0.001 A 
ATOM     69  C   UNL A   1      49.889  25.451  31.201  1.00  0.00     0.001 A 
ATOM     70  C   UNL A   1      50.790  25.581  30.145  1.00  0.00     0.000 A 
ENDBRANCH  51  65
BRANCH  52  71
ATOM     71  C   UNL A   1      38.597  29.254  28.993  1.00  0.00    -0.014 A 
ATOM     72  C   UNL A   1      37.716  29.120  30.076  1.00  0.00     0.009 A 
ATOM     73  C   UNL A   1      38.108  29.776  27.783  1.00  0.00     0.009 A 
ATOM     74  C   UNL A   1      36.370  29.471  29.942  1.00  0.00     0.001 A 
ATOM     75  C   UNL A   1      36.771  30.157  27.663  1.00  0.00     0.001 A 
ATOM     76  C   UNL A   1      35.900  29.994  28.738  1.00  0.00     0.000 A 
ENDBRANCH  52  71
BRANCH  64  77
ATOM     77  C   UNL A   1      44.382  32.498  31.127  1.00  0.00    -0.014 A 
ATOM     78  C   UNL A   1      44.342  32.819  32.493  1.00  0.00     0.009 A 
ATOM     79  C   UNL A   1      44.714  33.503  30.204  1.00  0.00     0.009 A 
ATOM     80  C   UNL A   1      44.590  34.126  32.919  1.00  0.00     0.001 A 
ATOM     81  C   UNL A   1      44.994  34.799  30.635  1.00  0.00     0.001 A 
ATOM     82  C   UNL A   1      44.921  35.113  31.991  1.00  0.00     0.000 A 
ENDBRANCH  64  77
ENDBRANCH  38  39
ENDBRANCH  31  33
ENDBRANCH  30  31
ENDBRANCH  29  30
ENDBRANCH  28  29
ENDBRANCH  27  28
ENDBRANCH   1  27
TORSDOF 18
ENDMDL
