MODEL 1
REMARK VINA RESULT:      -9.2      0.000      0.000
REMARK SMILES CC(C)C[C@H](NC(=O)CNC(=O)[C@@H](NC(=O)OCc1ccccc1)C(C)C)C(=O)OCCOCCOC(=O)c1ccc(-c2c3nc(c(-c4ccccc4)c4ccc([nH]4)c(-c4ccccc4)c4nc(c(-c5ccccc5)c5ccc2[nH]5)C=C4)C=C3)cc1
REMARK SMILES IDX 30 1 28 2 29 3 5 4 4 5 2 6 1 7 3 8 6 9 7 10 8 12 9 13 10 14
REMARK SMILES IDX 11 15 12 17 13 18 14 19 15 20 16 22 17 23 18 24 19 25 20 26
REMARK SMILES IDX 24 27 21 28 23 29 22 30 25 31 26 32 27 33 31 34 32 35 33 36
REMARK SMILES IDX 34 37 35 38 36 39 37 40 38 41 39 42 40 43 86 44 41 45 85 46
REMARK SMILES IDX 42 47 43 48 44 49 79 50 45 51 84 52 78 53 80 54 46 55 83 56
REMARK SMILES IDX 77 57 76 58 47 60 69 61 54 62 68 63 55 64 58 65 67 66 81 67
REMARK SMILES IDX 56 68 57 69 66 71 82 72 59 73 48 74 49 75 53 76 50 77 52 78
REMARK SMILES IDX 51 79 70 80 71 81 75 82 72 83 74 84 73 85 60 86 61 87 65 88
REMARK SMILES IDX 62 89 64 90 63 91
REMARK H PARENT 6 11 10 16 14 21 80 59 58 70
REMARK Flexibility Score: inf
ROOT
ATOM      1  O   UNL A   1      36.478  21.814  24.812  1.00  0.00    -0.462 OA
ENDROOT
BRANCH   1   2
ATOM      2  C   UNL A   1      36.015  22.510  23.741  1.00  0.00     0.328 C 
ATOM      3  O   UNL A   1      36.694  22.863  22.782  1.00  0.00    -0.250 OA
BRANCH   2   4
ATOM      4  C   UNL A   1      34.543  22.914  23.862  1.00  0.00     0.192 C 
BRANCH   4   5
ATOM      5  C   UNL A   1      33.634  21.732  23.516  1.00  0.00     0.040 C 
BRANCH   5   6
ATOM      6  C   UNL A   1      33.100  20.979  24.754  1.00  0.00    -0.015 C 
ATOM      7  C   UNL A   1      33.721  19.590  24.911  1.00  0.00     0.007 C 
ATOM      8  C   UNL A   1      33.351  21.802  26.015  1.00  0.00     0.007 C 
ENDBRANCH   5   6
ENDBRANCH   4   5
BRANCH   4   9
ATOM      9  N   UNL A   1      34.179  24.101  23.104  1.00  0.00    -0.341 N 
ATOM     10  C   UNL A   1      32.971  24.718  22.969  1.00  0.00     0.240 C 
ATOM     11  H   UNL A   1      34.920  24.525  22.613  1.00  0.00     0.164 HD
ATOM     12  O   UNL A   1      32.960  25.760  22.302  1.00  0.00    -0.273 OA
BRANCH  10  13
ATOM     13  C   UNL A   1      31.656  24.250  23.654  1.00  0.00     0.216 C 
BRANCH  13  14
ATOM     14  N   UNL A   1      31.222  24.718  24.964  1.00  0.00    -0.345 N 
ATOM     15  C   UNL A   1      30.612  25.846  25.420  1.00  0.00     0.243 C 
ATOM     16  H   UNL A   1      31.411  24.071  25.682  1.00  0.00     0.164 HD
ATOM     17  O   UNL A   1      30.138  25.748  26.561  1.00  0.00    -0.273 OA
BRANCH  15  18
ATOM     18  C   UNL A   1      30.494  27.206  24.651  1.00  0.00     0.177 C 
BRANCH  18  19
ATOM     19  N   UNL A   1      31.797  27.790  24.349  1.00  0.00    -0.309 N 
ATOM     20  C   UNL A   1      32.497  28.773  24.967  1.00  0.00     0.408 C 
ATOM     21  H   UNL A   1      32.245  27.404  23.562  1.00  0.00     0.167 HD
ATOM     22  O   UNL A   1      33.185  29.531  24.304  1.00  0.00    -0.225 OA
BRANCH  20  23
ATOM     23  O   UNL A   1      32.436  28.766  26.312  1.00  0.00    -0.445 OA
BRANCH  23  24
ATOM     24  C   UNL A   1      32.594  30.058  26.916  1.00  0.00     0.270 C 
BRANCH  24  25
ATOM     25  C   UNL A   1      34.014  30.357  27.364  1.00  0.00    -0.011 A 
ATOM     26  C   UNL A   1      34.470  31.647  27.677  1.00  0.00     0.007 A 
ATOM     27  C   UNL A   1      34.920  29.291  27.488  1.00  0.00     0.007 A 
ATOM     28  C   UNL A   1      35.783  31.868  28.098  1.00  0.00     0.000 A 
ATOM     29  C   UNL A   1      36.237  29.513  27.901  1.00  0.00     0.000 A 
ATOM     30  C   UNL A   1      36.668  30.801  28.205  1.00  0.00     0.000 A 
ENDBRANCH  24  25
ENDBRANCH  23  24
ENDBRANCH  20  23
ENDBRANCH  18  19
BRANCH  18  31
ATOM     31  C   UNL A   1      29.459  27.226  23.499  1.00  0.00     0.015 C 
ATOM     32  C   UNL A   1      28.076  26.700  23.897  1.00  0.00     0.010 C 
ATOM     33  C   UNL A   1      29.260  28.657  22.967  1.00  0.00     0.010 C 
ENDBRANCH  18  31
ENDBRANCH  15  18
ENDBRANCH  13  14
ENDBRANCH  10  13
ENDBRANCH   4   9
ENDBRANCH   2   4
ENDBRANCH   1   2
BRANCH   1  34
ATOM     34  C   UNL A   1      37.757  22.256  25.313  1.00  0.00     0.261 C 
BRANCH  34  35
ATOM     35  C   UNL A   1      37.678  23.608  26.022  1.00  0.00     0.202 C 
BRANCH  35  36
ATOM     36  O   UNL A   1      38.870  24.387  26.074  1.00  0.00    -0.374 OA
BRANCH  36  37
ATOM     37  C   UNL A   1      39.034  25.256  27.193  1.00  0.00     0.202 C 
BRANCH  37  38
ATOM     38  C   UNL A   1      40.156  24.937  28.188  1.00  0.00     0.261 C 
BRANCH  38  39
ATOM     39  O   UNL A   1      41.259  24.295  27.553  1.00  0.00    -0.460 OA
BRANCH  39  40
ATOM     40  C   UNL A   1      42.283  24.015  28.385  1.00  0.00     0.338 C 
ATOM     41  O   UNL A   1      42.370  23.127  29.215  1.00  0.00    -0.246 OA
BRANCH  40  42
ATOM     42  C   UNL A   1      43.406  24.866  27.986  1.00  0.00     0.060 A 
ATOM     43  C   UNL A   1      44.184  25.424  29.008  1.00  0.00     0.016 A 
ATOM     44  C   UNL A   1      43.690  25.096  26.638  1.00  0.00     0.016 A 
ATOM     45  C   UNL A   1      45.227  26.277  28.683  1.00  0.00     0.010 A 
ATOM     46  C   UNL A   1      44.727  25.959  26.313  1.00  0.00     0.010 A 
ATOM     47  C   UNL A   1      45.459  26.584  27.338  1.00  0.00    -0.014 A 
BRANCH  47  48
ATOM     48  C   UNL A   1      46.303  27.740  26.998  1.00  0.00     0.031 A 
ATOM     49  C   UNL A   1      47.765  27.490  26.784  1.00  0.00     0.074 A 
ATOM     50  C   UNL A   1      45.773  28.968  26.910  1.00  0.00     0.049 A 
ATOM     51  N   UNL A   1      48.730  28.344  26.585  1.00  0.00    -0.248 NA
ATOM     52  C   UNL A   1      48.197  26.081  26.813  1.00  0.00     0.031 C 
ATOM     53  C   UNL A   1      44.354  29.290  27.063  1.00  0.00     0.029 A 
ATOM     54  N   UNL A   1      46.378  30.174  26.688  1.00  0.00    -0.354 N 
ATOM     55  C   UNL A   1      49.886  27.579  26.490  1.00  0.00     0.074 A 
ATOM     56  C   UNL A   1      49.508  26.199  26.680  1.00  0.00     0.031 C 
ATOM     57  C   UNL A   1      44.201  30.621  26.951  1.00  0.00     0.029 A 
ATOM     58  C   UNL A   1      45.513  31.235  26.760  1.00  0.00     0.049 A 
ATOM     59  H   UNL A   1      47.338  30.270  26.497  1.00  0.00     0.167 HD
ATOM     60  C   UNL A   1      51.152  27.999  26.269  1.00  0.00     0.031 A 
ATOM     61  C   UNL A   1      45.769  32.555  26.709  1.00  0.00     0.031 A 
ATOM     62  C   UNL A   1      51.507  29.382  26.109  1.00  0.00     0.049 A 
ATOM     63  C   UNL A   1      47.190  33.007  26.522  1.00  0.00     0.074 A 
ATOM     64  C   UNL A   1      52.749  29.935  25.866  1.00  0.00     0.029 A 
ATOM     65  N   UNL A   1      50.603  30.434  26.191  1.00  0.00    -0.354 N 
ATOM     66  N   UNL A   1      48.279  32.281  26.409  1.00  0.00    -0.248 NA
ATOM     67  C   UNL A   1      47.421  34.454  26.445  1.00  0.00     0.031 C 
ATOM     68  C   UNL A   1      52.607  31.326  25.858  1.00  0.00     0.029 A 
ATOM     69  C   UNL A   1      51.264  31.636  26.028  1.00  0.00     0.049 A 
ATOM     70  H   UNL A   1      49.635  30.337  26.344  1.00  0.00     0.167 HD
ATOM     71  C   UNL A   1      49.318  33.180  26.215  1.00  0.00     0.074 A 
ATOM     72  C   UNL A   1      48.727  34.504  26.224  1.00  0.00     0.031 C 
ATOM     73  C   UNL A   1      50.641  32.937  26.039  1.00  0.00     0.031 A 
BRANCH  60  74
ATOM     74  C   UNL A   1      52.229  26.950  26.250  1.00  0.00    -0.014 A 
ATOM     75  C   UNL A   1      52.377  26.065  25.169  1.00  0.00     0.009 A 
ATOM     76  C   UNL A   1      53.098  26.831  27.345  1.00  0.00     0.009 A 
ATOM     77  C   UNL A   1      53.337  25.052  25.209  1.00  0.00     0.001 A 
ATOM     78  C   UNL A   1      54.080  25.839  27.368  1.00  0.00     0.001 A 
ATOM     79  C   UNL A   1      54.190  24.942  26.307  1.00  0.00     0.000 A 
ENDBRANCH  60  74
BRANCH  61  80
ATOM     80  C   UNL A   1      44.652  33.523  26.850  1.00  0.00    -0.014 A 
ATOM     81  C   UNL A   1      44.268  33.992  28.114  1.00  0.00     0.009 A 
ATOM     82  C   UNL A   1      43.993  34.018  25.712  1.00  0.00     0.009 A 
ATOM     83  C   UNL A   1      43.238  34.928  28.237  1.00  0.00     0.001 A 
ATOM     84  C   UNL A   1      42.982  34.974  25.837  1.00  0.00     0.001 A 
ATOM     85  C   UNL A   1      42.602  35.423  27.099  1.00  0.00     0.000 A 
ENDBRANCH  61  80
BRANCH  73  86
ATOM     86  C   UNL A   1      51.530  34.120  25.787  1.00  0.00    -0.014 A 
ATOM     87  C   UNL A   1      51.718  34.633  24.496  1.00  0.00     0.009 A 
ATOM     88  C   UNL A   1      52.125  34.775  26.877  1.00  0.00     0.009 A 
ATOM     89  C   UNL A   1      52.508  35.768  24.300  1.00  0.00     0.001 A 
ATOM     90  C   UNL A   1      52.889  35.925  26.682  1.00  0.00     0.001 A 
ATOM     91  C   UNL A   1      53.085  36.417  25.392  1.00  0.00     0.000 A 
ENDBRANCH  73  86
ENDBRANCH  47  48
ENDBRANCH  40  42
ENDBRANCH  39  40
ENDBRANCH  38  39
ENDBRANCH  37  38
ENDBRANCH  36  37
ENDBRANCH  35  36
ENDBRANCH  34  35
ENDBRANCH   1  34
TORSDOF 25
ENDMDL
MODEL 2
REMARK VINA RESULT:      -9.2      6.478      9.145
REMARK SMILES CC(C)C[C@H](NC(=O)CNC(=O)[C@@H](NC(=O)OCc1ccccc1)C(C)C)C(=O)OCCOCCOC(=O)c1ccc(-c2c3nc(c(-c4ccccc4)c4ccc([nH]4)c(-c4ccccc4)c4nc(c(-c5ccccc5)c5ccc2[nH]5)C=C4)C=C3)cc1
REMARK SMILES IDX 30 1 28 2 29 3 5 4 4 5 2 6 1 7 3 8 6 9 7 10 8 12 9 13 10 14
REMARK SMILES IDX 11 15 12 17 13 18 14 19 15 20 16 22 17 23 18 24 19 25 20 26
REMARK SMILES IDX 24 27 21 28 23 29 22 30 25 31 26 32 27 33 31 34 32 35 33 36
REMARK SMILES IDX 34 37 35 38 36 39 37 40 38 41 39 42 40 43 86 44 41 45 85 46
REMARK SMILES IDX 42 47 43 48 44 49 79 50 45 51 84 52 78 53 80 54 46 55 83 56
REMARK SMILES IDX 77 57 76 58 47 60 69 61 54 62 68 63 55 64 58 65 67 66 81 67
REMARK SMILES IDX 56 68 57 69 66 71 82 72 59 73 48 74 49 75 53 76 50 77 52 78
REMARK SMILES IDX 51 79 70 80 71 81 75 82 72 83 74 84 73 85 60 86 61 87 65 88
REMARK SMILES IDX 62 89 64 90 63 91
REMARK H PARENT 6 11 10 16 14 21 80 59 58 70
REMARK Flexibility Score: inf
ROOT
ATOM      1  O   UNL A   1      36.444  22.014  25.067  1.00  0.00    -0.462 OA
ENDROOT
BRANCH   1   2
ATOM      2  C   UNL A   1      36.016  22.656  23.948  1.00  0.00     0.328 C 
ATOM      3  O   UNL A   1      36.744  23.081  23.056  1.00  0.00    -0.250 OA
BRANCH   2   4
ATOM      4  C   UNL A   1      34.504  22.895  23.919  1.00  0.00     0.192 C 
BRANCH   4   5
ATOM      5  C   UNL A   1      33.762  21.591  23.617  1.00  0.00     0.040 C 
BRANCH   5   6
ATOM      6  C   UNL A   1      33.434  20.760  24.876  1.00  0.00    -0.015 C 
ATOM      7  C   UNL A   1      31.960  20.847  25.273  1.00  0.00     0.007 C 
ATOM      8  C   UNL A   1      33.823  19.300  24.655  1.00  0.00     0.007 C 
ENDBRANCH   5   6
ENDBRANCH   4   5
BRANCH   4   9
ATOM      9  N   UNL A   1      34.079  23.964  23.028  1.00  0.00    -0.341 N 
ATOM     10  C   UNL A   1      32.853  24.535  22.866  1.00  0.00     0.240 C 
ATOM     11  H   UNL A   1      34.789  24.332  22.453  1.00  0.00     0.164 HD
ATOM     12  O   UNL A   1      32.788  25.479  22.069  1.00  0.00    -0.273 OA
BRANCH  10  13
ATOM     13  C   UNL A   1      31.579  24.137  23.666  1.00  0.00     0.216 C 
BRANCH  13  14
ATOM     14  N   UNL A   1      31.222  24.722  24.952  1.00  0.00    -0.345 N 
ATOM     15  C   UNL A   1      30.692  25.913  25.344  1.00  0.00     0.243 C 
ATOM     16  H   UNL A   1      31.406  24.120  25.709  1.00  0.00     0.164 HD
ATOM     17  O   UNL A   1      30.259  25.925  26.505  1.00  0.00    -0.273 OA
BRANCH  15  18
ATOM     18  C   UNL A   1      30.616  27.218  24.480  1.00  0.00     0.177 C 
BRANCH  18  19
ATOM     19  N   UNL A   1      31.933  27.685  24.060  1.00  0.00    -0.309 N 
ATOM     20  C   UNL A   1      32.693  28.720  24.496  1.00  0.00     0.408 C 
ATOM     21  H   UNL A   1      32.340  27.159  23.334  1.00  0.00     0.167 HD
ATOM     22  O   UNL A   1      33.393  29.329  23.705  1.00  0.00    -0.225 OA
BRANCH  20  23
ATOM     23  O   UNL A   1      32.672  28.928  25.826  1.00  0.00    -0.445 OA
BRANCH  23  24
ATOM     24  C   UNL A   1      32.883  30.295  26.212  1.00  0.00     0.270 C 
BRANCH  24  25
ATOM     25  C   UNL A   1      33.959  30.475  27.268  1.00  0.00    -0.011 A 
ATOM     26  C   UNL A   1      34.937  29.507  27.548  1.00  0.00     0.007 A 
ATOM     27  C   UNL A   1      33.995  31.676  27.996  1.00  0.00     0.007 A 
ATOM     28  C   UNL A   1      35.914  29.726  28.520  1.00  0.00     0.000 A 
ATOM     29  C   UNL A   1      34.969  31.892  28.976  1.00  0.00     0.000 A 
ATOM     30  C   UNL A   1      35.927  30.918  29.238  1.00  0.00     0.000 A 
ENDBRANCH  24  25
ENDBRANCH  23  24
ENDBRANCH  20  23
ENDBRANCH  18  19
BRANCH  18  31
ATOM     31  C   UNL A   1      29.513  27.228  23.393  1.00  0.00     0.015 C 
ATOM     32  C   UNL A   1      28.158  26.703  23.877  1.00  0.00     0.010 C 
ATOM     33  C   UNL A   1      29.281  28.654  22.861  1.00  0.00     0.010 C 
ENDBRANCH  18  31
ENDBRANCH  15  18
ENDBRANCH  13  14
ENDBRANCH  10  13
ENDBRANCH   4   9
ENDBRANCH   2   4
ENDBRANCH   1   2
BRANCH   1  34
ATOM     34  C   UNL A   1      37.750  21.410  24.955  1.00  0.00     0.261 C 
BRANCH  34  35
ATOM     35  C   UNL A   1      38.789  22.080  25.855  1.00  0.00     0.202 C 
BRANCH  35  36
ATOM     36  O   UNL A   1      38.445  23.344  26.415  1.00  0.00    -0.374 OA
BRANCH  36  37
ATOM     37  C   UNL A   1      39.452  24.020  27.167  1.00  0.00     0.202 C 
BRANCH  37  38
ATOM     38  C   UNL A   1      40.311  25.060  26.437  1.00  0.00     0.261 C 
BRANCH  38  39
ATOM     39  O   UNL A   1      39.994  26.388  26.846  1.00  0.00    -0.460 OA
BRANCH  39  40
ATOM     40  C   UNL A   1      41.000  27.270  26.672  1.00  0.00     0.338 C 
ATOM     41  O   UNL A   1      41.534  27.623  25.634  1.00  0.00    -0.246 OA
BRANCH  40  42
ATOM     42  C   UNL A   1      41.238  27.912  27.966  1.00  0.00     0.060 A 
ATOM     43  C   UNL A   1      40.744  27.263  29.105  1.00  0.00     0.016 A 
ATOM     44  C   UNL A   1      41.942  29.115  28.053  1.00  0.00     0.016 A 
ATOM     45  C   UNL A   1      40.900  27.856  30.348  1.00  0.00     0.010 A 
ATOM     46  C   UNL A   1      42.087  29.714  29.296  1.00  0.00     0.010 A 
ATOM     47  C   UNL A   1      41.523  29.106  30.432  1.00  0.00    -0.014 A 
BRANCH  47  48
ATOM     48  C   UNL A   1      41.378  29.903  31.660  1.00  0.00     0.031 A 
ATOM     49  C   UNL A   1      42.435  29.749  32.711  1.00  0.00     0.074 A 
ATOM     50  C   UNL A   1      40.324  30.713  31.826  1.00  0.00     0.049 A 
ATOM     51  N   UNL A   1      42.482  30.249  33.916  1.00  0.00    -0.248 NA
ATOM     52  C   UNL A   1      43.589  28.903  32.358  1.00  0.00     0.031 C 
ATOM     53  C   UNL A   1      39.274  30.950  30.835  1.00  0.00     0.029 A 
ATOM     54  N   UNL A   1      39.957  31.470  32.904  1.00  0.00    -0.354 N 
ATOM     55  C   UNL A   1      43.657  29.759  34.472  1.00  0.00     0.074 A 
ATOM     56  C   UNL A   1      44.278  28.903  33.488  1.00  0.00     0.031 C 
ATOM     57  C   UNL A   1      38.364  31.786  31.365  1.00  0.00     0.029 A 
ATOM     58  C   UNL A   1      38.752  32.102  32.737  1.00  0.00     0.049 A 
ATOM     59  H   UNL A   1      40.504  31.554  33.718  1.00  0.00     0.167 HD
ATOM     60  C   UNL A   1      44.167  30.001  35.701  1.00  0.00     0.031 A 
ATOM     61  C   UNL A   1      38.035  32.826  33.615  1.00  0.00     0.031 A 
ATOM     62  C   UNL A   1      43.516  30.837  36.672  1.00  0.00     0.049 A 
ATOM     63  C   UNL A   1      38.587  33.037  34.997  1.00  0.00     0.074 A 
ATOM     64  C   UNL A   1      43.936  31.173  37.944  1.00  0.00     0.029 A 
ATOM     65  N   UNL A   1      42.291  31.460  36.470  1.00  0.00    -0.354 N 
ATOM     66  N   UNL A   1      39.710  32.592  35.514  1.00  0.00    -0.248 NA
ATOM     67  C   UNL A   1      37.785  33.856  35.914  1.00  0.00     0.031 C 
ATOM     68  C   UNL A   1      42.936  31.953  38.535  1.00  0.00     0.029 A 
ATOM     69  C   UNL A   1      41.927  32.160  37.604  1.00  0.00     0.049 A 
ATOM     70  H   UNL A   1      41.761  31.410  35.641  1.00  0.00     0.167 HD
ATOM     71  C   UNL A   1      39.764  33.101  36.804  1.00  0.00     0.074 A 
ATOM     72  C   UNL A   1      38.562  33.892  36.988  1.00  0.00     0.031 C 
ATOM     73  C   UNL A   1      40.723  32.940  37.750  1.00  0.00     0.031 A 
BRANCH  60  74
ATOM     74  C   UNL A   1      45.449  29.304  36.062  1.00  0.00    -0.014 A 
ATOM     75  C   UNL A   1      45.454  28.087  36.763  1.00  0.00     0.009 A 
ATOM     76  C   UNL A   1      46.676  29.889  35.715  1.00  0.00     0.009 A 
ATOM     77  C   UNL A   1      46.659  27.498  37.151  1.00  0.00     0.001 A 
ATOM     78  C   UNL A   1      47.880  29.282  36.075  1.00  0.00     0.001 A 
ATOM     79  C   UNL A   1      47.871  28.094  36.805  1.00  0.00     0.000 A 
ENDBRANCH  60  74
BRANCH  61  80
ATOM     80  C   UNL A   1      36.721  33.384  33.205  1.00  0.00    -0.014 A 
ATOM     81  C   UNL A   1      36.614  34.711  32.765  1.00  0.00     0.009 A 
ATOM     82  C   UNL A   1      35.573  32.575  33.209  1.00  0.00     0.009 A 
ATOM     83  C   UNL A   1      35.381  35.219  32.349  1.00  0.00     0.001 A 
ATOM     84  C   UNL A   1      34.348  33.079  32.766  1.00  0.00     0.001 A 
ATOM     85  C   UNL A   1      34.252  34.402  32.343  1.00  0.00     0.000 A 
ENDBRANCH  61  80
BRANCH  73  86
ATOM     86  C   UNL A   1      40.538  33.672  39.048  1.00  0.00    -0.014 A 
ATOM     87  C   UNL A   1      39.891  33.074  40.139  1.00  0.00     0.009 A 
ATOM     88  C   UNL A   1      41.092  34.953  39.198  1.00  0.00     0.009 A 
ATOM     89  C   UNL A   1      39.782  33.761  41.351  1.00  0.00     0.001 A 
ATOM     90  C   UNL A   1      41.007  35.623  40.417  1.00  0.00     0.001 A 
ATOM     91  C   UNL A   1      40.346  35.029  41.491  1.00  0.00     0.000 A 
ENDBRANCH  73  86
ENDBRANCH  47  48
ENDBRANCH  40  42
ENDBRANCH  39  40
ENDBRANCH  38  39
ENDBRANCH  37  38
ENDBRANCH  36  37
ENDBRANCH  35  36
ENDBRANCH  34  35
ENDBRANCH   1  34
TORSDOF 25
ENDMDL
MODEL 3
REMARK VINA RESULT:      -9.0      2.142      3.280
REMARK SMILES CC(C)C[C@H](NC(=O)CNC(=O)[C@@H](NC(=O)OCc1ccccc1)C(C)C)C(=O)OCCOCCOC(=O)c1ccc(-c2c3nc(c(-c4ccccc4)c4ccc([nH]4)c(-c4ccccc4)c4nc(c(-c5ccccc5)c5ccc2[nH]5)C=C4)C=C3)cc1
REMARK SMILES IDX 30 1 28 2 29 3 5 4 4 5 2 6 1 7 3 8 6 9 7 10 8 12 9 13 10 14
REMARK SMILES IDX 11 15 12 17 13 18 14 19 15 20 16 22 17 23 18 24 19 25 20 26
REMARK SMILES IDX 24 27 21 28 23 29 22 30 25 31 26 32 27 33 31 34 32 35 33 36
REMARK SMILES IDX 34 37 35 38 36 39 37 40 38 41 39 42 40 43 86 44 41 45 85 46
REMARK SMILES IDX 42 47 43 48 44 49 79 50 45 51 84 52 78 53 80 54 46 55 83 56
REMARK SMILES IDX 77 57 76 58 47 60 69 61 54 62 68 63 55 64 58 65 67 66 81 67
REMARK SMILES IDX 56 68 57 69 66 71 82 72 59 73 48 74 49 75 53 76 50 77 52 78
REMARK SMILES IDX 51 79 70 80 71 81 75 82 72 83 74 84 73 85 60 86 61 87 65 88
REMARK SMILES IDX 62 89 64 90 63 91
REMARK H PARENT 6 11 10 16 14 21 80 59 58 70
REMARK Flexibility Score: inf
ROOT
ATOM      1  O   UNL A   1      37.482  20.474  25.540  1.00  0.00    -0.462 OA
ENDROOT
BRANCH   1   2
ATOM      2  C   UNL A   1      36.436  21.143  24.989  1.00  0.00     0.328 C 
ATOM      3  O   UNL A   1      36.532  22.075  24.197  1.00  0.00    -0.250 OA
BRANCH   2   4
ATOM      4  C   UNL A   1      35.072  20.688  25.516  1.00  0.00     0.192 C 
BRANCH   4   5
ATOM      5  C   UNL A   1      33.974  20.994  24.494  1.00  0.00     0.040 C 
BRANCH   5   6
ATOM      6  C   UNL A   1      32.809  19.982  24.515  1.00  0.00    -0.015 C 
ATOM      7  C   UNL A   1      32.257  19.688  23.119  1.00  0.00     0.007 C 
ATOM      8  C   UNL A   1      33.258  18.681  25.176  1.00  0.00     0.007 C 
ENDBRANCH   5   6
ENDBRANCH   4   5
BRANCH   4   9
ATOM      9  N   UNL A   1      34.729  21.206  26.831  1.00  0.00    -0.341 N 
ATOM     10  C   UNL A   1      34.252  22.430  27.194  1.00  0.00     0.240 C 
ATOM     11  H   UNL A   1      34.861  20.574  27.575  1.00  0.00     0.164 HD
ATOM     12  O   UNL A   1      33.987  22.581  28.393  1.00  0.00    -0.273 OA
BRANCH  10  13
ATOM     13  C   UNL A   1      33.949  23.591  26.205  1.00  0.00     0.216 C 
BRANCH  13  14
ATOM     14  N   UNL A   1      33.161  24.765  26.560  1.00  0.00    -0.345 N 
ATOM     15  C   UNL A   1      32.127  25.431  25.977  1.00  0.00     0.243 C 
ATOM     16  H   UNL A   1      33.437  25.164  27.416  1.00  0.00     0.164 HD
ATOM     17  O   UNL A   1      31.529  26.211  26.731  1.00  0.00    -0.273 OA
BRANCH  15  18
ATOM     18  C   UNL A   1      31.678  25.309  24.481  1.00  0.00     0.177 C 
BRANCH  18  19
ATOM     19  N   UNL A   1      32.688  25.806  23.553  1.00  0.00    -0.309 N 
ATOM     20  C   UNL A   1      32.590  26.220  22.266  1.00  0.00     0.408 C 
ATOM     21  H   UNL A   1      33.599  25.849  23.926  1.00  0.00     0.167 HD
ATOM     22  O   UNL A   1      33.508  26.005  21.492  1.00  0.00    -0.225 OA
BRANCH  20  23
ATOM     23  O   UNL A   1      31.486  26.933  21.973  1.00  0.00    -0.445 OA
BRANCH  23  24
ATOM     24  C   UNL A   1      31.461  28.245  22.554  1.00  0.00     0.270 C 
BRANCH  24  25
ATOM     25  C   UNL A   1      30.114  28.938  22.449  1.00  0.00    -0.011 A 
ATOM     26  C   UNL A   1      29.917  30.143  21.757  1.00  0.00     0.007 A 
ATOM     27  C   UNL A   1      28.999  28.340  23.059  1.00  0.00     0.007 A 
ATOM     28  C   UNL A   1      28.654  30.734  21.678  1.00  0.00     0.000 A 
ATOM     29  C   UNL A   1      27.736  28.936  22.988  1.00  0.00     0.000 A 
ATOM     30  C   UNL A   1      27.564  30.132  22.297  1.00  0.00     0.000 A 
ENDBRANCH  24  25
ENDBRANCH  23  24
ENDBRANCH  20  23
ENDBRANCH  18  19
BRANCH  18  31
ATOM     31  C   UNL A   1      31.008  23.966  24.100  1.00  0.00     0.015 C 
ATOM     32  C   UNL A   1      31.824  23.122  23.115  1.00  0.00     0.010 C 
ATOM     33  C   UNL A   1      30.771  23.098  25.349  1.00  0.00     0.010 C 
ENDBRANCH  18  31
ENDBRANCH  15  18
ENDBRANCH  13  14
ENDBRANCH  10  13
ENDBRANCH   4   9
ENDBRANCH   2   4
ENDBRANCH   1   2
BRANCH   1  34
ATOM     34  C   UNL A   1      38.674  21.265  25.727  1.00  0.00     0.261 C 
BRANCH  34  35
ATOM     35  C   UNL A   1      39.947  20.418  25.743  1.00  0.00     0.202 C 
BRANCH  35  36
ATOM     36  O   UNL A   1      40.908  20.706  26.755  1.00  0.00    -0.374 OA
BRANCH  36  37
ATOM     37  C   UNL A   1      41.618  21.938  26.651  1.00  0.00     0.202 C 
BRANCH  37  38
ATOM     38  C   UNL A   1      42.586  22.304  27.782  1.00  0.00     0.261 C 
BRANCH  38  39
ATOM     39  O   UNL A   1      42.043  23.304  28.640  1.00  0.00    -0.460 OA
BRANCH  39  40
ATOM     40  C   UNL A   1      41.594  24.398  27.991  1.00  0.00     0.338 C 
ATOM     41  O   UNL A   1      40.445  24.772  27.831  1.00  0.00    -0.246 OA
BRANCH  40  42
ATOM     42  C   UNL A   1      42.766  25.209  27.655  1.00  0.00     0.060 A 
ATOM     43  C   UNL A   1      43.535  25.700  28.719  1.00  0.00     0.016 A 
ATOM     44  C   UNL A   1      43.104  25.467  26.325  1.00  0.00     0.016 A 
ATOM     45  C   UNL A   1      44.624  26.514  28.454  1.00  0.00     0.010 A 
ATOM     46  C   UNL A   1      44.189  26.291  26.060  1.00  0.00     0.010 A 
ATOM     47  C   UNL A   1      44.914  26.851  27.127  1.00  0.00    -0.014 A 
BRANCH  47  48
ATOM     48  C   UNL A   1      45.819  27.977  26.851  1.00  0.00     0.031 A 
ATOM     49  C   UNL A   1      47.271  27.665  26.654  1.00  0.00     0.074 A 
ATOM     50  C   UNL A   1      45.350  29.232  26.803  1.00  0.00     0.049 A 
ATOM     51  N   UNL A   1      48.281  28.479  26.508  1.00  0.00    -0.248 NA
ATOM     52  C   UNL A   1      47.635  26.236  26.633  1.00  0.00     0.031 C 
ATOM     53  C   UNL A   1      43.946  29.616  26.942  1.00  0.00     0.029 A 
ATOM     54  N   UNL A   1      46.016  30.415  26.642  1.00  0.00    -0.354 N 
ATOM     55  C   UNL A   1      49.400  27.663  26.404  1.00  0.00     0.074 A 
ATOM     56  C   UNL A   1      48.952  26.295  26.530  1.00  0.00     0.031 C 
ATOM     57  C   UNL A   1      43.859  30.956  26.881  1.00  0.00     0.029 A 
ATOM     58  C   UNL A   1      45.202  31.513  26.741  1.00  0.00     0.049 A 
ATOM     59  H   UNL A   1      46.984  30.472  26.473  1.00  0.00     0.167 HD
ATOM     60  C   UNL A   1      50.689  28.029  26.224  1.00  0.00     0.031 A 
ATOM     61  C   UNL A   1      45.522  32.820  26.749  1.00  0.00     0.031 A 
ATOM     62  C   UNL A   1      51.112  29.398  26.128  1.00  0.00     0.049 A 
ATOM     63  C   UNL A   1      46.967  33.209  26.607  1.00  0.00     0.074 A 
ATOM     64  C   UNL A   1      52.384  29.899  25.931  1.00  0.00     0.029 A 
ATOM     65  N   UNL A   1      50.259  30.488  26.236  1.00  0.00    -0.354 N 
ATOM     66  N   UNL A   1      48.022  32.436  26.485  1.00  0.00    -0.248 NA
ATOM     67  C   UNL A   1      47.268  34.646  26.593  1.00  0.00     0.031 C 
ATOM     68  C   UNL A   1      52.309  31.295  25.977  1.00  0.00     0.029 A 
ATOM     69  C   UNL A   1      50.980  31.663  26.134  1.00  0.00     0.049 A 
ATOM     70  H   UNL A   1      49.284  30.433  26.365  1.00  0.00     0.167 HD
ATOM     71  C   UNL A   1      49.107  33.291  26.348  1.00  0.00     0.074 A 
ATOM     72  C   UNL A   1      48.580  34.641  26.399  1.00  0.00     0.031 C 
ATOM     73  C   UNL A   1      50.420  32.991  26.186  1.00  0.00     0.031 A 
BRANCH  60  74
ATOM     74  C   UNL A   1      51.715  26.931  26.182  1.00  0.00    -0.014 A 
ATOM     75  C   UNL A   1      52.423  26.540  27.331  1.00  0.00     0.009 A 
ATOM     76  C   UNL A   1      51.995  26.291  24.965  1.00  0.00     0.009 A 
ATOM     77  C   UNL A   1      53.424  25.569  27.250  1.00  0.00     0.001 A 
ATOM     78  C   UNL A   1      52.972  25.297  24.893  1.00  0.00     0.001 A 
ATOM     79  C   UNL A   1      53.695  24.946  26.033  1.00  0.00     0.000 A 
ENDBRANCH  60  74
BRANCH  61  80
ATOM     80  C   UNL A   1      44.450  33.835  26.908  1.00  0.00    -0.014 A 
ATOM     81  C   UNL A   1      43.797  34.367  25.787  1.00  0.00     0.009 A 
ATOM     82  C   UNL A   1      44.044  34.245  28.189  1.00  0.00     0.009 A 
ATOM     83  C   UNL A   1      42.767  35.297  25.946  1.00  0.00     0.001 A 
ATOM     84  C   UNL A   1      42.996  35.155  28.344  1.00  0.00     0.001 A 
ATOM     85  C   UNL A   1      42.363  35.685  27.223  1.00  0.00     0.000 A 
ENDBRANCH  61  80
BRANCH  73  86
ATOM     86  C   UNL A   1      51.369  34.139  26.000  1.00  0.00    -0.014 A 
ATOM     87  C   UNL A   1      51.610  34.691  24.734  1.00  0.00     0.009 A 
ATOM     88  C   UNL A   1      51.970  34.722  27.127  1.00  0.00     0.009 A 
ATOM     89  C   UNL A   1      52.458  35.793  24.600  1.00  0.00     0.001 A 
ATOM     90  C   UNL A   1      52.792  35.840  26.993  1.00  0.00     0.001 A 
ATOM     91  C   UNL A   1      53.040  36.371  25.728  1.00  0.00     0.000 A 
ENDBRANCH  73  86
ENDBRANCH  47  48
ENDBRANCH  40  42
ENDBRANCH  39  40
ENDBRANCH  38  39
ENDBRANCH  37  38
ENDBRANCH  36  37
ENDBRANCH  35  36
ENDBRANCH  34  35
ENDBRANCH   1  34
TORSDOF 25
ENDMDL
