MODEL 1
REMARK VINA RESULT:     -11.5      0.000      0.000
REMARK SMILES NS(=O)(=O)c1ccc(-n2nc(C(F)(F)F)cc2-c2ccc(CC(=O)OCCOCCOC(=O)c3ccc(-c4c5nc(c(-c6ccccc6)c6ccc([nH]6)c(-c6ccccc6)c6nc(c(-c7ccccc7)c7ccc4[nH]7)C=C6)C=C5)cc3)cc2)cc1
REMARK SMILES IDX 26 1 25 2 23 3 24 4 22 5 21 6 18 7 19 8 83 9 20 10 82 11
REMARK SMILES IDX 17 12 9 13 10 14 11 15 16 16 8 17 5 18 6 19 85 20 7 21 84 22
REMARK SMILES IDX 2 23 3 24 4 25 1 26 12 29 13 30 14 31 15 32 27 33 28 34
REMARK SMILES IDX 29 35 30 36 31 37 32 38 33 39 34 40 35 41 81 42 36 43 80 44
REMARK SMILES IDX 37 45 38 46 39 47 74 48 40 49 79 50 73 51 75 52 41 53 78 54
REMARK SMILES IDX 72 55 71 56 42 58 64 59 49 60 63 61 50 62 53 63 62 64 76 65
REMARK SMILES IDX 51 66 52 67 61 69 77 70 54 71 43 72 44 73 48 74 45 75 47 76
REMARK SMILES IDX 46 77 65 78 66 79 70 80 67 81 69 82 68 83 55 84 56 85 60 86
REMARK SMILES IDX 57 87 59 88 58 89
REMARK H PARENT 1 27 1 28 75 57 53 68
REMARK Flexibility Score: inf
ROOT
ATOM      1  C   UNL A   1      41.259  19.475  25.730  1.00  0.00     0.261 C 
ENDROOT
BRANCH   1   2
ATOM      2  O   UNL A   1      40.228  19.806  26.683  1.00  0.00    -0.463 OA
BRANCH   2   3
ATOM      3  C   UNL A   1      40.154  21.129  26.989  1.00  0.00     0.310 C 
ATOM      4  O   UNL A   1      40.425  21.591  28.096  1.00  0.00    -0.252 OA
BRANCH   3   5
ATOM      5  C   UNL A   1      39.683  22.039  25.879  1.00  0.00     0.158 C 
BRANCH   5   6
ATOM      6  C   UNL A   1      38.211  22.291  25.629  1.00  0.00    -0.037 A 
ATOM      7  C   UNL A   1      35.534  22.948  24.936  1.00  0.00     0.000 A 
ATOM      8  C   UNL A   1      36.186  21.865  24.337  1.00  0.00     0.010 A 
ATOM      9  C   UNL A   1      36.242  23.712  25.872  1.00  0.00     0.010 A 
ATOM     10  C   UNL A   1      37.505  21.538  24.680  1.00  0.00     0.005 A 
ATOM     11  C   UNL A   1      37.561  23.381  26.222  1.00  0.00     0.005 A 
BRANCH   7  12
ATOM     12  C   UNL A   1      34.150  23.294  24.576  1.00  0.00     0.075 A 
ATOM     13  N   UNL A   1      33.095  22.406  24.329  1.00  0.00    -0.233 N 
ATOM     14  N   UNL A   1      31.985  23.052  23.876  1.00  0.00    -0.163 NA
ATOM     15  C   UNL A   1      32.309  24.359  23.876  1.00  0.00     0.167 A 
ATOM     16  C   UNL A   1      33.656  24.545  24.262  1.00  0.00     0.064 A 
BRANCH  13  17
ATOM     17  C   UNL A   1      33.076  20.994  24.512  1.00  0.00     0.065 A 
ATOM     18  C   UNL A   1      33.043  18.177  24.810  1.00  0.00     0.082 A 
ATOM     19  C   UNL A   1      32.888  18.789  23.582  1.00  0.00     0.024 A 
ATOM     20  C   UNL A   1      33.152  18.989  25.936  1.00  0.00     0.024 A 
ATOM     21  C   UNL A   1      32.905  20.170  23.414  1.00  0.00     0.030 A 
ATOM     22  C   UNL A   1      33.217  20.400  25.779  1.00  0.00     0.030 A 
BRANCH  18  23
ATOM     23  S   UNL A   1      33.228  16.402  24.833  1.00  0.00     0.238 S 
ATOM     24  O   UNL A   1      33.547  15.943  23.494  1.00  0.00    -0.207 OA
ATOM     25  O   UNL A   1      32.149  15.840  25.587  1.00  0.00    -0.207 OA
BRANCH  23  26
ATOM     26  N   UNL A   1      34.648  16.127  25.696  1.00  0.00    -0.225 NA
ATOM     27  H   UNL A   1      35.358  15.745  25.071  1.00  0.00     0.137 HD
ATOM     28  H   UNL A   1      34.466  15.465  26.449  1.00  0.00     0.137 HD
ENDBRANCH  23  26
ENDBRANCH  18  23
ENDBRANCH  13  17
BRANCH  15  29
ATOM     29  C   UNL A   1      31.361  25.455  23.467  1.00  0.00     0.435 C 
ATOM     30  F   UNL A   1      31.576  26.616  24.136  1.00  0.00    -0.164 F 
ATOM     31  F   UNL A   1      31.437  25.734  22.139  1.00  0.00    -0.164 F 
ATOM     32  F   UNL A   1      30.064  25.113  23.708  1.00  0.00    -0.164 F 
ENDBRANCH  15  29
ENDBRANCH   7  12
ENDBRANCH   5   6
ENDBRANCH   3   5
ENDBRANCH   2   3
ENDBRANCH   1   2
BRANCH   1  33
ATOM     33  C   UNL A   1      42.399  18.595  26.260  1.00  0.00     0.202 C 
BRANCH  33  34
ATOM     34  O   UNL A   1      43.380  18.104  25.362  1.00  0.00    -0.374 OA
BRANCH  34  35
ATOM     35  C   UNL A   1      44.705  18.593  25.473  1.00  0.00     0.202 C 
BRANCH  35  36
ATOM     36  C   UNL A   1      45.349  19.292  24.278  1.00  0.00     0.261 C 
BRANCH  36  37
ATOM     37  O   UNL A   1      44.759  20.544  23.861  1.00  0.00    -0.460 OA
BRANCH  37  38
ATOM     38  C   UNL A   1      45.225  21.656  24.514  1.00  0.00     0.338 C 
ATOM     39  O   UNL A   1      46.396  21.886  24.767  1.00  0.00    -0.246 OA
BRANCH  38  40
ATOM     40  C   UNL A   1      44.098  22.395  25.161  1.00  0.00     0.060 A 
ATOM     41  C   UNL A   1      44.066  23.767  24.892  1.00  0.00     0.016 A 
ATOM     42  C   UNL A   1      43.531  21.925  26.341  1.00  0.00     0.016 A 
ATOM     43  C   UNL A   1      43.889  24.666  25.949  1.00  0.00     0.010 A 
ATOM     44  C   UNL A   1      43.337  22.838  27.382  1.00  0.00     0.010 A 
ATOM     45  C   UNL A   1      43.710  24.194  27.257  1.00  0.00    -0.014 A 
BRANCH  45  46
ATOM     46  C   UNL A   1      43.478  25.117  28.409  1.00  0.00     0.031 A 
ATOM     47  C   UNL A   1      42.235  25.822  28.070  1.00  0.00     0.074 A 
ATOM     48  C   UNL A   1      44.114  25.436  29.574  1.00  0.00     0.049 A 
ATOM     49  N   UNL A   1      42.236  26.880  27.324  1.00  0.00    -0.248 NA
ATOM     50  C   UNL A   1      40.943  25.128  28.158  1.00  0.00     0.031 C 
ATOM     51  C   UNL A   1      45.396  25.029  30.106  1.00  0.00     0.029 A 
ATOM     52  N   UNL A   1      43.689  26.256  30.610  1.00  0.00    -0.354 N 
ATOM     53  C   UNL A   1      40.899  27.135  27.121  1.00  0.00     0.074 A 
ATOM     54  C   UNL A   1      40.236  25.868  27.299  1.00  0.00     0.031 C 
ATOM     55  C   UNL A   1      45.524  25.280  31.430  1.00  0.00     0.029 A 
ATOM     56  C   UNL A   1      44.384  26.068  31.837  1.00  0.00     0.049 A 
ATOM     57  H   UNL A   1      42.965  26.915  30.505  1.00  0.00     0.167 HD
ATOM     58  C   UNL A   1      40.432  28.388  27.363  1.00  0.00     0.031 A 
ATOM     59  C   UNL A   1      44.262  26.715  33.038  1.00  0.00     0.031 A 
ATOM     60  C   UNL A   1      41.517  29.350  27.408  1.00  0.00     0.049 A 
ATOM     61  C   UNL A   1      43.635  28.021  32.763  1.00  0.00     0.074 A 
ATOM     62  C   UNL A   1      42.550  29.705  26.561  1.00  0.00     0.029 A 
ATOM     63  N   UNL A   1      41.880  29.789  28.658  1.00  0.00    -0.354 N 
ATOM     64  N   UNL A   1      44.291  28.986  32.190  1.00  0.00    -0.248 NA
ATOM     65  C   UNL A   1      42.195  28.016  32.580  1.00  0.00     0.031 C 
ATOM     66  C   UNL A   1      43.667  29.962  27.410  1.00  0.00     0.029 A 
ATOM     67  C   UNL A   1      43.244  29.874  28.734  1.00  0.00     0.049 A 
ATOM     68  H   UNL A   1      41.256  30.008  29.387  1.00  0.00     0.167 HD
ATOM     69  C   UNL A   1      43.454  29.370  31.157  1.00  0.00     0.074 A 
ATOM     70  C   UNL A   1      42.153  28.765  31.474  1.00  0.00     0.031 C 
ATOM     71  C   UNL A   1      43.967  29.842  29.984  1.00  0.00     0.031 A 
BRANCH  58  72
ATOM     72  C   UNL A   1      39.137  28.608  28.109  1.00  0.00    -0.014 A 
ATOM     73  C   UNL A   1      38.234  29.546  27.594  1.00  0.00     0.009 A 
ATOM     74  C   UNL A   1      38.893  28.153  29.424  1.00  0.00     0.009 A 
ATOM     75  C   UNL A   1      37.189  30.045  28.379  1.00  0.00     0.001 A 
ATOM     76  C   UNL A   1      37.833  28.618  30.196  1.00  0.00     0.001 A 
ATOM     77  C   UNL A   1      36.992  29.586  29.679  1.00  0.00     0.000 A 
ENDBRANCH  58  72
BRANCH  59  78
ATOM     78  C   UNL A   1      44.280  26.162  34.427  1.00  0.00    -0.014 A 
ATOM     79  C   UNL A   1      44.421  24.773  34.661  1.00  0.00     0.009 A 
ATOM     80  C   UNL A   1      44.458  27.008  35.530  1.00  0.00     0.009 A 
ATOM     81  C   UNL A   1      44.814  24.269  35.915  1.00  0.00     0.001 A 
ATOM     82  C   UNL A   1      44.850  26.501  36.780  1.00  0.00     0.001 A 
ATOM     83  C   UNL A   1      45.056  25.139  36.969  1.00  0.00     0.000 A 
ENDBRANCH  59  78
BRANCH  71  84
ATOM     84  C   UNL A   1      45.428  30.219  29.934  1.00  0.00    -0.014 A 
ATOM     85  C   UNL A   1      46.476  29.336  29.612  1.00  0.00     0.009 A 
ATOM     86  C   UNL A   1      45.732  31.578  30.097  1.00  0.00     0.009 A 
ATOM     87  C   UNL A   1      47.791  29.809  29.486  1.00  0.00     0.001 A 
ATOM     88  C   UNL A   1      47.036  32.050  29.954  1.00  0.00     0.001 A 
ATOM     89  C   UNL A   1      48.067  31.165  29.656  1.00  0.00     0.000 A 
ENDBRANCH  71  84
ENDBRANCH  45  46
ENDBRANCH  38  40
ENDBRANCH  37  38
ENDBRANCH  36  37
ENDBRANCH  35  36
ENDBRANCH  34  35
ENDBRANCH  33  34
ENDBRANCH   1  33
TORSDOF 20
ENDMDL
MODEL 2
REMARK VINA RESULT:     -11.4      3.900      8.122
REMARK SMILES NS(=O)(=O)c1ccc(-n2nc(C(F)(F)F)cc2-c2ccc(CC(=O)OCCOCCOC(=O)c3ccc(-c4c5nc(c(-c6ccccc6)c6ccc([nH]6)c(-c6ccccc6)c6nc(c(-c7ccccc7)c7ccc4[nH]7)C=C6)C=C5)cc3)cc2)cc1
REMARK SMILES IDX 26 1 25 2 23 3 24 4 22 5 21 6 18 7 19 8 83 9 20 10 82 11
REMARK SMILES IDX 17 12 9 13 10 14 11 15 16 16 8 17 5 18 6 19 85 20 7 21 84 22
REMARK SMILES IDX 2 23 3 24 4 25 1 26 12 29 13 30 14 31 15 32 27 33 28 34
REMARK SMILES IDX 29 35 30 36 31 37 32 38 33 39 34 40 35 41 81 42 36 43 80 44
REMARK SMILES IDX 37 45 38 46 39 47 74 48 40 49 79 50 73 51 75 52 41 53 78 54
REMARK SMILES IDX 72 55 71 56 42 58 64 59 49 60 63 61 50 62 53 63 62 64 76 65
REMARK SMILES IDX 51 66 52 67 61 69 77 70 54 71 43 72 44 73 48 74 45 75 47 76
REMARK SMILES IDX 46 77 65 78 66 79 70 80 67 81 69 82 68 83 55 84 56 85 60 86
REMARK SMILES IDX 57 87 59 88 58 89
REMARK H PARENT 1 27 1 28 75 57 53 68
REMARK Flexibility Score: inf
ROOT
ATOM      1  C   UNL A   1      31.251  28.240  24.798  1.00  0.00     0.261 C 
ENDROOT
BRANCH   1   2
ATOM      2  O   UNL A   1      31.223  27.360  23.655  1.00  0.00    -0.463 OA
BRANCH   2   3
ATOM      3  C   UNL A   1      30.124  26.562  23.590  1.00  0.00     0.310 C 
ATOM      4  O   UNL A   1      28.972  26.988  23.530  1.00  0.00    -0.252 OA
BRANCH   3   5
ATOM      5  C   UNL A   1      30.385  25.075  23.621  1.00  0.00     0.158 C 
BRANCH   5   6
ATOM      6  C   UNL A   1      31.720  24.512  24.063  1.00  0.00    -0.037 A 
ATOM      7  C   UNL A   1      34.328  23.740  24.888  1.00  0.00     0.000 A 
ATOM      8  C   UNL A   1      33.349  24.081  25.827  1.00  0.00     0.010 A 
ATOM      9  C   UNL A   1      33.995  23.808  23.529  1.00  0.00     0.010 A 
ATOM     10  C   UNL A   1      32.062  24.459  25.422  1.00  0.00     0.005 A 
ATOM     11  C   UNL A   1      32.704  24.180  23.122  1.00  0.00     0.005 A 
BRANCH   7  12
ATOM     12  C   UNL A   1      35.681  23.345  25.310  1.00  0.00     0.075 A 
ATOM     13  N   UNL A   1      36.153  22.043  25.520  1.00  0.00    -0.233 N 
ATOM     14  N   UNL A   1      37.408  22.038  26.049  1.00  0.00    -0.163 NA
ATOM     15  C   UNL A   1      37.762  23.335  26.137  1.00  0.00     0.167 A 
ATOM     16  C   UNL A   1      36.702  24.175  25.729  1.00  0.00     0.064 A 
BRANCH  13  17
ATOM     17  C   UNL A   1      35.492  20.814  25.233  1.00  0.00     0.065 A 
ATOM     18  C   UNL A   1      34.120  18.401  24.668  1.00  0.00     0.082 A 
ATOM     19  C   UNL A   1      33.465  19.538  25.099  1.00  0.00     0.024 A 
ATOM     20  C   UNL A   1      35.509  18.443  24.578  1.00  0.00     0.024 A 
ATOM     21  C   UNL A   1      34.119  20.733  25.378  1.00  0.00     0.030 A 
ATOM     22  C   UNL A   1      36.191  19.667  24.815  1.00  0.00     0.030 A 
BRANCH  18  23
ATOM     23  S   UNL A   1      33.122  17.022  24.132  1.00  0.00     0.238 S 
ATOM     24  O   UNL A   1      31.883  17.014  24.888  1.00  0.00    -0.207 OA
ATOM     25  O   UNL A   1      33.956  15.863  24.038  1.00  0.00    -0.207 OA
BRANCH  23  26
ATOM     26  N   UNL A   1      32.632  17.424  22.572  1.00  0.00    -0.225 NA
ATOM     27  H   UNL A   1      31.909  16.774  22.263  1.00  0.00     0.137 HD
ATOM     28  H   UNL A   1      33.430  17.370  21.940  1.00  0.00     0.137 HD
ENDBRANCH  23  26
ENDBRANCH  18  23
ENDBRANCH  13  17
BRANCH  15  29
ATOM     29  C   UNL A   1      39.097  23.803  26.651  1.00  0.00     0.435 C 
ATOM     30  F   UNL A   1      39.037  24.281  27.920  1.00  0.00    -0.164 F 
ATOM     31  F   UNL A   1      40.031  22.814  26.635  1.00  0.00    -0.164 F 
ATOM     32  F   UNL A   1      39.604  24.813  25.888  1.00  0.00    -0.164 F 
ENDBRANCH  15  29
ENDBRANCH   7  12
ENDBRANCH   5   6
ENDBRANCH   3   5
ENDBRANCH   2   3
ENDBRANCH   1   2
BRANCH   1  33
ATOM     33  C   UNL A   1      31.024  29.728  24.501  1.00  0.00     0.202 C 
BRANCH  33  34
ATOM     34  O   UNL A   1      31.274  30.690  25.511  1.00  0.00    -0.374 OA
BRANCH  34  35
ATOM     35  C   UNL A   1      32.111  30.331  26.597  1.00  0.00     0.202 C 
BRANCH  35  36
ATOM     36  C   UNL A   1      32.969  31.401  27.268  1.00  0.00     0.261 C 
BRANCH  36  37
ATOM     37  O   UNL A   1      34.400  31.209  27.223  1.00  0.00    -0.460 OA
BRANCH  37  38
ATOM     38  C   UNL A   1      35.137  32.129  27.924  1.00  0.00     0.338 C 
ATOM     39  O   UNL A   1      35.304  33.294  27.599  1.00  0.00    -0.246 OA
BRANCH  38  40
ATOM     40  C   UNL A   1      35.974  31.452  28.960  1.00  0.00     0.060 A 
ATOM     41  C   UNL A   1      37.177  32.100  29.257  1.00  0.00     0.016 A 
ATOM     42  C   UNL A   1      35.882  30.078  29.155  1.00  0.00     0.016 A 
ATOM     43  C   UNL A   1      38.360  31.355  29.308  1.00  0.00     0.010 A 
ATOM     44  C   UNL A   1      37.071  29.347  29.229  1.00  0.00     0.010 A 
ATOM     45  C   UNL A   1      38.332  29.969  29.100  1.00  0.00    -0.014 A 
BRANCH  45  46
ATOM     46  C   UNL A   1      39.565  29.129  29.185  1.00  0.00     0.031 A 
ATOM     47  C   UNL A   1      39.850  29.037  30.622  1.00  0.00     0.074 A 
ATOM     48  C   UNL A   1      40.414  28.514  28.310  1.00  0.00     0.049 A 
ATOM     49  N   UNL A   1      40.524  29.952  31.242  1.00  0.00    -0.248 NA
ATOM     50  C   UNL A   1      39.018  28.190  31.488  1.00  0.00     0.031 C 
ATOM     51  C   UNL A   1      40.481  28.538  26.866  1.00  0.00     0.029 A 
ATOM     52  N   UNL A   1      41.475  27.658  28.571  1.00  0.00    -0.354 N 
ATOM     53  C   UNL A   1      40.434  29.583  32.563  1.00  0.00     0.074 A 
ATOM     54  C   UNL A   1      39.233  28.793  32.661  1.00  0.00     0.031 C 
ATOM     55  C   UNL A   1      41.237  27.538  26.353  1.00  0.00     0.029 A 
ATOM     56  C   UNL A   1      41.898  26.882  27.456  1.00  0.00     0.049 A 
ATOM     57  H   UNL A   1      41.900  27.591  29.457  1.00  0.00     0.167 HD
ATOM     58  C   UNL A   1      41.577  29.497  33.294  1.00  0.00     0.031 A 
ATOM     59  C   UNL A   1      42.919  25.978  27.337  1.00  0.00     0.031 A 
ATOM     60  C   UNL A   1      42.664  30.208  32.648  1.00  0.00     0.049 A 
ATOM     61  C   UNL A   1      43.884  26.271  28.412  1.00  0.00     0.074 A 
ATOM     62  C   UNL A   1      42.852  31.493  32.174  1.00  0.00     0.029 A 
ATOM     63  N   UNL A   1      43.604  29.428  32.020  1.00  0.00    -0.354 N 
ATOM     64  N   UNL A   1      44.661  27.314  28.367  1.00  0.00    -0.248 NA
ATOM     65  C   UNL A   1      43.547  25.769  29.732  1.00  0.00     0.031 C 
ATOM     66  C   UNL A   1      43.611  31.348  30.975  1.00  0.00     0.029 A 
ATOM     67  C   UNL A   1      43.959  30.008  30.832  1.00  0.00     0.049 A 
ATOM     68  H   UNL A   1      43.967  28.582  32.370  1.00  0.00     0.167 HD
ATOM     69  C   UNL A   1      44.463  27.911  29.599  1.00  0.00     0.074 A 
ATOM     70  C   UNL A   1      43.798  26.888  30.419  1.00  0.00     0.031 C 
ATOM     71  C   UNL A   1      44.537  29.267  29.735  1.00  0.00     0.031 A 
BRANCH  58  72
ATOM     72  C   UNL A   1      41.824  28.330  34.222  1.00  0.00    -0.014 A 
ATOM     73  C   UNL A   1      41.628  28.530  35.594  1.00  0.00     0.009 A 
ATOM     74  C   UNL A   1      42.503  27.150  33.848  1.00  0.00     0.009 A 
ATOM     75  C   UNL A   1      42.143  27.630  36.533  1.00  0.00     0.001 A 
ATOM     76  C   UNL A   1      42.984  26.231  34.776  1.00  0.00     0.001 A 
ATOM     77  C   UNL A   1      42.823  26.486  36.125  1.00  0.00     0.000 A 
ENDBRANCH  58  72
BRANCH  59  78
ATOM     78  C   UNL A   1      42.950  24.659  26.632  1.00  0.00    -0.014 A 
ATOM     79  C   UNL A   1      43.166  24.579  25.236  1.00  0.00     0.009 A 
ATOM     80  C   UNL A   1      43.065  23.465  27.357  1.00  0.00     0.009 A 
ATOM     81  C   UNL A   1      43.570  23.382  24.615  1.00  0.00     0.001 A 
ATOM     82  C   UNL A   1      43.467  22.272  26.734  1.00  0.00     0.001 A 
ATOM     83  C   UNL A   1      43.747  22.233  25.373  1.00  0.00     0.000 A 
ENDBRANCH  59  78
BRANCH  71  84
ATOM     84  C   UNL A   1      45.127  30.075  28.604  1.00  0.00    -0.014 A 
ATOM     85  C   UNL A   1      44.418  30.500  27.466  1.00  0.00     0.009 A 
ATOM     86  C   UNL A   1      46.439  30.536  28.779  1.00  0.00     0.009 A 
ATOM     87  C   UNL A   1      45.026  31.341  26.521  1.00  0.00     0.001 A 
ATOM     88  C   UNL A   1      47.037  31.386  27.850  1.00  0.00     0.001 A 
ATOM     89  C   UNL A   1      46.334  31.783  26.717  1.00  0.00     0.000 A 
ENDBRANCH  71  84
ENDBRANCH  45  46
ENDBRANCH  38  40
ENDBRANCH  37  38
ENDBRANCH  36  37
ENDBRANCH  35  36
ENDBRANCH  34  35
ENDBRANCH  33  34
ENDBRANCH   1  33
TORSDOF 20
ENDMDL
MODEL 3
REMARK VINA RESULT:     -11.1      4.419      7.985
REMARK SMILES NS(=O)(=O)c1ccc(-n2nc(C(F)(F)F)cc2-c2ccc(CC(=O)OCCOCCOC(=O)c3ccc(-c4c5nc(c(-c6ccccc6)c6ccc([nH]6)c(-c6ccccc6)c6nc(c(-c7ccccc7)c7ccc4[nH]7)C=C6)C=C5)cc3)cc2)cc1
REMARK SMILES IDX 26 1 25 2 23 3 24 4 22 5 21 6 18 7 19 8 83 9 20 10 82 11
REMARK SMILES IDX 17 12 9 13 10 14 11 15 16 16 8 17 5 18 6 19 85 20 7 21 84 22
REMARK SMILES IDX 2 23 3 24 4 25 1 26 12 29 13 30 14 31 15 32 27 33 28 34
REMARK SMILES IDX 29 35 30 36 31 37 32 38 33 39 34 40 35 41 81 42 36 43 80 44
REMARK SMILES IDX 37 45 38 46 39 47 74 48 40 49 79 50 73 51 75 52 41 53 78 54
REMARK SMILES IDX 72 55 71 56 42 58 64 59 49 60 63 61 50 62 53 63 62 64 76 65
REMARK SMILES IDX 51 66 52 67 61 69 77 70 54 71 43 72 44 73 48 74 45 75 47 76
REMARK SMILES IDX 46 77 65 78 66 79 70 80 67 81 69 82 68 83 55 84 56 85 60 86
REMARK SMILES IDX 57 87 59 88 58 89
REMARK H PARENT 1 27 1 28 75 57 53 68
REMARK Flexibility Score: inf
ROOT
ATOM      1  C   UNL A   1      33.306  20.261  25.313  1.00  0.00     0.261 C 
ENDROOT
BRANCH   1   2
ATOM      2  O   UNL A   1      32.701  21.538  25.021  1.00  0.00    -0.463 OA
BRANCH   2   3
ATOM      3  C   UNL A   1      32.207  21.646  23.759  1.00  0.00     0.310 C 
ATOM      4  O   UNL A   1      32.033  20.689  23.007  1.00  0.00    -0.252 OA
BRANCH   3   5
ATOM      5  C   UNL A   1      31.892  23.047  23.292  1.00  0.00     0.158 C 
BRANCH   5   6
ATOM      6  C   UNL A   1      32.397  24.265  24.037  1.00  0.00    -0.037 A 
ATOM      7  C   UNL A   1      33.138  26.710  25.284  1.00  0.00     0.000 A 
ATOM      8  C   UNL A   1      32.151  25.889  25.840  1.00  0.00     0.010 A 
ATOM      9  C   UNL A   1      33.738  26.305  24.085  1.00  0.00     0.010 A 
ATOM     10  C   UNL A   1      31.787  24.683  25.228  1.00  0.00     0.005 A 
ATOM     11  C   UNL A   1      33.379  25.092  23.475  1.00  0.00     0.005 A 
BRANCH   7  12
ATOM     12  C   UNL A   1      33.520  27.978  25.923  1.00  0.00     0.075 A 
ATOM     13  N   UNL A   1      32.921  29.231  25.735  1.00  0.00    -0.233 N 
ATOM     14  N   UNL A   1      33.612  30.222  26.365  1.00  0.00    -0.163 NA
ATOM     15  C   UNL A   1      34.627  29.602  26.997  1.00  0.00     0.167 A 
ATOM     16  C   UNL A   1      34.627  28.218  26.712  1.00  0.00     0.064 A 
BRANCH  13  17
ATOM     17  C   UNL A   1      31.734  29.536  25.010  1.00  0.00     0.065 A 
ATOM     18  C   UNL A   1      29.369  30.079  23.548  1.00  0.00     0.082 A 
ATOM     19  C   UNL A   1      30.085  28.910  23.383  1.00  0.00     0.024 A 
ATOM     20  C   UNL A   1      29.878  31.039  24.418  1.00  0.00     0.024 A 
ATOM     21  C   UNL A   1      31.246  28.622  24.094  1.00  0.00     0.030 A 
ATOM     22  C   UNL A   1      31.038  30.745  25.186  1.00  0.00     0.030 A 
BRANCH  18  23
ATOM     23  S   UNL A   1      27.784  30.201  22.737  1.00  0.00     0.238 S 
ATOM     24  O   UNL A   1      27.994  30.331  21.307  1.00  0.00    -0.207 OA
ATOM     25  O   UNL A   1      26.967  31.121  23.467  1.00  0.00    -0.207 OA
BRANCH  23  26
ATOM     26  N   UNL A   1      27.098  28.672  22.900  1.00  0.00    -0.225 NA
ATOM     27  H   UNL A   1      27.461  28.056  22.173  1.00  0.00     0.137 HD
ATOM     28  H   UNL A   1      26.084  28.742  22.812  1.00  0.00     0.137 HD
ENDBRANCH  23  26
ENDBRANCH  18  23
ENDBRANCH  13  17
BRANCH  15  29
ATOM     29  C   UNL A   1      35.642  30.317  27.848  1.00  0.00     0.435 C 
ATOM     30  F   UNL A   1      35.413  30.169  29.178  1.00  0.00    -0.164 F 
ATOM     31  F   UNL A   1      36.910  29.890  27.607  1.00  0.00    -0.164 F 
ATOM     32  F   UNL A   1      35.643  31.659  27.610  1.00  0.00    -0.164 F 
ENDBRANCH  15  29
ENDBRANCH   7  12
ENDBRANCH   5   6
ENDBRANCH   3   5
ENDBRANCH   2   3
ENDBRANCH   1   2
BRANCH   1  33
ATOM     33  C   UNL A   1      34.712  20.042  24.740  1.00  0.00     0.202 C 
BRANCH  33  34
ATOM     34  O   UNL A   1      35.606  21.138  24.638  1.00  0.00    -0.374 OA
BRANCH  34  35
ATOM     35  C   UNL A   1      36.501  21.383  25.709  1.00  0.00     0.202 C 
BRANCH  35  36
ATOM     36  C   UNL A   1      37.883  21.963  25.413  1.00  0.00     0.261 C 
BRANCH  36  37
ATOM     37  O   UNL A   1      38.431  22.870  26.395  1.00  0.00    -0.460 OA
BRANCH  37  38
ATOM     38  C   UNL A   1      39.725  22.615  26.770  1.00  0.00     0.338 C 
ATOM     39  O   UNL A   1      40.117  21.585  27.295  1.00  0.00    -0.246 OA
BRANCH  38  40
ATOM     40  C   UNL A   1      40.534  23.871  26.753  1.00  0.00     0.060 A 
ATOM     41  C   UNL A   1      41.365  24.047  27.864  1.00  0.00     0.016 A 
ATOM     42  C   UNL A   1      40.085  24.991  26.062  1.00  0.00     0.016 A 
ATOM     43  C   UNL A   1      41.375  25.282  28.521  1.00  0.00     0.010 A 
ATOM     44  C   UNL A   1      40.121  26.224  26.720  1.00  0.00     0.010 A 
ATOM     45  C   UNL A   1      40.586  26.341  28.048  1.00  0.00    -0.014 A 
BRANCH  45  46
ATOM     46  C   UNL A   1      40.596  27.688  28.695  1.00  0.00     0.031 A 
ATOM     47  C   UNL A   1      41.787  28.350  28.148  1.00  0.00     0.074 A 
ATOM     48  C   UNL A   1      39.836  28.360  29.608  1.00  0.00     0.049 A 
ATOM     49  N   UNL A   1      42.960  28.178  28.667  1.00  0.00    -0.248 NA
ATOM     50  C   UNL A   1      41.791  28.838  26.761  1.00  0.00     0.031 C 
ATOM     51  C   UNL A   1      38.712  27.936  30.414  1.00  0.00     0.029 A 
ATOM     52  N   UNL A   1      39.926  29.681  30.023  1.00  0.00    -0.354 N 
ATOM     53  C   UNL A   1      43.801  28.824  27.792  1.00  0.00     0.074 A 
ATOM     54  C   UNL A   1      43.106  28.834  26.529  1.00  0.00     0.031 C 
ATOM     55  C   UNL A   1      38.015  28.972  30.938  1.00  0.00     0.029 A 
ATOM     56  C   UNL A   1      38.762  30.179  30.671  1.00  0.00     0.049 A 
ATOM     57  H   UNL A   1      40.731  30.231  29.881  1.00  0.00     0.167 HD
ATOM     58  C   UNL A   1      44.689  29.725  28.288  1.00  0.00     0.031 A 
ATOM     59  C   UNL A   1      38.510  31.402  31.235  1.00  0.00     0.031 A 
ATOM     60  C   UNL A   1      44.869  29.549  29.716  1.00  0.00     0.049 A 
ATOM     61  C   UNL A   1      39.816  32.013  31.540  1.00  0.00     0.074 A 
ATOM     62  C   UNL A   1      45.208  28.492  30.540  1.00  0.00     0.029 A 
ATOM     63  N   UNL A   1      44.249  30.474  30.520  1.00  0.00    -0.354 N 
ATOM     64  N   UNL A   1      40.553  31.593  32.526  1.00  0.00    -0.248 NA
ATOM     65  C   UNL A   1      40.512  32.631  30.427  1.00  0.00     0.031 C 
ATOM     66  C   UNL A   1      44.405  28.646  31.708  1.00  0.00     0.029 A 
ATOM     67  C   UNL A   1      43.704  29.845  31.606  1.00  0.00     0.049 A 
ATOM     68  H   UNL A   1      44.203  31.442  30.342  1.00  0.00     0.167 HD
ATOM     69  C   UNL A   1      41.789  31.391  31.936  1.00  0.00     0.074 A 
ATOM     70  C   UNL A   1      41.715  32.092  30.646  1.00  0.00     0.031 C 
ATOM     71  C   UNL A   1      42.619  30.404  32.379  1.00  0.00     0.031 A 
BRANCH  58  72
ATOM     72  C   UNL A   1      44.906  31.060  27.614  1.00  0.00    -0.014 A 
ATOM     73  C   UNL A   1      46.146  31.295  27.008  1.00  0.00     0.009 A 
ATOM     74  C   UNL A   1      44.067  32.183  27.789  1.00  0.00     0.009 A 
ATOM     75  C   UNL A   1      46.544  32.591  26.663  1.00  0.00     0.001 A 
ATOM     76  C   UNL A   1      44.443  33.469  27.413  1.00  0.00     0.001 A 
ATOM     77  C   UNL A   1      45.696  33.676  26.869  1.00  0.00     0.000 A 
ENDBRANCH  58  72
BRANCH  59  78
ATOM     78  C   UNL A   1      37.275  32.243  31.180  1.00  0.00    -0.014 A 
ATOM     79  C   UNL A   1      37.108  33.236  30.186  1.00  0.00     0.009 A 
ATOM     80  C   UNL A   1      36.133  31.883  31.909  1.00  0.00     0.009 A 
ATOM     81  C   UNL A   1      35.843  33.769  29.875  1.00  0.00     0.001 A 
ATOM     82  C   UNL A   1      34.873  32.417  31.597  1.00  0.00     0.001 A 
ATOM     83  C   UNL A   1      34.719  33.337  30.565  1.00  0.00     0.000 A 
ENDBRANCH  59  78
BRANCH  71  84
ATOM     84  C   UNL A   1      42.309  29.737  33.698  1.00  0.00    -0.014 A 
ATOM     85  C   UNL A   1      41.712  28.471  33.837  1.00  0.00     0.009 A 
ATOM     86  C   UNL A   1      42.774  30.382  34.853  1.00  0.00     0.009 A 
ATOM     87  C   UNL A   1      41.564  27.889  35.105  1.00  0.00     0.001 A 
ATOM     88  C   UNL A   1      42.644  29.795  36.110  1.00  0.00     0.001 A 
ATOM     89  C   UNL A   1      42.032  28.553  36.239  1.00  0.00     0.000 A 
ENDBRANCH  71  84
ENDBRANCH  45  46
ENDBRANCH  38  40
ENDBRANCH  37  38
ENDBRANCH  36  37
ENDBRANCH  35  36
ENDBRANCH  34  35
ENDBRANCH  33  34
ENDBRANCH   1  33
TORSDOF 20
ENDMDL
