MODEL 1
REMARK VINA RESULT:     -11.0      0.000      0.000
REMARK SMILES COc1cccc(-n2cc(C(=O)OCCOCCOC(=O)c3ccc(-c4c5nc(c(-c6ccccc6)c6ccc([nH]6)c(-c6ccccc6)c6nc(c(-c7ccccc7)c7ccc4[nH]7)C=C6)C=C5)cc3)c3c2[C@H](c2cc(OC)c(OC)c(OC)c2)CC(=O)N3)c1
REMARK SMILES IDX 16 1 15 2 14 3 13 4 11 5 12 6 10 7 8 8 9 9 71 10 70 11 72 12
REMARK SMILES IDX 88 13 85 14 86 15 87 17 7 18 3 19 4 20 89 21 5 22 6 23 2 24
REMARK SMILES IDX 1 25 73 26 74 27 84 28 75 29 81 30 78 31 76 32 77 33 82 34
REMARK SMILES IDX 83 35 79 36 80 37 17 38 18 39 19 40 20 41 21 42 22 43 23 44
REMARK SMILES IDX 69 45 24 46 68 47 25 48 26 49 27 50 62 51 28 52 67 53 61 54
REMARK SMILES IDX 63 55 29 56 66 57 60 58 59 59 30 61 52 62 37 63 51 64 38 65
REMARK SMILES IDX 41 66 50 67 64 68 39 69 40 70 49 72 65 73 42 74 31 75 32 76
REMARK SMILES IDX 36 77 33 78 35 79 34 80 53 81 54 82 58 83 55 84 57 85 56 86
REMARK SMILES IDX 43 87 44 88 48 89 45 90 47 91 46 92
REMARK H PARENT 88 16 63 60 41 71
REMARK Flexibility Score: inf
ROOT
ATOM      1  O   UNL A   1      37.357  21.381  24.419  1.00  0.00    -0.374 OA
ENDROOT
BRANCH   1   2
ATOM      2  C   UNL A   1      36.690  22.525  23.890  1.00  0.00     0.202 C 
BRANCH   2   3
ATOM      3  C   UNL A   1      35.899  23.418  24.850  1.00  0.00     0.261 C 
BRANCH   3   4
ATOM      4  O   UNL A   1      34.495  23.111  24.873  1.00  0.00    -0.460 OA
BRANCH   4   5
ATOM      5  C   UNL A   1      33.765  23.897  25.720  1.00  0.00     0.341 C 
ATOM      6  O   UNL A   1      33.251  23.511  26.758  1.00  0.00    -0.246 OA
BRANCH   5   7
ATOM      7  C   UNL A   1      33.785  25.300  25.338  1.00  0.00     0.102 A 
ATOM      8  N   UNL A   1      33.858  27.543  25.625  1.00  0.00    -0.317 N 
ATOM      9  C   UNL A   1      33.961  26.324  26.257  1.00  0.00     0.109 A 
ATOM     10  C   UNL A   1      33.565  27.301  24.295  1.00  0.00     0.055 A 
ATOM     11  C   UNL A   1      33.668  25.939  24.086  1.00  0.00     0.078 A 
ATOM     12  C   UNL A   1      33.183  28.275  23.201  1.00  0.00     0.078 C 
ATOM     13  N   UNL A   1      33.563  25.418  22.819  1.00  0.00    -0.324 N 
ATOM     14  C   UNL A   1      33.805  27.715  21.900  1.00  0.00     0.115 C 
ATOM     15  C   UNL A   1      33.547  26.218  21.702  1.00  0.00     0.225 C 
ATOM     16  H   UNL A   1      33.498  24.442  22.708  1.00  0.00     0.170 HD
ATOM     17  O   UNL A   1      33.402  25.732  20.580  1.00  0.00    -0.275 OA
BRANCH   8  18
ATOM     18  C   UNL A   1      33.823  28.756  26.337  1.00  0.00     0.049 A 
ATOM     19  C   UNL A   1      32.783  30.854  26.902  1.00  0.00     0.120 A 
ATOM     20  C   UNL A   1      33.877  31.146  27.728  1.00  0.00     0.046 A 
ATOM     21  C   UNL A   1      32.742  29.640  26.208  1.00  0.00     0.073 A 
ATOM     22  C   UNL A   1      34.965  30.282  27.808  1.00  0.00     0.006 A 
ATOM     23  C   UNL A   1      34.963  29.111  27.062  1.00  0.00     0.027 A 
BRANCH  19  24
ATOM     24  O   UNL A   1      31.868  31.868  26.845  1.00  0.00    -0.497 OA
ATOM     25  C   UNL A   1      30.798  31.754  25.922  1.00  0.00     0.278 C 
ENDBRANCH  19  24
ENDBRANCH   8  18
BRANCH  12  26
ATOM     26  C   UNL A   1      31.660  28.477  23.117  1.00  0.00    -0.031 A 
ATOM     27  C   UNL A   1      30.824  27.654  23.871  1.00  0.00     0.055 A 
ATOM     28  C   UNL A   1      31.021  29.399  22.275  1.00  0.00     0.055 A 
ATOM     29  C   UNL A   1      29.447  27.567  23.633  1.00  0.00     0.164 A 
ATOM     30  C   UNL A   1      29.617  29.443  22.127  1.00  0.00     0.164 A 
ATOM     31  C   UNL A   1      28.817  28.484  22.778  1.00  0.00     0.203 A 
BRANCH  29  32
ATOM     32  O   UNL A   1      28.834  26.551  24.329  1.00  0.00    -0.493 OA
ATOM     33  C   UNL A   1      29.717  25.634  24.978  1.00  0.00     0.278 C 
ENDBRANCH  29  32
BRANCH  30  34
ATOM     34  O   UNL A   1      29.002  30.359  21.312  1.00  0.00    -0.493 OA
ATOM     35  C   UNL A   1      28.669  31.628  21.863  1.00  0.00     0.278 C 
ENDBRANCH  30  34
BRANCH  31  36
ATOM     36  O   UNL A   1      27.459  28.339  22.674  1.00  0.00    -0.490 OA
ATOM     37  C   UNL A   1      26.609  28.962  23.621  1.00  0.00     0.278 C 
ENDBRANCH  31  36
ENDBRANCH  12  26
ENDBRANCH   5   7
ENDBRANCH   4   5
ENDBRANCH   3   4
ENDBRANCH   2   3
ENDBRANCH   1   2
BRANCH   1  38
ATOM     38  C   UNL A   1      37.869  21.395  25.746  1.00  0.00     0.202 C 
BRANCH  38  39
ATOM     39  C   UNL A   1      39.302  21.844  25.971  1.00  0.00     0.261 C 
BRANCH  39  40
ATOM     40  O   UNL A   1      39.383  23.182  26.429  1.00  0.00    -0.460 OA
BRANCH  40  41
ATOM     41  C   UNL A   1      40.634  23.550  26.798  1.00  0.00     0.338 C 
ATOM     42  O   UNL A   1      41.681  23.007  26.507  1.00  0.00    -0.246 OA
BRANCH  41  43
ATOM     43  C   UNL A   1      40.515  24.604  27.808  1.00  0.00     0.060 A 
ATOM     44  C   UNL A   1      39.315  25.318  27.812  1.00  0.00     0.016 A 
ATOM     45  C   UNL A   1      41.677  25.083  28.427  1.00  0.00     0.016 A 
ATOM     46  C   UNL A   1      39.347  26.628  28.227  1.00  0.00     0.010 A 
ATOM     47  C   UNL A   1      41.718  26.401  28.798  1.00  0.00     0.010 A 
ATOM     48  C   UNL A   1      40.575  27.174  28.616  1.00  0.00    -0.014 A 
BRANCH  48  49
ATOM     49  C   UNL A   1      40.611  28.555  29.032  1.00  0.00     0.031 A 
ATOM     50  C   UNL A   1      41.815  29.224  28.498  1.00  0.00     0.074 A 
ATOM     51  C   UNL A   1      39.603  29.147  29.697  1.00  0.00     0.049 A 
ATOM     52  N   UNL A   1      42.884  29.534  29.151  1.00  0.00    -0.248 NA
ATOM     53  C   UNL A   1      41.955  29.316  27.031  1.00  0.00     0.031 C 
ATOM     54  C   UNL A   1      38.278  28.603  30.005  1.00  0.00     0.029 A 
ATOM     55  N   UNL A   1      39.513  30.426  30.148  1.00  0.00    -0.354 N 
ATOM     56  C   UNL A   1      43.720  30.110  28.204  1.00  0.00     0.074 A 
ATOM     57  C   UNL A   1      43.233  29.679  26.922  1.00  0.00     0.031 C 
ATOM     58  C   UNL A   1      37.451  29.617  30.358  1.00  0.00     0.029 A 
ATOM     59  C   UNL A   1      38.218  30.852  30.419  1.00  0.00     0.049 A 
ATOM     60  H   UNL A   1      40.300  31.003  30.272  1.00  0.00     0.167 HD
ATOM     61  C   UNL A   1      44.453  31.210  28.524  1.00  0.00     0.031 A 
ATOM     62  C   UNL A   1      37.812  32.136  30.600  1.00  0.00     0.031 A 
ATOM     63  C   UNL A   1      44.582  31.351  29.956  1.00  0.00     0.049 A 
ATOM     64  C   UNL A   1      39.020  32.947  30.884  1.00  0.00     0.074 A 
ATOM     65  C   UNL A   1      45.048  30.549  30.980  1.00  0.00     0.029 A 
ATOM     66  N   UNL A   1      43.794  32.308  30.551  1.00  0.00    -0.354 N 
ATOM     67  N   UNL A   1      39.708  32.846  31.983  1.00  0.00    -0.248 NA
ATOM     68  C   UNL A   1      39.730  33.528  29.755  1.00  0.00     0.031 C 
ATOM     69  C   UNL A   1      44.168  30.796  32.077  1.00  0.00     0.029 A 
ATOM     70  C   UNL A   1      43.267  31.792  31.702  1.00  0.00     0.049 A 
ATOM     71  H   UNL A   1      43.635  33.216  30.203  1.00  0.00     0.167 HD
ATOM     72  C   UNL A   1      41.032  32.890  31.570  1.00  0.00     0.074 A 
ATOM     73  C   UNL A   1      40.983  33.418  30.206  1.00  0.00     0.031 C 
ATOM     74  C   UNL A   1      41.998  32.211  32.257  1.00  0.00     0.031 A 
BRANCH  61  75
ATOM     75  C   UNL A   1      44.555  32.400  27.590  1.00  0.00    -0.014 A 
ATOM     76  C   UNL A   1      45.741  32.567  26.857  1.00  0.00     0.009 A 
ATOM     77  C   UNL A   1      43.683  33.509  27.625  1.00  0.00     0.009 A 
ATOM     78  C   UNL A   1      46.079  33.801  26.289  1.00  0.00     0.001 A 
ATOM     79  C   UNL A   1      43.994  34.729  27.023  1.00  0.00     0.001 A 
ATOM     80  C   UNL A   1      45.211  34.884  26.383  1.00  0.00     0.000 A 
ENDBRANCH  61  75
BRANCH  62  81
ATOM     81  C   UNL A   1      36.523  32.781  30.258  1.00  0.00    -0.014 A 
ATOM     82  C   UNL A   1      35.526  32.952  31.236  1.00  0.00     0.009 A 
ATOM     83  C   UNL A   1      36.377  33.492  29.054  1.00  0.00     0.009 A 
ATOM     84  C   UNL A   1      34.455  33.836  31.035  1.00  0.00     0.001 A 
ATOM     85  C   UNL A   1      35.305  34.371  28.851  1.00  0.00     0.001 A 
ATOM     86  C   UNL A   1      34.354  34.556  29.848  1.00  0.00     0.000 A 
ENDBRANCH  62  81
BRANCH  74  87
ATOM     87  C   UNL A   1      41.645  31.673  33.623  1.00  0.00    -0.014 A 
ATOM     88  C   UNL A   1      41.476  32.478  34.764  1.00  0.00     0.009 A 
ATOM     89  C   UNL A   1      41.356  30.305  33.727  1.00  0.00     0.009 A 
ATOM     90  C   UNL A   1      41.070  31.917  35.982  1.00  0.00     0.001 A 
ATOM     91  C   UNL A   1      40.928  29.750  34.934  1.00  0.00     0.001 A 
ATOM     92  C   UNL A   1      40.794  30.554  36.063  1.00  0.00     0.000 A 
ENDBRANCH  74  87
ENDBRANCH  48  49
ENDBRANCH  41  43
ENDBRANCH  40  41
ENDBRANCH  39  40
ENDBRANCH  38  39
ENDBRANCH   1  38
TORSDOF 20
ENDMDL
MODEL 2
REMARK VINA RESULT:      -9.2      3.610      5.692
REMARK SMILES COc1cccc(-n2cc(C(=O)OCCOCCOC(=O)c3ccc(-c4c5nc(c(-c6ccccc6)c6ccc([nH]6)c(-c6ccccc6)c6nc(c(-c7ccccc7)c7ccc4[nH]7)C=C6)C=C5)cc3)c3c2[C@H](c2cc(OC)c(OC)c(OC)c2)CC(=O)N3)c1
REMARK SMILES IDX 16 1 15 2 14 3 13 4 11 5 12 6 10 7 8 8 9 9 71 10 70 11 72 12
REMARK SMILES IDX 88 13 85 14 86 15 87 17 7 18 3 19 4 20 89 21 5 22 6 23 2 24
REMARK SMILES IDX 1 25 73 26 74 27 84 28 75 29 81 30 78 31 76 32 77 33 82 34
REMARK SMILES IDX 83 35 79 36 80 37 17 38 18 39 19 40 20 41 21 42 22 43 23 44
REMARK SMILES IDX 69 45 24 46 68 47 25 48 26 49 27 50 62 51 28 52 67 53 61 54
REMARK SMILES IDX 63 55 29 56 66 57 60 58 59 59 30 61 52 62 37 63 51 64 38 65
REMARK SMILES IDX 41 66 50 67 64 68 39 69 40 70 49 72 65 73 42 74 31 75 32 76
REMARK SMILES IDX 36 77 33 78 35 79 34 80 53 81 54 82 58 83 55 84 57 85 56 86
REMARK SMILES IDX 43 87 44 88 48 89 45 90 47 91 46 92
REMARK H PARENT 88 16 63 60 41 71
REMARK Flexibility Score: inf
ROOT
ATOM      1  O   UNL A   1      37.403  21.295  25.464  1.00  0.00    -0.374 OA
ENDROOT
BRANCH   1   2
ATOM      2  C   UNL A   1      36.510  21.841  24.496  1.00  0.00     0.202 C 
BRANCH   2   3
ATOM      3  C   UNL A   1      35.827  23.177  24.803  1.00  0.00     0.261 C 
BRANCH   3   4
ATOM      4  O   UNL A   1      34.393  23.102  24.739  1.00  0.00    -0.460 OA
BRANCH   4   5
ATOM      5  C   UNL A   1      33.751  23.905  25.639  1.00  0.00     0.341 C 
ATOM      6  O   UNL A   1      33.293  23.527  26.705  1.00  0.00    -0.246 OA
BRANCH   5   7
ATOM      7  C   UNL A   1      33.799  25.311  25.270  1.00  0.00     0.102 A 
ATOM      8  N   UNL A   1      33.927  27.548  25.575  1.00  0.00    -0.317 N 
ATOM      9  C   UNL A   1      34.008  26.322  26.195  1.00  0.00     0.109 A 
ATOM     10  C   UNL A   1      33.613  27.326  24.246  1.00  0.00     0.055 A 
ATOM     11  C   UNL A   1      33.683  25.964  24.025  1.00  0.00     0.078 A 
ATOM     12  C   UNL A   1      33.242  28.318  23.165  1.00  0.00     0.078 C 
ATOM     13  N   UNL A   1      33.552  25.457  22.754  1.00  0.00    -0.324 N 
ATOM     14  C   UNL A   1      33.837  27.755  21.852  1.00  0.00     0.115 C 
ATOM     15  C   UNL A   1      33.542  26.267  21.644  1.00  0.00     0.225 C 
ATOM     16  H   UNL A   1      33.463  24.483  22.636  1.00  0.00     0.170 HD
ATOM     17  O   UNL A   1      33.374  25.795  20.520  1.00  0.00    -0.275 OA
BRANCH   8  18
ATOM     18  C   UNL A   1      33.928  28.756  26.299  1.00  0.00     0.049 A 
ATOM     19  C   UNL A   1      32.889  30.819  26.982  1.00  0.00     0.120 A 
ATOM     20  C   UNL A   1      34.050  31.137  27.699  1.00  0.00     0.046 A 
ATOM     21  C   UNL A   1      32.815  29.608  26.284  1.00  0.00     0.073 A 
ATOM     22  C   UNL A   1      35.164  30.305  27.664  1.00  0.00     0.006 A 
ATOM     23  C   UNL A   1      35.122  29.140  26.911  1.00  0.00     0.027 A 
BRANCH  19  24
ATOM     24  O   UNL A   1      31.944  31.806  27.023  1.00  0.00    -0.497 OA
ATOM     25  C   UNL A   1      30.943  31.820  26.020  1.00  0.00     0.278 C 
ENDBRANCH  19  24
ENDBRANCH   8  18
BRANCH  12  26
ATOM     26  C   UNL A   1      31.723  28.555  23.101  1.00  0.00    -0.031 A 
ATOM     27  C   UNL A   1      30.873  27.708  23.811  1.00  0.00     0.055 A 
ATOM     28  C   UNL A   1      31.100  29.536  22.315  1.00  0.00     0.055 A 
ATOM     29  C   UNL A   1      29.494  27.663  23.576  1.00  0.00     0.164 A 
ATOM     30  C   UNL A   1      29.696  29.617  22.176  1.00  0.00     0.164 A 
ATOM     31  C   UNL A   1      28.879  28.639  22.777  1.00  0.00     0.203 A 
BRANCH  29  32
ATOM     32  O   UNL A   1      28.863  26.621  24.216  1.00  0.00    -0.493 OA
ATOM     33  C   UNL A   1      29.723  25.588  24.697  1.00  0.00     0.278 C 
ENDBRANCH  29  32
BRANCH  30  34
ATOM     34  O   UNL A   1      29.098  30.590  21.418  1.00  0.00    -0.493 OA
ATOM     35  C   UNL A   1      28.903  31.871  22.005  1.00  0.00     0.278 C 
ENDBRANCH  30  34
BRANCH  31  36
ATOM     36  O   UNL A   1      27.518  28.528  22.672  1.00  0.00    -0.490 OA
ATOM     37  C   UNL A   1      26.681  29.343  23.472  1.00  0.00     0.278 C 
ENDBRANCH  31  36
ENDBRANCH  12  26
ENDBRANCH   5   7
ENDBRANCH   4   5
ENDBRANCH   3   4
ENDBRANCH   2   3
ENDBRANCH   1   2
BRANCH   1  38
ATOM     38  C   UNL A   1      38.537  22.036  25.898  1.00  0.00     0.202 C 
BRANCH  38  39
ATOM     39  C   UNL A   1      39.842  21.298  26.142  1.00  0.00     0.261 C 
BRANCH  39  40
ATOM     40  O   UNL A   1      40.976  22.115  25.908  1.00  0.00    -0.460 OA
BRANCH  40  41
ATOM     41  C   UNL A   1      41.369  22.814  27.000  1.00  0.00     0.338 C 
ATOM     42  O   UNL A   1      40.737  23.014  28.019  1.00  0.00    -0.246 OA
BRANCH  41  43
ATOM     43  C   UNL A   1      42.623  23.496  26.672  1.00  0.00     0.060 A 
ATOM     44  C   UNL A   1      43.673  23.316  27.573  1.00  0.00     0.016 A 
ATOM     45  C   UNL A   1      42.601  24.544  25.742  1.00  0.00     0.016 A 
ATOM     46  C   UNL A   1      44.587  24.335  27.708  1.00  0.00     0.010 A 
ATOM     47  C   UNL A   1      43.485  25.577  25.907  1.00  0.00     0.010 A 
ATOM     48  C   UNL A   1      44.413  25.492  26.941  1.00  0.00    -0.014 A 
BRANCH  48  49
ATOM     49  C   UNL A   1      45.362  26.567  27.098  1.00  0.00     0.031 A 
ATOM     50  C   UNL A   1      46.666  26.195  26.511  1.00  0.00     0.074 A 
ATOM     51  C   UNL A   1      45.030  27.774  27.590  1.00  0.00     0.049 A 
ATOM     52  N   UNL A   1      47.733  25.847  27.149  1.00  0.00    -0.248 NA
ATOM     53  C   UNL A   1      46.713  25.918  25.061  1.00  0.00     0.031 C 
ATOM     54  C   UNL A   1      43.695  28.278  27.925  1.00  0.00     0.029 A 
ATOM     55  N   UNL A   1      45.820  28.860  27.793  1.00  0.00    -0.354 N 
ATOM     56  C   UNL A   1      48.663  25.571  26.156  1.00  0.00     0.074 A 
ATOM     57  C   UNL A   1      47.910  25.344  24.952  1.00  0.00     0.031 C 
ATOM     58  C   UNL A   1      43.746  29.627  28.043  1.00  0.00     0.029 A 
ATOM     59  C   UNL A   1      45.129  30.060  27.914  1.00  0.00     0.049 A 
ATOM     60  H   UNL A   1      46.800  28.802  27.848  1.00  0.00     0.167 HD
ATOM     61  C   UNL A   1      49.955  25.971  26.305  1.00  0.00     0.031 A 
ATOM     62  C   UNL A   1      45.661  31.309  27.835  1.00  0.00     0.031 A 
ATOM     63  C   UNL A   1      50.259  26.240  27.691  1.00  0.00     0.049 A 
ATOM     64  C   UNL A   1      47.125  31.180  28.026  1.00  0.00     0.074 A 
ATOM     65  C   UNL A   1      50.182  25.520  28.868  1.00  0.00     0.029 A 
ATOM     66  N   UNL A   1      50.323  27.564  28.059  1.00  0.00    -0.354 N 
ATOM     67  N   UNL A   1      47.673  30.850  29.159  1.00  0.00    -0.248 NA
ATOM     68  C   UNL A   1      47.948  30.958  26.847  1.00  0.00     0.031 C 
ATOM     69  C   UNL A   1      49.760  26.462  29.855  1.00  0.00     0.029 A 
ATOM     70  C   UNL A   1      49.683  27.720  29.257  1.00  0.00     0.049 A 
ATOM     71  H   UNL A   1      50.757  28.281  27.543  1.00  0.00     0.167 HD
ATOM     72  C   UNL A   1      48.676  29.957  28.813  1.00  0.00     0.074 A 
ATOM     73  C   UNL A   1      48.868  30.145  27.373  1.00  0.00     0.031 C 
ATOM     74  C   UNL A   1      49.031  28.946  29.660  1.00  0.00     0.031 A 
BRANCH  61  75
ATOM     75  C   UNL A   1      50.721  26.629  25.175  1.00  0.00    -0.014 A 
ATOM     76  C   UNL A   1      51.968  27.204  25.468  1.00  0.00     0.009 A 
ATOM     77  C   UNL A   1      50.153  26.974  23.930  1.00  0.00     0.009 A 
ATOM     78  C   UNL A   1      52.554  28.147  24.616  1.00  0.00     0.001 A 
ATOM     79  C   UNL A   1      50.754  27.881  23.056  1.00  0.00     0.001 A 
ATOM     80  C   UNL A   1      51.941  28.495  23.417  1.00  0.00     0.000 A 
ENDBRANCH  61  75
BRANCH  62  81
ATOM     81  C   UNL A   1      45.066  32.562  27.315  1.00  0.00    -0.014 A 
ATOM     82  C   UNL A   1      44.778  32.703  25.945  1.00  0.00     0.009 A 
ATOM     83  C   UNL A   1      44.508  33.508  28.194  1.00  0.00     0.009 A 
ATOM     84  C   UNL A   1      43.928  33.719  25.482  1.00  0.00     0.001 A 
ATOM     85  C   UNL A   1      43.664  34.524  27.732  1.00  0.00     0.001 A 
ATOM     86  C   UNL A   1      43.359  34.619  26.378  1.00  0.00     0.000 A 
ENDBRANCH  62  81
BRANCH  74  87
ATOM     87  C   UNL A   1      48.527  29.011  31.082  1.00  0.00    -0.014 A 
ATOM     88  C   UNL A   1      49.224  29.632  32.135  1.00  0.00     0.009 A 
ATOM     89  C   UNL A   1      47.237  28.524  31.337  1.00  0.00     0.009 A 
ATOM     90  C   UNL A   1      48.657  29.722  33.413  1.00  0.00     0.001 A 
ATOM     91  C   UNL A   1      46.663  28.635  32.603  1.00  0.00     0.001 A 
ATOM     92  C   UNL A   1      47.376  29.226  33.643  1.00  0.00     0.000 A 
ENDBRANCH  74  87
ENDBRANCH  48  49
ENDBRANCH  41  43
ENDBRANCH  40  41
ENDBRANCH  39  40
ENDBRANCH  38  39
ENDBRANCH   1  38
TORSDOF 20
ENDMDL
MODEL 3
REMARK VINA RESULT:      -8.9      5.806     10.505
REMARK SMILES COc1cccc(-n2cc(C(=O)OCCOCCOC(=O)c3ccc(-c4c5nc(c(-c6ccccc6)c6ccc([nH]6)c(-c6ccccc6)c6nc(c(-c7ccccc7)c7ccc4[nH]7)C=C6)C=C5)cc3)c3c2[C@H](c2cc(OC)c(OC)c(OC)c2)CC(=O)N3)c1
REMARK SMILES IDX 16 1 15 2 14 3 13 4 11 5 12 6 10 7 8 8 9 9 71 10 70 11 72 12
REMARK SMILES IDX 88 13 85 14 86 15 87 17 7 18 3 19 4 20 89 21 5 22 6 23 2 24
REMARK SMILES IDX 1 25 73 26 74 27 84 28 75 29 81 30 78 31 76 32 77 33 82 34
REMARK SMILES IDX 83 35 79 36 80 37 17 38 18 39 19 40 20 41 21 42 22 43 23 44
REMARK SMILES IDX 69 45 24 46 68 47 25 48 26 49 27 50 62 51 28 52 67 53 61 54
REMARK SMILES IDX 63 55 29 56 66 57 60 58 59 59 30 61 52 62 37 63 51 64 38 65
REMARK SMILES IDX 41 66 50 67 64 68 39 69 40 70 49 72 65 73 42 74 31 75 32 76
REMARK SMILES IDX 36 77 33 78 35 79 34 80 53 81 54 82 58 83 55 84 57 85 56 86
REMARK SMILES IDX 43 87 44 88 48 89 45 90 47 91 46 92
REMARK H PARENT 88 16 63 60 41 71
REMARK Flexibility Score: inf
ROOT
ATOM      1  O   UNL A   1      46.009  27.725  38.259  1.00  0.00    -0.374 OA
ENDROOT
BRANCH   1   2
ATOM      2  C   UNL A   1      45.187  28.786  37.777  1.00  0.00     0.202 C 
BRANCH   2   3
ATOM      3  C   UNL A   1      44.114  28.461  36.733  1.00  0.00     0.261 C 
BRANCH   3   4
ATOM      4  O   UNL A   1      42.948  29.293  36.849  1.00  0.00    -0.460 OA
BRANCH   4   5
ATOM      5  C   UNL A   1      41.836  28.785  36.237  1.00  0.00     0.341 C 
ATOM      6  O   UNL A   1      41.172  27.855  36.664  1.00  0.00    -0.246 OA
BRANCH   5   7
ATOM      7  C   UNL A   1      41.423  29.570  35.084  1.00  0.00     0.102 A 
ATOM      8  N   UNL A   1      41.425  31.295  33.622  1.00  0.00    -0.317 N 
ATOM      9  C   UNL A   1      42.080  30.726  34.691  1.00  0.00     0.109 A 
ATOM     10  C   UNL A   1      40.308  30.524  33.356  1.00  0.00     0.055 A 
ATOM     11  C   UNL A   1      40.386  29.392  34.145  1.00  0.00     0.078 A 
ATOM     12  C   UNL A   1      39.159  30.788  32.407  1.00  0.00     0.078 C 
ATOM     13  N   UNL A   1      39.477  28.373  33.994  1.00  0.00    -0.324 N 
ATOM     14  C   UNL A   1      38.738  29.404  31.856  1.00  0.00     0.115 C 
ATOM     15  C   UNL A   1      38.587  28.340  32.948  1.00  0.00     0.225 C 
ATOM     16  H   UNL A   1      39.463  27.644  34.656  1.00  0.00     0.170 HD
ATOM     17  O   UNL A   1      37.748  27.443  32.860  1.00  0.00    -0.275 OA
BRANCH   8  18
ATOM     18  C   UNL A   1      41.766  32.567  33.125  1.00  0.00     0.049 A 
ATOM     19  C   UNL A   1      41.982  34.953  33.372  1.00  0.00     0.120 A 
ATOM     20  C   UNL A   1      42.397  35.029  32.036  1.00  0.00     0.046 A 
ATOM     21  C   UNL A   1      41.676  33.709  33.933  1.00  0.00     0.073 A 
ATOM     22  C   UNL A   1      42.435  33.895  31.232  1.00  0.00     0.006 A 
ATOM     23  C   UNL A   1      42.059  32.669  31.763  1.00  0.00     0.027 A 
BRANCH  19  24
ATOM     24  O   UNL A   1      41.881  36.176  33.974  1.00  0.00    -0.497 OA
ATOM     25  C   UNL A   1      42.814  36.503  34.989  1.00  0.00     0.278 C 
ENDBRANCH  19  24
ENDBRANCH   8  18
BRANCH  12  26
ATOM     26  C   UNL A   1      38.012  31.552  33.091  1.00  0.00    -0.031 A 
ATOM     27  C   UNL A   1      36.774  31.631  32.454  1.00  0.00     0.055 A 
ATOM     28  C   UNL A   1      38.127  32.249  34.303  1.00  0.00     0.055 A 
ATOM     29  C   UNL A   1      35.785  32.540  32.851  1.00  0.00     0.164 A 
ATOM     30  C   UNL A   1      37.087  33.056  34.815  1.00  0.00     0.164 A 
ATOM     31  C   UNL A   1      35.914  33.244  34.058  1.00  0.00     0.203 A 
BRANCH  29  32
ATOM     32  O   UNL A   1      34.728  32.617  31.974  1.00  0.00    -0.493 OA
ATOM     33  C   UNL A   1      35.050  32.362  30.605  1.00  0.00     0.278 C 
ENDBRANCH  29  32
BRANCH  30  34
ATOM     34  O   UNL A   1      37.206  33.720  36.009  1.00  0.00    -0.493 OA
ATOM     35  C   UNL A   1      38.509  33.887  36.556  1.00  0.00     0.278 C 
ENDBRANCH  30  34
BRANCH  31  36
ATOM     36  O   UNL A   1      34.855  34.054  34.371  1.00  0.00    -0.490 OA
ATOM     37  C   UNL A   1      34.792  35.367  33.842  1.00  0.00     0.278 C 
ENDBRANCH  31  36
ENDBRANCH  12  26
ENDBRANCH   5   7
ENDBRANCH   4   5
ENDBRANCH   3   4
ENDBRANCH   2   3
ENDBRANCH   1   2
BRANCH   1  38
ATOM     38  C   UNL A   1      45.607  26.370  38.097  1.00  0.00     0.202 C 
BRANCH  38  39
ATOM     39  C   UNL A   1      46.602  25.377  37.523  1.00  0.00     0.261 C 
BRANCH  39  40
ATOM     40  O   UNL A   1      46.541  25.307  36.109  1.00  0.00    -0.460 OA
BRANCH  40  41
ATOM     41  C   UNL A   1      45.746  24.309  35.654  1.00  0.00     0.338 C 
ATOM     42  O   UNL A   1      45.272  23.390  36.294  1.00  0.00    -0.246 OA
BRANCH  41  43
ATOM     43  C   UNL A   1      45.719  24.384  34.193  1.00  0.00     0.060 A 
ATOM     44  C   UNL A   1      46.630  25.264  33.607  1.00  0.00     0.016 A 
ATOM     45  C   UNL A   1      44.594  23.902  33.509  1.00  0.00     0.016 A 
ATOM     46  C   UNL A   1      46.280  25.854  32.415  1.00  0.00     0.010 A 
ATOM     47  C   UNL A   1      44.225  24.523  32.346  1.00  0.00     0.010 A 
ATOM     48  C   UNL A   1      45.034  25.547  31.860  1.00  0.00    -0.014 A 
BRANCH  48  49
ATOM     49  C   UNL A   1      44.659  26.182  30.619  1.00  0.00     0.031 A 
ATOM     50  C   UNL A   1      45.160  25.403  29.469  1.00  0.00     0.074 A 
ATOM     51  C   UNL A   1      43.852  27.256  30.559  1.00  0.00     0.049 A 
ATOM     52  N   UNL A   1      46.169  25.691  28.717  1.00  0.00    -0.248 NA
ATOM     53  C   UNL A   1      44.657  24.025  29.302  1.00  0.00     0.031 C 
ATOM     54  C   UNL A   1      43.111  27.893  31.651  1.00  0.00     0.029 A 
ATOM     55  N   UNL A   1      43.431  27.947  29.468  1.00  0.00    -0.354 N 
ATOM     56  C   UNL A   1      46.243  24.642  27.810  1.00  0.00     0.074 A 
ATOM     57  C   UNL A   1      45.513  23.551  28.397  1.00  0.00     0.031 C 
ATOM     58  C   UNL A   1      42.155  28.699  31.128  1.00  0.00     0.029 A 
ATOM     59  C   UNL A   1      42.299  28.726  29.681  1.00  0.00     0.049 A 
ATOM     60  H   UNL A   1      43.888  27.899  28.598  1.00  0.00     0.167 HD
ATOM     61  C   UNL A   1      46.519  24.893  26.502  1.00  0.00     0.031 A 
ATOM     62  C   UNL A   1      41.510  29.280  28.723  1.00  0.00     0.031 A 
ATOM     63  C   UNL A   1      47.134  26.190  26.340  1.00  0.00     0.049 A 
ATOM     64  C   UNL A   1      42.280  29.278  27.457  1.00  0.00     0.074 A 
ATOM     65  C   UNL A   1      48.252  26.815  26.858  1.00  0.00     0.029 A 
ATOM     66  N   UNL A   1      46.329  27.193  25.854  1.00  0.00    -0.354 N 
ATOM     67  N   UNL A   1      43.322  30.029  27.251  1.00  0.00    -0.248 NA
ATOM     68  C   UNL A   1      42.176  28.107  26.600  1.00  0.00     0.031 C 
ATOM     69  C   UNL A   1      47.863  28.175  27.053  1.00  0.00     0.029 A 
ATOM     70  C   UNL A   1      46.564  28.334  26.570  1.00  0.00     0.049 A 
ATOM     71  H   UNL A   1      45.687  27.104  25.112  1.00  0.00     0.167 HD
ATOM     72  C   UNL A   1      44.226  29.200  26.604  1.00  0.00     0.074 A 
ATOM     73  C   UNL A   1      43.428  28.065  26.135  1.00  0.00     0.031 C 
ATOM     74  C   UNL A   1      45.571  29.364  26.781  1.00  0.00     0.031 A 
BRANCH  61  75
ATOM     75  C   UNL A   1      45.742  24.230  25.382  1.00  0.00    -0.014 A 
ATOM     76  C   UNL A   1      44.352  24.420  25.338  1.00  0.00     0.009 A 
ATOM     77  C   UNL A   1      46.256  23.200  24.565  1.00  0.00     0.009 A 
ATOM     78  C   UNL A   1      43.522  23.563  24.606  1.00  0.00     0.001 A 
ATOM     79  C   UNL A   1      45.437  22.369  23.799  1.00  0.00     0.001 A 
ATOM     80  C   UNL A   1      44.063  22.531  23.848  1.00  0.00     0.000 A 
ENDBRANCH  61  75
BRANCH  62  81
ATOM     81  C   UNL A   1      40.050  29.537  28.729  1.00  0.00    -0.014 A 
ATOM     82  C   UNL A   1      39.547  30.798  29.099  1.00  0.00     0.009 A 
ATOM     83  C   UNL A   1      39.165  28.647  28.094  1.00  0.00     0.009 A 
ATOM     84  C   UNL A   1      38.227  31.169  28.801  1.00  0.00     0.001 A 
ATOM     85  C   UNL A   1      37.847  29.016  27.801  1.00  0.00     0.001 A 
ATOM     86  C   UNL A   1      37.383  30.283  28.138  1.00  0.00     0.000 A 
ENDBRANCH  62  81
BRANCH  74  87
ATOM     87  C   UNL A   1      46.043  30.637  27.441  1.00  0.00    -0.014 A 
ATOM     88  C   UNL A   1      46.308  30.756  28.818  1.00  0.00     0.009 A 
ATOM     89  C   UNL A   1      46.344  31.727  26.611  1.00  0.00     0.009 A 
ATOM     90  C   UNL A   1      46.820  31.948  29.347  1.00  0.00     0.001 A 
ATOM     91  C   UNL A   1      46.876  32.905  27.135  1.00  0.00     0.001 A 
ATOM     92  C   UNL A   1      47.105  33.019  28.504  1.00  0.00     0.000 A 
ENDBRANCH  74  87
ENDBRANCH  48  49
ENDBRANCH  41  43
ENDBRANCH  40  41
ENDBRANCH  39  40
ENDBRANCH  38  39
ENDBRANCH   1  38
TORSDOF 20
ENDMDL
