MODEL 1
REMARK VINA RESULT:     -11.1      0.000      0.000
REMARK SMILES O=C1NC(=S)S/C1=C\c1ccc(OCc2cn(-c3ccc(C(=O)OCCOCCOC(=O)c4ccc(-c5c6nc(c(-c7ccccc7)c7ccc([nH]7)c(-c7ccccc7)c7nc(c(-c8ccccc8)c8ccc5[nH]8)C=C7)C=C6)cc4)cc3)nn2)cc1
REMARK SMILES IDX 25 1 24 2 22 3 23 4 21 5 18 6 19 7 82 8 20 9 81 10 17 11
REMARK SMILES IDX 15 12 16 13 84 14 83 15 14 16 13 17 12 18 9 19 10 20 86 21
REMARK SMILES IDX 11 22 85 23 8 24 1 25 2 26 3 27 7 28 4 29 6 31 5 32 26 33
REMARK SMILES IDX 27 34 28 35 29 36 30 37 31 38 32 39 33 40 34 41 80 42 35 43
REMARK SMILES IDX 79 44 36 45 37 46 38 47 73 48 39 49 78 50 72 51 74 52 40 53
REMARK SMILES IDX 77 54 71 55 70 56 41 58 63 59 48 60 62 61 49 62 52 63 61 64
REMARK SMILES IDX 75 65 50 66 51 67 60 69 76 70 53 71 42 72 43 73 47 74 44 75
REMARK SMILES IDX 46 76 45 77 64 78 65 79 69 80 66 81 68 82 67 83 54 84 55 85
REMARK SMILES IDX 59 86 56 87 58 88 57 89
REMARK H PARENT 3 30 74 57 52 68
REMARK Flexibility Score: inf
ROOT
ATOM      1  C   UNL A   1      42.586  19.955  26.636  1.00  0.00     0.261 C 
ENDROOT
BRANCH   1   2
ATOM      2  O   UNL A   1      41.759  21.017  26.125  1.00  0.00    -0.460 OA
BRANCH   2   3
ATOM      3  C   UNL A   1      40.934  21.565  27.042  1.00  0.00     0.338 C 
ATOM      4  O   UNL A   1      41.189  21.814  28.217  1.00  0.00    -0.246 OA
BRANCH   3   5
ATOM      5  C   UNL A   1      39.682  22.014  26.410  1.00  0.00     0.060 A 
ATOM      6  C   UNL A   1      37.165  22.863  25.582  1.00  0.00     0.066 A 
ATOM      7  C   UNL A   1      38.025  23.761  26.232  1.00  0.00     0.029 A 
ATOM      8  C   UNL A   1      37.607  21.571  25.257  1.00  0.00     0.029 A 
ATOM      9  C   UNL A   1      39.268  23.324  26.674  1.00  0.00     0.018 A 
ATOM     10  C   UNL A   1      38.883  21.152  25.654  1.00  0.00     0.018 A 
BRANCH   6  11
ATOM     11  N   UNL A   1      35.822  23.256  25.379  1.00  0.00    -0.220 N 
ATOM     12  C   UNL A   1      33.799  24.027  25.656  1.00  0.00     0.120 A 
ATOM     13  C   UNL A   1      34.797  23.322  26.298  1.00  0.00     0.144 A 
ATOM     14  N   UNL A   1      34.206  24.297  24.378  1.00  0.00    -0.131 NA
ATOM     15  N   UNL A   1      35.424  23.814  24.214  1.00  0.00    -0.062 NA
BRANCH  12  16
ATOM     16  C   UNL A   1      32.506  24.575  26.166  1.00  0.00     0.289 C 
BRANCH  16  17
ATOM     17  O   UNL A   1      31.860  25.516  25.297  1.00  0.00    -0.487 OA
BRANCH  17  18
ATOM     18  C   UNL A   1      32.048  26.849  25.539  1.00  0.00     0.119 A 
ATOM     19  C   UNL A   1      32.102  29.563  26.256  1.00  0.00    -0.024 A 
ATOM     20  C   UNL A   1      31.933  28.583  27.235  1.00  0.00     0.012 A 
ATOM     21  C   UNL A   1      32.336  29.174  24.934  1.00  0.00     0.012 A 
ATOM     22  C   UNL A   1      31.905  27.232  26.874  1.00  0.00     0.047 A 
ATOM     23  C   UNL A   1      32.330  27.823  24.583  1.00  0.00     0.047 A 
BRANCH  19  24
ATOM     24  C   UNL A   1      32.007  30.984  26.592  1.00  0.00     0.029 C 
ATOM     25  O   UNL A   1      31.801  33.786  27.367  1.00  0.00    -0.268 OA
ATOM     26  C   UNL A   1      32.796  33.109  27.587  1.00  0.00     0.263 C 
ATOM     27  N   UNL A   1      33.915  33.556  28.230  1.00  0.00    -0.307 N 
ATOM     28  C   UNL A   1      32.970  31.683  27.211  1.00  0.00     0.080 C 
ATOM     29  C   UNL A   1      34.948  32.687  28.400  1.00  0.00     0.145 C 
ATOM     30  H   UNL A   1      33.972  34.482  28.562  1.00  0.00     0.171 HD
ATOM     31  S   UNL A   1      34.535  31.138  27.706  1.00  0.00    -0.055 SA
ATOM     32  S   UNL A   1      36.368  33.083  29.154  1.00  0.00    -0.052 S 
ENDBRANCH  19  24
ENDBRANCH  17  18
ENDBRANCH  16  17
ENDBRANCH  12  16
ENDBRANCH   6  11
ENDBRANCH   3   5
ENDBRANCH   2   3
ENDBRANCH   1   2
BRANCH   1  33
ATOM     33  C   UNL A   1      42.446  18.670  25.821  1.00  0.00     0.202 C 
BRANCH  33  34
ATOM     34  O   UNL A   1      43.631  18.092  25.273  1.00  0.00    -0.374 OA
BRANCH  34  35
ATOM     35  C   UNL A   1      44.890  18.341  25.887  1.00  0.00     0.202 C 
BRANCH  35  36
ATOM     36  C   UNL A   1      45.940  19.091  25.080  1.00  0.00     0.261 C 
BRANCH  36  37
ATOM     37  O   UNL A   1      45.854  20.495  25.274  1.00  0.00    -0.460 OA
BRANCH  37  38
ATOM     38  C   UNL A   1      45.173  21.146  24.314  1.00  0.00     0.338 C 
ATOM     39  O   UNL A   1      44.682  20.663  23.290  1.00  0.00    -0.246 OA
BRANCH  38  40
ATOM     40  C   UNL A   1      45.226  22.579  24.587  1.00  0.00     0.060 A 
ATOM     41  C   UNL A   1      46.264  23.004  25.418  1.00  0.00     0.016 A 
ATOM     42  C   UNL A   1      44.115  23.390  24.302  1.00  0.00     0.016 A 
ATOM     43  C   UNL A   1      46.067  24.135  26.170  1.00  0.00     0.010 A 
ATOM     44  C   UNL A   1      43.912  24.512  25.065  1.00  0.00     0.010 A 
ATOM     45  C   UNL A   1      44.847  24.808  26.054  1.00  0.00    -0.014 A 
BRANCH  45  46
ATOM     46  C   UNL A   1      44.588  25.863  27.003  1.00  0.00     0.031 A 
ATOM     47  C   UNL A   1      45.579  26.953  26.961  1.00  0.00     0.074 A 
ATOM     48  C   UNL A   1      43.493  25.869  27.780  1.00  0.00     0.049 A 
ATOM     49  N   UNL A   1      46.406  27.308  27.885  1.00  0.00    -0.248 NA
ATOM     50  C   UNL A   1      45.762  27.638  25.673  1.00  0.00     0.031 C 
ATOM     51  C   UNL A   1      42.311  25.007  27.685  1.00  0.00     0.029 A 
ATOM     52  N   UNL A   1      43.157  26.755  28.754  1.00  0.00    -0.354 N 
ATOM     53  C   UNL A   1      47.099  28.390  27.357  1.00  0.00     0.074 A 
ATOM     54  C   UNL A   1      46.792  28.433  25.950  1.00  0.00     0.031 C 
ATOM     55  C   UNL A   1      41.303  25.568  28.393  1.00  0.00     0.029 A 
ATOM     56  C   UNL A   1      41.811  26.747  29.079  1.00  0.00     0.049 A 
ATOM     57  H   UNL A   1      43.811  27.348  29.189  1.00  0.00     0.167 HD
ATOM     58  C   UNL A   1      47.660  29.334  28.157  1.00  0.00     0.031 A 
ATOM     59  C   UNL A   1      41.154  27.704  29.776  1.00  0.00     0.031 A 
ATOM     60  C   UNL A   1      47.838  28.869  29.506  1.00  0.00     0.049 A 
ATOM     61  C   UNL A   1      42.165  28.522  30.491  1.00  0.00     0.074 A 
ATOM     62  C   UNL A   1      48.530  27.828  30.092  1.00  0.00     0.029 A 
ATOM     63  N   UNL A   1      46.937  29.303  30.450  1.00  0.00    -0.354 N 
ATOM     64  N   UNL A   1      42.872  28.086  31.493  1.00  0.00    -0.248 NA
ATOM     65  C   UNL A   1      42.700  29.698  29.820  1.00  0.00     0.031 C 
ATOM     66  C   UNL A   1      47.705  27.393  31.170  1.00  0.00     0.029 A 
ATOM     67  C   UNL A   1      46.579  28.218  31.206  1.00  0.00     0.049 A 
ATOM     68  H   UNL A   1      46.609  30.224  30.561  1.00  0.00     0.167 HD
ATOM     69  C   UNL A   1      44.130  28.648  31.313  1.00  0.00     0.074 A 
ATOM     70  C   UNL A   1      43.930  29.716  30.338  1.00  0.00     0.031 C 
ATOM     71  C   UNL A   1      45.256  28.011  31.752  1.00  0.00     0.031 A 
BRANCH  58  72
ATOM     72  C   UNL A   1      47.632  30.796  27.799  1.00  0.00    -0.014 A 
ATOM     73  C   UNL A   1      46.394  31.453  27.733  1.00  0.00     0.009 A 
ATOM     74  C   UNL A   1      48.741  31.476  27.252  1.00  0.00     0.009 A 
ATOM     75  C   UNL A   1      46.265  32.693  27.095  1.00  0.00     0.001 A 
ATOM     76  C   UNL A   1      48.626  32.732  26.658  1.00  0.00     0.001 A 
ATOM     77  C   UNL A   1      47.380  33.328  26.554  1.00  0.00     0.000 A 
ENDBRANCH  58  72
BRANCH  59  78
ATOM     78  C   UNL A   1      39.750  28.138  29.626  1.00  0.00    -0.014 A 
ATOM     79  C   UNL A   1      38.844  28.014  30.690  1.00  0.00     0.009 A 
ATOM     80  C   UNL A   1      39.357  28.911  28.517  1.00  0.00     0.009 A 
ATOM     81  C   UNL A   1      37.605  28.667  30.658  1.00  0.00     0.001 A 
ATOM     82  C   UNL A   1      38.118  29.557  28.481  1.00  0.00     0.001 A 
ATOM     83  C   UNL A   1      37.247  29.447  29.559  1.00  0.00     0.000 A 
ENDBRANCH  59  78
BRANCH  71  84
ATOM     84  C   UNL A   1      45.081  26.814  32.655  1.00  0.00    -0.014 A 
ATOM     85  C   UNL A   1      44.821  25.521  32.165  1.00  0.00     0.009 A 
ATOM     86  C   UNL A   1      45.334  26.968  34.026  1.00  0.00     0.009 A 
ATOM     87  C   UNL A   1      44.779  24.423  33.029  1.00  0.00     0.001 A 
ATOM     88  C   UNL A   1      45.314  25.867  34.885  1.00  0.00     0.001 A 
ATOM     89  C   UNL A   1      45.030  24.596  34.389  1.00  0.00     0.000 A 
ENDBRANCH  71  84
ENDBRANCH  45  46
ENDBRANCH  38  40
ENDBRANCH  37  38
ENDBRANCH  36  37
ENDBRANCH  35  36
ENDBRANCH  34  35
ENDBRANCH  33  34
ENDBRANCH   1  33
TORSDOF 19
ENDMDL
MODEL 2
REMARK VINA RESULT:     -11.0      2.448      3.248
REMARK SMILES O=C1NC(=S)S/C1=C\c1ccc(OCc2cn(-c3ccc(C(=O)OCCOCCOC(=O)c4ccc(-c5c6nc(c(-c7ccccc7)c7ccc([nH]7)c(-c7ccccc7)c7nc(c(-c8ccccc8)c8ccc5[nH]8)C=C7)C=C6)cc4)cc3)nn2)cc1
REMARK SMILES IDX 25 1 24 2 22 3 23 4 21 5 18 6 19 7 82 8 20 9 81 10 17 11
REMARK SMILES IDX 15 12 16 13 84 14 83 15 14 16 13 17 12 18 9 19 10 20 86 21
REMARK SMILES IDX 11 22 85 23 8 24 1 25 2 26 3 27 7 28 4 29 6 31 5 32 26 33
REMARK SMILES IDX 27 34 28 35 29 36 30 37 31 38 32 39 33 40 34 41 80 42 35 43
REMARK SMILES IDX 79 44 36 45 37 46 38 47 73 48 39 49 78 50 72 51 74 52 40 53
REMARK SMILES IDX 77 54 71 55 70 56 41 58 63 59 48 60 62 61 49 62 52 63 61 64
REMARK SMILES IDX 75 65 50 66 51 67 60 69 76 70 53 71 42 72 43 73 47 74 44 75
REMARK SMILES IDX 46 76 45 77 64 78 65 79 69 80 66 81 68 82 67 83 54 84 55 85
REMARK SMILES IDX 59 86 56 87 58 88 57 89
REMARK H PARENT 3 30 74 57 52 68
REMARK Flexibility Score: inf
ROOT
ATOM      1  C   UNL A   1      42.976  19.999  26.128  1.00  0.00     0.261 C 
ENDROOT
BRANCH   1   2
ATOM      2  O   UNL A   1      41.962  20.899  25.646  1.00  0.00    -0.460 OA
BRANCH   2   3
ATOM      3  C   UNL A   1      40.978  21.151  26.535  1.00  0.00     0.338 C 
ATOM      4  O   UNL A   1      41.097  21.642  27.655  1.00  0.00    -0.246 OA
BRANCH   3   5
ATOM      5  C   UNL A   1      39.658  20.920  25.927  1.00  0.00     0.060 A 
ATOM      6  C   UNL A   1      37.021  20.495  25.147  1.00  0.00     0.066 A 
ATOM      7  C   UNL A   1      37.431  21.774  25.554  1.00  0.00     0.029 A 
ATOM      8  C   UNL A   1      37.957  19.456  25.035  1.00  0.00     0.029 A 
ATOM      9  C   UNL A   1      38.740  21.974  25.974  1.00  0.00     0.018 A 
ATOM     10  C   UNL A   1      39.289  19.677  25.405  1.00  0.00     0.018 A 
BRANCH   6  11
ATOM     11  N   UNL A   1      35.636  20.262  24.975  1.00  0.00    -0.220 N 
ATOM     12  C   UNL A   1      33.531  20.450  24.430  1.00  0.00     0.120 A 
ATOM     13  C   UNL A   1      34.618  21.184  24.863  1.00  0.00     0.144 A 
ATOM     14  N   UNL A   1      33.892  19.132  24.364  1.00  0.00    -0.131 NA
ATOM     15  N   UNL A   1      35.161  19.026  24.710  1.00  0.00    -0.062 NA
BRANCH  12  16
ATOM     16  C   UNL A   1      32.182  20.886  23.963  1.00  0.00     0.289 C 
BRANCH  16  17
ATOM     17  O   UNL A   1      32.189  21.864  22.913  1.00  0.00    -0.487 OA
BRANCH  17  18
ATOM     18  C   UNL A   1      31.929  23.165  23.246  1.00  0.00     0.119 A 
ATOM     19  C   UNL A   1      31.787  25.865  24.003  1.00  0.00    -0.024 A 
ATOM     20  C   UNL A   1      32.746  25.446  23.079  1.00  0.00     0.012 A 
ATOM     21  C   UNL A   1      30.845  24.946  24.474  1.00  0.00     0.012 A 
ATOM     22  C   UNL A   1      32.815  24.100  22.705  1.00  0.00     0.047 A 
ATOM     23  C   UNL A   1      30.903  23.609  24.079  1.00  0.00     0.047 A 
BRANCH  19  24
ATOM     24  C   UNL A   1      31.779  27.240  24.505  1.00  0.00     0.029 C 
ATOM     25  O   UNL A   1      31.814  30.010  25.411  1.00  0.00    -0.268 OA
ATOM     26  C   UNL A   1      31.042  29.603  24.554  1.00  0.00     0.263 C 
ATOM     27  N   UNL A   1      30.125  30.377  23.903  1.00  0.00    -0.307 N 
ATOM     28  C   UNL A   1      30.965  28.206  24.055  1.00  0.00     0.080 C 
ATOM     29  C   UNL A   1      29.328  29.783  22.973  1.00  0.00     0.145 C 
ATOM     30  H   UNL A   1      30.041  31.339  24.101  1.00  0.00     0.171 HD
ATOM     31  S   UNL A   1      29.723  28.085  22.858  1.00  0.00    -0.055 SA
ATOM     32  S   UNL A   1      28.169  30.587  22.106  1.00  0.00    -0.052 S 
ENDBRANCH  19  24
ENDBRANCH  17  18
ENDBRANCH  16  17
ENDBRANCH  12  16
ENDBRANCH   6  11
ENDBRANCH   3   5
ENDBRANCH   2   3
ENDBRANCH   1   2
BRANCH   1  33
ATOM     33  C   UNL A   1      43.154  18.785  25.215  1.00  0.00     0.202 C 
BRANCH  33  34
ATOM     34  O   UNL A   1      44.475  18.465  24.777  1.00  0.00    -0.374 OA
BRANCH  34  35
ATOM     35  C   UNL A   1      45.597  19.076  25.403  1.00  0.00     0.202 C 
BRANCH  35  36
ATOM     36  C   UNL A   1      46.245  20.262  24.703  1.00  0.00     0.261 C 
BRANCH  36  37
ATOM     37  O   UNL A   1      46.099  21.461  25.449  1.00  0.00    -0.460 OA
BRANCH  37  38
ATOM     38  C   UNL A   1      45.459  22.446  24.793  1.00  0.00     0.338 C 
ATOM     39  O   UNL A   1      45.678  22.844  23.647  1.00  0.00    -0.246 OA
BRANCH  38  40
ATOM     40  C   UNL A   1      44.535  23.103  25.714  1.00  0.00     0.060 A 
ATOM     41  C   UNL A   1      43.596  23.956  25.131  1.00  0.00     0.016 A 
ATOM     42  C   UNL A   1      44.810  23.122  27.091  1.00  0.00     0.016 A 
ATOM     43  C   UNL A   1      43.123  25.004  25.880  1.00  0.00     0.010 A 
ATOM     44  C   UNL A   1      44.348  24.178  27.835  1.00  0.00     0.010 A 
ATOM     45  C   UNL A   1      43.592  25.152  27.189  1.00  0.00    -0.014 A 
BRANCH  45  46
ATOM     46  C   UNL A   1      43.241  26.371  27.876  1.00  0.00     0.031 A 
ATOM     47  C   UNL A   1      44.247  27.438  27.741  1.00  0.00     0.074 A 
ATOM     48  C   UNL A   1      42.062  26.521  28.503  1.00  0.00     0.049 A 
ATOM     49  N   UNL A   1      44.966  27.972  28.670  1.00  0.00    -0.248 NA
ATOM     50  C   UNL A   1      44.592  27.860  26.375  1.00  0.00     0.031 C 
ATOM     51  C   UNL A   1      40.885  25.649  28.438  1.00  0.00     0.029 A 
ATOM     52  N   UNL A   1      41.629  27.578  29.238  1.00  0.00    -0.354 N 
ATOM     53  C   UNL A   1      45.734  28.935  28.027  1.00  0.00     0.074 A 
ATOM     54  C   UNL A   1      45.596  28.700  26.612  1.00  0.00     0.031 C 
ATOM     55  C   UNL A   1      39.810  26.331  28.898  1.00  0.00     0.029 A 
ATOM     56  C   UNL A   1      40.253  27.624  29.397  1.00  0.00     0.049 A 
ATOM     57  H   UNL A   1      42.237  28.249  29.624  1.00  0.00     0.167 HD
ATOM     58  C   UNL A   1      46.213  30.021  28.688  1.00  0.00     0.031 A 
ATOM     59  C   UNL A   1      39.535  28.694  29.811  1.00  0.00     0.031 A 
ATOM     60  C   UNL A   1      46.223  29.830  30.113  1.00  0.00     0.049 A 
ATOM     61  C   UNL A   1      40.469  29.643  30.467  1.00  0.00     0.074 A 
ATOM     62  C   UNL A   1      46.824  28.929  30.969  1.00  0.00     0.029 A 
ATOM     63  N   UNL A   1      45.225  30.434  30.841  1.00  0.00    -0.354 N 
ATOM     64  N   UNL A   1      41.046  29.417  31.611  1.00  0.00    -0.248 NA
ATOM     65  C   UNL A   1      41.098  30.669  29.648  1.00  0.00     0.031 C 
ATOM     66  C   UNL A   1      45.871  28.707  32.005  1.00  0.00     0.029 A 
ATOM     67  C   UNL A   1      44.763  29.515  31.746  1.00  0.00     0.049 A 
ATOM     68  H   UNL A   1      44.901  31.357  30.730  1.00  0.00     0.167 HD
ATOM     69  C   UNL A   1      42.325  29.941  31.476  1.00  0.00     0.074 A 
ATOM     70  C   UNL A   1      42.259  30.797  30.295  1.00  0.00     0.031 C 
ATOM     71  C   UNL A   1      43.380  29.410  32.161  1.00  0.00     0.031 A 
BRANCH  58  72
ATOM     72  C   UNL A   1      46.251  31.385  28.051  1.00  0.00    -0.014 A 
ATOM     73  C   UNL A   1      47.250  32.288  28.446  1.00  0.00     0.009 A 
ATOM     74  C   UNL A   1      45.183  31.910  27.294  1.00  0.00     0.009 A 
ATOM     75  C   UNL A   1      47.148  33.653  28.153  1.00  0.00     0.001 A 
ATOM     76  C   UNL A   1      45.101  33.262  26.959  1.00  0.00     0.001 A 
ATOM     77  C   UNL A   1      46.071  34.139  27.415  1.00  0.00     0.000 A 
ENDBRANCH  58  72
BRANCH  59  78
ATOM     78  C   UNL A   1      38.166  29.081  29.414  1.00  0.00    -0.014 A 
ATOM     79  C   UNL A   1      37.233  29.499  30.374  1.00  0.00     0.009 A 
ATOM     80  C   UNL A   1      37.847  29.284  28.058  1.00  0.00     0.009 A 
ATOM     81  C   UNL A   1      36.039  30.126  29.990  1.00  0.00     0.001 A 
ATOM     82  C   UNL A   1      36.654  29.902  27.673  1.00  0.00     0.001 A 
ATOM     83  C   UNL A   1      35.756  30.337  28.642  1.00  0.00     0.000 A 
ENDBRANCH  59  78
BRANCH  71  84
ATOM     84  C   UNL A   1      43.081  28.411  33.253  1.00  0.00    -0.014 A 
ATOM     85  C   UNL A   1      43.274  27.027  33.093  1.00  0.00     0.009 A 
ATOM     86  C   UNL A   1      42.738  28.894  34.524  1.00  0.00     0.009 A 
ATOM     87  C   UNL A   1      43.092  26.151  34.167  1.00  0.00     0.001 A 
ATOM     88  C   UNL A   1      42.578  28.019  35.602  1.00  0.00     0.001 A 
ATOM     89  C   UNL A   1      42.748  26.648  35.422  1.00  0.00     0.000 A 
ENDBRANCH  71  84
ENDBRANCH  45  46
ENDBRANCH  38  40
ENDBRANCH  37  38
ENDBRANCH  36  37
ENDBRANCH  35  36
ENDBRANCH  34  35
ENDBRANCH  33  34
ENDBRANCH   1  33
TORSDOF 19
ENDMDL
MODEL 3
REMARK VINA RESULT:     -10.5      3.774     10.150
REMARK SMILES O=C1NC(=S)S/C1=C\c1ccc(OCc2cn(-c3ccc(C(=O)OCCOCCOC(=O)c4ccc(-c5c6nc(c(-c7ccccc7)c7ccc([nH]7)c(-c7ccccc7)c7nc(c(-c8ccccc8)c8ccc5[nH]8)C=C7)C=C6)cc4)cc3)nn2)cc1
REMARK SMILES IDX 25 1 24 2 22 3 23 4 21 5 18 6 19 7 82 8 20 9 81 10 17 11
REMARK SMILES IDX 15 12 16 13 84 14 83 15 14 16 13 17 12 18 9 19 10 20 86 21
REMARK SMILES IDX 11 22 85 23 8 24 1 25 2 26 3 27 7 28 4 29 6 31 5 32 26 33
REMARK SMILES IDX 27 34 28 35 29 36 30 37 31 38 32 39 33 40 34 41 80 42 35 43
REMARK SMILES IDX 79 44 36 45 37 46 38 47 73 48 39 49 78 50 72 51 74 52 40 53
REMARK SMILES IDX 77 54 71 55 70 56 41 58 63 59 48 60 62 61 49 62 52 63 61 64
REMARK SMILES IDX 75 65 50 66 51 67 60 69 76 70 53 71 42 72 43 73 47 74 44 75
REMARK SMILES IDX 46 76 45 77 64 78 65 79 69 80 66 81 68 82 67 83 54 84 55 85
REMARK SMILES IDX 59 86 56 87 58 88 57 89
REMARK H PARENT 3 30 74 57 52 68
REMARK Flexibility Score: inf
ROOT
ATOM      1  C   UNL A   1      34.141  34.936  29.138  1.00  0.00     0.261 C 
ENDROOT
BRANCH   1   2
ATOM      2  O   UNL A   1      33.673  33.596  28.895  1.00  0.00    -0.460 OA
BRANCH   2   3
ATOM      3  C   UNL A   1      34.421  32.901  28.012  1.00  0.00     0.338 C 
ATOM      4  O   UNL A   1      35.546  33.181  27.608  1.00  0.00    -0.246 OA
BRANCH   3   5
ATOM      5  C   UNL A   1      33.783  31.613  27.695  1.00  0.00     0.060 A 
ATOM      6  C   UNL A   1      32.790  29.187  26.760  1.00  0.00     0.066 A 
ATOM      7  C   UNL A   1      34.095  29.257  27.272  1.00  0.00     0.029 A 
ATOM      8  C   UNL A   1      31.950  30.310  26.812  1.00  0.00     0.029 A 
ATOM      9  C   UNL A   1      34.598  30.476  27.707  1.00  0.00     0.018 A 
ATOM     10  C   UNL A   1      32.443  31.525  27.304  1.00  0.00     0.018 A 
BRANCH   6  11
ATOM     11  N   UNL A   1      32.399  28.003  26.091  1.00  0.00    -0.220 N 
ATOM     12  C   UNL A   1      31.305  26.236  25.427  1.00  0.00     0.120 A 
ATOM     13  C   UNL A   1      31.595  26.983  26.551  1.00  0.00     0.144 A 
ATOM     14  N   UNL A   1      31.979  26.767  24.362  1.00  0.00    -0.131 NA
ATOM     15  N   UNL A   1      32.651  27.826  24.776  1.00  0.00    -0.062 NA
BRANCH  12  16
ATOM     16  C   UNL A   1      30.353  25.103  25.226  1.00  0.00     0.289 C 
BRANCH  16  17
ATOM     17  O   UNL A   1      30.516  24.383  23.995  1.00  0.00    -0.487 OA
BRANCH  17  18
ATOM     18  C   UNL A   1      31.329  23.283  23.997  1.00  0.00     0.119 A 
ATOM     19  C   UNL A   1      33.197  21.209  24.296  1.00  0.00    -0.024 A 
ATOM     20  C   UNL A   1      32.543  21.729  25.414  1.00  0.00     0.012 A 
ATOM     21  C   UNL A   1      32.845  21.668  23.024  1.00  0.00     0.012 A 
ATOM     22  C   UNL A   1      31.614  22.763  25.262  1.00  0.00     0.047 A 
ATOM     23  C   UNL A   1      31.899  22.684  22.875  1.00  0.00     0.047 A 
BRANCH  19  24
ATOM     24  C   UNL A   1      34.264  20.218  24.444  1.00  0.00     0.029 C 
ATOM     25  O   UNL A   1      36.370  18.244  24.847  1.00  0.00    -0.268 OA
ATOM     26  C   UNL A   1      35.180  17.962  24.890  1.00  0.00     0.263 C 
ATOM     27  N   UNL A   1      34.685  16.715  25.148  1.00  0.00    -0.307 N 
ATOM     28  C   UNL A   1      34.060  18.915  24.684  1.00  0.00     0.080 C 
ATOM     29  C   UNL A   1      33.334  16.551  25.159  1.00  0.00     0.145 C 
ATOM     30  H   UNL A   1      35.289  15.956  25.320  1.00  0.00     0.171 HD
ATOM     31  S   UNL A   1      32.553  18.077  24.821  1.00  0.00    -0.055 SA
ATOM     32  S   UNL A   1      32.586  15.103  25.450  1.00  0.00    -0.052 S 
ENDBRANCH  19  24
ENDBRANCH  17  18
ENDBRANCH  16  17
ENDBRANCH  12  16
ENDBRANCH   6  11
ENDBRANCH   3   5
ENDBRANCH   2   3
ENDBRANCH   1   2
BRANCH   1  33
ATOM     33  C   UNL A   1      33.883  35.388  30.575  1.00  0.00     0.202 C 
BRANCH  33  34
ATOM     34  O   UNL A   1      33.613  34.384  31.554  1.00  0.00    -0.374 OA
BRANCH  34  35
ATOM     35  C   UNL A   1      34.680  33.838  32.321  1.00  0.00     0.202 C 
BRANCH  35  36
ATOM     36  C   UNL A   1      34.887  32.330  32.281  1.00  0.00     0.261 C 
BRANCH  36  37
ATOM     37  O   UNL A   1      35.576  31.922  31.109  1.00  0.00    -0.460 OA
BRANCH  37  38
ATOM     38  C   UNL A   1      36.766  32.524  30.929  1.00  0.00     0.338 C 
ATOM     39  O   UNL A   1      37.061  33.690  31.202  1.00  0.00    -0.246 OA
BRANCH  38  40
ATOM     40  C   UNL A   1      37.648  31.616  30.201  1.00  0.00     0.060 A 
ATOM     41  C   UNL A   1      37.261  30.276  30.179  1.00  0.00     0.016 A 
ATOM     42  C   UNL A   1      38.946  32.027  29.853  1.00  0.00     0.016 A 
ATOM     43  C   UNL A   1      38.242  29.322  30.062  1.00  0.00     0.010 A 
ATOM     44  C   UNL A   1      39.927  31.074  29.751  1.00  0.00     0.010 A 
ATOM     45  C   UNL A   1      39.571  29.743  29.955  1.00  0.00    -0.014 A 
BRANCH  45  46
ATOM     46  C   UNL A   1      40.590  28.726  30.043  1.00  0.00     0.031 A 
ATOM     47  C   UNL A   1      41.137  28.553  31.400  1.00  0.00     0.074 A 
ATOM     48  C   UNL A   1      40.928  27.964  28.990  1.00  0.00     0.049 A 
ATOM     49  N   UNL A   1      42.342  28.775  31.803  1.00  0.00    -0.248 NA
ATOM     50  C   UNL A   1      40.180  28.224  32.467  1.00  0.00     0.031 C 
ATOM     51  C   UNL A   1      40.243  27.847  27.699  1.00  0.00     0.029 A 
ATOM     52  N   UNL A   1      41.905  27.023  28.912  1.00  0.00    -0.354 N 
ATOM     53  C   UNL A   1      42.343  28.439  33.151  1.00  0.00     0.074 A 
ATOM     54  C   UNL A   1      40.965  28.282  33.541  1.00  0.00     0.031 C 
ATOM     55  C   UNL A   1      40.675  26.727  27.075  1.00  0.00     0.029 A 
ATOM     56  C   UNL A   1      41.742  26.131  27.864  1.00  0.00     0.049 A 
ATOM     57  H   UNL A   1      42.660  26.978  29.543  1.00  0.00     0.167 HD
ATOM     58  C   UNL A   1      43.478  28.049  33.786  1.00  0.00     0.031 A 
ATOM     59  C   UNL A   1      42.374  24.942  27.726  1.00  0.00     0.031 A 
ATOM     60  C   UNL A   1      44.664  28.443  33.074  1.00  0.00     0.049 A 
ATOM     61  C   UNL A   1      43.556  24.946  28.623  1.00  0.00     0.074 A 
ATOM     62  C   UNL A   1      45.196  29.649  32.665  1.00  0.00     0.029 A 
ATOM     63  N   UNL A   1      45.318  27.476  32.348  1.00  0.00    -0.354 N 
ATOM     64  N   UNL A   1      44.611  25.682  28.427  1.00  0.00    -0.248 NA
ATOM     65  C   UNL A   1      43.394  24.443  29.979  1.00  0.00     0.031 C 
ATOM     66  C   UNL A   1      45.800  29.380  31.402  1.00  0.00     0.029 A 
ATOM     67  C   UNL A   1      45.639  28.020  31.132  1.00  0.00     0.049 A 
ATOM     68  H   UNL A   1      45.518  26.559  32.647  1.00  0.00     0.167 HD
ATOM     69  C   UNL A   1      45.002  26.090  29.696  1.00  0.00     0.074 A 
ATOM     70  C   UNL A   1      44.289  25.205  30.613  1.00  0.00     0.031 C 
ATOM     71  C   UNL A   1      45.640  27.282  29.888  1.00  0.00     0.031 A 
BRANCH  58  72
ATOM     72  C   UNL A   1      43.476  26.946  34.811  1.00  0.00    -0.014 A 
ATOM     73  C   UNL A   1      43.195  25.636  34.394  1.00  0.00     0.009 A 
ATOM     74  C   UNL A   1      43.459  27.188  36.201  1.00  0.00     0.009 A 
ATOM     75  C   UNL A   1      42.853  24.640  35.317  1.00  0.00     0.001 A 
ATOM     76  C   UNL A   1      43.164  26.188  37.127  1.00  0.00     0.001 A 
ATOM     77  C   UNL A   1      42.832  24.919  36.681  1.00  0.00     0.000 A 
ENDBRANCH  58  72
BRANCH  59  78
ATOM     78  C   UNL A   1      41.859  23.705  27.103  1.00  0.00    -0.014 A 
ATOM     79  C   UNL A   1      42.632  22.996  26.172  1.00  0.00     0.009 A 
ATOM     80  C   UNL A   1      40.706  23.077  27.612  1.00  0.00     0.009 A 
ATOM     81  C   UNL A   1      42.282  21.694  25.790  1.00  0.00     0.001 A 
ATOM     82  C   UNL A   1      40.351  21.781  27.226  1.00  0.00     0.001 A 
ATOM     83  C   UNL A   1      41.148  21.084  26.326  1.00  0.00     0.000 A 
ENDBRANCH  59  78
BRANCH  71  84
ATOM     84  C   UNL A   1      46.131  28.023  28.668  1.00  0.00    -0.014 A 
ATOM     85  C   UNL A   1      47.383  27.772  28.077  1.00  0.00     0.009 A 
ATOM     86  C   UNL A   1      45.247  28.891  28.011  1.00  0.00     0.009 A 
ATOM     87  C   UNL A   1      47.750  28.400  26.883  1.00  0.00     0.001 A 
ATOM     88  C   UNL A   1      45.605  29.501  26.807  1.00  0.00     0.001 A 
ATOM     89  C   UNL A   1      46.858  29.261  26.246  1.00  0.00     0.000 A 
ENDBRANCH  71  84
ENDBRANCH  45  46
ENDBRANCH  38  40
ENDBRANCH  37  38
ENDBRANCH  36  37
ENDBRANCH  35  36
ENDBRANCH  34  35
ENDBRANCH  33  34
ENDBRANCH   1  33
TORSDOF 19
ENDMDL
