MODEL 1
REMARK VINA RESULT:     -10.6      0.000      0.000
REMARK SMILES Cc1ccc(N(CC(=O)OCCOCCOC(=O)c2ccc(-c3c4nc(c(-c5ccccc5)c5ccc([nH]5)c(-c5ccccc5)c5nc(c(-c6ccccc6)c6ccc3[nH]6)C=C5)C=C4)cc2)C(=O)C[C@H]2C[NH2+]CCO2)cc1
REMARK SMILES IDX 12 1 11 2 10 3 8 4 9 5 7 6 6 7 5 8 1 9 2 10 3 11 77 12 4 13
REMARK SMILES IDX 76 14 67 15 68 16 69 17 70 18 71 19 75 20 72 21 74 22 73 23
REMARK SMILES IDX 13 26 14 27 15 28 16 29 17 30 18 31 19 32 20 33 66 34 21 35
REMARK SMILES IDX 65 36 22 37 23 38 24 39 59 40 25 41 64 42 58 43 60 44 26 45
REMARK SMILES IDX 63 46 57 47 56 48 27 50 49 51 34 52 48 53 35 54 38 55 47 56
REMARK SMILES IDX 61 57 36 58 37 59 46 61 62 62 39 63 28 64 29 65 33 66 30 67
REMARK SMILES IDX 32 68 31 69 50 70 51 71 55 72 52 73 54 74 53 75 40 76 41 77
REMARK SMILES IDX 45 78 42 79 44 80 43 81
REMARK H PARENT 72 24 72 25 60 49 38 60
REMARK Flexibility Score: inf
ROOT
ATOM      1  C   UNL A   1      37.091  22.782  23.918  1.00  0.00     0.202 C 
ENDROOT
BRANCH   1   2
ATOM      2  C   UNL A   1      35.777  23.470  24.102  1.00  0.00     0.261 C 
BRANCH   2   3
ATOM      3  O   UNL A   1      34.756  22.697  23.484  1.00  0.00    -0.462 OA
BRANCH   3   4
ATOM      4  C   UNL A   1      33.740  23.391  22.888  1.00  0.00     0.326 C 
ATOM      5  O   UNL A   1      33.774  24.433  22.274  1.00  0.00    -0.250 OA
BRANCH   4   6
ATOM      6  C   UNL A   1      32.483  22.612  23.088  1.00  0.00     0.248 C 
BRANCH   6   7
ATOM      7  N   UNL A   1      32.550  21.840  24.354  1.00  0.00    -0.301 N 
BRANCH   7   8
ATOM      8  C   UNL A   1      32.812  20.424  24.137  1.00  0.00     0.044 A 
ATOM      9  C   UNL A   1      34.100  16.374  23.233  1.00  0.00     0.044 C 
ATOM     10  C   UNL A   1      33.613  17.746  23.582  1.00  0.00    -0.051 A 
ATOM     11  C   UNL A   1      34.233  18.470  24.596  1.00  0.00     0.005 A 
ATOM     12  C   UNL A   1      32.561  18.343  22.885  1.00  0.00     0.005 A 
ATOM     13  C   UNL A   1      33.818  19.775  24.883  1.00  0.00     0.026 A 
ATOM     14  C   UNL A   1      32.163  19.661  23.163  1.00  0.00     0.026 A 
ENDBRANCH   7   8
BRANCH   7  15
ATOM     15  C   UNL A   1      32.140  22.356  25.603  1.00  0.00     0.230 C 
ATOM     16  O   UNL A   1      32.723  22.075  26.660  1.00  0.00    -0.274 OA
BRANCH  15  17
ATOM     17  C   UNL A   1      30.958  23.333  25.767  1.00  0.00     0.138 C 
BRANCH  17  18
ATOM     18  C   UNL A   1      31.161  24.713  26.438  1.00  0.00     0.182 C 
ATOM     19  C   UNL A   1      32.396  25.536  26.052  1.00  0.00     0.293 C 
ATOM     20  O   UNL A   1      30.011  25.570  26.336  1.00  0.00    -0.366 OA
ATOM     21  N   UNL A   1      32.382  25.962  24.652  1.00  0.00    -0.342 N 
ATOM     22  C   UNL A   1      29.831  26.033  25.006  1.00  0.00     0.222 C 
ATOM     23  C   UNL A   1      31.093  26.579  24.309  1.00  0.00     0.289 C 
ATOM     24  H   UNL A   1      32.534  25.151  24.053  1.00  0.00     0.346 HD
ATOM     25  H   UNL A   1      33.123  26.649  24.510  1.00  0.00     0.346 HD
ENDBRANCH  17  18
ENDBRANCH  15  17
ENDBRANCH   7  15
ENDBRANCH   6   7
ENDBRANCH   4   6
ENDBRANCH   3   4
ENDBRANCH   2   3
ENDBRANCH   1   2
BRANCH   1  26
ATOM     26  O   UNL A   1      37.382  22.368  25.237  1.00  0.00    -0.374 OA
BRANCH  26  27
ATOM     27  C   UNL A   1      38.328  21.352  25.409  1.00  0.00     0.202 C 
BRANCH  27  28
ATOM     28  C   UNL A   1      39.557  21.893  26.125  1.00  0.00     0.261 C 
BRANCH  28  29
ATOM     29  O   UNL A   1      40.419  20.801  26.533  1.00  0.00    -0.460 OA
BRANCH  29  30
ATOM     30  C   UNL A   1      41.709  20.859  26.086  1.00  0.00     0.338 C 
ATOM     31  O   UNL A   1      42.243  20.018  25.378  1.00  0.00    -0.246 OA
BRANCH  30  32
ATOM     32  C   UNL A   1      42.464  21.934  26.808  1.00  0.00     0.060 A 
ATOM     33  C   UNL A   1      42.590  21.882  28.213  1.00  0.00     0.016 A 
ATOM     34  C   UNL A   1      42.663  23.137  26.141  1.00  0.00     0.016 A 
ATOM     35  C   UNL A   1      42.739  23.066  28.956  1.00  0.00     0.010 A 
ATOM     36  C   UNL A   1      42.634  24.298  26.883  1.00  0.00     0.010 A 
ATOM     37  C   UNL A   1      42.661  24.285  28.286  1.00  0.00    -0.014 A 
BRANCH  37  38
ATOM     38  C   UNL A   1      42.606  25.615  28.902  1.00  0.00     0.031 A 
ATOM     39  C   UNL A   1      41.374  26.376  28.642  1.00  0.00     0.074 A 
ATOM     40  C   UNL A   1      43.541  26.157  29.721  1.00  0.00     0.049 A 
ATOM     41  N   UNL A   1      41.388  27.614  28.279  1.00  0.00    -0.248 NA
ATOM     42  C   UNL A   1      40.038  25.775  28.626  1.00  0.00     0.031 C 
ATOM     43  C   UNL A   1      43.345  27.259  30.666  1.00  0.00     0.029 A 
ATOM     44  N   UNL A   1      44.884  25.847  29.867  1.00  0.00    -0.354 N 
ATOM     45  C   UNL A   1      40.076  28.017  28.313  1.00  0.00     0.074 A 
ATOM     46  C   UNL A   1      39.280  26.817  28.294  1.00  0.00     0.031 C 
ATOM     47  C   UNL A   1      44.530  27.617  31.196  1.00  0.00     0.029 A 
ATOM     48  C   UNL A   1      45.581  26.828  30.563  1.00  0.00     0.049 A 
ATOM     49  H   UNL A   1      45.298  25.026  29.516  1.00  0.00     0.167 HD
ATOM     50  C   UNL A   1      39.750  29.285  28.672  1.00  0.00     0.031 A 
ATOM     51  C   UNL A   1      46.810  27.267  30.179  1.00  0.00     0.031 A 
ATOM     52  C   UNL A   1      40.921  30.004  29.174  1.00  0.00     0.049 A 
ATOM     53  C   UNL A   1      46.614  28.606  29.517  1.00  0.00     0.074 A 
ATOM     54  C   UNL A   1      41.341  30.294  30.463  1.00  0.00     0.029 A 
ATOM     55  N   UNL A   1      42.034  30.184  28.357  1.00  0.00    -0.354 N 
ATOM     56  N   UNL A   1      45.421  29.037  29.206  1.00  0.00    -0.248 NA
ATOM     57  C   UNL A   1      47.654  29.574  29.193  1.00  0.00     0.031 C 
ATOM     58  C   UNL A   1      42.715  30.652  30.413  1.00  0.00     0.029 A 
ATOM     59  C   UNL A   1      43.129  30.601  29.092  1.00  0.00     0.049 A 
ATOM     60  H   UNL A   1      42.041  30.035  27.384  1.00  0.00     0.167 HD
ATOM     61  C   UNL A   1      45.493  30.306  28.739  1.00  0.00     0.074 A 
ATOM     62  C   UNL A   1      46.917  30.594  28.708  1.00  0.00     0.031 C 
ATOM     63  C   UNL A   1      44.366  31.004  28.429  1.00  0.00     0.031 A 
BRANCH  50  64
ATOM     64  C   UNL A   1      38.313  29.667  28.925  1.00  0.00    -0.014 A 
ATOM     65  C   UNL A   1      37.778  29.616  30.220  1.00  0.00     0.009 A 
ATOM     66  C   UNL A   1      37.436  30.087  27.903  1.00  0.00     0.009 A 
ATOM     67  C   UNL A   1      36.426  29.887  30.469  1.00  0.00     0.001 A 
ATOM     68  C   UNL A   1      36.072  30.308  28.136  1.00  0.00     0.001 A 
ATOM     69  C   UNL A   1      35.567  30.206  29.424  1.00  0.00     0.000 A 
ENDBRANCH  50  64
BRANCH  51  70
ATOM     70  C   UNL A   1      47.792  26.195  29.852  1.00  0.00    -0.014 A 
ATOM     71  C   UNL A   1      47.857  25.801  28.495  1.00  0.00     0.009 A 
ATOM     72  C   UNL A   1      48.857  25.826  30.687  1.00  0.00     0.009 A 
ATOM     73  C   UNL A   1      48.990  25.174  27.961  1.00  0.00     0.001 A 
ATOM     74  C   UNL A   1      49.988  25.173  30.153  1.00  0.00     0.001 A 
ATOM     75  C   UNL A   1      50.068  24.879  28.787  1.00  0.00     0.000 A 
ENDBRANCH  51  70
BRANCH  63  76
ATOM     76  C   UNL A   1      44.336  32.199  27.525  1.00  0.00    -0.014 A 
ATOM     77  C   UNL A   1      44.401  32.109  26.131  1.00  0.00     0.009 A 
ATOM     78  C   UNL A   1      44.047  33.466  28.077  1.00  0.00     0.009 A 
ATOM     79  C   UNL A   1      44.236  33.239  25.328  1.00  0.00     0.001 A 
ATOM     80  C   UNL A   1      43.816  34.581  27.277  1.00  0.00     0.001 A 
ATOM     81  C   UNL A   1      43.929  34.470  25.900  1.00  0.00     0.000 A 
ENDBRANCH  63  76
ENDBRANCH  37  38
ENDBRANCH  30  32
ENDBRANCH  29  30
ENDBRANCH  28  29
ENDBRANCH  27  28
ENDBRANCH  26  27
ENDBRANCH   1  26
TORSDOF 19
ENDMDL
MODEL 2
REMARK VINA RESULT:     -10.5      1.897      4.125
REMARK SMILES Cc1ccc(N(CC(=O)OCCOCCOC(=O)c2ccc(-c3c4nc(c(-c5ccccc5)c5ccc([nH]5)c(-c5ccccc5)c5nc(c(-c6ccccc6)c6ccc3[nH]6)C=C5)C=C4)cc2)C(=O)C[C@H]2C[NH2+]CCO2)cc1
REMARK SMILES IDX 12 1 11 2 10 3 8 4 9 5 7 6 6 7 5 8 1 9 2 10 3 11 77 12 4 13
REMARK SMILES IDX 76 14 67 15 68 16 69 17 70 18 71 19 75 20 72 21 74 22 73 23
REMARK SMILES IDX 13 26 14 27 15 28 16 29 17 30 18 31 19 32 20 33 66 34 21 35
REMARK SMILES IDX 65 36 22 37 23 38 24 39 59 40 25 41 64 42 58 43 60 44 26 45
REMARK SMILES IDX 63 46 57 47 56 48 27 50 49 51 34 52 48 53 35 54 38 55 47 56
REMARK SMILES IDX 61 57 36 58 37 59 46 61 62 62 39 63 28 64 29 65 33 66 30 67
REMARK SMILES IDX 32 68 31 69 50 70 51 71 55 72 52 73 54 74 53 75 40 76 41 77
REMARK SMILES IDX 45 78 42 79 44 80 43 81
REMARK H PARENT 72 24 72 25 60 49 38 60
REMARK Flexibility Score: inf
ROOT
ATOM      1  C   UNL A   1      39.459  21.862  26.415  1.00  0.00     0.202 C 
ENDROOT
BRANCH   1   2
ATOM      2  C   UNL A   1      38.643  21.121  25.406  1.00  0.00     0.261 C 
BRANCH   2   3
ATOM      3  O   UNL A   1      37.277  21.153  25.798  1.00  0.00    -0.462 OA
BRANCH   3   4
ATOM      4  C   UNL A   1      36.435  21.899  25.021  1.00  0.00     0.326 C 
ATOM      5  O   UNL A   1      36.544  22.228  23.862  1.00  0.00    -0.250 OA
BRANCH   4   6
ATOM      6  C   UNL A   1      35.250  22.258  25.855  1.00  0.00     0.248 C 
BRANCH   6   7
ATOM      7  N   UNL A   1      34.051  22.440  24.999  1.00  0.00    -0.301 N 
BRANCH   7   8
ATOM      8  C   UNL A   1      33.800  23.836  24.672  1.00  0.00     0.044 A 
ATOM      9  C   UNL A   1      33.615  28.021  23.518  1.00  0.00     0.044 C 
ATOM     10  C   UNL A   1      33.617  26.578  23.920  1.00  0.00    -0.051 A 
ATOM     11  C   UNL A   1      33.660  25.584  22.948  1.00  0.00     0.005 A 
ATOM     12  C   UNL A   1      33.613  26.198  25.263  1.00  0.00     0.005 A 
ATOM     13  C   UNL A   1      33.722  24.237  23.322  1.00  0.00     0.026 A 
ATOM     14  C   UNL A   1      33.697  24.845  25.632  1.00  0.00     0.026 A 
ENDBRANCH   7   8
BRANCH   7  15
ATOM     15  C   UNL A   1      33.109  21.417  24.752  1.00  0.00     0.230 C 
ATOM     16  O   UNL A   1      31.887  21.621  24.780  1.00  0.00    -0.274 OA
BRANCH  15  17
ATOM     17  C   UNL A   1      33.506  19.969  24.398  1.00  0.00     0.138 C 
BRANCH  17  18
ATOM     18  C   UNL A   1      32.429  18.928  24.010  1.00  0.00     0.182 C 
ATOM     19  C   UNL A   1      32.716  17.986  22.835  1.00  0.00     0.293 C 
ATOM     20  O   UNL A   1      31.986  18.128  25.119  1.00  0.00    -0.366 OA
ATOM     21  N   UNL A   1      33.831  17.074  23.095  1.00  0.00    -0.342 N 
ATOM     22  C   UNL A   1      32.991  17.213  25.527  1.00  0.00     0.222 C 
ATOM     23  C   UNL A   1      33.668  16.412  24.398  1.00  0.00     0.289 C 
ATOM     24  H   UNL A   1      34.703  17.603  23.096  1.00  0.00     0.346 HD
ATOM     25  H   UNL A   1      33.850  16.361  22.366  1.00  0.00     0.346 HD
ENDBRANCH  17  18
ENDBRANCH  15  17
ENDBRANCH   7  15
ENDBRANCH   6   7
ENDBRANCH   4   6
ENDBRANCH   3   4
ENDBRANCH   2   3
ENDBRANCH   1   2
BRANCH   1  26
ATOM     26  O   UNL A   1      40.203  20.816  27.004  1.00  0.00    -0.374 OA
BRANCH  26  27
ATOM     27  C   UNL A   1      40.991  20.020  26.164  1.00  0.00     0.202 C 
BRANCH  27  28
ATOM     28  C   UNL A   1      42.454  20.426  26.276  1.00  0.00     0.261 C 
BRANCH  28  29
ATOM     29  O   UNL A   1      42.758  21.468  25.315  1.00  0.00    -0.460 OA
BRANCH  29  30
ATOM     30  C   UNL A   1      44.055  21.530  24.892  1.00  0.00     0.338 C 
ATOM     31  O   UNL A   1      44.638  20.641  24.290  1.00  0.00    -0.246 OA
BRANCH  30  32
ATOM     32  C   UNL A   1      44.751  22.705  25.510  1.00  0.00     0.060 A 
ATOM     33  C   UNL A   1      45.304  22.593  26.805  1.00  0.00     0.016 A 
ATOM     34  C   UNL A   1      44.483  23.961  24.981  1.00  0.00     0.016 A 
ATOM     35  C   UNL A   1      45.420  23.727  27.627  1.00  0.00     0.010 A 
ATOM     36  C   UNL A   1      44.438  25.030  25.849  1.00  0.00     0.010 A 
ATOM     37  C   UNL A   1      44.890  24.933  27.174  1.00  0.00    -0.014 A 
BRANCH  37  38
ATOM     38  C   UNL A   1      44.748  26.168  27.952  1.00  0.00     0.031 A 
ATOM     39  C   UNL A   1      43.364  26.627  28.152  1.00  0.00     0.074 A 
ATOM     40  C   UNL A   1      45.751  26.865  28.539  1.00  0.00     0.049 A 
ATOM     41  N   UNL A   1      43.007  27.852  27.968  1.00  0.00    -0.248 NA
ATOM     42  C   UNL A   1      42.244  25.725  28.433  1.00  0.00     0.031 C 
ATOM     43  C   UNL A   1      45.626  27.823  29.639  1.00  0.00     0.029 A 
ATOM     44  N   UNL A   1      47.109  26.877  28.259  1.00  0.00    -0.354 N 
ATOM     45  C   UNL A   1      41.714  27.926  28.423  1.00  0.00     0.074 A 
ATOM     46  C   UNL A   1      41.220  26.574  28.469  1.00  0.00     0.031 C 
ATOM     47  C   UNL A   1      46.814  28.421  29.857  1.00  0.00     0.029 A 
ATOM     48  C   UNL A   1      47.763  27.949  28.856  1.00  0.00     0.049 A 
ATOM     49  H   UNL A   1      47.560  26.203  27.699  1.00  0.00     0.167 HD
ATOM     50  C   UNL A   1      41.254  29.053  29.025  1.00  0.00     0.031 A 
ATOM     51  C   UNL A   1      48.696  28.694  28.203  1.00  0.00     0.031 A 
ATOM     52  C   UNL A   1      42.344  29.997  29.268  1.00  0.00     0.049 A 
ATOM     53  C   UNL A   1      48.032  29.986  27.808  1.00  0.00     0.074 A 
ATOM     54  C   UNL A   1      43.066  30.296  30.414  1.00  0.00     0.029 A 
ATOM     55  N   UNL A   1      43.092  30.492  28.203  1.00  0.00    -0.354 N 
ATOM     56  N   UNL A   1      46.738  30.139  27.905  1.00  0.00    -0.248 NA
ATOM     57  C   UNL A   1      48.696  31.195  27.337  1.00  0.00     0.031 C 
ATOM     58  C   UNL A   1      44.252  30.975  30.028  1.00  0.00     0.029 A 
ATOM     59  C   UNL A   1      44.245  31.110  28.649  1.00  0.00     0.049 A 
ATOM     60  H   UNL A   1      42.834  30.412  27.256  1.00  0.00     0.167 HD
ATOM     61  C   UNL A   1      46.397  31.415  27.609  1.00  0.00     0.074 A 
ATOM     62  C   UNL A   1      47.650  32.038  27.218  1.00  0.00     0.031 C 
ATOM     63  C   UNL A   1      45.109  31.841  27.725  1.00  0.00     0.031 A 
BRANCH  50  64
ATOM     64  C   UNL A   1      39.915  29.062  29.720  1.00  0.00    -0.014 A 
ATOM     65  C   UNL A   1      39.753  28.439  30.965  1.00  0.00     0.009 A 
ATOM     66  C   UNL A   1      38.769  29.679  29.176  1.00  0.00     0.009 A 
ATOM     67  C   UNL A   1      38.504  28.362  31.593  1.00  0.00     0.001 A 
ATOM     68  C   UNL A   1      37.507  29.561  29.772  1.00  0.00     0.001 A 
ATOM     69  C   UNL A   1      37.375  28.899  30.985  1.00  0.00     0.000 A 
ENDBRANCH  50  64
BRANCH  51  70
ATOM     70  C   UNL A   1      49.734  27.913  27.474  1.00  0.00    -0.014 A 
ATOM     71  C   UNL A   1      50.554  27.074  28.265  1.00  0.00     0.009 A 
ATOM     72  C   UNL A   1      49.717  27.686  26.090  1.00  0.00     0.009 A 
ATOM     73  C   UNL A   1      51.232  25.977  27.719  1.00  0.00     0.001 A 
ATOM     74  C   UNL A   1      50.420  26.595  25.538  1.00  0.00     0.001 A 
ATOM     75  C   UNL A   1      51.147  25.723  26.355  1.00  0.00     0.000 A 
ENDBRANCH  51  70
BRANCH  63  76
ATOM     76  C   UNL A   1      44.555  33.049  27.033  1.00  0.00    -0.014 A 
ATOM     77  C   UNL A   1      44.170  33.056  25.689  1.00  0.00     0.009 A 
ATOM     78  C   UNL A   1      44.232  34.189  27.802  1.00  0.00     0.009 A 
ATOM     79  C   UNL A   1      43.537  34.166  25.126  1.00  0.00     0.001 A 
ATOM     80  C   UNL A   1      43.542  35.269  27.261  1.00  0.00     0.001 A 
ATOM     81  C   UNL A   1      43.210  35.264  25.915  1.00  0.00     0.000 A 
ENDBRANCH  63  76
ENDBRANCH  37  38
ENDBRANCH  30  32
ENDBRANCH  29  30
ENDBRANCH  28  29
ENDBRANCH  27  28
ENDBRANCH  26  27
ENDBRANCH   1  26
TORSDOF 19
ENDMDL
MODEL 3
REMARK VINA RESULT:     -10.5      4.606      9.188
REMARK SMILES Cc1ccc(N(CC(=O)OCCOCCOC(=O)c2ccc(-c3c4nc(c(-c5ccccc5)c5ccc([nH]5)c(-c5ccccc5)c5nc(c(-c6ccccc6)c6ccc3[nH]6)C=C5)C=C4)cc2)C(=O)C[C@H]2C[NH2+]CCO2)cc1
REMARK SMILES IDX 12 1 11 2 10 3 8 4 9 5 7 6 6 7 5 8 1 9 2 10 3 11 77 12 4 13
REMARK SMILES IDX 76 14 67 15 68 16 69 17 70 18 71 19 75 20 72 21 74 22 73 23
REMARK SMILES IDX 13 26 14 27 15 28 16 29 17 30 18 31 19 32 20 33 66 34 21 35
REMARK SMILES IDX 65 36 22 37 23 38 24 39 59 40 25 41 64 42 58 43 60 44 26 45
REMARK SMILES IDX 63 46 57 47 56 48 27 50 49 51 34 52 48 53 35 54 38 55 47 56
REMARK SMILES IDX 61 57 36 58 37 59 46 61 62 62 39 63 28 64 29 65 33 66 30 67
REMARK SMILES IDX 32 68 31 69 50 70 51 71 55 72 52 73 54 74 53 75 40 76 41 77
REMARK SMILES IDX 45 78 42 79 44 80 43 81
REMARK H PARENT 72 24 72 25 60 49 38 60
REMARK Flexibility Score: inf
ROOT
ATOM      1  C   UNL A   1      33.313  31.571  27.442  1.00  0.00     0.202 C 
ENDROOT
BRANCH   1   2
ATOM      2  C   UNL A   1      33.248  30.176  26.909  1.00  0.00     0.261 C 
BRANCH   2   3
ATOM      3  O   UNL A   1      32.052  29.558  27.367  1.00  0.00    -0.462 OA
BRANCH   3   4
ATOM      4  C   UNL A   1      31.691  28.394  26.748  1.00  0.00     0.326 C 
ATOM      5  O   UNL A   1      31.077  27.447  27.185  1.00  0.00    -0.250 OA
BRANCH   4   6
ATOM      6  C   UNL A   1      32.167  28.468  25.336  1.00  0.00     0.248 C 
BRANCH   6   7
ATOM      7  N   UNL A   1      31.433  27.491  24.492  1.00  0.00    -0.301 N 
BRANCH   7   8
ATOM      8  C   UNL A   1      32.181  26.261  24.276  1.00  0.00     0.044 A 
ATOM      9  C   UNL A   1      34.525  22.602  24.214  1.00  0.00     0.044 C 
ATOM     10  C   UNL A   1      33.697  23.849  24.178  1.00  0.00    -0.051 A 
ATOM     11  C   UNL A   1      32.420  23.856  24.732  1.00  0.00     0.005 A 
ATOM     12  C   UNL A   1      34.191  25.034  23.630  1.00  0.00     0.005 A 
ATOM     13  C   UNL A   1      31.669  25.035  24.753  1.00  0.00     0.026 A 
ATOM     14  C   UNL A   1      33.441  26.220  23.673  1.00  0.00     0.026 A 
ENDBRANCH   7   8
BRANCH   7  15
ATOM     15  C   UNL A   1      30.270  27.814  23.760  1.00  0.00     0.230 C 
ATOM     16  O   UNL A   1      29.324  27.023  23.635  1.00  0.00    -0.274 OA
BRANCH  15  17
ATOM     17  C   UNL A   1      30.054  29.180  23.075  1.00  0.00     0.138 C 
BRANCH  17  18
ATOM     18  C   UNL A   1      28.809  30.038  23.405  1.00  0.00     0.182 C 
ATOM     19  C   UNL A   1      28.989  31.552  23.565  1.00  0.00     0.293 C 
ATOM     20  O   UNL A   1      27.712  29.818  22.502  1.00  0.00    -0.366 OA
ATOM     21  N   UNL A   1      29.400  32.212  22.324  1.00  0.00    -0.342 N 
ATOM     22  C   UNL A   1      27.983  30.366  21.220  1.00  0.00     0.222 C 
ATOM     23  C   UNL A   1      28.536  31.804  21.208  1.00  0.00     0.289 C 
ATOM     24  H   UNL A   1      30.364  31.955  22.112  1.00  0.00     0.346 HD
ATOM     25  H   UNL A   1      29.323  33.221  22.447  1.00  0.00     0.346 HD
ENDBRANCH  17  18
ENDBRANCH  15  17
ENDBRANCH   7  15
ENDBRANCH   6   7
ENDBRANCH   4   6
ENDBRANCH   3   4
ENDBRANCH   2   3
ENDBRANCH   1   2
BRANCH   1  26
ATOM     26  O   UNL A   1      34.707  31.774  27.541  1.00  0.00    -0.374 OA
BRANCH  26  27
ATOM     27  C   UNL A   1      35.167  32.715  28.468  1.00  0.00     0.202 C 
BRANCH  27  28
ATOM     28  C   UNL A   1      34.430  32.556  29.790  1.00  0.00     0.261 C 
BRANCH  28  29
ATOM     29  O   UNL A   1      34.041  33.853  30.306  1.00  0.00    -0.460 OA
BRANCH  29  30
ATOM     30  C   UNL A   1      34.077  33.991  31.665  1.00  0.00     0.338 C 
ATOM     31  O   UNL A   1      33.171  34.450  32.346  1.00  0.00    -0.246 OA
BRANCH  30  32
ATOM     32  C   UNL A   1      35.469  33.775  32.176  1.00  0.00     0.060 A 
ATOM     33  C   UNL A   1      36.527  34.576  31.693  1.00  0.00     0.016 A 
ATOM     34  C   UNL A   1      35.747  32.558  32.785  1.00  0.00     0.016 A 
ATOM     35  C   UNL A   1      37.840  34.074  31.663  1.00  0.00     0.010 A 
ATOM     36  C   UNL A   1      36.998  32.012  32.594  1.00  0.00     0.010 A 
ATOM     37  C   UNL A   1      38.052  32.746  32.028  1.00  0.00    -0.014 A 
BRANCH  37  38
ATOM     38  C   UNL A   1      39.303  31.994  31.887  1.00  0.00     0.031 A 
ATOM     39  C   UNL A   1      39.257  30.873  30.934  1.00  0.00     0.074 A 
ATOM     40  C   UNL A   1      40.481  32.278  32.495  1.00  0.00     0.049 A 
ATOM     41  N   UNL A   1      39.722  29.704  31.218  1.00  0.00    -0.248 NA
ATOM     42  C   UNL A   1      38.559  30.932  29.648  1.00  0.00     0.031 C 
ATOM     43  C   UNL A   1      41.813  31.837  32.075  1.00  0.00     0.029 A 
ATOM     44  N   UNL A   1      40.736  33.015  33.641  1.00  0.00    -0.354 N 
ATOM     45  C   UNL A   1      39.667  28.997  30.042  1.00  0.00     0.074 A 
ATOM     46  C   UNL A   1      38.742  29.696  29.188  1.00  0.00     0.031 C 
ATOM     47  C   UNL A   1      42.722  32.193  33.003  1.00  0.00     0.029 A 
ATOM     48  C   UNL A   1      42.024  32.814  34.123  1.00  0.00     0.049 A 
ATOM     49  H   UNL A   1      40.078  33.612  34.067  1.00  0.00     0.167 HD
ATOM     50  C   UNL A   1      40.619  28.076  29.742  1.00  0.00     0.031 A 
ATOM     51  C   UNL A   1      42.293  32.642  35.446  1.00  0.00     0.031 A 
ATOM     52  C   UNL A   1      41.718  28.128  30.706  1.00  0.00     0.049 A 
ATOM     53  C   UNL A   1      42.539  31.172  35.660  1.00  0.00     0.074 A 
ATOM     54  C   UNL A   1      42.979  28.701  30.636  1.00  0.00     0.029 A 
ATOM     55  N   UNL A   1      41.474  27.900  32.058  1.00  0.00    -0.354 N 
ATOM     56  N   UNL A   1      42.267  30.299  34.728  1.00  0.00    -0.248 NA
ATOM     57  C   UNL A   1      43.124  30.553  36.842  1.00  0.00     0.031 C 
ATOM     58  C   UNL A   1      43.491  28.813  31.956  1.00  0.00     0.029 A 
ATOM     59  C   UNL A   1      42.553  28.291  32.831  1.00  0.00     0.049 A 
ATOM     60  H   UNL A   1      40.644  27.513  32.417  1.00  0.00     0.167 HD
ATOM     61  C   UNL A   1      42.685  29.068  35.107  1.00  0.00     0.074 A 
ATOM     62  C   UNL A   1      43.182  29.262  36.458  1.00  0.00     0.031 C 
ATOM     63  C   UNL A   1      42.590  28.004  34.263  1.00  0.00     0.031 A 
BRANCH  50  64
ATOM     64  C   UNL A   1      40.689  27.462  28.366  1.00  0.00    -0.014 A 
ATOM     65  C   UNL A   1      40.046  26.246  28.094  1.00  0.00     0.009 A 
ATOM     66  C   UNL A   1      41.388  28.053  27.293  1.00  0.00     0.009 A 
ATOM     67  C   UNL A   1      40.163  25.614  26.850  1.00  0.00     0.001 A 
ATOM     68  C   UNL A   1      41.553  27.402  26.064  1.00  0.00     0.001 A 
ATOM     69  C   UNL A   1      40.938  26.178  25.843  1.00  0.00     0.000 A 
ENDBRANCH  50  64
BRANCH  51  70
ATOM     70  C   UNL A   1      41.644  33.626  36.358  1.00  0.00    -0.014 A 
ATOM     71  C   UNL A   1      41.998  34.982  36.166  1.00  0.00     0.009 A 
ATOM     72  C   UNL A   1      40.493  33.356  37.112  1.00  0.00     0.009 A 
ATOM     73  C   UNL A   1      41.174  36.029  36.599  1.00  0.00     0.001 A 
ATOM     74  C   UNL A   1      39.677  34.412  37.569  1.00  0.00     0.001 A 
ATOM     75  C   UNL A   1      39.999  35.743  37.283  1.00  0.00     0.000 A 
ENDBRANCH  51  70
BRANCH  63  76
ATOM     76  C   UNL A   1      42.605  26.573  34.705  1.00  0.00    -0.014 A 
ATOM     77  C   UNL A   1      41.560  25.978  35.419  1.00  0.00     0.009 A 
ATOM     78  C   UNL A   1      43.630  25.723  34.235  1.00  0.00     0.009 A 
ATOM     79  C   UNL A   1      41.562  24.609  35.693  1.00  0.00     0.001 A 
ATOM     80  C   UNL A   1      43.601  24.348  34.448  1.00  0.00     0.001 A 
ATOM     81  C   UNL A   1      42.573  23.794  35.195  1.00  0.00     0.000 A 
ENDBRANCH  63  76
ENDBRANCH  37  38
ENDBRANCH  30  32
ENDBRANCH  29  30
ENDBRANCH  28  29
ENDBRANCH  27  28
ENDBRANCH  26  27
ENDBRANCH   1  26
TORSDOF 19
ENDMDL
