MODEL 1
REMARK VINA RESULT:     -10.0      0.000      0.000
REMARK SMILES CC[NH2+][C@@]1(C(=O)OCCOCCOC(=O)c2ccc(-c3c4nc(c(-c5ccccc5)c5ccc([nH]5)c(-c5ccccc5)c5nc(c(-c6ccccc6)c6ccc3[nH]6)C=C5)C=C4)cc2)CC[C@@H]([NH+]2CCC(C)(CC)CC2)C1
REMARK SMILES IDX 10 1 9 2 8 3 7 4 5 5 6 6 4 7 64 8 76 9 65 10 66 11 3 12 2 15
REMARK SMILES IDX 1 16 67 17 68 18 75 19 69 21 74 22 70 23 71 24 72 25 73 26
REMARK SMILES IDX 11 27 12 28 13 29 14 30 15 31 16 32 17 33 63 34 18 35 62 36
REMARK SMILES IDX 19 37 20 38 21 39 56 40 22 41 61 42 55 43 57 44 23 45 60 46
REMARK SMILES IDX 54 47 53 48 24 50 46 51 31 52 45 53 32 54 35 55 44 56 58 57
REMARK SMILES IDX 33 58 34 59 43 61 59 62 36 63 25 64 26 65 30 66 27 67 29 68
REMARK SMILES IDX 28 69 47 70 48 71 52 72 49 73 51 74 50 75 37 76 38 77 42 78
REMARK SMILES IDX 39 79 41 80 40 81
REMARK H PARENT 3 13 3 14 67 20 57 49 35 60
REMARK Flexibility Score: inf
ROOT
ATOM      1  O   UNL A   1      34.349  33.936  29.001  1.00  0.00    -0.374 OA
ENDROOT
BRANCH   1   2
ATOM      2  C   UNL A   1      33.658  32.927  28.262  1.00  0.00     0.202 C 
BRANCH   2   3
ATOM      3  C   UNL A   1      34.432  31.636  27.994  1.00  0.00     0.261 C 
BRANCH   3   4
ATOM      4  O   UNL A   1      33.740  30.874  26.986  1.00  0.00    -0.459 OA
BRANCH   4   5
ATOM      5  C   UNL A   1      34.186  29.605  26.819  1.00  0.00     0.368 C 
ATOM      6  O   UNL A   1      35.130  29.126  27.444  1.00  0.00    -0.245 OA
BRANCH   5   7
ATOM      7  C   UNL A   1      33.287  28.749  25.851  1.00  0.00     0.200 C 
ATOM      8  C   UNL A   1      31.822  29.028  26.217  1.00  0.00     0.087 C 
ATOM      9  C   UNL A   1      33.425  27.208  26.075  1.00  0.00     0.146 C 
ATOM     10  C   UNL A   1      31.503  28.021  27.317  1.00  0.00     0.072 C 
ATOM     11  C   UNL A   1      32.222  26.722  26.919  1.00  0.00     0.191 C 
BRANCH   7  12
ATOM     12  N   UNL A   1      33.584  29.334  24.511  1.00  0.00    -0.332 N 
ATOM     13  H   UNL A   1      33.419  30.337  24.593  1.00  0.00     0.347 HD
ATOM     14  H   UNL A   1      34.533  29.003  24.336  1.00  0.00     0.347 HD
BRANCH  12  15
ATOM     15  C   UNL A   1      32.887  28.904  23.323  1.00  0.00     0.257 C 
ATOM     16  C   UNL A   1      33.799  28.126  22.384  1.00  0.00     0.071 C 
ENDBRANCH  12  15
ENDBRANCH   7  12
BRANCH  11  17
ATOM     17  N   UNL A   1      31.317  25.690  26.382  1.00  0.00    -0.332 N 
ATOM     18  C   UNL A   1      31.690  24.293  26.599  1.00  0.00     0.263 C 
ATOM     19  C   UNL A   1      30.749  25.851  25.051  1.00  0.00     0.263 C 
ATOM     20  H   UNL A   1      30.556  25.920  27.019  1.00  0.00     0.348 HD
ATOM     21  C   UNL A   1      32.653  23.700  25.565  1.00  0.00     0.068 C 
ATOM     22  C   UNL A   1      31.707  25.456  23.934  1.00  0.00     0.068 C 
ATOM     23  C   UNL A   1      32.407  24.084  24.078  1.00  0.00    -0.022 C 
ATOM     24  C   UNL A   1      33.804  24.151  23.396  1.00  0.00     0.012 C 
BRANCH  23  25
ATOM     25  C   UNL A   1      31.636  22.997  23.277  1.00  0.00     0.004 C 
ATOM     26  C   UNL A   1      32.349  21.680  23.035  1.00  0.00     0.004 C 
ENDBRANCH  23  25
ENDBRANCH  11  17
ENDBRANCH   5   7
ENDBRANCH   4   5
ENDBRANCH   3   4
ENDBRANCH   2   3
ENDBRANCH   1   2
BRANCH   1  27
ATOM     27  C   UNL A   1      34.075  35.298  28.677  1.00  0.00     0.202 C 
BRANCH  27  28
ATOM     28  C   UNL A   1      32.973  35.995  29.493  1.00  0.00     0.261 C 
BRANCH  28  29
ATOM     29  O   UNL A   1      32.464  35.176  30.563  1.00  0.00    -0.460 OA
BRANCH  29  30
ATOM     30  C   UNL A   1      32.712  35.655  31.806  1.00  0.00     0.338 C 
ATOM     31  O   UNL A   1      32.019  36.431  32.452  1.00  0.00    -0.246 OA
BRANCH  30  32
ATOM     32  C   UNL A   1      33.868  34.961  32.406  1.00  0.00     0.060 A 
ATOM     33  C   UNL A   1      35.104  35.617  32.358  1.00  0.00     0.016 A 
ATOM     34  C   UNL A   1      33.771  33.673  32.937  1.00  0.00     0.016 A 
ATOM     35  C   UNL A   1      36.259  34.971  32.791  1.00  0.00     0.010 A 
ATOM     36  C   UNL A   1      34.936  33.018  33.360  1.00  0.00     0.010 A 
ATOM     37  C   UNL A   1      36.189  33.650  33.252  1.00  0.00    -0.014 A 
BRANCH  37  38
ATOM     38  C   UNL A   1      37.450  32.895  33.458  1.00  0.00     0.031 A 
ATOM     39  C   UNL A   1      38.227  33.104  34.731  1.00  0.00     0.074 A 
ATOM     40  C   UNL A   1      37.870  31.988  32.559  1.00  0.00     0.049 A 
ATOM     41  N   UNL A   1      39.329  32.526  35.134  1.00  0.00    -0.248 NA
ATOM     42  C   UNL A   1      37.683  34.091  35.677  1.00  0.00     0.031 C 
ATOM     43  C   UNL A   1      37.189  31.654  31.309  1.00  0.00     0.029 A 
ATOM     44  N   UNL A   1      38.975  31.172  32.570  1.00  0.00    -0.354 N 
ATOM     45  C   UNL A   1      39.614  33.081  36.376  1.00  0.00     0.074 A 
ATOM     46  C   UNL A   1      38.585  34.062  36.647  1.00  0.00     0.031 C 
ATOM     47  C   UNL A   1      37.892  30.702  30.671  1.00  0.00     0.029 A 
ATOM     48  C   UNL A   1      39.084  30.378  31.455  1.00  0.00     0.049 A 
ATOM     49  H   UNL A   1      39.627  31.158  33.307  1.00  0.00     0.167 HD
ATOM     50  C   UNL A   1      40.634  32.796  37.220  1.00  0.00     0.031 A 
ATOM     51  C   UNL A   1      40.041  29.499  31.100  1.00  0.00     0.031 A 
ATOM     52  C   UNL A   1      41.666  31.831  36.954  1.00  0.00     0.049 A 
ATOM     53  C   UNL A   1      41.205  29.255  32.024  1.00  0.00     0.074 A 
ATOM     54  C   UNL A   1      42.731  31.464  37.758  1.00  0.00     0.029 A 
ATOM     55  N   UNL A   1      41.766  31.085  35.790  1.00  0.00    -0.354 N 
ATOM     56  N   UNL A   1      41.445  29.764  33.207  1.00  0.00    -0.248 NA
ATOM     57  C   UNL A   1      42.227  28.302  31.561  1.00  0.00     0.031 C 
ATOM     58  C   UNL A   1      43.507  30.534  37.058  1.00  0.00     0.029 A 
ATOM     59  C   UNL A   1      42.892  30.280  35.842  1.00  0.00     0.049 A 
ATOM     60  H   UNL A   1      41.132  31.121  35.039  1.00  0.00     0.167 HD
ATOM     61  C   UNL A   1      42.628  29.176  33.641  1.00  0.00     0.074 A 
ATOM     62  C   UNL A   1      43.048  28.262  32.601  1.00  0.00     0.031 C 
ATOM     63  C   UNL A   1      43.303  29.376  34.800  1.00  0.00     0.031 A 
BRANCH  50  64
ATOM     64  C   UNL A   1      40.699  33.571  38.506  1.00  0.00    -0.014 A 
ATOM     65  C   UNL A   1      40.081  33.100  39.674  1.00  0.00     0.009 A 
ATOM     66  C   UNL A   1      41.420  34.774  38.555  1.00  0.00     0.009 A 
ATOM     67  C   UNL A   1      40.155  33.837  40.859  1.00  0.00     0.001 A 
ATOM     68  C   UNL A   1      41.515  35.495  39.746  1.00  0.00     0.001 A 
ATOM     69  C   UNL A   1      40.876  35.031  40.895  1.00  0.00     0.000 A 
ENDBRANCH  50  64
BRANCH  51  70
ATOM     70  C   UNL A   1      39.954  28.790  29.797  1.00  0.00    -0.014 A 
ATOM     71  C   UNL A   1      39.425  27.493  29.718  1.00  0.00     0.009 A 
ATOM     72  C   UNL A   1      40.425  29.404  28.625  1.00  0.00     0.009 A 
ATOM     73  C   UNL A   1      39.392  26.817  28.496  1.00  0.00     0.001 A 
ATOM     74  C   UNL A   1      40.365  28.736  27.401  1.00  0.00     0.001 A 
ATOM     75  C   UNL A   1      39.857  27.440  27.339  1.00  0.00     0.000 A 
ENDBRANCH  51  70
BRANCH  63  76
ATOM     76  C   UNL A   1      44.548  28.565  35.021  1.00  0.00    -0.014 A 
ATOM     77  C   UNL A   1      45.811  29.048  34.643  1.00  0.00     0.009 A 
ATOM     78  C   UNL A   1      44.461  27.316  35.657  1.00  0.00     0.009 A 
ATOM     79  C   UNL A   1      46.956  28.281  34.866  1.00  0.00     0.001 A 
ATOM     80  C   UNL A   1      45.611  26.564  35.903  1.00  0.00     0.001 A 
ATOM     81  C   UNL A   1      46.856  27.042  35.499  1.00  0.00     0.000 A 
ENDBRANCH  63  76
ENDBRANCH  37  38
ENDBRANCH  30  32
ENDBRANCH  29  30
ENDBRANCH  28  29
ENDBRANCH  27  28
ENDBRANCH   1  27
TORSDOF 18
ENDMDL
MODEL 2
REMARK VINA RESULT:      -9.7      5.476      9.467
REMARK SMILES CC[NH2+][C@@]1(C(=O)OCCOCCOC(=O)c2ccc(-c3c4nc(c(-c5ccccc5)c5ccc([nH]5)c(-c5ccccc5)c5nc(c(-c6ccccc6)c6ccc3[nH]6)C=C5)C=C4)cc2)CC[C@@H]([NH+]2CCC(C)(CC)CC2)C1
REMARK SMILES IDX 10 1 9 2 8 3 7 4 5 5 6 6 4 7 64 8 76 9 65 10 66 11 3 12 2 15
REMARK SMILES IDX 1 16 67 17 68 18 75 19 69 21 74 22 70 23 71 24 72 25 73 26
REMARK SMILES IDX 11 27 12 28 13 29 14 30 15 31 16 32 17 33 63 34 18 35 62 36
REMARK SMILES IDX 19 37 20 38 21 39 56 40 22 41 61 42 55 43 57 44 23 45 60 46
REMARK SMILES IDX 54 47 53 48 24 50 46 51 31 52 45 53 32 54 35 55 44 56 58 57
REMARK SMILES IDX 33 58 34 59 43 61 59 62 36 63 25 64 26 65 30 66 27 67 29 68
REMARK SMILES IDX 28 69 47 70 48 71 52 72 49 73 51 74 50 75 37 76 38 77 42 78
REMARK SMILES IDX 39 79 41 80 40 81
REMARK H PARENT 3 13 3 14 67 20 57 49 35 60
REMARK Flexibility Score: inf
ROOT
ATOM      1  O   UNL A   1      34.894  19.999  24.965  1.00  0.00    -0.374 OA
ENDROOT
BRANCH   1   2
ATOM      2  C   UNL A   1      34.024  19.094  24.283  1.00  0.00     0.202 C 
BRANCH   2   3
ATOM      3  C   UNL A   1      32.526  19.360  24.426  1.00  0.00     0.261 C 
BRANCH   3   4
ATOM      4  O   UNL A   1      32.321  20.758  24.705  1.00  0.00    -0.459 OA
BRANCH   4   5
ATOM      5  C   UNL A   1      32.406  21.577  23.629  1.00  0.00     0.368 C 
ATOM      6  O   UNL A   1      32.053  21.253  22.496  1.00  0.00    -0.245 OA
BRANCH   5   7
ATOM      7  C   UNL A   1      32.861  23.040  23.990  1.00  0.00     0.200 C 
ATOM      8  C   UNL A   1      31.674  23.736  24.670  1.00  0.00     0.087 C 
ATOM      9  C   UNL A   1      33.131  23.934  22.736  1.00  0.00     0.146 C 
ATOM     10  C   UNL A   1      30.867  24.329  23.520  1.00  0.00     0.072 C 
ATOM     11  C   UNL A   1      31.899  24.841  22.502  1.00  0.00     0.191 C 
BRANCH   7  12
ATOM     12  N   UNL A   1      33.945  22.817  24.990  1.00  0.00    -0.332 N 
ATOM     13  H   UNL A   1      33.965  21.813  25.173  1.00  0.00     0.347 HD
ATOM     14  H   UNL A   1      34.750  23.251  24.538  1.00  0.00     0.347 HD
BRANCH  12  15
ATOM     15  C   UNL A   1      33.935  23.464  26.280  1.00  0.00     0.257 C 
ATOM     16  C   UNL A   1      33.834  22.456  27.417  1.00  0.00     0.071 C 
ENDBRANCH  12  15
ENDBRANCH   7  12
BRANCH  11  17
ATOM     17  N   UNL A   1      32.054  26.307  22.509  1.00  0.00    -0.332 N 
ATOM     18  C   UNL A   1      33.195  26.856  23.242  1.00  0.00     0.263 C 
ATOM     19  C   UNL A   1      30.887  27.155  22.700  1.00  0.00     0.263 C 
ATOM     20  H   UNL A   1      32.258  26.364  21.512  1.00  0.00     0.348 HD
ATOM     21  C   UNL A   1      32.971  27.075  24.741  1.00  0.00     0.068 C 
ATOM     22  C   UNL A   1      30.469  27.288  24.160  1.00  0.00     0.068 C 
ATOM     23  C   UNL A   1      31.588  27.646  25.167  1.00  0.00    -0.022 C 
ATOM     24  C   UNL A   1      31.249  27.015  26.549  1.00  0.00     0.012 C 
BRANCH  23  25
ATOM     25  C   UNL A   1      31.606  29.178  25.433  1.00  0.00     0.004 C 
ATOM     26  C   UNL A   1      32.303  29.653  26.694  1.00  0.00     0.004 C 
ENDBRANCH  23  25
ENDBRANCH  11  17
ENDBRANCH   5   7
ENDBRANCH   4   5
ENDBRANCH   3   4
ENDBRANCH   2   3
ENDBRANCH   1   2
BRANCH   1  27
ATOM     27  C   UNL A   1      36.289  19.696  24.974  1.00  0.00     0.202 C 
BRANCH  27  28
ATOM     28  C   UNL A   1      37.247  20.843  24.609  1.00  0.00     0.261 C 
BRANCH  28  29
ATOM     29  O   UNL A   1      37.651  21.623  25.750  1.00  0.00    -0.460 OA
BRANCH  29  30
ATOM     30  C   UNL A   1      38.939  21.440  26.130  1.00  0.00     0.338 C 
ATOM     31  O   UNL A   1      39.639  20.457  25.922  1.00  0.00    -0.246 OA
BRANCH  30  32
ATOM     32  C   UNL A   1      39.497  22.690  26.680  1.00  0.00     0.060 A 
ATOM     33  C   UNL A   1      38.993  23.894  26.173  1.00  0.00     0.016 A 
ATOM     34  C   UNL A   1      40.536  22.696  27.613  1.00  0.00     0.016 A 
ATOM     35  C   UNL A   1      39.558  25.108  26.554  1.00  0.00     0.010 A 
ATOM     36  C   UNL A   1      41.114  23.918  27.986  1.00  0.00     0.010 A 
ATOM     37  C   UNL A   1      40.653  25.125  27.428  1.00  0.00    -0.014 A 
BRANCH  37  38
ATOM     38  C   UNL A   1      41.402  26.392  27.613  1.00  0.00     0.031 A 
ATOM     39  C   UNL A   1      40.816  27.466  28.491  1.00  0.00     0.074 A 
ATOM     40  C   UNL A   1      42.618  26.566  27.064  1.00  0.00     0.049 A 
ATOM     41  N   UNL A   1      41.312  28.630  28.821  1.00  0.00    -0.248 NA
ATOM     42  C   UNL A   1      39.497  27.184  29.080  1.00  0.00     0.031 C 
ATOM     43  C   UNL A   1      43.320  25.591  26.233  1.00  0.00     0.029 A 
ATOM     44  N   UNL A   1      43.480  27.633  27.136  1.00  0.00    -0.354 N 
ATOM     45  C   UNL A   1      40.367  29.222  29.650  1.00  0.00     0.074 A 
ATOM     46  C   UNL A   1      39.255  28.301  29.750  1.00  0.00     0.031 C 
ATOM     47  C   UNL A   1      44.509  26.104  25.870  1.00  0.00     0.029 A 
ATOM     48  C   UNL A   1      44.638  27.452  26.421  1.00  0.00     0.049 A 
ATOM     49  H   UNL A   1      43.285  28.450  27.650  1.00  0.00     0.167 HD
ATOM     50  C   UNL A   1      40.420  30.419  30.280  1.00  0.00     0.031 A 
ATOM     51  C   UNL A   1      45.680  28.284  26.224  1.00  0.00     0.031 A 
ATOM     52  C   UNL A   1      41.516  31.345  30.178  1.00  0.00     0.049 A 
ATOM     53  C   UNL A   1      45.681  29.642  26.876  1.00  0.00     0.074 A 
ATOM     54  C   UNL A   1      41.664  32.576  30.794  1.00  0.00     0.029 A 
ATOM     55  N   UNL A   1      42.648  31.144  29.404  1.00  0.00    -0.354 N 
ATOM     56  N   UNL A   1      44.795  30.175  27.681  1.00  0.00    -0.248 NA
ATOM     57  C   UNL A   1      46.837  30.509  26.596  1.00  0.00     0.031 C 
ATOM     58  C   UNL A   1      42.863  33.145  30.349  1.00  0.00     0.029 A 
ATOM     59  C   UNL A   1      43.486  32.242  29.503  1.00  0.00     0.049 A 
ATOM     60  H   UNL A   1      42.829  30.342  28.865  1.00  0.00     0.167 HD
ATOM     61  C   UNL A   1      45.297  31.425  28.024  1.00  0.00     0.074 A 
ATOM     62  C   UNL A   1      46.571  31.565  27.352  1.00  0.00     0.031 C 
ATOM     63  C   UNL A   1      44.751  32.372  28.827  1.00  0.00     0.031 A 
BRANCH  50  64
ATOM     64  C   UNL A   1      39.233  30.812  31.114  1.00  0.00    -0.014 A 
ATOM     65  C   UNL A   1      38.152  31.513  30.560  1.00  0.00     0.009 A 
ATOM     66  C   UNL A   1      39.184  30.444  32.468  1.00  0.00     0.009 A 
ATOM     67  C   UNL A   1      37.058  31.868  31.355  1.00  0.00     0.001 A 
ATOM     68  C   UNL A   1      38.079  30.776  33.253  1.00  0.00     0.001 A 
ATOM     69  C   UNL A   1      37.021  31.494  32.698  1.00  0.00     0.000 A 
ENDBRANCH  50  64
BRANCH  51  70
ATOM     70  C   UNL A   1      46.810  27.868  25.354  1.00  0.00    -0.014 A 
ATOM     71  C   UNL A   1      46.773  28.094  23.970  1.00  0.00     0.009 A 
ATOM     72  C   UNL A   1      47.926  27.218  25.906  1.00  0.00     0.009 A 
ATOM     73  C   UNL A   1      47.819  27.657  23.154  1.00  0.00     0.001 A 
ATOM     74  C   UNL A   1      48.982  26.806  25.091  1.00  0.00     0.001 A 
ATOM     75  C   UNL A   1      48.924  27.018  23.715  1.00  0.00     0.000 A 
ENDBRANCH  51  70
BRANCH  63  76
ATOM     76  C   UNL A   1      45.544  33.628  29.052  1.00  0.00    -0.014 A 
ATOM     77  C   UNL A   1      46.401  33.763  30.155  1.00  0.00     0.009 A 
ATOM     78  C   UNL A   1      45.465  34.676  28.120  1.00  0.00     0.009 A 
ATOM     79  C   UNL A   1      47.135  34.936  30.339  1.00  0.00     0.001 A 
ATOM     80  C   UNL A   1      46.222  35.836  28.293  1.00  0.00     0.001 A 
ATOM     81  C   UNL A   1      47.049  35.970  29.407  1.00  0.00     0.000 A 
ENDBRANCH  63  76
ENDBRANCH  37  38
ENDBRANCH  30  32
ENDBRANCH  29  30
ENDBRANCH  28  29
ENDBRANCH  27  28
ENDBRANCH   1  27
TORSDOF 18
ENDMDL
MODEL 3
REMARK VINA RESULT:      -9.7      5.200     10.213
REMARK SMILES CC[NH2+][C@@]1(C(=O)OCCOCCOC(=O)c2ccc(-c3c4nc(c(-c5ccccc5)c5ccc([nH]5)c(-c5ccccc5)c5nc(c(-c6ccccc6)c6ccc3[nH]6)C=C5)C=C4)cc2)CC[C@@H]([NH+]2CCC(C)(CC)CC2)C1
REMARK SMILES IDX 10 1 9 2 8 3 7 4 5 5 6 6 4 7 64 8 76 9 65 10 66 11 3 12 2 15
REMARK SMILES IDX 1 16 67 17 68 18 75 19 69 21 74 22 70 23 71 24 72 25 73 26
REMARK SMILES IDX 11 27 12 28 13 29 14 30 15 31 16 32 17 33 63 34 18 35 62 36
REMARK SMILES IDX 19 37 20 38 21 39 56 40 22 41 61 42 55 43 57 44 23 45 60 46
REMARK SMILES IDX 54 47 53 48 24 50 46 51 31 52 45 53 32 54 35 55 44 56 58 57
REMARK SMILES IDX 33 58 34 59 43 61 59 62 36 63 25 64 26 65 30 66 27 67 29 68
REMARK SMILES IDX 28 69 47 70 48 71 52 72 49 73 51 74 50 75 37 76 38 77 42 78
REMARK SMILES IDX 39 79 41 80 40 81
REMARK H PARENT 3 13 3 14 67 20 57 49 35 60
REMARK Flexibility Score: inf
ROOT
ATOM      1  O   UNL A   1      37.696  20.052  25.000  1.00  0.00    -0.374 OA
ENDROOT
BRANCH   1   2
ATOM      2  C   UNL A   1      37.899  21.443  25.252  1.00  0.00     0.202 C 
BRANCH   2   3
ATOM      3  C   UNL A   1      36.900  22.401  24.604  1.00  0.00     0.261 C 
BRANCH   3   4
ATOM      4  O   UNL A   1      35.921  22.795  25.584  1.00  0.00    -0.459 OA
BRANCH   4   5
ATOM      5  C   UNL A   1      34.734  22.146  25.504  1.00  0.00     0.368 C 
ATOM      6  O   UNL A   1      34.604  20.937  25.690  1.00  0.00    -0.245 OA
BRANCH   5   7
ATOM      7  C   UNL A   1      33.507  23.109  25.296  1.00  0.00     0.200 C 
ATOM      8  C   UNL A   1      33.118  23.043  23.812  1.00  0.00     0.087 C 
ATOM      9  C   UNL A   1      33.859  24.618  25.507  1.00  0.00     0.146 C 
ATOM     10  C   UNL A   1      33.991  24.097  23.139  1.00  0.00     0.072 C 
ATOM     11  C   UNL A   1      34.057  25.277  24.121  1.00  0.00     0.191 C 
BRANCH   7  12
ATOM     12  N   UNL A   1      32.437  22.474  26.118  1.00  0.00    -0.332 N 
ATOM     13  H   UNL A   1      32.647  21.476  26.140  1.00  0.00     0.347 HD
ATOM     14  H   UNL A   1      32.487  23.007  26.987  1.00  0.00     0.347 HD
BRANCH  12  15
ATOM     15  C   UNL A   1      31.042  22.587  25.770  1.00  0.00     0.257 C 
ATOM     16  C   UNL A   1      30.354  23.700  26.549  1.00  0.00     0.071 C 
ENDBRANCH  12  15
ENDBRANCH   7  12
BRANCH  11  17
ATOM     17  N   UNL A   1      33.215  26.420  23.723  1.00  0.00    -0.332 N 
ATOM     18  C   UNL A   1      33.840  27.742  23.715  1.00  0.00     0.263 C 
ATOM     19  C   UNL A   1      31.851  26.520  24.223  1.00  0.00     0.263 C 
ATOM     20  H   UNL A   1      33.116  26.107  22.758  1.00  0.00     0.348 HD
ATOM     21  C   UNL A   1      33.849  28.475  25.060  1.00  0.00     0.068 C 
ATOM     22  C   UNL A   1      31.766  27.072  25.640  1.00  0.00     0.068 C 
ATOM     23  C   UNL A   1      32.558  28.371  25.923  1.00  0.00    -0.022 C 
ATOM     24  C   UNL A   1      33.012  28.376  27.411  1.00  0.00     0.012 C 
BRANCH  23  25
ATOM     25  C   UNL A   1      31.628  29.611  25.796  1.00  0.00     0.004 C 
ATOM     26  C   UNL A   1      31.992  30.836  26.613  1.00  0.00     0.004 C 
ENDBRANCH  23  25
ENDBRANCH  11  17
ENDBRANCH   5   7
ENDBRANCH   4   5
ENDBRANCH   3   4
ENDBRANCH   2   3
ENDBRANCH   1   2
BRANCH   1  27
ATOM     27  C   UNL A   1      38.758  19.157  25.327  1.00  0.00     0.202 C 
BRANCH  27  28
ATOM     28  C   UNL A   1      40.022  19.781  25.943  1.00  0.00     0.261 C 
BRANCH  28  29
ATOM     29  O   UNL A   1      41.196  18.967  25.759  1.00  0.00    -0.460 OA
BRANCH  29  30
ATOM     30  C   UNL A   1      42.360  19.660  25.715  1.00  0.00     0.338 C 
ATOM     31  O   UNL A   1      43.377  19.359  25.102  1.00  0.00    -0.246 OA
BRANCH  30  32
ATOM     32  C   UNL A   1      42.203  20.976  26.362  1.00  0.00     0.060 A 
ATOM     33  C   UNL A   1      42.370  22.110  25.555  1.00  0.00     0.016 A 
ATOM     34  C   UNL A   1      41.971  21.113  27.732  1.00  0.00     0.016 A 
ATOM     35  C   UNL A   1      42.359  23.382  26.120  1.00  0.00     0.010 A 
ATOM     36  C   UNL A   1      41.974  22.393  28.303  1.00  0.00     0.010 A 
ATOM     37  C   UNL A   1      42.207  23.529  27.505  1.00  0.00    -0.014 A 
BRANCH  37  38
ATOM     38  C   UNL A   1      42.461  24.857  28.116  1.00  0.00     0.031 A 
ATOM     39  C   UNL A   1      43.861  25.207  28.548  1.00  0.00     0.074 A 
ATOM     40  C   UNL A   1      41.478  25.769  28.229  1.00  0.00     0.049 A 
ATOM     41  N   UNL A   1      44.314  26.318  29.068  1.00  0.00    -0.248 NA
ATOM     42  C   UNL A   1      44.884  24.166  28.361  1.00  0.00     0.031 C 
ATOM     43  C   UNL A   1      40.092  25.577  27.808  1.00  0.00     0.029 A 
ATOM     44  N   UNL A   1      41.507  27.048  28.729  1.00  0.00    -0.354 N 
ATOM     45  C   UNL A   1      45.673  26.111  29.275  1.00  0.00     0.074 A 
ATOM     46  C   UNL A   1      45.963  24.757  28.852  1.00  0.00     0.031 C 
ATOM     47  C   UNL A   1      39.399  26.700  28.068  1.00  0.00     0.029 A 
ATOM     48  C   UNL A   1      40.287  27.678  28.695  1.00  0.00     0.049 A 
ATOM     49  H   UNL A   1      42.323  27.472  29.078  1.00  0.00     0.167 HD
ATOM     50  C   UNL A   1      46.599  26.968  29.765  1.00  0.00     0.031 A 
ATOM     51  C   UNL A   1      39.925  28.900  29.131  1.00  0.00     0.031 A 
ATOM     52  C   UNL A   1      46.317  28.311  30.198  1.00  0.00     0.049 A 
ATOM     53  C   UNL A   1      40.959  29.808  29.742  1.00  0.00     0.074 A 
ATOM     54  C   UNL A   1      47.195  29.259  30.694  1.00  0.00     0.029 A 
ATOM     55  N   UNL A   1      45.059  28.892  30.193  1.00  0.00    -0.354 N 
ATOM     56  N   UNL A   1      42.244  29.609  29.903  1.00  0.00    -0.248 NA
ATOM     57  C   UNL A   1      40.489  31.118  30.222  1.00  0.00     0.031 C 
ATOM     58  C   UNL A   1      46.459  30.397  31.041  1.00  0.00     0.029 A 
ATOM     59  C   UNL A   1      45.132  30.176  30.706  1.00  0.00     0.049 A 
ATOM     60  H   UNL A   1      44.236  28.457  29.874  1.00  0.00     0.167 HD
ATOM     61  C   UNL A   1      42.740  30.775  30.477  1.00  0.00     0.074 A 
ATOM     62  C   UNL A   1      41.620  31.680  30.622  1.00  0.00     0.031 C 
ATOM     63  C   UNL A   1      44.011  31.068  30.848  1.00  0.00     0.031 A 
BRANCH  50  64
ATOM     64  C   UNL A   1      48.008  26.462  29.891  1.00  0.00    -0.014 A 
ATOM     65  C   UNL A   1      48.451  25.820  31.057  1.00  0.00     0.009 A 
ATOM     66  C   UNL A   1      48.895  26.602  28.812  1.00  0.00     0.009 A 
ATOM     67  C   UNL A   1      49.766  25.357  31.152  1.00  0.00     0.001 A 
ATOM     68  C   UNL A   1      50.200  26.115  28.900  1.00  0.00     0.001 A 
ATOM     69  C   UNL A   1      50.637  25.501  30.072  1.00  0.00     0.000 A 
ENDBRANCH  50  64
BRANCH  51  70
ATOM     70  C   UNL A   1      38.508  29.338  29.026  1.00  0.00    -0.014 A 
ATOM     71  C   UNL A   1      38.014  29.892  27.836  1.00  0.00     0.009 A 
ATOM     72  C   UNL A   1      37.649  29.224  30.131  1.00  0.00     0.009 A 
ATOM     73  C   UNL A   1      36.695  30.345  27.761  1.00  0.00     0.001 A 
ATOM     74  C   UNL A   1      36.323  29.652  30.044  1.00  0.00     0.001 A 
ATOM     75  C   UNL A   1      35.850  30.221  28.863  1.00  0.00     0.000 A 
ENDBRANCH  51  70
BRANCH  63  76
ATOM     76  C   UNL A   1      44.266  32.436  31.415  1.00  0.00    -0.014 A 
ATOM     77  C   UNL A   1      44.203  32.679  32.796  1.00  0.00     0.009 A 
ATOM     78  C   UNL A   1      44.616  33.490  30.555  1.00  0.00     0.009 A 
ATOM     79  C   UNL A   1      44.452  33.956  33.300  1.00  0.00     0.001 A 
ATOM     80  C   UNL A   1      44.891  34.760  31.065  1.00  0.00     0.001 A 
ATOM     81  C   UNL A   1      44.800  34.995  32.437  1.00  0.00     0.000 A 
ENDBRANCH  63  76
ENDBRANCH  37  38
ENDBRANCH  30  32
ENDBRANCH  29  30
ENDBRANCH  28  29
ENDBRANCH  27  28
ENDBRANCH   1  27
TORSDOF 18
ENDMDL
