MODEL 1
REMARK VINA RESULT:      -7.6      0.000      0.000
REMARK SMILES CC[C@@H](C)Nc1cc(OC)c(C(=O)OCCOCCOC(=O)c2ccc(-c3c4nc(c(-c5ccccc5)c5ccc([nH]5)c(-c5ccccc5)c5nc(c(-c6ccccc6)c6ccc3[nH]6)C=C5)C=C4)cc2)cc1Cl
REMARK SMILES IDX 16 1 15 2 14 3 12 4 13 5 11 6 6 7 7 8 72 9 8 10 71 11 73 12
REMARK SMILES IDX 5 13 3 15 4 16 2 17 1 18 9 19 10 20 17 21 18 22 19 23 20 24
REMARK SMILES IDX 21 25 22 26 23 27 24 28 70 29 25 30 69 31 26 32 27 33 28 34
REMARK SMILES IDX 63 35 29 36 68 37 62 38 64 39 30 40 67 41 61 42 60 43 31 45
REMARK SMILES IDX 53 46 38 47 52 48 39 49 42 50 51 51 65 52 40 53 41 54 50 56
REMARK SMILES IDX 66 57 43 58 32 59 33 60 37 61 34 62 36 63 35 64 54 65 55 66
REMARK SMILES IDX 59 67 56 68 58 69 57 70 44 71 45 72 49 73 46 74 48 75 47 76
REMARK H PARENT 5 14 64 44 42 55
REMARK Flexibility Score: inf
ROOT
ATOM      1  C   UNL A   1      45.836  22.218  25.007  1.00  0.00     0.202 C 
ENDROOT
BRANCH   1   2
ATOM      2  C   UNL A   1      45.713  23.563  24.289  1.00  0.00     0.261 C 
BRANCH   2   3
ATOM      3  O   UNL A   1      46.079  24.633  25.171  1.00  0.00    -0.460 OA
BRANCH   3   4
ATOM      4  C   UNL A   1      45.252  25.703  25.173  1.00  0.00     0.342 C 
ATOM      5  O   UNL A   1      44.052  25.703  24.938  1.00  0.00    -0.246 OA
BRANCH   4   6
ATOM      6  C   UNL A   1      46.027  26.896  25.563  1.00  0.00     0.103 A 
ATOM      7  C   UNL A   1      47.335  29.161  26.674  1.00  0.00     0.057 A 
ATOM      8  C   UNL A   1      48.038  28.145  26.002  1.00  0.00     0.074 A 
ATOM      9  C   UNL A   1      45.934  29.058  26.691  1.00  0.00     0.065 A 
ATOM     10  C   UNL A   1      47.413  27.019  25.429  1.00  0.00     0.135 A 
ATOM     11  C   UNL A   1      45.293  27.938  26.157  1.00  0.00     0.042 A 
ATOM     12  Cl  UNL A   1      44.901  30.315  27.286  1.00  0.00    -0.082 Cl
BRANCH   7  13
ATOM     13  N   UNL A   1      48.085  30.133  27.329  1.00  0.00    -0.381 N 
ATOM     14  H   UNL A   1      47.619  30.859  27.802  1.00  0.00     0.160 HD
BRANCH  13  15
ATOM     15  C   UNL A   1      49.549  30.103  27.333  1.00  0.00     0.075 C 
ATOM     16  C   UNL A   1      50.019  29.720  28.735  1.00  0.00     0.031 C 
BRANCH  15  17
ATOM     17  C   UNL A   1      50.081  31.484  26.905  1.00  0.00     0.021 C 
ATOM     18  C   UNL A   1      51.592  31.503  26.711  1.00  0.00     0.006 C 
ENDBRANCH  15  17
ENDBRANCH  13  15
ENDBRANCH   7  13
BRANCH  10  19
ATOM     19  O   UNL A   1      48.326  26.205  24.821  1.00  0.00    -0.496 OA
ATOM     20  C   UNL A   1      49.176  26.683  23.790  1.00  0.00     0.278 C 
ENDBRANCH  10  19
ENDBRANCH   4   6
ENDBRANCH   3   4
ENDBRANCH   2   3
ENDBRANCH   1   2
BRANCH   1  21
ATOM     21  O   UNL A   1      45.154  21.115  24.411  1.00  0.00    -0.374 OA
BRANCH  21  22
ATOM     22  C   UNL A   1      45.286  19.835  25.036  1.00  0.00     0.202 C 
BRANCH  22  23
ATOM     23  C   UNL A   1      44.074  18.900  25.002  1.00  0.00     0.261 C 
BRANCH  23  24
ATOM     24  O   UNL A   1      43.285  18.978  26.198  1.00  0.00    -0.460 OA
BRANCH  24  25
ATOM     25  C   UNL A   1      42.037  19.472  26.020  1.00  0.00     0.338 C 
ATOM     26  O   UNL A   1      41.050  18.876  25.616  1.00  0.00    -0.246 OA
BRANCH  25  27
ATOM     27  C   UNL A   1      41.971  20.837  26.566  1.00  0.00     0.060 A 
ATOM     28  C   UNL A   1      42.133  21.904  25.674  1.00  0.00     0.016 A 
ATOM     29  C   UNL A   1      41.812  21.066  27.935  1.00  0.00     0.016 A 
ATOM     30  C   UNL A   1      42.186  23.209  26.153  1.00  0.00     0.010 A 
ATOM     31  C   UNL A   1      41.876  22.374  28.415  1.00  0.00     0.010 A 
ATOM     32  C   UNL A   1      42.099  23.445  27.531  1.00  0.00    -0.014 A 
BRANCH  32  33
ATOM     33  C   UNL A   1      42.400  24.791  28.065  1.00  0.00     0.031 A 
ATOM     34  C   UNL A   1      43.807  25.097  28.496  1.00  0.00     0.074 A 
ATOM     35  C   UNL A   1      41.437  25.724  28.158  1.00  0.00     0.049 A 
ATOM     36  N   UNL A   1      44.288  26.181  29.048  1.00  0.00    -0.248 NA
ATOM     37  C   UNL A   1      44.805  24.037  28.275  1.00  0.00     0.031 C 
ATOM     38  C   UNL A   1      40.050  25.554  27.729  1.00  0.00     0.029 A 
ATOM     39  N   UNL A   1      41.485  27.000  28.656  1.00  0.00    -0.354 N 
ATOM     40  C   UNL A   1      45.638  25.927  29.256  1.00  0.00     0.074 A 
ATOM     41  C   UNL A   1      45.895  24.581  28.794  1.00  0.00     0.031 C 
ATOM     42  C   UNL A   1      39.373  26.684  27.993  1.00  0.00     0.029 A 
ATOM     43  C   UNL A   1      40.269  27.638  28.642  1.00  0.00     0.049 A 
ATOM     44  H   UNL A   1      42.310  27.419  28.990  1.00  0.00     0.167 HD
ATOM     45  C   UNL A   1      46.578  26.746  29.782  1.00  0.00     0.031 A 
ATOM     46  C   UNL A   1      39.918  28.845  29.125  1.00  0.00     0.031 A 
ATOM     47  C   UNL A   1      46.311  28.079  30.252  1.00  0.00     0.049 A 
ATOM     48  C   UNL A   1      40.966  29.707  29.776  1.00  0.00     0.074 A 
ATOM     49  C   UNL A   1      47.196  28.997  30.788  1.00  0.00     0.029 A 
ATOM     50  N   UNL A   1      45.061  28.678  30.251  1.00  0.00    -0.354 N 
ATOM     51  N   UNL A   1      42.245  29.469  29.944  1.00  0.00    -0.248 NA
ATOM     52  C   UNL A   1      40.522  31.006  30.300  1.00  0.00     0.031 C 
ATOM     53  C   UNL A   1      46.469  30.132  31.164  1.00  0.00     0.029 A 
ATOM     54  C   UNL A   1      45.144  29.944  30.803  1.00  0.00     0.049 A 
ATOM     55  H   UNL A   1      44.237  28.264  29.907  1.00  0.00     0.167 HD
ATOM     56  C   UNL A   1      42.764  30.600  30.564  1.00  0.00     0.074 A 
ATOM     57  C   UNL A   1      41.663  31.527  30.730  1.00  0.00     0.031 C 
ATOM     58  C   UNL A   1      44.036  30.851  30.957  1.00  0.00     0.031 A 
BRANCH  45  59
ATOM     59  C   UNL A   1      47.974  26.203  29.912  1.00  0.00    -0.014 A 
ATOM     60  C   UNL A   1      48.855  26.176  28.820  1.00  0.00     0.009 A 
ATOM     61  C   UNL A   1      48.423  25.736  31.157  1.00  0.00     0.009 A 
ATOM     62  C   UNL A   1      50.144  25.659  28.963  1.00  0.00     0.001 A 
ATOM     63  C   UNL A   1      49.722  25.246  31.305  1.00  0.00     0.001 A 
ATOM     64  C   UNL A   1      50.578  25.199  30.206  1.00  0.00     0.000 A 
ENDBRANCH  45  59
BRANCH  46  65
ATOM     65  C   UNL A   1      38.508  29.304  29.029  1.00  0.00    -0.014 A 
ATOM     66  C   UNL A   1      37.645  29.206  30.131  1.00  0.00     0.009 A 
ATOM     67  C   UNL A   1      38.014  29.835  27.826  1.00  0.00     0.009 A 
ATOM     68  C   UNL A   1      36.311  29.606  30.022  1.00  0.00     0.001 A 
ATOM     69  C   UNL A   1      36.687  30.262  27.730  1.00  0.00     0.001 A 
ATOM     70  C   UNL A   1      35.835  30.138  28.825  1.00  0.00     0.000 A 
ENDBRANCH  46  65
BRANCH  58  71
ATOM     71  C   UNL A   1      44.318  32.196  31.567  1.00  0.00    -0.014 A 
ATOM     72  C   UNL A   1      44.724  33.286  30.782  1.00  0.00     0.009 A 
ATOM     73  C   UNL A   1      44.120  32.386  32.944  1.00  0.00     0.009 A 
ATOM     74  C   UNL A   1      44.957  34.530  31.370  1.00  0.00     0.001 A 
ATOM     75  C   UNL A   1      44.323  33.638  33.524  1.00  0.00     0.001 A 
ATOM     76  C   UNL A   1      44.750  34.707  32.738  1.00  0.00     0.000 A 
ENDBRANCH  58  71
ENDBRANCH  32  33
ENDBRANCH  25  27
ENDBRANCH  24  25
ENDBRANCH  23  24
ENDBRANCH  22  23
ENDBRANCH  21  22
ENDBRANCH   1  21
TORSDOF 18
ENDMDL
MODEL 2
REMARK VINA RESULT:      -7.6      5.792     11.860
REMARK SMILES CC[C@@H](C)Nc1cc(OC)c(C(=O)OCCOCCOC(=O)c2ccc(-c3c4nc(c(-c5ccccc5)c5ccc([nH]5)c(-c5ccccc5)c5nc(c(-c6ccccc6)c6ccc3[nH]6)C=C5)C=C4)cc2)cc1Cl
REMARK SMILES IDX 16 1 15 2 14 3 12 4 13 5 11 6 6 7 7 8 72 9 8 10 71 11 73 12
REMARK SMILES IDX 5 13 3 15 4 16 2 17 1 18 9 19 10 20 17 21 18 22 19 23 20 24
REMARK SMILES IDX 21 25 22 26 23 27 24 28 70 29 25 30 69 31 26 32 27 33 28 34
REMARK SMILES IDX 63 35 29 36 68 37 62 38 64 39 30 40 67 41 61 42 60 43 31 45
REMARK SMILES IDX 53 46 38 47 52 48 39 49 42 50 51 51 65 52 40 53 41 54 50 56
REMARK SMILES IDX 66 57 43 58 32 59 33 60 37 61 34 62 36 63 35 64 54 65 55 66
REMARK SMILES IDX 59 67 56 68 58 69 57 70 44 71 45 72 49 73 46 74 48 75 47 76
REMARK H PARENT 5 14 64 44 42 55
REMARK Flexibility Score: inf
ROOT
ATOM      1  C   UNL A   1      33.258  27.523  26.594  1.00  0.00     0.202 C 
ENDROOT
BRANCH   1   2
ATOM      2  C   UNL A   1      32.109  26.545  26.343  1.00  0.00     0.261 C 
BRANCH   2   3
ATOM      3  O   UNL A   1      32.255  25.927  25.057  1.00  0.00    -0.460 OA
BRANCH   3   4
ATOM      4  C   UNL A   1      31.118  25.453  24.499  1.00  0.00     0.342 C 
ATOM      5  O   UNL A   1      30.668  24.321  24.602  1.00  0.00    -0.246 OA
BRANCH   4   6
ATOM      6  C   UNL A   1      30.457  26.551  23.770  1.00  0.00     0.103 A 
ATOM      7  C   UNL A   1      29.015  28.764  22.722  1.00  0.00     0.057 A 
ATOM      8  C   UNL A   1      30.387  28.579  22.473  1.00  0.00     0.074 A 
ATOM      9  C   UNL A   1      28.357  27.751  23.438  1.00  0.00     0.065 A 
ATOM     10  C   UNL A   1      31.123  27.483  22.968  1.00  0.00     0.135 A 
ATOM     11  C   UNL A   1      29.070  26.670  23.965  1.00  0.00     0.042 A 
ATOM     12  Cl  UNL A   1      26.639  27.709  23.655  1.00  0.00    -0.082 Cl
BRANCH   7  13
ATOM     13  N   UNL A   1      28.447  29.966  22.309  1.00  0.00    -0.381 N 
ATOM     14  H   UNL A   1      27.906  29.983  21.488  1.00  0.00     0.160 HD
BRANCH  13  15
ATOM     15  C   UNL A   1      28.632  31.206  23.067  1.00  0.00     0.075 C 
ATOM     16  C   UNL A   1      27.367  31.465  23.883  1.00  0.00     0.031 C 
BRANCH  15  17
ATOM     17  C   UNL A   1      28.929  32.355  22.084  1.00  0.00     0.021 C 
ATOM     18  C   UNL A   1      27.995  32.360  20.881  1.00  0.00     0.006 C 
ENDBRANCH  15  17
ENDBRANCH  13  15
ENDBRANCH   7  13
BRANCH  10  19
ATOM     19  O   UNL A   1      32.425  27.538  22.558  1.00  0.00    -0.496 OA
ATOM     20  C   UNL A   1      33.152  28.756  22.562  1.00  0.00     0.278 C 
ENDBRANCH  10  19
ENDBRANCH   4   6
ENDBRANCH   3   4
ENDBRANCH   2   3
ENDBRANCH   1   2
BRANCH   1  21
ATOM     21  O   UNL A   1      33.126  28.821  26.015  1.00  0.00    -0.374 OA
BRANCH  21  22
ATOM     22  C   UNL A   1      32.270  29.759  26.674  1.00  0.00     0.202 C 
BRANCH  22  23
ATOM     23  C   UNL A   1      32.906  31.045  27.211  1.00  0.00     0.261 C 
BRANCH  23  24
ATOM     24  O   UNL A   1      34.340  30.991  27.210  1.00  0.00    -0.460 OA
BRANCH  24  25
ATOM     25  C   UNL A   1      34.915  31.247  28.409  1.00  0.00     0.338 C 
ATOM     26  O   UNL A   1      34.453  31.897  29.334  1.00  0.00    -0.246 OA
BRANCH  25  27
ATOM     27  C   UNL A   1      36.152  30.460  28.534  1.00  0.00     0.060 A 
ATOM     28  C   UNL A   1      36.466  29.936  29.794  1.00  0.00     0.016 A 
ATOM     29  C   UNL A   1      37.018  30.288  27.452  1.00  0.00     0.016 A 
ATOM     30  C   UNL A   1      37.675  29.275  29.991  1.00  0.00     0.010 A 
ATOM     31  C   UNL A   1      38.235  29.635  27.653  1.00  0.00     0.010 A 
ATOM     32  C   UNL A   1      38.582  29.159  28.930  1.00  0.00    -0.014 A 
BRANCH  32  33
ATOM     33  C   UNL A   1      39.958  28.684  29.191  1.00  0.00     0.031 A 
ATOM     34  C   UNL A   1      40.924  29.613  29.869  1.00  0.00     0.074 A 
ATOM     35  C   UNL A   1      40.335  27.445  28.833  1.00  0.00     0.049 A 
ATOM     36  N   UNL A   1      42.192  29.437  30.141  1.00  0.00    -0.248 NA
ATOM     37  C   UNL A   1      40.391  30.918  30.295  1.00  0.00     0.031 C 
ATOM     38  C   UNL A   1      39.470  26.443  28.212  1.00  0.00     0.029 A 
ATOM     39  N   UNL A   1      41.553  26.825  28.937  1.00  0.00    -0.354 N 
ATOM     40  C   UNL A   1      42.609  30.612  30.755  1.00  0.00     0.074 A 
ATOM     41  C   UNL A   1      41.470  31.502  30.793  1.00  0.00     0.031 C 
ATOM     42  C   UNL A   1      40.192  25.333  27.979  1.00  0.00     0.029 A 
ATOM     43  C   UNL A   1      41.571  25.562  28.400  1.00  0.00     0.049 A 
ATOM     44  H   UNL A   1      42.338  27.244  29.358  1.00  0.00     0.167 HD
ATOM     45  C   UNL A   1      43.833  30.918  31.245  1.00  0.00     0.031 A 
ATOM     46  C   UNL A   1      42.595  24.701  28.242  1.00  0.00     0.031 A 
ATOM     47  C   UNL A   1      44.965  30.033  31.190  1.00  0.00     0.049 A 
ATOM     48  C   UNL A   1      43.965  25.096  28.725  1.00  0.00     0.074 A 
ATOM     49  C   UNL A   1      46.245  30.240  31.672  1.00  0.00     0.029 A 
ATOM     50  N   UNL A   1      44.953  28.774  30.608  1.00  0.00    -0.354 N 
ATOM     51  N   UNL A   1      44.345  26.198  29.328  1.00  0.00    -0.248 NA
ATOM     52  C   UNL A   1      45.047  24.125  28.511  1.00  0.00     0.031 C 
ATOM     53  C   UNL A   1      47.023  29.128  31.330  1.00  0.00     0.029 A 
ATOM     54  C   UNL A   1      46.211  28.203  30.693  1.00  0.00     0.049 A 
ATOM     55  H   UNL A   1      44.165  28.350  30.197  1.00  0.00     0.167 HD
ATOM     56  C   UNL A   1      45.700  26.040  29.591  1.00  0.00     0.074 A 
ATOM     57  C   UNL A   1      46.072  24.731  29.095  1.00  0.00     0.031 C 
ATOM     58  C   UNL A   1      46.558  26.898  30.194  1.00  0.00     0.031 A 
BRANCH  45  59
ATOM     59  C   UNL A   1      44.017  32.284  31.845  1.00  0.00    -0.014 A 
ATOM     60  C   UNL A   1      43.810  32.517  33.214  1.00  0.00     0.009 A 
ATOM     61  C   UNL A   1      44.429  33.350  31.030  1.00  0.00     0.009 A 
ATOM     62  C   UNL A   1      43.978  33.797  33.747  1.00  0.00     0.001 A 
ATOM     63  C   UNL A   1      44.624  34.623  31.571  1.00  0.00     0.001 A 
ATOM     64  C   UNL A   1      44.389  34.847  32.926  1.00  0.00     0.000 A 
ENDBRANCH  45  59
BRANCH  46  65
ATOM     65  C   UNL A   1      42.371  23.390  27.581  1.00  0.00    -0.014 A 
ATOM     66  C   UNL A   1      42.534  23.248  26.194  1.00  0.00     0.009 A 
ATOM     67  C   UNL A   1      41.980  22.271  28.335  1.00  0.00     0.009 A 
ATOM     68  C   UNL A   1      42.286  22.021  25.575  1.00  0.00     0.001 A 
ATOM     69  C   UNL A   1      41.762  21.038  27.716  1.00  0.00     0.001 A 
ATOM     70  C   UNL A   1      41.906  20.917  26.336  1.00  0.00     0.000 A 
ENDBRANCH  46  65
BRANCH  58  71
ATOM     71  C   UNL A   1      47.975  26.434  30.388  1.00  0.00    -0.014 A 
ATOM     72  C   UNL A   1      48.372  25.759  31.553  1.00  0.00     0.009 A 
ATOM     73  C   UNL A   1      48.913  26.630  29.362  1.00  0.00     0.009 A 
ATOM     74  C   UNL A   1      49.689  25.319  31.698  1.00  0.00     0.001 A 
ATOM     75  C   UNL A   1      50.221  26.162  29.498  1.00  0.00     0.001 A 
ATOM     76  C   UNL A   1      50.609  25.514  30.668  1.00  0.00     0.000 A 
ENDBRANCH  58  71
ENDBRANCH  32  33
ENDBRANCH  25  27
ENDBRANCH  24  25
ENDBRANCH  23  24
ENDBRANCH  22  23
ENDBRANCH  21  22
ENDBRANCH   1  21
TORSDOF 18
ENDMDL
MODEL 3
REMARK VINA RESULT:      -7.5      6.296     11.723
REMARK SMILES CC[C@@H](C)Nc1cc(OC)c(C(=O)OCCOCCOC(=O)c2ccc(-c3c4nc(c(-c5ccccc5)c5ccc([nH]5)c(-c5ccccc5)c5nc(c(-c6ccccc6)c6ccc3[nH]6)C=C5)C=C4)cc2)cc1Cl
REMARK SMILES IDX 16 1 15 2 14 3 12 4 13 5 11 6 6 7 7 8 72 9 8 10 71 11 73 12
REMARK SMILES IDX 5 13 3 15 4 16 2 17 1 18 9 19 10 20 17 21 18 22 19 23 20 24
REMARK SMILES IDX 21 25 22 26 23 27 24 28 70 29 25 30 69 31 26 32 27 33 28 34
REMARK SMILES IDX 63 35 29 36 68 37 62 38 64 39 30 40 67 41 61 42 60 43 31 45
REMARK SMILES IDX 53 46 38 47 52 48 39 49 42 50 51 51 65 52 40 53 41 54 50 56
REMARK SMILES IDX 66 57 43 58 32 59 33 60 37 61 34 62 36 63 35 64 54 65 55 66
REMARK SMILES IDX 59 67 56 68 58 69 57 70 44 71 45 72 49 73 46 74 48 75 47 76
REMARK H PARENT 5 14 64 44 42 55
REMARK Flexibility Score: inf
ROOT
ATOM      1  C   UNL A   1      33.349  29.118  25.764  1.00  0.00     0.202 C 
ENDROOT
BRANCH   1   2
ATOM      2  C   UNL A   1      33.033  27.766  25.121  1.00  0.00     0.261 C 
BRANCH   2   3
ATOM      3  O   UNL A   1      33.248  26.706  26.063  1.00  0.00    -0.460 OA
BRANCH   3   4
ATOM      4  C   UNL A   1      32.160  25.964  26.371  1.00  0.00     0.342 C 
ATOM      5  O   UNL A   1      31.069  26.379  26.734  1.00  0.00    -0.246 OA
BRANCH   4   6
ATOM      6  C   UNL A   1      32.482  24.542  26.149  1.00  0.00     0.103 A 
ATOM      7  C   UNL A   1      33.481  21.902  25.826  1.00  0.00     0.057 A 
ATOM      8  C   UNL A   1      32.314  22.176  26.561  1.00  0.00     0.074 A 
ATOM      9  C   UNL A   1      34.088  22.986  25.170  1.00  0.00     0.065 A 
ATOM     10  C   UNL A   1      31.788  23.473  26.725  1.00  0.00     0.135 A 
ATOM     11  C   UNL A   1      33.603  24.286  25.341  1.00  0.00     0.042 A 
ATOM     12  Cl  UNL A   1      35.402  22.804  24.057  1.00  0.00    -0.082 Cl
BRANCH   7  13
ATOM     13  N   UNL A   1      33.979  20.603  25.875  1.00  0.00    -0.381 N 
ATOM     14  H   UNL A   1      34.654  20.374  26.553  1.00  0.00     0.160 HD
BRANCH  13  15
ATOM     15  C   UNL A   1      33.523  19.567  24.945  1.00  0.00     0.075 C 
ATOM     16  C   UNL A   1      32.592  20.215  23.922  1.00  0.00     0.031 C 
BRANCH  15  17
ATOM     17  C   UNL A   1      32.818  18.453  25.741  1.00  0.00     0.021 C 
ATOM     18  C   UNL A   1      32.420  17.266  24.872  1.00  0.00     0.006 C 
ENDBRANCH  15  17
ENDBRANCH  13  15
ENDBRANCH   7  13
BRANCH  10  19
ATOM     19  O   UNL A   1      30.639  23.449  27.463  1.00  0.00    -0.496 OA
ATOM     20  C   UNL A   1      29.539  22.632  27.097  1.00  0.00     0.278 C 
ENDBRANCH  10  19
ENDBRANCH   4   6
ENDBRANCH   3   4
ENDBRANCH   2   3
ENDBRANCH   1   2
BRANCH   1  21
ATOM     21  O   UNL A   1      32.509  30.211  25.392  1.00  0.00    -0.374 OA
BRANCH  21  22
ATOM     22  C   UNL A   1      31.431  30.550  26.269  1.00  0.00     0.202 C 
BRANCH  22  23
ATOM     23  C   UNL A   1      31.416  31.963  26.861  1.00  0.00     0.261 C 
BRANCH  23  24
ATOM     24  O   UNL A   1      32.629  32.683  26.596  1.00  0.00    -0.460 OA
BRANCH  24  25
ATOM     25  C   UNL A   1      33.101  33.397  27.645  1.00  0.00     0.338 C 
ATOM     26  O   UNL A   1      32.535  34.290  28.255  1.00  0.00    -0.246 OA
BRANCH  25  27
ATOM     27  C   UNL A   1      34.375  32.814  28.096  1.00  0.00     0.060 A 
ATOM     28  C   UNL A   1      34.372  31.471  28.494  1.00  0.00     0.016 A 
ATOM     29  C   UNL A   1      35.537  33.583  28.184  1.00  0.00     0.016 A 
ATOM     30  C   UNL A   1      35.524  30.902  29.029  1.00  0.00     0.010 A 
ATOM     31  C   UNL A   1      36.688  33.015  28.730  1.00  0.00     0.010 A 
ATOM     32  C   UNL A   1      36.674  31.684  29.187  1.00  0.00    -0.014 A 
BRANCH  32  33
ATOM     33  C   UNL A   1      37.813  31.164  29.975  1.00  0.00     0.031 A 
ATOM     34  C   UNL A   1      38.757  30.195  29.322  1.00  0.00     0.074 A 
ATOM     35  C   UNL A   1      38.003  31.555  31.246  1.00  0.00     0.049 A 
ATOM     36  N   UNL A   1      39.781  29.563  29.833  1.00  0.00    -0.248 NA
ATOM     37  C   UNL A   1      38.510  29.895  27.902  1.00  0.00     0.031 C 
ATOM     38  C   UNL A   1      37.179  32.525  31.966  1.00  0.00     0.029 A 
ATOM     39  N   UNL A   1      38.951  31.171  32.159  1.00  0.00    -0.354 N 
ATOM     40  C   UNL A   1      40.291  28.781  28.804  1.00  0.00     0.074 A 
ATOM     41  C   UNL A   1      39.450  28.997  27.648  1.00  0.00     0.031 C 
ATOM     42  C   UNL A   1      37.653  32.652  33.218  1.00  0.00     0.029 A 
ATOM     43  C   UNL A   1      38.786  31.747  33.394  1.00  0.00     0.049 A 
ATOM     44  H   UNL A   1      39.681  30.545  31.948  1.00  0.00     0.167 HD
ATOM     45  C   UNL A   1      41.366  27.959  28.823  1.00  0.00     0.031 A 
ATOM     46  C   UNL A   1      39.460  31.543  34.542  1.00  0.00     0.031 A 
ATOM     47  C   UNL A   1      42.189  27.738  29.981  1.00  0.00     0.049 A 
ATOM     48  C   UNL A   1      40.604  30.565  34.558  1.00  0.00     0.074 A 
ATOM     49  C   UNL A   1      43.311  26.938  30.101  1.00  0.00     0.029 A 
ATOM     50  N   UNL A   1      41.971  28.315  31.223  1.00  0.00    -0.354 N 
ATOM     51  N   UNL A   1      41.094  29.850  33.573  1.00  0.00    -0.248 NA
ATOM     52  C   UNL A   1      41.290  30.370  35.842  1.00  0.00     0.031 C 
ATOM     53  C   UNL A   1      43.737  26.986  31.433  1.00  0.00     0.029 A 
ATOM     54  C   UNL A   1      42.920  27.866  32.125  1.00  0.00     0.049 A 
ATOM     55  H   UNL A   1      41.248  28.950  31.431  1.00  0.00     0.167 HD
ATOM     56  C   UNL A   1      42.164  29.145  34.111  1.00  0.00     0.074 A 
ATOM     57  C   UNL A   1      42.258  29.528  35.505  1.00  0.00     0.031 C 
ATOM     58  C   UNL A   1      42.996  28.263  33.507  1.00  0.00     0.031 A 
BRANCH  45  59
ATOM     59  C   UNL A   1      41.684  27.207  27.560  1.00  0.00    -0.014 A 
ATOM     60  C   UNL A   1      41.199  25.909  27.338  1.00  0.00     0.009 A 
ATOM     61  C   UNL A   1      42.461  27.821  26.565  1.00  0.00     0.009 A 
ATOM     62  C   UNL A   1      41.515  25.227  26.161  1.00  0.00     0.001 A 
ATOM     63  C   UNL A   1      42.752  27.148  25.376  1.00  0.00     0.001 A 
ATOM     64  C   UNL A   1      42.287  25.849  25.180  1.00  0.00     0.000 A 
ENDBRANCH  45  59
BRANCH  46  65
ATOM     65  C   UNL A   1      39.059  32.264  35.778  1.00  0.00    -0.014 A 
ATOM     66  C   UNL A   1      39.575  33.537  36.066  1.00  0.00     0.009 A 
ATOM     67  C   UNL A   1      38.164  31.674  36.686  1.00  0.00     0.009 A 
ATOM     68  C   UNL A   1      39.222  34.193  37.248  1.00  0.00     0.001 A 
ATOM     69  C   UNL A   1      37.790  32.346  37.852  1.00  0.00     0.001 A 
ATOM     70  C   UNL A   1      38.327  33.600  38.137  1.00  0.00     0.000 A 
ENDBRANCH  46  65
BRANCH  58  71
ATOM     71  C   UNL A   1      44.108  27.682  34.337  1.00  0.00    -0.014 A 
ATOM     72  C   UNL A   1      43.927  26.510  35.086  1.00  0.00     0.009 A 
ATOM     73  C   UNL A   1      45.371  28.294  34.323  1.00  0.00     0.009 A 
ATOM     74  C   UNL A   1      44.983  25.980  35.830  1.00  0.00     0.001 A 
ATOM     75  C   UNL A   1      46.433  27.745  35.043  1.00  0.00     0.001 A 
ATOM     76  C   UNL A   1      46.236  26.594  35.803  1.00  0.00     0.000 A 
ENDBRANCH  58  71
ENDBRANCH  32  33
ENDBRANCH  25  27
ENDBRANCH  24  25
ENDBRANCH  23  24
ENDBRANCH  22  23
ENDBRANCH  21  22
ENDBRANCH   1  21
TORSDOF 18
ENDMDL
