MODEL 1
REMARK VINA RESULT:     -11.2      0.000      0.000
REMARK SMILES O=C(OCCOCCOC(=O)c1cc(Cl)c2c(c1)[C@H]1C=CC[C@H]1[C@H](c1ccc(S(=O)(=O)N3CCOCC3)cc1)N2)c1ccc(-c2c3nc(c(-c4ccccc4)c4ccc([nH]4)c(-c4ccccc4)c4nc(c(-c5ccccc5)c5ccc2[nH]5)C=C4)C=C3)cc1
REMARK SMILES IDX 7 1 6 2 5 3 4 4 3 5 2 6 1 7 41 8 42 9 88 10 43 11 87 12
REMARK SMILES IDX 44 13 45 14 46 15 81 16 47 17 86 18 80 19 82 20 48 21 85 22
REMARK SMILES IDX 79 23 78 24 49 26 71 27 56 28 70 29 57 30 60 31 69 32 83 33
REMARK SMILES IDX 58 34 59 35 68 37 84 38 61 39 50 40 51 41 55 42 52 43 54 44
REMARK SMILES IDX 53 45 72 46 73 47 77 48 74 49 76 50 75 51 62 52 63 53 67 54
REMARK SMILES IDX 64 55 66 56 65 57 8 58 9 59 10 60 11 61 12 62 13 63 18 64
REMARK SMILES IDX 14 65 17 66 15 67 16 68 19 69 40 70 20 71 23 72 24 73 21 75
REMARK SMILES IDX 22 76 25 77 26 78 39 79 27 80 38 81 28 82 29 83 30 84 31 85
REMARK SMILES IDX 32 86 33 87 37 88 34 89 36 90 35 91
REMARK H PARENT 82 25 60 36 40 74
REMARK Flexibility Score: inf
ROOT
ATOM      1  C   UNL A   1      34.642  34.994  28.623  1.00  0.00     0.202 C 
ENDROOT
BRANCH   1   2
ATOM      2  O   UNL A   1      34.412  36.367  28.296  1.00  0.00    -0.374 OA
BRANCH   2   3
ATOM      3  C   UNL A   1      33.229  36.937  28.852  1.00  0.00     0.202 C 
BRANCH   3   4
ATOM      4  C   UNL A   1      33.277  37.176  30.360  1.00  0.00     0.261 C 
BRANCH   4   5
ATOM      5  O   UNL A   1      32.249  36.450  31.039  1.00  0.00    -0.460 OA
BRANCH   5   6
ATOM      6  C   UNL A   1      32.362  35.612  32.090  1.00  0.00     0.338 C 
ATOM      7  O   UNL A   1      31.414  35.556  32.874  1.00  0.00    -0.246 OA
BRANCH   6   8
ATOM      8  C   UNL A   1      33.578  34.789  32.411  1.00  0.00     0.060 A 
ATOM      9  C   UNL A   1      33.604  33.526  33.009  1.00  0.00     0.016 A 
ATOM     10  C   UNL A   1      34.815  35.348  32.033  1.00  0.00     0.016 A 
ATOM     11  C   UNL A   1      34.787  32.825  33.193  1.00  0.00     0.010 A 
ATOM     12  C   UNL A   1      36.018  34.678  32.259  1.00  0.00     0.010 A 
ATOM     13  C   UNL A   1      35.997  33.417  32.854  1.00  0.00    -0.014 A 
BRANCH  13  14
ATOM     14  C   UNL A   1      37.225  32.753  33.298  1.00  0.00     0.031 A 
ATOM     15  C   UNL A   1      37.810  31.702  32.407  1.00  0.00     0.074 A 
ATOM     16  C   UNL A   1      37.859  33.189  34.396  1.00  0.00     0.049 A 
ATOM     17  N   UNL A   1      38.909  31.016  32.557  1.00  0.00    -0.248 NA
ATOM     18  C   UNL A   1      37.084  31.419  31.154  1.00  0.00     0.031 C 
ATOM     19  C   UNL A   1      37.438  34.322  35.220  1.00  0.00     0.029 A 
ATOM     20  N   UNL A   1      39.008  32.744  34.986  1.00  0.00    -0.354 N 
ATOM     21  C   UNL A   1      39.026  30.255  31.404  1.00  0.00     0.074 A 
ATOM     22  C   UNL A   1      37.888  30.548  30.566  1.00  0.00     0.031 C 
ATOM     23  C   UNL A   1      38.320  34.479  36.221  1.00  0.00     0.029 A 
ATOM     24  C   UNL A   1      39.337  33.436  36.122  1.00  0.00     0.049 A 
ATOM     25  H   UNL A   1      39.547  32.000  34.630  1.00  0.00     0.167 HD
ATOM     26  C   UNL A   1      39.999  29.373  31.086  1.00  0.00     0.031 A 
ATOM     27  C   UNL A   1      40.340  33.224  36.994  1.00  0.00     0.031 A 
ATOM     28  C   UNL A   1      41.056  29.016  31.986  1.00  0.00     0.049 A 
ATOM     29  C   UNL A   1      41.289  32.091  36.727  1.00  0.00     0.074 A 
ATOM     30  C   UNL A   1      42.010  28.028  31.849  1.00  0.00     0.029 A 
ATOM     31  N   UNL A   1      41.276  29.633  33.209  1.00  0.00    -0.354 N 
ATOM     32  N   UNL A   1      41.339  31.294  35.685  1.00  0.00    -0.248 NA
ATOM     33  C   UNL A   1      42.307  31.819  37.747  1.00  0.00     0.031 C 
ATOM     34  C   UNL A   1      42.783  28.017  33.015  1.00  0.00     0.029 A 
ATOM     35  C   UNL A   1      42.345  29.038  33.849  1.00  0.00     0.049 A 
ATOM     36  H   UNL A   1      40.750  30.384  33.567  1.00  0.00     0.167 HD
ATOM     37  C   UNL A   1      42.403  30.434  35.914  1.00  0.00     0.074 A 
ATOM     38  C   UNL A   1      42.970  30.808  37.196  1.00  0.00     0.031 C 
ATOM     39  C   UNL A   1      42.873  29.433  35.130  1.00  0.00     0.031 A 
BRANCH  26  40
ATOM     40  C   UNL A   1      39.894  28.698  29.753  1.00  0.00    -0.014 A 
ATOM     41  C   UNL A   1      40.270  29.365  28.577  1.00  0.00     0.009 A 
ATOM     42  C   UNL A   1      39.398  27.389  29.669  1.00  0.00     0.009 A 
ATOM     43  C   UNL A   1      40.135  28.737  27.337  1.00  0.00     0.001 A 
ATOM     44  C   UNL A   1      39.279  26.759  28.429  1.00  0.00     0.001 A 
ATOM     45  C   UNL A   1      39.643  27.435  27.264  1.00  0.00     0.000 A 
ENDBRANCH  26  40
BRANCH  27  46
ATOM     46  C   UNL A   1      40.451  34.093  38.191  1.00  0.00    -0.014 A 
ATOM     47  C   UNL A   1      40.975  35.388  38.088  1.00  0.00     0.009 A 
ATOM     48  C   UNL A   1      39.938  33.663  39.427  1.00  0.00     0.009 A 
ATOM     49  C   UNL A   1      40.972  36.240  39.197  1.00  0.00     0.001 A 
ATOM     50  C   UNL A   1      39.921  34.522  40.526  1.00  0.00     0.001 A 
ATOM     51  C   UNL A   1      40.437  35.810  40.410  1.00  0.00     0.000 A 
ENDBRANCH  27  46
BRANCH  39  52
ATOM     52  C   UNL A   1      44.075  28.681  35.616  1.00  0.00    -0.014 A 
ATOM     53  C   UNL A   1      43.939  27.502  36.359  1.00  0.00     0.009 A 
ATOM     54  C   UNL A   1      45.354  29.098  35.212  1.00  0.00     0.009 A 
ATOM     55  C   UNL A   1      45.066  26.754  36.696  1.00  0.00     0.001 A 
ATOM     56  C   UNL A   1      46.476  28.337  35.533  1.00  0.00     0.001 A 
ATOM     57  C   UNL A   1      46.331  27.166  36.276  1.00  0.00     0.000 A 
ENDBRANCH  39  52
ENDBRANCH  13  14
ENDBRANCH   6   8
ENDBRANCH   5   6
ENDBRANCH   4   5
ENDBRANCH   3   4
ENDBRANCH   2   3
ENDBRANCH   1   2
BRANCH   1  58
ATOM     58  C   UNL A   1      33.344  34.178  28.579  1.00  0.00     0.261 C 
BRANCH  58  59
ATOM     59  O   UNL A   1      33.322  33.340  27.411  1.00  0.00    -0.460 OA
BRANCH  59  60
ATOM     60  C   UNL A   1      32.208  32.578  27.261  1.00  0.00     0.338 C 
ATOM     61  O   UNL A   1      31.055  32.941  27.186  1.00  0.00    -0.246 OA
BRANCH  60  62
ATOM     62  C   UNL A   1      32.669  31.217  26.915  1.00  0.00     0.062 A 
ATOM     63  C   UNL A   1      33.934  30.758  27.259  1.00  0.00     0.038 A 
ATOM     64  C   UNL A   1      31.833  30.448  26.104  1.00  0.00     0.022 A 
ATOM     65  C   UNL A   1      34.350  29.517  26.779  1.00  0.00     0.065 A 
ATOM     66  C   UNL A   1      32.292  29.251  25.541  1.00  0.00    -0.015 A 
ATOM     67  Cl  UNL A   1      35.913  28.945  27.257  1.00  0.00    -0.082 Cl
ATOM     68  C   UNL A   1      33.547  28.754  25.902  1.00  0.00     0.057 A 
ATOM     69  C   UNL A   1      31.435  28.548  24.533  1.00  0.00     0.049 C 
ATOM     70  N   UNL A   1      33.950  27.508  25.465  1.00  0.00    -0.376 N 
ATOM     71  C   UNL A   1      31.606  29.014  23.108  1.00  0.00    -0.023 C 
ATOM     72  C   UNL A   1      31.716  27.048  24.396  1.00  0.00     0.031 C 
ATOM     73  C   UNL A   1      33.236  26.737  24.466  1.00  0.00     0.114 C 
ATOM     74  H   UNL A   1      34.769  27.123  25.853  1.00  0.00     0.161 HD
ATOM     75  C   UNL A   1      31.405  28.006  22.251  1.00  0.00    -0.030 C 
ATOM     76  C   UNL A   1      31.113  26.745  23.002  1.00  0.00     0.034 C 
BRANCH  73  77
ATOM     77  C   UNL A   1      33.437  25.255  24.753  1.00  0.00    -0.025 A 
ATOM     78  C   UNL A   1      34.303  24.429  24.008  1.00  0.00     0.007 A 
ATOM     79  C   UNL A   1      32.795  24.714  25.864  1.00  0.00     0.007 A 
ATOM     80  C   UNL A   1      34.512  23.093  24.372  1.00  0.00     0.022 A 
ATOM     81  C   UNL A   1      33.075  23.422  26.270  1.00  0.00     0.022 A 
ATOM     82  C   UNL A   1      33.902  22.597  25.523  1.00  0.00     0.082 A 
BRANCH  82  83
ATOM     83  S   UNL A   1      34.148  20.903  26.000  1.00  0.00     0.243 S 
ATOM     84  O   UNL A   1      35.474  20.544  25.544  1.00  0.00    -0.207 OA
ATOM     85  O   UNL A   1      33.766  20.811  27.391  1.00  0.00    -0.207 OA
BRANCH  83  86
ATOM     86  N   UNL A   1      33.042  20.028  25.088  1.00  0.00    -0.193 NA
ATOM     87  C   UNL A   1      32.960  18.554  25.152  1.00  0.00     0.131 C 
ATOM     88  C   UNL A   1      32.162  20.664  24.088  1.00  0.00     0.131 C 
ATOM     89  C   UNL A   1      33.010  17.931  23.750  1.00  0.00     0.177 C 
ATOM     90  C   UNL A   1      32.251  19.950  22.732  1.00  0.00     0.177 C 
ATOM     91  O   UNL A   1      32.071  18.532  22.849  1.00  0.00    -0.379 OA
ENDBRANCH  83  86
ENDBRANCH  82  83
ENDBRANCH  73  77
ENDBRANCH  60  62
ENDBRANCH  59  60
ENDBRANCH  58  59
ENDBRANCH   1  58
TORSDOF 17
ENDMDL
MODEL 2
REMARK VINA RESULT:     -11.1      6.321     13.159
REMARK SMILES O=C(OCCOCCOC(=O)c1cc(Cl)c2c(c1)[C@H]1C=CC[C@H]1[C@H](c1ccc(S(=O)(=O)N3CCOCC3)cc1)N2)c1ccc(-c2c3nc(c(-c4ccccc4)c4ccc([nH]4)c(-c4ccccc4)c4nc(c(-c5ccccc5)c5ccc2[nH]5)C=C4)C=C3)cc1
REMARK SMILES IDX 7 1 6 2 5 3 4 4 3 5 2 6 1 7 41 8 42 9 88 10 43 11 87 12
REMARK SMILES IDX 44 13 45 14 46 15 81 16 47 17 86 18 80 19 82 20 48 21 85 22
REMARK SMILES IDX 79 23 78 24 49 26 71 27 56 28 70 29 57 30 60 31 69 32 83 33
REMARK SMILES IDX 58 34 59 35 68 37 84 38 61 39 50 40 51 41 55 42 52 43 54 44
REMARK SMILES IDX 53 45 72 46 73 47 77 48 74 49 76 50 75 51 62 52 63 53 67 54
REMARK SMILES IDX 64 55 66 56 65 57 8 58 9 59 10 60 11 61 12 62 13 63 18 64
REMARK SMILES IDX 14 65 17 66 15 67 16 68 19 69 40 70 20 71 23 72 24 73 21 75
REMARK SMILES IDX 22 76 25 77 26 78 39 79 27 80 38 81 28 82 29 83 30 84 31 85
REMARK SMILES IDX 32 86 33 87 37 88 34 89 36 90 35 91
REMARK H PARENT 82 25 60 36 40 74
REMARK Flexibility Score: inf
ROOT
ATOM      1  C   UNL A   1      49.821  24.155  38.188  1.00  0.00     0.202 C 
ENDROOT
BRANCH   1   2
ATOM      2  O   UNL A   1      49.333  24.648  39.438  1.00  0.00    -0.374 OA
BRANCH   2   3
ATOM      3  C   UNL A   1      49.220  26.067  39.531  1.00  0.00     0.202 C 
BRANCH   3   4
ATOM      4  C   UNL A   1      47.789  26.602  39.522  1.00  0.00     0.261 C 
BRANCH   4   5
ATOM      5  O   UNL A   1      47.325  26.836  38.190  1.00  0.00    -0.460 OA
BRANCH   5   6
ATOM      6  C   UNL A   1      46.318  26.229  37.529  1.00  0.00     0.338 C 
ATOM      7  O   UNL A   1      46.328  24.999  37.489  1.00  0.00    -0.246 OA
BRANCH   6   8
ATOM      8  C   UNL A   1      45.219  26.939  36.789  1.00  0.00     0.060 A 
ATOM      9  C   UNL A   1      43.844  26.723  36.915  1.00  0.00     0.016 A 
ATOM     10  C   UNL A   1      45.633  27.952  35.900  1.00  0.00     0.016 A 
ATOM     11  C   UNL A   1      42.914  27.492  36.230  1.00  0.00     0.010 A 
ATOM     12  C   UNL A   1      44.711  28.699  35.165  1.00  0.00     0.010 A 
ATOM     13  C   UNL A   1      43.348  28.453  35.326  1.00  0.00    -0.014 A 
BRANCH  13  14
ATOM     14  C   UNL A   1      42.345  29.056  34.444  1.00  0.00     0.031 A 
ATOM     15  C   UNL A   1      41.640  30.284  34.929  1.00  0.00     0.074 A 
ATOM     16  C   UNL A   1      42.187  28.590  33.198  1.00  0.00     0.049 A 
ATOM     17  N   UNL A   1      40.759  31.022  34.313  1.00  0.00    -0.248 NA
ATOM     18  C   UNL A   1      42.015  30.776  36.268  1.00  0.00     0.031 C 
ATOM     19  C   UNL A   1      42.961  27.503  32.598  1.00  0.00     0.029 A 
ATOM     20  N   UNL A   1      41.339  28.995  32.205  1.00  0.00    -0.354 N 
ATOM     21  C   UNL A   1      40.505  32.082  35.171  1.00  0.00     0.074 A 
ATOM     22  C   UNL A   1      41.312  31.893  36.353  1.00  0.00     0.031 C 
ATOM     23  C   UNL A   1      42.544  27.321  31.334  1.00  0.00     0.029 A 
ATOM     24  C   UNL A   1      41.453  28.252  31.059  1.00  0.00     0.049 A 
ATOM     25  H   UNL A   1      40.709  29.745  32.304  1.00  0.00     0.167 HD
ATOM     26  C   UNL A   1      39.655  33.115  34.986  1.00  0.00     0.031 A 
ATOM     27  C   UNL A   1      40.731  28.312  29.924  1.00  0.00     0.031 A 
ATOM     28  C   UNL A   1      38.781  33.217  33.855  1.00  0.00     0.049 A 
ATOM     29  C   UNL A   1      39.640  29.338  29.828  1.00  0.00     0.074 A 
ATOM     30  C   UNL A   1      37.767  34.124  33.624  1.00  0.00     0.029 A 
ATOM     31  N   UNL A   1      38.814  32.353  32.768  1.00  0.00    -0.354 N 
ATOM     32  N   UNL A   1      39.322  30.280  30.687  1.00  0.00    -0.248 NA
ATOM     33  C   UNL A   1      38.802  29.311  28.624  1.00  0.00     0.031 C 
ATOM     34  C   UNL A   1      37.154  33.781  32.415  1.00  0.00     0.029 A 
ATOM     35  C   UNL A   1      37.827  32.697  31.867  1.00  0.00     0.049 A 
ATOM     36  H   UNL A   1      39.448  31.608  32.657  1.00  0.00     0.167 HD
ATOM     37  C   UNL A   1      38.259  30.969  30.122  1.00  0.00     0.074 A 
ATOM     38  C   UNL A   1      37.985  30.335  28.847  1.00  0.00     0.031 C 
ATOM     39  C   UNL A   1      37.579  32.034  30.611  1.00  0.00     0.031 A 
BRANCH  26  40
ATOM     40  C   UNL A   1      39.591  34.145  36.072  1.00  0.00    -0.014 A 
ATOM     41  C   UNL A   1      40.300  35.351  35.962  1.00  0.00     0.009 A 
ATOM     42  C   UNL A   1      38.832  33.900  37.225  1.00  0.00     0.009 A 
ATOM     43  C   UNL A   1      40.260  36.288  36.997  1.00  0.00     0.001 A 
ATOM     44  C   UNL A   1      38.781  34.846  38.251  1.00  0.00     0.001 A 
ATOM     45  C   UNL A   1      39.500  36.037  38.138  1.00  0.00     0.000 A 
ENDBRANCH  26  40
BRANCH  27  46
ATOM     46  C   UNL A   1      41.022  27.350  28.833  1.00  0.00    -0.014 A 
ATOM     47  C   UNL A   1      40.204  26.230  28.633  1.00  0.00     0.009 A 
ATOM     48  C   UNL A   1      42.062  27.605  27.924  1.00  0.00     0.009 A 
ATOM     49  C   UNL A   1      40.416  25.390  27.535  1.00  0.00     0.001 A 
ATOM     50  C   UNL A   1      42.260  26.775  26.820  1.00  0.00     0.001 A 
ATOM     51  C   UNL A   1      41.436  25.669  26.625  1.00  0.00     0.000 A 
ENDBRANCH  27  46
BRANCH  39  52
ATOM     52  C   UNL A   1      36.486  32.606  29.760  1.00  0.00    -0.014 A 
ATOM     53  C   UNL A   1      35.210  32.028  29.736  1.00  0.00     0.009 A 
ATOM     54  C   UNL A   1      36.710  33.812  29.075  1.00  0.00     0.009 A 
ATOM     55  C   UNL A   1      34.176  32.645  29.034  1.00  0.00     0.001 A 
ATOM     56  C   UNL A   1      35.669  34.436  28.392  1.00  0.00     0.001 A 
ATOM     57  C   UNL A   1      34.403  33.852  28.371  1.00  0.00     0.000 A 
ENDBRANCH  39  52
ENDBRANCH  13  14
ENDBRANCH   6   8
ENDBRANCH   5   6
ENDBRANCH   4   5
ENDBRANCH   3   4
ENDBRANCH   2   3
ENDBRANCH   1   2
BRANCH   1  58
ATOM     58  C   UNL A   1      50.219  25.297  37.246  1.00  0.00     0.261 C 
BRANCH  58  59
ATOM     59  O   UNL A   1      49.455  25.228  36.029  1.00  0.00    -0.460 OA
BRANCH  59  60
ATOM     60  C   UNL A   1      49.345  26.395  35.343  1.00  0.00     0.338 C 
ATOM     61  O   UNL A   1      49.985  27.413  35.488  1.00  0.00    -0.246 OA
BRANCH  60  62
ATOM     62  C   UNL A   1      48.486  26.119  34.173  1.00  0.00     0.062 A 
ATOM     63  C   UNL A   1      48.490  26.935  33.048  1.00  0.00     0.038 A 
ATOM     64  C   UNL A   1      47.562  25.080  34.291  1.00  0.00     0.022 A 
ATOM     65  C   UNL A   1      47.555  26.692  32.042  1.00  0.00     0.065 A 
ATOM     66  C   UNL A   1      46.561  24.904  33.329  1.00  0.00    -0.015 A 
ATOM     67  Cl  UNL A   1      47.606  27.692  30.629  1.00  0.00    -0.082 Cl
ATOM     68  C   UNL A   1      46.568  25.689  32.173  1.00  0.00     0.057 A 
ATOM     69  C   UNL A   1      45.481  23.897  33.580  1.00  0.00     0.049 C 
ATOM     70  N   UNL A   1      45.673  25.430  31.154  1.00  0.00    -0.376 N 
ATOM     71  C   UNL A   1      44.304  24.403  34.378  1.00  0.00    -0.023 C 
ATOM     72  C   UNL A   1      44.789  23.378  32.317  1.00  0.00     0.031 C 
ATOM     73  C   UNL A   1      44.560  24.509  31.278  1.00  0.00     0.114 C 
ATOM     74  H   UNL A   1      45.797  25.899  30.297  1.00  0.00     0.161 HD
ATOM     75  C   UNL A   1      43.177  23.787  34.004  1.00  0.00    -0.030 C 
ATOM     76  C   UNL A   1      43.461  22.826  32.894  1.00  0.00     0.034 C 
BRANCH  73  77
ATOM     77  C   UNL A   1      44.276  23.895  29.914  1.00  0.00    -0.025 A 
ATOM     78  C   UNL A   1      43.104  23.172  29.615  1.00  0.00     0.007 A 
ATOM     79  C   UNL A   1      45.186  24.138  28.888  1.00  0.00     0.007 A 
ATOM     80  C   UNL A   1      42.859  22.703  28.317  1.00  0.00     0.022 A 
ATOM     81  C   UNL A   1      44.896  23.752  27.593  1.00  0.00     0.022 A 
ATOM     82  C   UNL A   1      43.760  23.014  27.300  1.00  0.00     0.082 A 
BRANCH  82  83
ATOM     83  S   UNL A   1      43.473  22.423  25.648  1.00  0.00     0.243 S 
ATOM     84  O   UNL A   1      42.076  22.049  25.592  1.00  0.00    -0.207 OA
ATOM     85  O   UNL A   1      44.037  23.413  24.758  1.00  0.00    -0.207 OA
BRANCH  83  86
ATOM     86  N   UNL A   1      44.383  21.017  25.523  1.00  0.00    -0.193 NA
ATOM     87  C   UNL A   1      45.855  21.042  25.407  1.00  0.00     0.131 C 
ATOM     88  C   UNL A   1      43.765  19.682  25.410  1.00  0.00     0.131 C 
ATOM     89  C   UNL A   1      46.336  20.201  24.215  1.00  0.00     0.177 C 
ATOM     90  C   UNL A   1      44.334  18.903  24.216  1.00  0.00     0.177 C 
ATOM     91  O   UNL A   1      45.768  18.884  24.210  1.00  0.00    -0.379 OA
ENDBRANCH  83  86
ENDBRANCH  82  83
ENDBRANCH  73  77
ENDBRANCH  60  62
ENDBRANCH  59  60
ENDBRANCH  58  59
ENDBRANCH   1  58
TORSDOF 17
ENDMDL
MODEL 3
REMARK VINA RESULT:     -11.1      0.465      5.506
REMARK SMILES O=C(OCCOCCOC(=O)c1cc(Cl)c2c(c1)[C@H]1C=CC[C@H]1[C@H](c1ccc(S(=O)(=O)N3CCOCC3)cc1)N2)c1ccc(-c2c3nc(c(-c4ccccc4)c4ccc([nH]4)c(-c4ccccc4)c4nc(c(-c5ccccc5)c5ccc2[nH]5)C=C4)C=C3)cc1
REMARK SMILES IDX 7 1 6 2 5 3 4 4 3 5 2 6 1 7 41 8 42 9 88 10 43 11 87 12
REMARK SMILES IDX 44 13 45 14 46 15 81 16 47 17 86 18 80 19 82 20 48 21 85 22
REMARK SMILES IDX 79 23 78 24 49 26 71 27 56 28 70 29 57 30 60 31 69 32 83 33
REMARK SMILES IDX 58 34 59 35 68 37 84 38 61 39 50 40 51 41 55 42 52 43 54 44
REMARK SMILES IDX 53 45 72 46 73 47 77 48 74 49 76 50 75 51 62 52 63 53 67 54
REMARK SMILES IDX 64 55 66 56 65 57 8 58 9 59 10 60 11 61 12 62 13 63 18 64
REMARK SMILES IDX 14 65 17 66 15 67 16 68 19 69 40 70 20 71 23 72 24 73 21 75
REMARK SMILES IDX 22 76 25 77 26 78 39 79 27 80 38 81 28 82 29 83 30 84 31 85
REMARK SMILES IDX 32 86 33 87 37 88 34 89 36 90 35 91
REMARK H PARENT 82 25 60 36 40 74
REMARK Flexibility Score: inf
ROOT
ATOM      1  C   UNL A   1      34.880  34.557  28.635  1.00  0.00     0.202 C 
ENDROOT
BRANCH   1   2
ATOM      2  O   UNL A   1      34.822  35.971  28.845  1.00  0.00    -0.374 OA
BRANCH   2   3
ATOM      3  C   UNL A   1      33.518  36.545  28.779  1.00  0.00     0.202 C 
BRANCH   3   4
ATOM      4  C   UNL A   1      33.040  37.209  30.069  1.00  0.00     0.261 C 
BRANCH   4   5
ATOM      5  O   UNL A   1      32.273  36.306  30.871  1.00  0.00    -0.460 OA
BRANCH   5   6
ATOM      6  C   UNL A   1      32.557  35.818  32.096  1.00  0.00     0.338 C 
ATOM      7  O   UNL A   1      31.710  35.972  32.977  1.00  0.00    -0.246 OA
BRANCH   6   8
ATOM      8  C   UNL A   1      33.849  35.155  32.484  1.00  0.00     0.060 A 
ATOM      9  C   UNL A   1      35.129  35.714  32.436  1.00  0.00     0.016 A 
ATOM     10  C   UNL A   1      33.739  33.839  32.977  1.00  0.00     0.016 A 
ATOM     11  C   UNL A   1      36.247  35.029  32.890  1.00  0.00     0.010 A 
ATOM     12  C   UNL A   1      34.861  33.117  33.387  1.00  0.00     0.010 A 
ATOM     13  C   UNL A   1      36.118  33.717  33.328  1.00  0.00    -0.014 A 
BRANCH  13  14
ATOM     14  C   UNL A   1      37.349  32.953  33.552  1.00  0.00     0.031 A 
ATOM     15  C   UNL A   1      38.080  33.172  34.840  1.00  0.00     0.074 A 
ATOM     16  C   UNL A   1      37.708  31.998  32.683  1.00  0.00     0.049 A 
ATOM     17  N   UNL A   1      39.153  32.580  35.286  1.00  0.00    -0.248 NA
ATOM     18  C   UNL A   1      37.495  34.153  35.773  1.00  0.00     0.031 C 
ATOM     19  C   UNL A   1      36.951  31.612  31.491  1.00  0.00     0.029 A 
ATOM     20  N   UNL A   1      38.787  31.160  32.689  1.00  0.00    -0.354 N 
ATOM     21  C   UNL A   1      39.348  33.087  36.561  1.00  0.00     0.074 A 
ATOM     22  C   UNL A   1      38.294  34.040  36.821  1.00  0.00     0.031 C 
ATOM     23  C   UNL A   1      37.599  30.611  30.873  1.00  0.00     0.029 A 
ATOM     24  C   UNL A   1      38.827  30.319  31.607  1.00  0.00     0.049 A 
ATOM     25  H   UNL A   1      39.468  31.160  33.400  1.00  0.00     0.167 HD
ATOM     26  C   UNL A   1      40.336  32.789  37.432  1.00  0.00     0.031 A 
ATOM     27  C   UNL A   1      39.772  29.432  31.247  1.00  0.00     0.031 A 
ATOM     28  C   UNL A   1      41.433  31.926  37.106  1.00  0.00     0.049 A 
ATOM     29  C   UNL A   1      40.975  29.274  32.131  1.00  0.00     0.074 A 
ATOM     30  C   UNL A   1      42.574  31.665  37.836  1.00  0.00     0.029 A 
ATOM     31  N   UNL A   1      41.524  31.199  35.927  1.00  0.00    -0.354 N 
ATOM     32  N   UNL A   1      41.217  29.835  33.293  1.00  0.00    -0.248 NA
ATOM     33  C   UNL A   1      42.037  28.378  31.659  1.00  0.00     0.031 C 
ATOM     34  C   UNL A   1      43.382  30.812  37.076  1.00  0.00     0.029 A 
ATOM     35  C   UNL A   1      42.713  30.497  35.900  1.00  0.00     0.049 A 
ATOM     36  H   UNL A   1      40.843  31.185  35.216  1.00  0.00     0.167 HD
ATOM     37  C   UNL A   1      42.450  29.349  33.702  1.00  0.00     0.074 A 
ATOM     38  C   UNL A   1      42.906  28.448  32.661  1.00  0.00     0.031 C 
ATOM     39  C   UNL A   1      43.136  29.618  34.840  1.00  0.00     0.031 A 
BRANCH  26  40
ATOM     40  C   UNL A   1      40.294  33.469  38.766  1.00  0.00    -0.014 A 
ATOM     41  C   UNL A   1      40.973  34.678  38.979  1.00  0.00     0.009 A 
ATOM     42  C   UNL A   1      39.585  32.886  39.827  1.00  0.00     0.009 A 
ATOM     43  C   UNL A   1      40.955  35.284  40.237  1.00  0.00     0.001 A 
ATOM     44  C   UNL A   1      39.556  33.503  41.079  1.00  0.00     0.001 A 
ATOM     45  C   UNL A   1      40.245  34.698  41.284  1.00  0.00     0.000 A 
ENDBRANCH  26  40
BRANCH  27  46
ATOM     46  C   UNL A   1      39.603  28.671  29.985  1.00  0.00    -0.014 A 
ATOM     47  C   UNL A   1      39.947  29.244  28.753  1.00  0.00     0.009 A 
ATOM     48  C   UNL A   1      39.190  27.329  30.018  1.00  0.00     0.009 A 
ATOM     49  C   UNL A   1      39.892  28.483  27.581  1.00  0.00     0.001 A 
ATOM     50  C   UNL A   1      39.153  26.567  28.849  1.00  0.00     0.001 A 
ATOM     51  C   UNL A   1      39.505  27.144  27.632  1.00  0.00     0.000 A 
ENDBRANCH  27  46
BRANCH  39  52
ATOM     52  C   UNL A   1      44.444  28.913  35.041  1.00  0.00    -0.014 A 
ATOM     53  C   UNL A   1      45.633  29.431  34.510  1.00  0.00     0.009 A 
ATOM     54  C   UNL A   1      44.495  27.787  35.878  1.00  0.00     0.009 A 
ATOM     55  C   UNL A   1      46.853  28.827  34.810  1.00  0.00     0.001 A 
ATOM     56  C   UNL A   1      45.718  27.200  36.193  1.00  0.00     0.001 A 
ATOM     57  C   UNL A   1      46.896  27.719  35.658  1.00  0.00     0.000 A 
ENDBRANCH  39  52
ENDBRANCH  13  14
ENDBRANCH   6   8
ENDBRANCH   5   6
ENDBRANCH   4   5
ENDBRANCH   3   4
ENDBRANCH   2   3
ENDBRANCH   1   2
BRANCH   1  58
ATOM     58  C   UNL A   1      33.479  33.937  28.577  1.00  0.00     0.261 C 
BRANCH  58  59
ATOM     59  O   UNL A   1      33.249  33.348  27.286  1.00  0.00    -0.460 OA
BRANCH  59  60
ATOM     60  C   UNL A   1      32.149  32.555  27.194  1.00  0.00     0.338 C 
ATOM     61  O   UNL A   1      30.986  32.889  27.153  1.00  0.00    -0.246 OA
BRANCH  60  62
ATOM     62  C   UNL A   1      32.632  31.199  26.861  1.00  0.00     0.062 A 
ATOM     63  C   UNL A   1      33.890  30.750  27.243  1.00  0.00     0.038 A 
ATOM     64  C   UNL A   1      31.827  30.423  26.025  1.00  0.00     0.022 A 
ATOM     65  C   UNL A   1      34.330  29.512  26.775  1.00  0.00     0.065 A 
ATOM     66  C   UNL A   1      32.312  29.230  25.476  1.00  0.00    -0.015 A 
ATOM     67  Cl  UNL A   1      35.883  28.952  27.299  1.00  0.00    -0.082 Cl
ATOM     68  C   UNL A   1      33.560  28.743  25.874  1.00  0.00     0.057 A 
ATOM     69  C   UNL A   1      31.492  28.520  24.443  1.00  0.00     0.049 C 
ATOM     70  N   UNL A   1      33.986  27.501  25.449  1.00  0.00    -0.376 N 
ATOM     71  C   UNL A   1      31.701  28.989  23.024  1.00  0.00    -0.023 C 
ATOM     72  C   UNL A   1      31.789  27.023  24.314  1.00  0.00     0.031 C 
ATOM     73  C   UNL A   1      33.308  26.724  24.429  1.00  0.00     0.114 C 
ATOM     74  H   UNL A   1      34.796  27.122  25.861  1.00  0.00     0.161 HD
ATOM     75  C   UNL A   1      31.534  27.980  22.161  1.00  0.00    -0.030 C 
ATOM     76  C   UNL A   1      31.230  26.716  22.902  1.00  0.00     0.034 C 
BRANCH  73  77
ATOM     77  C   UNL A   1      33.513  25.244  24.721  1.00  0.00    -0.025 A 
ATOM     78  C   UNL A   1      34.341  24.406  23.948  1.00  0.00     0.007 A 
ATOM     79  C   UNL A   1      32.916  24.717  25.864  1.00  0.00     0.007 A 
ATOM     80  C   UNL A   1      34.558  23.072  24.315  1.00  0.00     0.022 A 
ATOM     81  C   UNL A   1      33.206  23.428  26.270  1.00  0.00     0.022 A 
ATOM     82  C   UNL A   1      33.995  22.591  25.496  1.00  0.00     0.082 A 
BRANCH  82  83
ATOM     83  S   UNL A   1      34.251  20.899  25.978  1.00  0.00     0.243 S 
ATOM     84  O   UNL A   1      35.579  20.547  25.522  1.00  0.00    -0.207 OA
ATOM     85  O   UNL A   1      33.871  20.810  27.370  1.00  0.00    -0.207 OA
BRANCH  83  86
ATOM     86  N   UNL A   1      33.149  20.015  25.070  1.00  0.00    -0.193 NA
ATOM     87  C   UNL A   1      33.155  18.538  25.047  1.00  0.00     0.131 C 
ATOM     88  C   UNL A   1      32.183  20.655  24.155  1.00  0.00     0.131 C 
ATOM     89  C   UNL A   1      33.166  18.002  23.608  1.00  0.00     0.177 C 
ATOM     90  C   UNL A   1      32.240  20.028  22.756  1.00  0.00     0.177 C 
ATOM     91  O   UNL A   1      32.147  18.598  22.794  1.00  0.00    -0.379 OA
ENDBRANCH  83  86
ENDBRANCH  82  83
ENDBRANCH  73  77
ENDBRANCH  60  62
ENDBRANCH  59  60
ENDBRANCH  58  59
ENDBRANCH   1  58
TORSDOF 17
ENDMDL
