MODEL 1
REMARK VINA RESULT:     -10.4      0.000      0.000
REMARK SMILES CCc1cc(/C=C/C(=O)OCCOCCOC(=O)c2ccc(-c3c4nc(c(-c5ccccc5)c5ccc([nH]5)c(-c5ccccc5)c5nc(c(-c6ccccc6)c6ccc3[nH]6)C=C5)C=C4)cc2)cc(C(=O)c2ccccc2)c1
REMARK SMILES IDX 12 1 11 2 10 3 8 4 9 5 7 6 6 7 5 8 3 9 4 10 77 11 68 12
REMARK SMILES IDX 67 13 2 14 1 15 69 16 70 17 71 18 72 19 76 20 73 21 75 22
REMARK SMILES IDX 74 23 13 24 14 25 15 26 16 27 17 28 18 29 19 30 20 31 66 32
REMARK SMILES IDX 21 33 65 34 22 35 23 36 24 37 59 38 25 39 64 40 58 41 60 42
REMARK SMILES IDX 26 43 63 44 57 45 56 46 27 48 49 49 34 50 48 51 35 52 38 53
REMARK SMILES IDX 47 54 61 55 36 56 37 57 46 59 62 60 39 61 28 62 29 63 33 64
REMARK SMILES IDX 30 65 32 66 31 67 50 68 51 69 55 70 52 71 54 72 53 73 40 74
REMARK SMILES IDX 41 75 45 76 42 77 44 78 43 79
REMARK H PARENT 60 47 38 58
REMARK Flexibility Score: inf
ROOT
ATOM      1  C   UNL A   1      33.844  36.391  33.300  1.00  0.00     0.202 C 
ENDROOT
BRANCH   1   2
ATOM      2  C   UNL A   1      33.692  37.060  31.932  1.00  0.00     0.261 C 
BRANCH   2   3
ATOM      3  O   UNL A   1      32.773  36.327  31.104  1.00  0.00    -0.460 OA
BRANCH   3   4
ATOM      4  C   UNL A   1      33.123  36.233  29.801  1.00  0.00     0.330 C 
ATOM      5  O   UNL A   1      33.373  37.160  29.044  1.00  0.00    -0.247 OA
BRANCH   4   6
ATOM      6  C   UNL A   1      33.292  34.833  29.364  1.00  0.00     0.094 C 
ATOM      7  C   UNL A   1      34.447  34.205  29.087  1.00  0.00     0.015 C 
BRANCH   7   8
ATOM      8  C   UNL A   1      34.485  32.817  28.584  1.00  0.00    -0.024 A 
ATOM      9  C   UNL A   1      35.617  30.658  28.384  1.00  0.00    -0.047 A 
ATOM     10  C   UNL A   1      35.557  31.964  28.888  1.00  0.00     0.011 A 
ATOM     11  C   UNL A   1      34.569  30.188  27.587  1.00  0.00     0.016 A 
ATOM     12  C   UNL A   1      33.455  30.995  27.326  1.00  0.00     0.023 A 
ATOM     13  C   UNL A   1      33.422  32.312  27.823  1.00  0.00     0.020 A 
BRANCH   9  14
ATOM     14  C   UNL A   1      36.788  29.769  28.720  1.00  0.00     0.032 C 
ATOM     15  C   UNL A   1      37.759  29.658  27.554  1.00  0.00     0.009 C 
ENDBRANCH   9  14
BRANCH  12  16
ATOM     16  C   UNL A   1      32.315  30.519  26.485  1.00  0.00     0.193 C 
ATOM     17  O   UNL A   1      31.398  31.285  26.201  1.00  0.00    -0.289 OA
BRANCH  16  18
ATOM     18  C   UNL A   1      32.275  29.142  25.937  1.00  0.00     0.022 A 
ATOM     19  C   UNL A   1      31.459  28.199  26.570  1.00  0.00     0.012 A 
ATOM     20  C   UNL A   1      33.032  28.777  24.818  1.00  0.00     0.012 A 
ATOM     21  C   UNL A   1      31.360  26.906  26.052  1.00  0.00     0.001 A 
ATOM     22  C   UNL A   1      32.926  27.483  24.301  1.00  0.00     0.001 A 
ATOM     23  C   UNL A   1      32.084  26.553  24.914  1.00  0.00     0.000 A 
ENDBRANCH  16  18
ENDBRANCH  12  16
ENDBRANCH   7   8
ENDBRANCH   4   6
ENDBRANCH   3   4
ENDBRANCH   2   3
ENDBRANCH   1   2
BRANCH   1  24
ATOM     24  O   UNL A   1      35.140  35.863  33.578  1.00  0.00    -0.374 OA
BRANCH  24  25
ATOM     25  C   UNL A   1      35.430  34.570  33.040  1.00  0.00     0.202 C 
BRANCH  25  26
ATOM     26  C   UNL A   1      35.508  33.433  34.068  1.00  0.00     0.261 C 
BRANCH  26  27
ATOM     27  O   UNL A   1      36.038  32.228  33.485  1.00  0.00    -0.460 OA
BRANCH  27  28
ATOM     28  C   UNL A   1      37.194  31.779  34.027  1.00  0.00     0.338 C 
ATOM     29  O   UNL A   1      37.448  31.623  35.214  1.00  0.00    -0.246 OA
BRANCH  28  30
ATOM     30  C   UNL A   1      38.089  31.309  32.955  1.00  0.00     0.060 A 
ATOM     31  C   UNL A   1      39.020  30.311  33.276  1.00  0.00     0.016 A 
ATOM     32  C   UNL A   1      38.046  31.851  31.669  1.00  0.00     0.016 A 
ATOM     33  C   UNL A   1      39.926  29.866  32.313  1.00  0.00     0.010 A 
ATOM     34  C   UNL A   1      38.963  31.410  30.709  1.00  0.00     0.010 A 
ATOM     35  C   UNL A   1      39.919  30.430  31.031  1.00  0.00    -0.014 A 
BRANCH  35  36
ATOM     36  C   UNL A   1      40.963  30.053  30.049  1.00  0.00     0.031 A 
ATOM     37  C   UNL A   1      40.894  28.715  29.370  1.00  0.00     0.074 A 
ATOM     38  C   UNL A   1      41.965  30.903  29.761  1.00  0.00     0.049 A 
ATOM     39  N   UNL A   1      41.725  28.177  28.515  1.00  0.00    -0.248 NA
ATOM     40  C   UNL A   1      39.732  27.873  29.697  1.00  0.00     0.031 C 
ATOM     41  C   UNL A   1      42.122  32.245  30.320  1.00  0.00     0.029 A 
ATOM     42  N   UNL A   1      43.046  30.754  28.929  1.00  0.00    -0.354 N 
ATOM     43  C   UNL A   1      41.193  26.932  28.204  1.00  0.00     0.074 A 
ATOM     44  C   UNL A   1      39.980  26.785  28.981  1.00  0.00     0.031 C 
ATOM     45  C   UNL A   1      43.242  32.795  29.820  1.00  0.00     0.029 A 
ATOM     46  C   UNL A   1      43.897  31.831  28.939  1.00  0.00     0.049 A 
ATOM     47  H   UNL A   1      43.197  29.951  28.378  1.00  0.00     0.167 HD
ATOM     48  C   UNL A   1      41.669  25.998  27.347  1.00  0.00     0.031 A 
ATOM     49  C   UNL A   1      45.083  32.009  28.327  1.00  0.00     0.031 A 
ATOM     50  C   UNL A   1      42.886  26.133  26.591  1.00  0.00     0.049 A 
ATOM     51  C   UNL A   1      45.644  30.913  27.463  1.00  0.00     0.074 A 
ATOM     52  C   UNL A   1      43.435  25.252  25.676  1.00  0.00     0.029 A 
ATOM     53  N   UNL A   1      43.751  27.213  26.677  1.00  0.00    -0.354 N 
ATOM     54  N   UNL A   1      45.114  29.756  27.147  1.00  0.00    -0.248 NA
ATOM     55  C   UNL A   1      46.970  31.148  26.873  1.00  0.00     0.031 C 
ATOM     56  C   UNL A   1      44.665  25.771  25.253  1.00  0.00     0.029 A 
ATOM     57  C   UNL A   1      44.853  27.000  25.864  1.00  0.00     0.049 A 
ATOM     58  H   UNL A   1      43.604  28.011  27.234  1.00  0.00     0.167 HD
ATOM     59  C   UNL A   1      46.032  29.132  26.314  1.00  0.00     0.074 A 
ATOM     60  C   UNL A   1      47.145  30.046  26.156  1.00  0.00     0.031 C 
ATOM     61  C   UNL A   1      45.961  27.909  25.732  1.00  0.00     0.031 A 
BRANCH  48  62
ATOM     62  C   UNL A   1      40.884  24.724  27.213  1.00  0.00    -0.014 A 
ATOM     63  C   UNL A   1      41.328  23.528  27.800  1.00  0.00     0.009 A 
ATOM     64  C   UNL A   1      39.667  24.727  26.513  1.00  0.00     0.009 A 
ATOM     65  C   UNL A   1      40.585  22.354  27.657  1.00  0.00     0.001 A 
ATOM     66  C   UNL A   1      38.914  23.558  26.394  1.00  0.00     0.001 A 
ATOM     67  C   UNL A   1      39.379  22.370  26.958  1.00  0.00     0.000 A 
ENDBRANCH  48  62
BRANCH  49  68
ATOM     68  C   UNL A   1      45.844  33.268  28.538  1.00  0.00    -0.014 A 
ATOM     69  C   UNL A   1      46.735  33.393  29.613  1.00  0.00     0.009 A 
ATOM     70  C   UNL A   1      45.677  34.354  27.664  1.00  0.00     0.009 A 
ATOM     71  C   UNL A   1      47.431  34.588  29.820  1.00  0.00     0.001 A 
ATOM     72  C   UNL A   1      46.392  35.537  27.857  1.00  0.00     0.001 A 
ATOM     73  C   UNL A   1      47.263  35.655  28.938  1.00  0.00     0.000 A 
ENDBRANCH  49  68
BRANCH  61  74
ATOM     74  C   UNL A   1      47.115  27.492  24.864  1.00  0.00    -0.014 A 
ATOM     75  C   UNL A   1      47.150  27.819  23.500  1.00  0.00     0.009 A 
ATOM     76  C   UNL A   1      48.200  26.802  25.427  1.00  0.00     0.009 A 
ATOM     77  C   UNL A   1      48.238  27.439  22.711  1.00  0.00     0.001 A 
ATOM     78  C   UNL A   1      49.298  26.448  24.641  1.00  0.00     0.001 A 
ATOM     79  C   UNL A   1      49.313  26.760  23.283  1.00  0.00     0.000 A 
ENDBRANCH  61  74
ENDBRANCH  35  36
ENDBRANCH  28  30
ENDBRANCH  27  28
ENDBRANCH  26  27
ENDBRANCH  25  26
ENDBRANCH  24  25
ENDBRANCH   1  24
TORSDOF 18
ENDMDL
MODEL 2
REMARK VINA RESULT:     -10.3      5.374     10.365
REMARK SMILES CCc1cc(/C=C/C(=O)OCCOCCOC(=O)c2ccc(-c3c4nc(c(-c5ccccc5)c5ccc([nH]5)c(-c5ccccc5)c5nc(c(-c6ccccc6)c6ccc3[nH]6)C=C5)C=C4)cc2)cc(C(=O)c2ccccc2)c1
REMARK SMILES IDX 12 1 11 2 10 3 8 4 9 5 7 6 6 7 5 8 3 9 4 10 77 11 68 12
REMARK SMILES IDX 67 13 2 14 1 15 69 16 70 17 71 18 72 19 76 20 73 21 75 22
REMARK SMILES IDX 74 23 13 24 14 25 15 26 16 27 17 28 18 29 19 30 20 31 66 32
REMARK SMILES IDX 21 33 65 34 22 35 23 36 24 37 59 38 25 39 64 40 58 41 60 42
REMARK SMILES IDX 26 43 63 44 57 45 56 46 27 48 49 49 34 50 48 51 35 52 38 53
REMARK SMILES IDX 47 54 61 55 36 56 37 57 46 59 62 60 39 61 28 62 29 63 33 64
REMARK SMILES IDX 30 65 32 66 31 67 50 68 51 69 55 70 52 71 54 72 53 73 40 74
REMARK SMILES IDX 41 75 45 76 42 77 44 78 43 79
REMARK H PARENT 60 47 38 58
REMARK Flexibility Score: inf
ROOT
ATOM      1  C   UNL A   1      41.783  21.421  26.284  1.00  0.00     0.202 C 
ENDROOT
BRANCH   1   2
ATOM      2  C   UNL A   1      40.576  22.089  26.946  1.00  0.00     0.261 C 
BRANCH   2   3
ATOM      3  O   UNL A   1      39.544  22.353  25.980  1.00  0.00    -0.460 OA
BRANCH   3   4
ATOM      4  C   UNL A   1      38.712  23.373  26.292  1.00  0.00     0.330 C 
ATOM      5  O   UNL A   1      39.011  24.409  26.869  1.00  0.00    -0.247 OA
BRANCH   4   6
ATOM      6  C   UNL A   1      37.350  23.170  25.759  1.00  0.00     0.094 C 
ATOM      7  C   UNL A   1      36.989  22.361  24.748  1.00  0.00     0.015 C 
BRANCH   7   8
ATOM      8  C   UNL A   1      35.600  22.298  24.252  1.00  0.00    -0.024 A 
ATOM      9  C   UNL A   1      33.813  23.153  22.817  1.00  0.00    -0.047 A 
ATOM     10  C   UNL A   1      35.140  23.183  23.265  1.00  0.00     0.011 A 
ATOM     11  C   UNL A   1      32.940  22.197  23.343  1.00  0.00     0.016 A 
ATOM     12  C   UNL A   1      33.392  21.256  24.277  1.00  0.00     0.023 A 
ATOM     13  C   UNL A   1      34.722  21.316  24.732  1.00  0.00     0.020 A 
BRANCH   9  14
ATOM     14  C   UNL A   1      33.346  24.126  21.764  1.00  0.00     0.032 C 
ATOM     15  C   UNL A   1      32.304  25.089  22.313  1.00  0.00     0.009 C 
ENDBRANCH   9  14
BRANCH  12  16
ATOM     16  C   UNL A   1      32.485  20.216  24.852  1.00  0.00     0.193 C 
ATOM     17  O   UNL A   1      31.456  20.550  25.433  1.00  0.00    -0.289 OA
BRANCH  16  18
ATOM     18  C   UNL A   1      32.769  18.768  24.702  1.00  0.00     0.022 A 
ATOM     19  C   UNL A   1      33.150  18.293  23.442  1.00  0.00     0.012 A 
ATOM     20  C   UNL A   1      32.657  17.884  25.781  1.00  0.00     0.012 A 
ATOM     21  C   UNL A   1      33.471  16.945  23.277  1.00  0.00     0.001 A 
ATOM     22  C   UNL A   1      32.983  16.537  25.611  1.00  0.00     0.001 A 
ATOM     23  C   UNL A   1      33.397  16.071  24.361  1.00  0.00     0.000 A 
ENDBRANCH  16  18
ENDBRANCH  12  16
ENDBRANCH   7   8
ENDBRANCH   4   6
ENDBRANCH   3   4
ENDBRANCH   2   3
ENDBRANCH   1   2
BRANCH   1  24
ATOM     24  O   UNL A   1      41.609  20.045  25.948  1.00  0.00    -0.374 OA
BRANCH  24  25
ATOM     25  C   UNL A   1      42.612  19.141  26.419  1.00  0.00     0.202 C 
BRANCH  25  26
ATOM     26  C   UNL A   1      43.510  18.533  25.334  1.00  0.00     0.261 C 
BRANCH  26  27
ATOM     27  O   UNL A   1      43.785  19.479  24.283  1.00  0.00    -0.460 OA
BRANCH  27  28
ATOM     28  C   UNL A   1      45.058  19.936  24.232  1.00  0.00     0.338 C 
ATOM     29  O   UNL A   1      46.009  19.424  23.658  1.00  0.00    -0.246 OA
BRANCH  28  30
ATOM     30  C   UNL A   1      45.121  21.283  24.827  1.00  0.00     0.060 A 
ATOM     31  C   UNL A   1      44.838  22.376  23.996  1.00  0.00     0.016 A 
ATOM     32  C   UNL A   1      45.480  21.482  26.162  1.00  0.00     0.016 A 
ATOM     33  C   UNL A   1      44.933  23.675  24.494  1.00  0.00     0.010 A 
ATOM     34  C   UNL A   1      45.585  22.787  26.655  1.00  0.00     0.010 A 
ATOM     35  C   UNL A   1      45.331  23.889  25.820  1.00  0.00    -0.014 A 
BRANCH  35  36
ATOM     36  C   UNL A   1      45.559  25.268  26.312  1.00  0.00     0.031 A 
ATOM     37  C   UNL A   1      44.404  26.065  26.849  1.00  0.00     0.074 A 
ATOM     38  C   UNL A   1      46.792  25.805  26.285  1.00  0.00     0.049 A 
ATOM     39  N   UNL A   1      44.382  27.297  27.287  1.00  0.00    -0.248 NA
ATOM     40  C   UNL A   1      43.103  25.380  26.900  1.00  0.00     0.031 C 
ATOM     41  C   UNL A   1      48.002  25.122  25.827  1.00  0.00     0.029 A 
ATOM     42  N   UNL A   1      47.225  27.057  26.645  1.00  0.00    -0.354 N 
ATOM     43  C   UNL A   1      43.066  27.540  27.662  1.00  0.00     0.074 A 
ATOM     44  C   UNL A   1      42.316  26.335  27.375  1.00  0.00     0.031 C 
ATOM     45  C   UNL A   1      49.041  25.968  25.926  1.00  0.00     0.029 A 
ATOM     46  C   UNL A   1      48.564  27.259  26.417  1.00  0.00     0.049 A 
ATOM     47  H   UNL A   1      46.633  27.743  27.028  1.00  0.00     0.167 HD
ATOM     48  C   UNL A   1      42.532  28.663  28.198  1.00  0.00     0.031 A 
ATOM     49  C   UNL A   1      49.314  28.368  26.563  1.00  0.00     0.031 A 
ATOM     50  C   UNL A   1      43.272  29.868  28.462  1.00  0.00     0.049 A 
ATOM     51  C   UNL A   1      48.675  29.636  27.061  1.00  0.00     0.074 A 
ATOM     52  C   UNL A   1      42.823  31.048  29.031  1.00  0.00     0.029 A 
ATOM     53  N   UNL A   1      44.612  30.054  28.159  1.00  0.00    -0.354 N 
ATOM     54  N   UNL A   1      47.439  29.842  27.446  1.00  0.00    -0.248 NA
ATOM     55  C   UNL A   1      49.536  30.824  27.139  1.00  0.00     0.031 C 
ATOM     56  C   UNL A   1      43.878  31.969  29.015  1.00  0.00     0.029 A 
ATOM     57  C   UNL A   1      44.996  31.344  28.488  1.00  0.00     0.049 A 
ATOM     58  H   UNL A   1      45.201  29.370  27.768  1.00  0.00     0.167 HD
ATOM     59  C   UNL A   1      47.377  31.176  27.825  1.00  0.00     0.074 A 
ATOM     60  C   UNL A   1      48.705  31.726  27.643  1.00  0.00     0.031 C 
ATOM     61  C   UNL A   1      46.315  31.883  28.283  1.00  0.00     0.031 A 
BRANCH  48  62
ATOM     62  C   UNL A   1      41.061  28.649  28.499  1.00  0.00    -0.014 A 
ATOM     63  C   UNL A   1      40.573  28.210  29.741  1.00  0.00     0.009 A 
ATOM     64  C   UNL A   1      40.149  29.111  27.537  1.00  0.00     0.009 A 
ATOM     65  C   UNL A   1      39.200  28.201  29.997  1.00  0.00     0.001 A 
ATOM     66  C   UNL A   1      38.780  29.125  27.805  1.00  0.00     0.001 A 
ATOM     67  C   UNL A   1      38.306  28.661  29.031  1.00  0.00     0.000 A 
ENDBRANCH  48  62
BRANCH  49  68
ATOM     68  C   UNL A   1      50.754  28.341  26.198  1.00  0.00    -0.014 A 
ATOM     69  C   UNL A   1      51.162  28.580  24.879  1.00  0.00     0.009 A 
ATOM     70  C   UNL A   1      51.728  28.070  27.172  1.00  0.00     0.009 A 
ATOM     71  C   UNL A   1      52.517  28.532  24.537  1.00  0.00     0.001 A 
ATOM     72  C   UNL A   1      53.083  28.047  26.834  1.00  0.00     0.001 A 
ATOM     73  C   UNL A   1      53.475  28.271  25.516  1.00  0.00     0.000 A 
ENDBRANCH  49  68
BRANCH  61  74
ATOM     74  C   UNL A   1      46.546  33.328  28.626  1.00  0.00    -0.014 A 
ATOM     75  C   UNL A   1      46.932  33.713  29.918  1.00  0.00     0.009 A 
ATOM     76  C   UNL A   1      46.418  34.312  27.633  1.00  0.00     0.009 A 
ATOM     77  C   UNL A   1      47.161  35.058  30.216  1.00  0.00     0.001 A 
ATOM     78  C   UNL A   1      46.673  35.652  27.926  1.00  0.00     0.001 A 
ATOM     79  C   UNL A   1      47.037  36.025  29.219  1.00  0.00     0.000 A 
ENDBRANCH  61  74
ENDBRANCH  35  36
ENDBRANCH  28  30
ENDBRANCH  27  28
ENDBRANCH  26  27
ENDBRANCH  25  26
ENDBRANCH  24  25
ENDBRANCH   1  24
TORSDOF 18
ENDMDL
MODEL 3
REMARK VINA RESULT:     -10.3      4.451      8.924
REMARK SMILES CCc1cc(/C=C/C(=O)OCCOCCOC(=O)c2ccc(-c3c4nc(c(-c5ccccc5)c5ccc([nH]5)c(-c5ccccc5)c5nc(c(-c6ccccc6)c6ccc3[nH]6)C=C5)C=C4)cc2)cc(C(=O)c2ccccc2)c1
REMARK SMILES IDX 12 1 11 2 10 3 8 4 9 5 7 6 6 7 5 8 3 9 4 10 77 11 68 12
REMARK SMILES IDX 67 13 2 14 1 15 69 16 70 17 71 18 72 19 76 20 73 21 75 22
REMARK SMILES IDX 74 23 13 24 14 25 15 26 16 27 17 28 18 29 19 30 20 31 66 32
REMARK SMILES IDX 21 33 65 34 22 35 23 36 24 37 59 38 25 39 64 40 58 41 60 42
REMARK SMILES IDX 26 43 63 44 57 45 56 46 27 48 49 49 34 50 48 51 35 52 38 53
REMARK SMILES IDX 47 54 61 55 36 56 37 57 46 59 62 60 39 61 28 62 29 63 33 64
REMARK SMILES IDX 30 65 32 66 31 67 50 68 51 69 55 70 52 71 54 72 53 73 40 74
REMARK SMILES IDX 41 75 45 76 42 77 44 78 43 79
REMARK H PARENT 60 47 38 58
REMARK Flexibility Score: inf
ROOT
ATOM      1  C   UNL A   1      34.583  33.405  29.336  1.00  0.00     0.202 C 
ENDROOT
BRANCH   1   2
ATOM      2  C   UNL A   1      34.837  32.800  27.954  1.00  0.00     0.261 C 
BRANCH   2   3
ATOM      3  O   UNL A   1      33.921  31.724  27.690  1.00  0.00    -0.460 OA
BRANCH   3   4
ATOM      4  C   UNL A   1      34.476  30.491  27.663  1.00  0.00     0.330 C 
ATOM      5  O   UNL A   1      35.464  30.121  28.282  1.00  0.00    -0.247 OA
BRANCH   4   6
ATOM      6  C   UNL A   1      33.687  29.537  26.859  1.00  0.00     0.094 C 
ATOM      7  C   UNL A   1      32.461  29.063  27.138  1.00  0.00     0.015 C 
BRANCH   7   8
ATOM      8  C   UNL A   1      31.799  28.050  26.292  1.00  0.00    -0.024 A 
ATOM      9  C   UNL A   1      30.511  27.457  24.299  1.00  0.00    -0.047 A 
ATOM     10  C   UNL A   1      31.172  28.407  25.088  1.00  0.00     0.011 A 
ATOM     11  C   UNL A   1      30.504  26.120  24.707  1.00  0.00     0.016 A 
ATOM     12  C   UNL A   1      31.182  25.726  25.868  1.00  0.00     0.023 A 
ATOM     13  C   UNL A   1      31.822  26.697  26.659  1.00  0.00     0.020 A 
BRANCH   9  14
ATOM     14  C   UNL A   1      29.837  27.874  23.016  1.00  0.00     0.032 C 
ATOM     15  C   UNL A   1      29.366  29.319  23.074  1.00  0.00     0.009 C 
ENDBRANCH   9  14
BRANCH  12  16
ATOM     16  C   UNL A   1      31.201  24.303  26.326  1.00  0.00     0.193 C 
ATOM     17  O   UNL A   1      30.444  23.935  27.221  1.00  0.00    -0.289 OA
BRANCH  16  18
ATOM     18  C   UNL A   1      32.086  23.294  25.695  1.00  0.00     0.022 A 
ATOM     19  C   UNL A   1      31.527  22.075  25.300  1.00  0.00     0.012 A 
ATOM     20  C   UNL A   1      33.450  23.538  25.498  1.00  0.00     0.012 A 
ATOM     21  C   UNL A   1      32.320  21.121  24.661  1.00  0.00     0.001 A 
ATOM     22  C   UNL A   1      34.239  22.582  24.853  1.00  0.00     0.001 A 
ATOM     23  C   UNL A   1      33.672  21.379  24.429  1.00  0.00     0.000 A 
ENDBRANCH  16  18
ENDBRANCH  12  16
ENDBRANCH   7   8
ENDBRANCH   4   6
ENDBRANCH   3   4
ENDBRANCH   2   3
ENDBRANCH   1   2
BRANCH   1  24
ATOM     24  O   UNL A   1      33.299  34.004  29.511  1.00  0.00    -0.374 OA
BRANCH  24  25
ATOM     25  C   UNL A   1      33.178  35.377  29.128  1.00  0.00     0.202 C 
BRANCH  25  26
ATOM     26  C   UNL A   1      32.752  36.336  30.247  1.00  0.00     0.261 C 
BRANCH  26  27
ATOM     27  O   UNL A   1      32.283  35.621  31.406  1.00  0.00    -0.460 OA
BRANCH  27  28
ATOM     28  C   UNL A   1      32.919  35.910  32.565  1.00  0.00     0.338 C 
ATOM     29  O   UNL A   1      32.515  36.615  33.480  1.00  0.00    -0.246 OA
BRANCH  28  30
ATOM     30  C   UNL A   1      34.138  35.088  32.675  1.00  0.00     0.060 A 
ATOM     31  C   UNL A   1      33.998  33.779  33.154  1.00  0.00     0.016 A 
ATOM     32  C   UNL A   1      35.398  35.592  32.347  1.00  0.00     0.016 A 
ATOM     33  C   UNL A   1      35.124  32.974  33.328  1.00  0.00     0.010 A 
ATOM     34  C   UNL A   1      36.527  34.787  32.532  1.00  0.00     0.010 A 
ATOM     35  C   UNL A   1      36.398  33.482  33.041  1.00  0.00    -0.014 A 
BRANCH  35  36
ATOM     36  C   UNL A   1      37.603  32.677  33.346  1.00  0.00     0.031 A 
ATOM     37  C   UNL A   1      38.357  32.923  34.622  1.00  0.00     0.074 A 
ATOM     38  C   UNL A   1      38.021  31.726  32.491  1.00  0.00     0.049 A 
ATOM     39  N   UNL A   1      39.455  32.360  35.056  1.00  0.00    -0.248 NA
ATOM     40  C   UNL A   1      37.797  33.938  35.528  1.00  0.00     0.031 C 
ATOM     41  C   UNL A   1      37.355  31.361  31.241  1.00  0.00     0.029 A 
ATOM     42  N   UNL A   1      39.115  30.899  32.545  1.00  0.00    -0.354 N 
ATOM     43  C   UNL A   1      39.723  32.954  36.284  1.00  0.00     0.074 A 
ATOM     44  C   UNL A   1      38.686  33.937  36.512  1.00  0.00     0.031 C 
ATOM     45  C   UNL A   1      38.061  30.388  30.641  1.00  0.00     0.029 A 
ATOM     46  C   UNL A   1      39.244  30.089  31.444  1.00  0.00     0.049 A 
ATOM     47  H   UNL A   1      39.747  30.889  33.300  1.00  0.00     0.167 HD
ATOM     48  C   UNL A   1      40.738  32.700  37.143  1.00  0.00     0.031 A 
ATOM     49  C   UNL A   1      40.220  29.224  31.109  1.00  0.00     0.031 A 
ATOM     50  C   UNL A   1      41.782  31.738  36.906  1.00  0.00     0.049 A 
ATOM     51  C   UNL A   1      41.394  29.036  32.032  1.00  0.00     0.074 A 
ATOM     52  C   UNL A   1      42.838  31.391  37.732  1.00  0.00     0.029 A 
ATOM     53  N   UNL A   1      41.911  30.983  35.751  1.00  0.00    -0.354 N 
ATOM     54  N   UNL A   1      41.616  29.575  33.206  1.00  0.00    -0.248 NA
ATOM     55  C   UNL A   1      42.452  28.123  31.579  1.00  0.00     0.031 C 
ATOM     56  C   UNL A   1      43.641  30.469  37.049  1.00  0.00     0.029 A 
ATOM     57  C   UNL A   1      43.054  30.203  35.823  1.00  0.00     0.049 A 
ATOM     58  H   UNL A   1      41.285  31.000  34.993  1.00  0.00     0.167 HD
ATOM     59  C   UNL A   1      42.830  29.058  33.637  1.00  0.00     0.074 A 
ATOM     60  C   UNL A   1      43.288  28.146  32.608  1.00  0.00     0.031 C 
ATOM     61  C   UNL A   1      43.506  29.315  34.784  1.00  0.00     0.031 A 
BRANCH  48  62
ATOM     62  C   UNL A   1      40.787  33.508  38.408  1.00  0.00    -0.014 A 
ATOM     63  C   UNL A   1      40.150  33.071  39.580  1.00  0.00     0.009 A 
ATOM     64  C   UNL A   1      41.508  34.713  38.436  1.00  0.00     0.009 A 
ATOM     65  C   UNL A   1      40.204  33.841  40.743  1.00  0.00     0.001 A 
ATOM     66  C   UNL A   1      41.582  35.468  39.607  1.00  0.00     0.001 A 
ATOM     67  C   UNL A   1      40.923  35.037  40.757  1.00  0.00     0.000 A 
ENDBRANCH  48  62
BRANCH  49  68
ATOM     68  C   UNL A   1      40.149  28.489  29.820  1.00  0.00    -0.014 A 
ATOM     69  C   UNL A   1      39.509  27.244  29.741  1.00  0.00     0.009 A 
ATOM     70  C   UNL A   1      40.727  29.031  28.661  1.00  0.00     0.009 A 
ATOM     71  C   UNL A   1      39.465  26.548  28.530  1.00  0.00     0.001 A 
ATOM     72  C   UNL A   1      40.659  28.346  27.447  1.00  0.00     0.001 A 
ATOM     73  C   UNL A   1      40.035  27.102  27.384  1.00  0.00     0.000 A 
ENDBRANCH  49  68
BRANCH  61  74
ATOM     74  C   UNL A   1      44.810  28.596  34.990  1.00  0.00    -0.014 A 
ATOM     75  C   UNL A   1      46.024  29.166  34.578  1.00  0.00     0.009 A 
ATOM     76  C   UNL A   1      44.828  27.352  35.640  1.00  0.00     0.009 A 
ATOM     77  C   UNL A   1      47.229  28.493  34.792  1.00  0.00     0.001 A 
ATOM     78  C   UNL A   1      46.036  26.694  35.876  1.00  0.00     0.001 A 
ATOM     79  C   UNL A   1      47.235  27.260  35.445  1.00  0.00     0.000 A 
ENDBRANCH  61  74
ENDBRANCH  35  36
ENDBRANCH  28  30
ENDBRANCH  27  28
ENDBRANCH  26  27
ENDBRANCH  25  26
ENDBRANCH  24  25
ENDBRANCH   1  24
TORSDOF 18
ENDMDL
