MODEL 1
REMARK VINA RESULT:      -8.7      0.000      0.000
REMARK SMILES CCC[N@H+](CC1CC[NH2+]CC1)[C@@H](CC)C(=O)OCCOCCOC(=O)c1ccc(-c2c3nc(c(-c4ccccc4)c4ccc([nH]4)c(-c4ccccc4)c4nc(c(-c5ccccc5)c5ccc2[nH]5)C=C4)C=C3)cc1
REMARK SMILES IDX 19 1 18 2 17 3 15 4 16 5 12 6 4 7 3 9 2 10 1 11 5 12 6 13
REMARK SMILES IDX 7 14 11 15 8 16 10 17 9 18 13 21 14 22 20 23 21 24 22 25
REMARK SMILES IDX 23 26 24 27 25 28 26 29 27 30 73 31 28 32 72 33 29 34 30 35
REMARK SMILES IDX 31 36 66 37 32 38 71 39 65 40 67 41 33 42 70 43 64 44 63 45
REMARK SMILES IDX 34 47 56 48 41 49 55 50 42 51 45 52 54 53 68 54 43 55 44 56
REMARK SMILES IDX 53 58 69 59 46 60 35 61 36 62 40 63 37 64 39 65 38 66 57 67
REMARK SMILES IDX 58 68 62 69 59 70 61 71 60 72 47 73 48 74 52 75 49 76 51 77
REMARK SMILES IDX 50 78
REMARK H PARENT 4 8 9 19 9 20 67 46 45 57
REMARK Flexibility Score: inf
ROOT
ATOM      1  C   UNL A   1      33.273  29.990  26.494  1.00  0.00     0.202 C 
ENDROOT
BRANCH   1   2
ATOM      2  C   UNL A   1      32.853  29.357  25.172  1.00  0.00     0.261 C 
BRANCH   2   3
ATOM      3  O   UNL A   1      33.033  27.930  25.221  1.00  0.00    -0.459 OA
BRANCH   3   4
ATOM      4  C   UNL A   1      32.122  27.176  24.576  1.00  0.00     0.364 C 
ATOM      5  O   UNL A   1      30.907  27.362  24.642  1.00  0.00    -0.245 OA
BRANCH   4   6
ATOM      6  C   UNL A   1      32.691  25.932  23.913  1.00  0.00     0.294 C 
BRANCH   6   7
ATOM      7  N   UNL A   1      32.844  24.600  24.617  1.00  0.00    -0.323 N 
ATOM      8  H   UNL A   1      32.132  23.989  24.219  1.00  0.00     0.348 HD
BRANCH   7   9
ATOM      9  C   UNL A   1      32.582  24.570  26.072  1.00  0.00     0.262 C 
BRANCH   9  10
ATOM     10  C   UNL A   1      31.868  23.389  26.770  1.00  0.00     0.058 C 
ATOM     11  C   UNL A   1      30.654  22.719  26.157  1.00  0.00     0.010 C 
ENDBRANCH   9  10
ENDBRANCH   7   9
BRANCH   7  12
ATOM     12  C   UNL A   1      34.276  24.168  24.395  1.00  0.00     0.266 C 
BRANCH  12  13
ATOM     13  C   UNL A   1      34.609  22.796  23.743  1.00  0.00     0.055 C 
ATOM     14  C   UNL A   1      33.531  21.703  23.844  1.00  0.00     0.071 C 
ATOM     15  C   UNL A   1      35.982  22.225  24.073  1.00  0.00     0.071 C 
ATOM     16  C   UNL A   1      33.717  20.612  24.902  1.00  0.00     0.261 C 
ATOM     17  C   UNL A   1      35.967  21.465  25.384  1.00  0.00     0.261 C 
ATOM     18  N   UNL A   1      35.073  20.316  25.348  1.00  0.00    -0.346 N 
ATOM     19  H   UNL A   1      35.470  19.624  24.714  1.00  0.00     0.346 HD
ATOM     20  H   UNL A   1      34.993  19.984  26.309  1.00  0.00     0.346 HD
ENDBRANCH  12  13
ENDBRANCH   7  12
ENDBRANCH   6   7
BRANCH   6  21
ATOM     21  C   UNL A   1      31.771  25.746  22.688  1.00  0.00     0.074 C 
ATOM     22  C   UNL A   1      32.563  25.559  21.394  1.00  0.00     0.011 C 
ENDBRANCH   6  21
ENDBRANCH   4   6
ENDBRANCH   3   4
ENDBRANCH   2   3
ENDBRANCH   1   2
BRANCH   1  23
ATOM     23  O   UNL A   1      32.212  30.637  27.199  1.00  0.00    -0.374 OA
BRANCH  23  24
ATOM     24  C   UNL A   1      31.487  31.624  26.468  1.00  0.00     0.202 C 
BRANCH  24  25
ATOM     25  C   UNL A   1      31.746  33.053  26.938  1.00  0.00     0.261 C 
BRANCH  25  26
ATOM     26  O   UNL A   1      33.112  33.191  27.380  1.00  0.00    -0.460 OA
BRANCH  26  27
ATOM     27  C   UNL A   1      33.307  34.088  28.379  1.00  0.00     0.338 C 
ATOM     28  O   UNL A   1      32.554  34.967  28.730  1.00  0.00    -0.246 OA
BRANCH  27  29
ATOM     29  C   UNL A   1      34.538  33.730  29.130  1.00  0.00     0.060 A 
ATOM     30  C   UNL A   1      35.759  34.213  28.637  1.00  0.00     0.016 A 
ATOM     31  C   UNL A   1      34.513  32.933  30.277  1.00  0.00     0.016 A 
ATOM     32  C   UNL A   1      36.958  33.849  29.250  1.00  0.00     0.010 A 
ATOM     33  C   UNL A   1      35.718  32.573  30.893  1.00  0.00     0.010 A 
ATOM     34  C   UNL A   1      36.949  32.994  30.359  1.00  0.00    -0.014 A 
BRANCH  34  35
ATOM     35  C   UNL A   1      38.219  32.410  30.858  1.00  0.00     0.031 A 
ATOM     36  C   UNL A   1      38.729  31.140  30.230  1.00  0.00     0.074 A 
ATOM     37  C   UNL A   1      38.928  32.999  31.838  1.00  0.00     0.049 A 
ATOM     38  N   UNL A   1      39.782  30.425  30.537  1.00  0.00    -0.248 NA
ATOM     39  C   UNL A   1      37.946  30.602  29.104  1.00  0.00     0.031 C 
ATOM     40  C   UNL A   1      38.582  34.254  32.499  1.00  0.00     0.029 A 
ATOM     41  N   UNL A   1      40.093  32.604  32.450  1.00  0.00    -0.354 N 
ATOM     42  C   UNL A   1      39.780  29.351  29.656  1.00  0.00     0.074 A 
ATOM     43  C   UNL A   1      38.605  29.490  28.822  1.00  0.00     0.031 C 
ATOM     44  C   UNL A   1      39.511  34.524  33.434  1.00  0.00     0.029 A 
ATOM     45  C   UNL A   1      40.493  33.440  33.464  1.00  0.00     0.049 A 
ATOM     46  H   UNL A   1      40.593  31.798  32.189  1.00  0.00     0.167 HD
ATOM     47  C   UNL A   1      40.675  28.342  29.544  1.00  0.00     0.031 A 
ATOM     48  C   UNL A   1      41.516  33.332  34.336  1.00  0.00     0.031 A 
ATOM     49  C   UNL A   1      41.841  28.194  30.372  1.00  0.00     0.049 A 
ATOM     50  C   UNL A   1      42.441  32.145  34.256  1.00  0.00     0.074 A 
ATOM     51  C   UNL A   1      42.821  27.218  30.310  1.00  0.00     0.029 A 
ATOM     52  N   UNL A   1      42.178  29.034  31.420  1.00  0.00    -0.354 N 
ATOM     53  N   UNL A   1      42.450  31.158  33.394  1.00  0.00    -0.248 NA
ATOM     54  C   UNL A   1      43.499  32.059  35.275  1.00  0.00     0.031 C 
ATOM     55  C   UNL A   1      43.712  27.426  31.367  1.00  0.00     0.029 A 
ATOM     56  C   UNL A   1      43.325  28.571  32.044  1.00  0.00     0.049 A 
ATOM     57  H   UNL A   1      41.677  29.839  31.683  1.00  0.00     0.167 HD
ATOM     58  C   UNL A   1      43.524  30.350  33.752  1.00  0.00     0.074 A 
ATOM     59  C   UNL A   1      44.155  30.971  34.896  1.00  0.00     0.031 C 
ATOM     60  C   UNL A   1      43.945  29.192  33.185  1.00  0.00     0.031 A 
BRANCH  47  61
ATOM     61  C   UNL A   1      40.407  27.287  28.506  1.00  0.00    -0.014 A 
ATOM     62  C   UNL A   1      40.954  27.370  27.217  1.00  0.00     0.009 A 
ATOM     63  C   UNL A   1      39.631  26.167  28.845  1.00  0.00     0.009 A 
ATOM     64  C   UNL A   1      40.704  26.368  26.278  1.00  0.00     0.001 A 
ATOM     65  C   UNL A   1      39.408  25.151  27.915  1.00  0.00     0.001 A 
ATOM     66  C   UNL A   1      39.937  25.257  26.629  1.00  0.00     0.000 A 
ENDBRANCH  47  61
BRANCH  48  67
ATOM     67  C   UNL A   1      41.701  34.356  35.399  1.00  0.00    -0.014 A 
ATOM     68  C   UNL A   1      41.034  34.246  36.629  1.00  0.00     0.009 A 
ATOM     69  C   UNL A   1      42.518  35.475  35.172  1.00  0.00     0.009 A 
ATOM     70  C   UNL A   1      41.162  35.245  37.597  1.00  0.00     0.001 A 
ATOM     71  C   UNL A   1      42.672  36.456  36.153  1.00  0.00     0.001 A 
ATOM     72  C   UNL A   1      41.985  36.347  37.360  1.00  0.00     0.000 A 
ENDBRANCH  48  67
BRANCH  60  73
ATOM     73  C   UNL A   1      45.159  28.526  33.774  1.00  0.00    -0.014 A 
ATOM     74  C   UNL A   1      46.454  28.874  33.358  1.00  0.00     0.009 A 
ATOM     75  C   UNL A   1      45.007  27.585  34.806  1.00  0.00     0.009 A 
ATOM     76  C   UNL A   1      47.570  28.274  33.946  1.00  0.00     0.001 A 
ATOM     77  C   UNL A   1      46.126  27.010  35.413  1.00  0.00     0.001 A 
ATOM     78  C   UNL A   1      47.405  27.349  34.977  1.00  0.00     0.000 A 
ENDBRANCH  60  73
ENDBRANCH  34  35
ENDBRANCH  27  29
ENDBRANCH  26  27
ENDBRANCH  25  26
ENDBRANCH  24  25
ENDBRANCH  23  24
ENDBRANCH   1  23
TORSDOF 20
ENDMDL
MODEL 2
REMARK VINA RESULT:      -8.6      1.433      2.283
REMARK SMILES CCC[N@H+](CC1CC[NH2+]CC1)[C@@H](CC)C(=O)OCCOCCOC(=O)c1ccc(-c2c3nc(c(-c4ccccc4)c4ccc([nH]4)c(-c4ccccc4)c4nc(c(-c5ccccc5)c5ccc2[nH]5)C=C4)C=C3)cc1
REMARK SMILES IDX 19 1 18 2 17 3 15 4 16 5 12 6 4 7 3 9 2 10 1 11 5 12 6 13
REMARK SMILES IDX 7 14 11 15 8 16 10 17 9 18 13 21 14 22 20 23 21 24 22 25
REMARK SMILES IDX 23 26 24 27 25 28 26 29 27 30 73 31 28 32 72 33 29 34 30 35
REMARK SMILES IDX 31 36 66 37 32 38 71 39 65 40 67 41 33 42 70 43 64 44 63 45
REMARK SMILES IDX 34 47 56 48 41 49 55 50 42 51 45 52 54 53 68 54 43 55 44 56
REMARK SMILES IDX 53 58 69 59 46 60 35 61 36 62 40 63 37 64 39 65 38 66 57 67
REMARK SMILES IDX 58 68 62 69 59 70 61 71 60 72 47 73 48 74 52 75 49 76 51 77
REMARK SMILES IDX 50 78
REMARK H PARENT 4 8 9 19 9 20 67 46 45 57
REMARK Flexibility Score: inf
ROOT
ATOM      1  C   UNL A   1      33.322  29.386  26.733  1.00  0.00     0.202 C 
ENDROOT
BRANCH   1   2
ATOM      2  C   UNL A   1      33.153  28.527  25.485  1.00  0.00     0.261 C 
BRANCH   2   3
ATOM      3  O   UNL A   1      34.051  27.403  25.525  1.00  0.00    -0.459 OA
BRANCH   3   4
ATOM      4  C   UNL A   1      33.502  26.178  25.414  1.00  0.00     0.364 C 
ATOM      5  O   UNL A   1      32.574  25.776  26.116  1.00  0.00    -0.245 OA
BRANCH   4   6
ATOM      6  C   UNL A   1      34.253  25.235  24.489  1.00  0.00     0.294 C 
BRANCH   6   7
ATOM      7  N   UNL A   1      34.834  23.908  24.932  1.00  0.00    -0.323 N 
ATOM      8  H   UNL A   1      34.734  23.882  25.945  1.00  0.00     0.348 HD
BRANCH   7   9
ATOM      9  C   UNL A   1      36.278  23.691  24.700  1.00  0.00     0.262 C 
BRANCH   9  10
ATOM     10  C   UNL A   1      36.832  22.435  23.987  1.00  0.00     0.058 C 
ATOM     11  C   UNL A   1      37.484  21.304  24.758  1.00  0.00     0.010 C 
ENDBRANCH   9  10
ENDBRANCH   7   9
BRANCH   7  12
ATOM     12  C   UNL A   1      34.077  22.842  24.173  1.00  0.00     0.266 C 
BRANCH  12  13
ATOM     13  C   UNL A   1      33.215  21.784  24.918  1.00  0.00     0.055 C 
ATOM     14  C   UNL A   1      31.689  21.949  24.828  1.00  0.00     0.071 C 
ATOM     15  C   UNL A   1      33.637  21.479  26.349  1.00  0.00     0.071 C 
ATOM     16  C   UNL A   1      30.964  22.563  26.029  1.00  0.00     0.261 C 
ATOM     17  C   UNL A   1      33.045  22.475  27.326  1.00  0.00     0.261 C 
ATOM     18  N   UNL A   1      31.590  22.440  27.340  1.00  0.00    -0.346 N 
ATOM     19  H   UNL A   1      31.297  21.553  27.749  1.00  0.00     0.346 HD
ATOM     20  H   UNL A   1      31.288  23.252  27.880  1.00  0.00     0.346 HD
ENDBRANCH  12  13
ENDBRANCH   7  12
ENDBRANCH   6   7
BRANCH   6  21
ATOM     21  C   UNL A   1      33.233  24.980  23.359  1.00  0.00     0.074 C 
ATOM     22  C   UNL A   1      33.490  25.864  22.139  1.00  0.00     0.011 C 
ENDBRANCH   6  21
ENDBRANCH   4   6
ENDBRANCH   3   4
ENDBRANCH   2   3
ENDBRANCH   1   2
BRANCH   1  23
ATOM     23  O   UNL A   1      32.137  30.076  27.136  1.00  0.00    -0.374 OA
BRANCH  23  24
ATOM     24  C   UNL A   1      31.680  31.099  26.254  1.00  0.00     0.202 C 
BRANCH  24  25
ATOM     25  C   UNL A   1      31.457  32.447  26.935  1.00  0.00     0.261 C 
BRANCH  25  26
ATOM     26  O   UNL A   1      32.624  33.279  26.784  1.00  0.00    -0.460 OA
BRANCH  26  27
ATOM     27  C   UNL A   1      33.047  33.890  27.919  1.00  0.00     0.338 C 
ATOM     28  O   UNL A   1      32.451  34.716  28.571  1.00  0.00    -0.246 OA
BRANCH  27  29
ATOM     29  C   UNL A   1      34.315  33.263  28.374  1.00  0.00     0.060 A 
ATOM     30  C   UNL A   1      34.227  32.023  29.022  1.00  0.00     0.016 A 
ATOM     31  C   UNL A   1      35.561  33.868  28.189  1.00  0.00     0.016 A 
ATOM     32  C   UNL A   1      35.372  31.418  29.542  1.00  0.00     0.010 A 
ATOM     33  C   UNL A   1      36.709  33.257  28.707  1.00  0.00     0.010 A 
ATOM     34  C   UNL A   1      36.615  32.050  29.424  1.00  0.00    -0.014 A 
BRANCH  34  35
ATOM     35  C   UNL A   1      37.785  31.540  30.183  1.00  0.00     0.031 A 
ATOM     36  C   UNL A   1      38.652  30.482  29.553  1.00  0.00     0.074 A 
ATOM     37  C   UNL A   1      38.094  32.015  31.403  1.00  0.00     0.049 A 
ATOM     38  N   UNL A   1      39.689  29.855  30.048  1.00  0.00    -0.248 NA
ATOM     39  C   UNL A   1      38.302  30.076  28.181  1.00  0.00     0.031 C 
ATOM     40  C   UNL A   1      37.376  33.072  32.110  1.00  0.00     0.029 A 
ATOM     41  N   UNL A   1      39.102  31.655  32.266  1.00  0.00    -0.354 N 
ATOM     42  C   UNL A   1      40.106  28.974  29.057  1.00  0.00     0.074 A 
ATOM     43  C   UNL A   1      39.193  29.125  27.945  1.00  0.00     0.031 C 
ATOM     44  C   UNL A   1      37.960  33.271  33.305  1.00  0.00     0.029 A 
ATOM     45  C   UNL A   1      39.067  32.327  33.463  1.00  0.00     0.049 A 
ATOM     46  H   UNL A   1      39.783  30.980  32.048  1.00  0.00     0.167 HD
ATOM     47  C   UNL A   1      41.156  28.120  29.067  1.00  0.00     0.031 A 
ATOM     48  C   UNL A   1      39.821  32.181  34.571  1.00  0.00     0.031 A 
ATOM     49  C   UNL A   1      42.065  27.961  30.169  1.00  0.00     0.049 A 
ATOM     50  C   UNL A   1      40.922  31.151  34.594  1.00  0.00     0.074 A 
ATOM     51  C   UNL A   1      43.176  27.140  30.255  1.00  0.00     0.029 A 
ATOM     52  N   UNL A   1      41.961  28.622  31.381  1.00  0.00    -0.354 N 
ATOM     53  N   UNL A   1      41.329  30.353  33.637  1.00  0.00    -0.248 NA
ATOM     54  C   UNL A   1      41.666  31.003  35.854  1.00  0.00     0.031 C 
ATOM     55  C   UNL A   1      43.702  27.251  31.545  1.00  0.00     0.029 A 
ATOM     56  C   UNL A   1      42.960  28.193  32.239  1.00  0.00     0.049 A 
ATOM     57  H   UNL A   1      41.278  29.297  31.601  1.00  0.00     0.167 HD
ATOM     58  C   UNL A   1      42.388  29.628  34.172  1.00  0.00     0.074 A 
ATOM     59  C   UNL A   1      42.575  30.093  35.529  1.00  0.00     0.031 C 
ATOM     60  C   UNL A   1      43.136  28.658  33.590  1.00  0.00     0.031 A 
BRANCH  47  61
ATOM     61  C   UNL A   1      41.360  27.256  27.853  1.00  0.00    -0.014 A 
ATOM     62  C   UNL A   1      40.762  25.992  27.743  1.00  0.00     0.009 A 
ATOM     63  C   UNL A   1      42.126  27.741  26.781  1.00  0.00     0.009 A 
ATOM     64  C   UNL A   1      40.953  25.217  26.597  1.00  0.00     0.001 A 
ATOM     65  C   UNL A   1      42.290  26.979  25.624  1.00  0.00     0.001 A 
ATOM     66  C   UNL A   1      41.712  25.714  25.537  1.00  0.00     0.000 A 
ENDBRANCH  47  61
BRANCH  48  67
ATOM     67  C   UNL A   1      39.538  33.001  35.780  1.00  0.00    -0.014 A 
ATOM     68  C   UNL A   1      38.614  32.568  36.743  1.00  0.00     0.009 A 
ATOM     69  C   UNL A   1      40.164  34.245  35.956  1.00  0.00     0.009 A 
ATOM     70  C   UNL A   1      38.305  33.374  37.842  1.00  0.00     0.001 A 
ATOM     71  C   UNL A   1      39.879  35.035  37.072  1.00  0.00     0.001 A 
ATOM     72  C   UNL A   1      38.942  34.604  38.008  1.00  0.00     0.000 A 
ENDBRANCH  48  67
BRANCH  60  73
ATOM     73  C   UNL A   1      44.243  28.044  34.405  1.00  0.00    -0.014 A 
ATOM     74  C   UNL A   1      45.571  28.474  34.269  1.00  0.00     0.009 A 
ATOM     75  C   UNL A   1      43.940  27.069  35.370  1.00  0.00     0.009 A 
ATOM     76  C   UNL A   1      46.578  27.921  35.064  1.00  0.00     0.001 A 
ATOM     77  C   UNL A   1      44.943  26.540  36.184  1.00  0.00     0.001 A 
ATOM     78  C   UNL A   1      46.262  26.961  36.025  1.00  0.00     0.000 A 
ENDBRANCH  60  73
ENDBRANCH  34  35
ENDBRANCH  27  29
ENDBRANCH  26  27
ENDBRANCH  25  26
ENDBRANCH  24  25
ENDBRANCH  23  24
ENDBRANCH   1  23
TORSDOF 20
ENDMDL
MODEL 3
REMARK VINA RESULT:      -8.5      1.280      6.473
REMARK SMILES CCC[N@H+](CC1CC[NH2+]CC1)[C@@H](CC)C(=O)OCCOCCOC(=O)c1ccc(-c2c3nc(c(-c4ccccc4)c4ccc([nH]4)c(-c4ccccc4)c4nc(c(-c5ccccc5)c5ccc2[nH]5)C=C4)C=C3)cc1
REMARK SMILES IDX 19 1 18 2 17 3 15 4 16 5 12 6 4 7 3 9 2 10 1 11 5 12 6 13
REMARK SMILES IDX 7 14 11 15 8 16 10 17 9 18 13 21 14 22 20 23 21 24 22 25
REMARK SMILES IDX 23 26 24 27 25 28 26 29 27 30 73 31 28 32 72 33 29 34 30 35
REMARK SMILES IDX 31 36 66 37 32 38 71 39 65 40 67 41 33 42 70 43 64 44 63 45
REMARK SMILES IDX 34 47 56 48 41 49 55 50 42 51 45 52 54 53 68 54 43 55 44 56
REMARK SMILES IDX 53 58 69 59 46 60 35 61 36 62 40 63 37 64 39 65 38 66 57 67
REMARK SMILES IDX 58 68 62 69 59 70 61 71 60 72 47 73 48 74 52 75 49 76 51 77
REMARK SMILES IDX 50 78
REMARK H PARENT 4 8 9 19 9 20 67 46 45 57
REMARK Flexibility Score: inf
ROOT
ATOM      1  C   UNL A   1      34.112  29.121  27.155  1.00  0.00     0.202 C 
ENDROOT
BRANCH   1   2
ATOM      2  C   UNL A   1      33.657  28.357  25.916  1.00  0.00     0.261 C 
BRANCH   2   3
ATOM      3  O   UNL A   1      34.058  26.978  26.003  1.00  0.00    -0.459 OA
BRANCH   3   4
ATOM      4  C   UNL A   1      33.082  26.066  26.183  1.00  0.00     0.364 C 
ATOM      5  O   UNL A   1      32.003  26.315  26.718  1.00  0.00    -0.245 OA
BRANCH   4   6
ATOM      6  C   UNL A   1      33.489  24.638  25.862  1.00  0.00     0.294 C 
BRANCH   6   7
ATOM      7  N   UNL A   1      32.614  23.667  25.097  1.00  0.00    -0.323 N 
ATOM      8  H   UNL A   1      31.659  23.852  25.398  1.00  0.00     0.348 HD
BRANCH   7   9
ATOM      9  C   UNL A   1      32.810  22.226  25.364  1.00  0.00     0.262 C 
BRANCH   9  10
ATOM     10  C   UNL A   1      33.660  21.312  24.450  1.00  0.00     0.058 C 
ATOM     11  C   UNL A   1      33.988  19.883  24.835  1.00  0.00     0.010 C 
ENDBRANCH   9  10
ENDBRANCH   7   9
BRANCH   7  12
ATOM     12  C   UNL A   1      32.896  23.909  23.632  1.00  0.00     0.266 C 
BRANCH  12  13
ATOM     13  C   UNL A   1      31.838  24.578  22.709  1.00  0.00     0.055 C 
ATOM     14  C   UNL A   1      32.154  25.999  22.213  1.00  0.00     0.071 C 
ATOM     15  C   UNL A   1      30.395  24.487  23.188  1.00  0.00     0.071 C 
ATOM     16  C   UNL A   1      31.463  27.171  22.914  1.00  0.00     0.261 C 
ATOM     17  C   UNL A   1      30.064  25.593  24.170  1.00  0.00     0.261 C 
ATOM     18  N   UNL A   1      30.189  26.916  23.576  1.00  0.00    -0.346 N 
ATOM     19  H   UNL A   1      29.446  27.026  22.886  1.00  0.00     0.346 HD
ATOM     20  H   UNL A   1      30.126  27.583  24.345  1.00  0.00     0.346 HD
ENDBRANCH  12  13
ENDBRANCH   7  12
ENDBRANCH   6   7
BRANCH   6  21
ATOM     21  C   UNL A   1      34.816  24.824  25.095  1.00  0.00     0.074 C 
ATOM     22  C   UNL A   1      35.966  24.045  25.731  1.00  0.00     0.011 C 
ENDBRANCH   6  21
ENDBRANCH   4   6
ENDBRANCH   3   4
ENDBRANCH   2   3
ENDBRANCH   1   2
BRANCH   1  23
ATOM     23  O   UNL A   1      33.190  30.116  27.603  1.00  0.00    -0.374 OA
BRANCH  23  24
ATOM     24  C   UNL A   1      33.312  31.400  26.991  1.00  0.00     0.202 C 
BRANCH  24  25
ATOM     25  C   UNL A   1      32.452  32.478  27.646  1.00  0.00     0.261 C 
BRANCH  25  26
ATOM     26  O   UNL A   1      33.156  33.736  27.657  1.00  0.00    -0.460 OA
BRANCH  26  27
ATOM     27  C   UNL A   1      33.351  34.277  28.885  1.00  0.00     0.338 C 
ATOM     28  O   UNL A   1      32.571  34.946  29.523  1.00  0.00    -0.246 OA
BRANCH  27  29
ATOM     29  C   UNL A   1      34.634  33.778  29.446  1.00  0.00     0.060 A 
ATOM     30  C   UNL A   1      35.808  34.080  28.742  1.00  0.00     0.016 A 
ATOM     31  C   UNL A   1      34.697  33.022  30.619  1.00  0.00     0.016 A 
ATOM     32  C   UNL A   1      37.036  33.576  29.172  1.00  0.00     0.010 A 
ATOM     33  C   UNL A   1      35.931  32.521  31.052  1.00  0.00     0.010 A 
ATOM     34  C   UNL A   1      37.101  32.760  30.307  1.00  0.00    -0.014 A 
BRANCH  34  35
ATOM     35  C   UNL A   1      38.351  32.024  30.624  1.00  0.00     0.031 A 
ATOM     36  C   UNL A   1      39.323  32.634  31.600  1.00  0.00     0.074 A 
ATOM     37  C   UNL A   1      38.620  30.825  30.080  1.00  0.00     0.049 A 
ATOM     38  N   UNL A   1      40.495  32.200  31.986  1.00  0.00    -0.248 NA
ATOM     39  C   UNL A   1      38.918  33.907  32.222  1.00  0.00     0.031 C 
ATOM     40  C   UNL A   1      37.748  30.093  29.163  1.00  0.00     0.029 A 
ATOM     41  N   UNL A   1      39.719  30.012  30.220  1.00  0.00    -0.354 N 
ATOM     42  C   UNL A   1      40.973  33.148  32.883  1.00  0.00     0.074 A 
ATOM     43  C   UNL A   1      39.979  34.196  32.961  1.00  0.00     0.031 C 
ATOM     44  C   UNL A   1      38.350  28.942  28.815  1.00  0.00     0.029 A 
ATOM     45  C   UNL A   1      39.666  28.875  29.451  1.00  0.00     0.049 A 
ATOM     46  H   UNL A   1      40.474  30.225  30.814  1.00  0.00     0.167 HD
ATOM     47  C   UNL A   1      42.132  33.146  33.583  1.00  0.00     0.031 A 
ATOM     48  C   UNL A   1      40.583  27.905  29.259  1.00  0.00     0.031 A 
ATOM     49  C   UNL A   1      43.127  32.112  33.507  1.00  0.00     0.049 A 
ATOM     50  C   UNL A   1      41.908  27.978  29.973  1.00  0.00     0.074 A 
ATOM     51  C   UNL A   1      44.318  32.013  34.205  1.00  0.00     0.029 A 
ATOM     52  N   UNL A   1      43.056  31.006  32.677  1.00  0.00    -0.354 N 
ATOM     53  N   UNL A   1      42.330  28.860  30.848  1.00  0.00    -0.248 NA
ATOM     54  C   UNL A   1      42.883  26.919  29.672  1.00  0.00     0.031 C 
ATOM     55  C   UNL A   1      45.002  30.885  33.743  1.00  0.00     0.029 A 
ATOM     56  C   UNL A   1      44.205  30.244  32.808  1.00  0.00     0.049 A 
ATOM     57  H   UNL A   1      42.302  30.794  32.080  1.00  0.00     0.167 HD
ATOM     58  C   UNL A   1      43.607  28.449  31.214  1.00  0.00     0.074 A 
ATOM     59  C   UNL A   1      43.883  27.229  30.486  1.00  0.00     0.031 C 
ATOM     60  C   UNL A   1      44.475  29.034  32.077  1.00  0.00     0.031 A 
BRANCH  47  61
ATOM     61  C   UNL A   1      42.407  34.328  34.472  1.00  0.00    -0.014 A 
ATOM     62  C   UNL A   1      42.055  34.323  35.830  1.00  0.00     0.009 A 
ATOM     63  C   UNL A   1      43.075  35.446  33.947  1.00  0.00     0.009 A 
ATOM     64  C   UNL A   1      42.339  35.427  36.637  1.00  0.00     0.001 A 
ATOM     65  C   UNL A   1      43.385  36.535  34.762  1.00  0.00     0.001 A 
ATOM     66  C   UNL A   1      43.008  36.528  36.104  1.00  0.00     0.000 A 
ENDBRANCH  47  61
BRANCH  48  67
ATOM     67  C   UNL A   1      40.303  26.793  28.310  1.00  0.00    -0.014 A 
ATOM     68  C   UNL A   1      40.771  26.840  26.988  1.00  0.00     0.009 A 
ATOM     69  C   UNL A   1      39.530  25.693  28.715  1.00  0.00     0.009 A 
ATOM     70  C   UNL A   1      40.449  25.823  26.086  1.00  0.00     0.001 A 
ATOM     71  C   UNL A   1      39.237  24.661  27.821  1.00  0.00     0.001 A 
ATOM     72  C   UNL A   1      39.687  24.732  26.504  1.00  0.00     0.000 A 
ENDBRANCH  48  67
BRANCH  60  73
ATOM     73  C   UNL A   1      45.800  28.358  32.301  1.00  0.00    -0.014 A 
ATOM     74  C   UNL A   1      45.948  27.348  33.265  1.00  0.00     0.009 A 
ATOM     75  C   UNL A   1      46.899  28.691  31.492  1.00  0.00     0.009 A 
ATOM     76  C   UNL A   1      47.176  26.704  33.430  1.00  0.00     0.001 A 
ATOM     77  C   UNL A   1      48.117  28.023  31.639  1.00  0.00     0.001 A 
ATOM     78  C   UNL A   1      48.256  27.036  32.613  1.00  0.00     0.000 A 
ENDBRANCH  60  73
ENDBRANCH  34  35
ENDBRANCH  27  29
ENDBRANCH  26  27
ENDBRANCH  25  26
ENDBRANCH  24  25
ENDBRANCH  23  24
ENDBRANCH   1  23
TORSDOF 20
ENDMDL
