MODEL 1
REMARK VINA RESULT:     -11.2      0.000      0.000
REMARK SMILES COc1ccc(-c2ccc(CCC(=O)OCCOCCOC(=O)c3ccc(-c4c5nc(c(-c6ccccc6)c6ccc([nH]6)c(-c6ccccc6)c6nc(c(-c7ccccc7)c7ccc4[nH]7)C=C6)C=C5)cc3)n2-c2ccc(C(C)=O)cc2)cc1
REMARK SMILES IDX 17 1 16 2 15 3 13 4 14 5 12 6 11 7 10 8 7 9 8 10 72 11 9 12
REMARK SMILES IDX 6 13 3 14 4 15 83 16 5 17 82 18 2 19 1 20 73 21 74 22 81 23
REMARK SMILES IDX 75 24 80 25 76 26 77 27 78 28 79 29 18 30 19 31 20 32 21 33
REMARK SMILES IDX 22 34 23 35 24 36 25 37 71 38 26 39 70 40 27 41 28 42 29 43
REMARK SMILES IDX 64 44 30 45 69 46 63 47 65 48 31 49 68 50 62 51 61 52 32 54
REMARK SMILES IDX 54 55 39 56 53 57 40 58 43 59 52 60 66 61 41 62 42 63 51 65
REMARK SMILES IDX 67 66 44 67 33 68 34 69 38 70 35 71 37 72 36 73 55 74 56 75
REMARK SMILES IDX 60 76 57 77 59 78 58 79 45 80 46 81 50 82 47 83 49 84 48 85
REMARK H PARENT 65 53 43 64
REMARK Flexibility Score: inf
ROOT
ATOM      1  C   UNL A   1      32.562  30.435  25.903  1.00  0.00     0.202 C 
ENDROOT
BRANCH   1   2
ATOM      2  C   UNL A   1      31.404  29.471  25.625  1.00  0.00     0.261 C 
BRANCH   2   3
ATOM      3  O   UNL A   1      31.799  28.412  24.728  1.00  0.00    -0.463 OA
BRANCH   3   4
ATOM      4  C   UNL A   1      32.486  27.369  25.253  1.00  0.00     0.306 C 
ATOM      5  O   UNL A   1      32.184  26.783  26.285  1.00  0.00    -0.252 OA
BRANCH   4   6
ATOM      6  C   UNL A   1      33.686  26.985  24.409  1.00  0.00     0.129 C 
BRANCH   6   7
ATOM      7  C   UNL A   1      33.422  26.226  23.101  1.00  0.00     0.066 C 
BRANCH   7   8
ATOM      8  C   UNL A   1      32.596  24.975  23.256  1.00  0.00     0.024 A 
ATOM      9  C   UNL A   1      32.114  22.771  23.452  1.00  0.00     0.053 A 
ATOM     10  C   UNL A   1      30.961  23.426  23.065  1.00  0.00     0.029 A 
ATOM     11  N   UNL A   1      33.095  23.740  23.661  1.00  0.00    -0.314 N 
ATOM     12  C   UNL A   1      31.251  24.796  22.997  1.00  0.00     0.024 A 
BRANCH   9  13
ATOM     13  C   UNL A   1      32.257  21.341  23.699  1.00  0.00    -0.001 A 
ATOM     14  C   UNL A   1      32.515  18.587  24.127  1.00  0.00     0.118 A 
ATOM     15  C   UNL A   1      32.531  19.468  25.208  1.00  0.00     0.047 A 
ATOM     16  C   UNL A   1      32.320  19.076  22.835  1.00  0.00     0.047 A 
ATOM     17  C   UNL A   1      32.408  20.842  24.998  1.00  0.00     0.014 A 
ATOM     18  C   UNL A   1      32.191  20.449  22.623  1.00  0.00     0.014 A 
BRANCH  14  19
ATOM     19  O   UNL A   1      32.640  17.260  24.433  1.00  0.00    -0.497 OA
ATOM     20  C   UNL A   1      33.430  17.005  25.593  1.00  0.00     0.278 C 
ENDBRANCH  14  19
ENDBRANCH   9  13
BRANCH  11  21
ATOM     21  C   UNL A   1      34.381  23.516  24.207  1.00  0.00     0.046 A 
ATOM     22  C   UNL A   1      35.411  23.076  23.368  1.00  0.00     0.027 A 
ATOM     23  C   UNL A   1      34.615  23.746  25.561  1.00  0.00     0.027 A 
ATOM     24  C   UNL A   1      36.687  22.852  23.892  1.00  0.00     0.014 A 
ATOM     25  C   UNL A   1      35.886  23.499  26.081  1.00  0.00     0.014 A 
ATOM     26  C   UNL A   1      36.933  23.050  25.256  1.00  0.00     0.017 A 
BRANCH  26  27
ATOM     27  C   UNL A   1      38.261  22.803  25.901  1.00  0.00     0.159 C 
ATOM     28  C   UNL A   1      38.958  21.472  25.775  1.00  0.00     0.093 C 
ATOM     29  O   UNL A   1      38.795  23.712  26.537  1.00  0.00    -0.295 OA
ENDBRANCH  26  27
ENDBRANCH  11  21
ENDBRANCH   7   8
ENDBRANCH   6   7
ENDBRANCH   4   6
ENDBRANCH   3   4
ENDBRANCH   2   3
ENDBRANCH   1   2
BRANCH   1  30
ATOM     30  O   UNL A   1      33.245  30.227  27.142  1.00  0.00    -0.374 OA
BRANCH  30  31
ATOM     31  C   UNL A   1      34.655  30.055  27.082  1.00  0.00     0.202 C 
BRANCH  31  32
ATOM     32  C   UNL A   1      35.350  29.759  28.401  1.00  0.00     0.261 C 
BRANCH  32  33
ATOM     33  O   UNL A   1      36.741  29.518  28.220  1.00  0.00    -0.460 OA
BRANCH  33  34
ATOM     34  C   UNL A   1      37.425  29.369  29.376  1.00  0.00     0.338 C 
ATOM     35  O   UNL A   1      37.012  29.518  30.507  1.00  0.00    -0.246 OA
BRANCH  34  36
ATOM     36  C   UNL A   1      38.851  29.240  29.061  1.00  0.00     0.060 A 
ATOM     37  C   UNL A   1      39.152  29.055  27.712  1.00  0.00     0.016 A 
ATOM     38  C   UNL A   1      39.779  28.972  30.079  1.00  0.00     0.016 A 
ATOM     39  C   UNL A   1      40.323  28.415  27.385  1.00  0.00     0.010 A 
ATOM     40  C   UNL A   1      40.934  28.292  29.759  1.00  0.00     0.010 A 
ATOM     41  C   UNL A   1      41.174  27.989  28.416  1.00  0.00    -0.014 A 
BRANCH  41  42
ATOM     42  C   UNL A   1      42.477  27.466  28.011  1.00  0.00     0.031 A 
ATOM     43  C   UNL A   1      43.388  28.675  27.684  1.00  0.00     0.074 A 
ATOM     44  C   UNL A   1      42.565  26.099  27.901  1.00  0.00     0.049 A 
ATOM     45  N   UNL A   1      44.392  28.738  26.877  1.00  0.00    -0.248 NA
ATOM     46  C   UNL A   1      43.113  30.028  28.271  1.00  0.00     0.031 C 
ATOM     47  C   UNL A   1      41.535  25.127  28.363  1.00  0.00     0.029 A 
ATOM     48  N   UNL A   1      43.507  25.232  27.383  1.00  0.00    -0.354 N 
ATOM     49  C   UNL A   1      44.976  30.018  27.001  1.00  0.00     0.074 A 
ATOM     50  C   UNL A   1      44.088  30.803  27.795  1.00  0.00     0.031 C 
ATOM     51  C   UNL A   1      41.858  23.858  28.015  1.00  0.00     0.029 A 
ATOM     52  C   UNL A   1      43.124  23.856  27.306  1.00  0.00     0.049 A 
ATOM     53  H   UNL A   1      44.392  25.543  27.084  1.00  0.00     0.167 HD
ATOM     54  C   UNL A   1      46.238  30.274  26.554  1.00  0.00     0.031 A 
ATOM     55  C   UNL A   1      43.765  22.819  26.667  1.00  0.00     0.031 A 
ATOM     56  C   UNL A   1      46.708  29.149  25.820  1.00  0.00     0.049 A 
ATOM     57  C   UNL A   1      45.046  23.397  26.249  1.00  0.00     0.074 A 
ATOM     58  C   UNL A   1      46.317  28.640  24.608  1.00  0.00     0.029 A 
ATOM     59  N   UNL A   1      47.327  28.171  26.561  1.00  0.00    -0.354 N 
ATOM     60  N   UNL A   1      46.038  23.653  27.047  1.00  0.00    -0.248 NA
ATOM     61  C   UNL A   1      45.199  23.830  24.855  1.00  0.00     0.031 C 
ATOM     62  C   UNL A   1      46.211  27.265  24.887  1.00  0.00     0.029 A 
ATOM     63  C   UNL A   1      46.868  26.970  26.088  1.00  0.00     0.049 A 
ATOM     64  H   UNL A   1      47.974  28.307  27.289  1.00  0.00     0.167 HD
ATOM     65  C   UNL A   1      46.712  24.617  26.345  1.00  0.00     0.074 A 
ATOM     66  C   UNL A   1      46.391  24.413  24.947  1.00  0.00     0.031 C 
ATOM     67  C   UNL A   1      46.980  25.812  26.935  1.00  0.00     0.031 A 
BRANCH  54  68
ATOM     68  C   UNL A   1      47.241  31.320  26.933  1.00  0.00    -0.014 A 
ATOM     69  C   UNL A   1      46.912  32.657  26.595  1.00  0.00     0.009 A 
ATOM     70  C   UNL A   1      48.576  31.042  27.235  1.00  0.00     0.009 A 
ATOM     71  C   UNL A   1      47.892  33.627  26.396  1.00  0.00     0.001 A 
ATOM     72  C   UNL A   1      49.557  32.033  27.082  1.00  0.00     0.001 A 
ATOM     73  C   UNL A   1      49.221  33.306  26.620  1.00  0.00     0.000 A 
ENDBRANCH  54  68
BRANCH  55  74
ATOM     74  C   UNL A   1      43.562  21.376  26.228  1.00  0.00    -0.014 A 
ATOM     75  C   UNL A   1      44.314  20.653  25.300  1.00  0.00     0.009 A 
ATOM     76  C   UNL A   1      42.486  20.641  26.818  1.00  0.00     0.009 A 
ATOM     77  C   UNL A   1      44.048  19.278  25.056  1.00  0.00     0.001 A 
ATOM     78  C   UNL A   1      42.246  19.277  26.617  1.00  0.00     0.001 A 
ATOM     79  C   UNL A   1      43.044  18.585  25.736  1.00  0.00     0.000 A 
ENDBRANCH  55  74
BRANCH  67  80
ATOM     80  C   UNL A   1      47.012  25.814  28.455  1.00  0.00    -0.014 A 
ATOM     81  C   UNL A   1      48.251  25.723  29.111  1.00  0.00     0.009 A 
ATOM     82  C   UNL A   1      45.860  25.798  29.266  1.00  0.00     0.009 A 
ATOM     83  C   UNL A   1      48.343  25.605  30.504  1.00  0.00     0.001 A 
ATOM     84  C   UNL A   1      45.946  25.673  30.665  1.00  0.00     0.001 A 
ATOM     85  C   UNL A   1      47.190  25.576  31.283  1.00  0.00     0.000 A 
ENDBRANCH  67  80
ENDBRANCH  41  42
ENDBRANCH  34  36
ENDBRANCH  33  34
ENDBRANCH  32  33
ENDBRANCH  31  32
ENDBRANCH  30  31
ENDBRANCH   1  30
TORSDOF 20
ENDMDL
MODEL 2
REMARK VINA RESULT:     -10.9      4.213      8.469
REMARK SMILES COc1ccc(-c2ccc(CCC(=O)OCCOCCOC(=O)c3ccc(-c4c5nc(c(-c6ccccc6)c6ccc([nH]6)c(-c6ccccc6)c6nc(c(-c7ccccc7)c7ccc4[nH]7)C=C6)C=C5)cc3)n2-c2ccc(C(C)=O)cc2)cc1
REMARK SMILES IDX 17 1 16 2 15 3 13 4 14 5 12 6 11 7 10 8 7 9 8 10 72 11 9 12
REMARK SMILES IDX 6 13 3 14 4 15 83 16 5 17 82 18 2 19 1 20 73 21 74 22 81 23
REMARK SMILES IDX 75 24 80 25 76 26 77 27 78 28 79 29 18 30 19 31 20 32 21 33
REMARK SMILES IDX 22 34 23 35 24 36 25 37 71 38 26 39 70 40 27 41 28 42 29 43
REMARK SMILES IDX 64 44 30 45 69 46 63 47 65 48 31 49 68 50 62 51 61 52 32 54
REMARK SMILES IDX 54 55 39 56 53 57 40 58 43 59 52 60 66 61 41 62 42 63 51 65
REMARK SMILES IDX 67 66 44 67 33 68 34 69 38 70 35 71 37 72 36 73 55 74 56 75
REMARK SMILES IDX 60 76 57 77 59 78 58 79 45 80 46 81 50 82 47 83 49 84 48 85
REMARK H PARENT 65 53 43 64
REMARK Flexibility Score: inf
ROOT
ATOM      1  C   UNL A   1      31.744  30.320  25.908  1.00  0.00     0.202 C 
ENDROOT
BRANCH   1   2
ATOM      2  C   UNL A   1      32.534  29.369  25.002  1.00  0.00     0.261 C 
BRANCH   2   3
ATOM      3  O   UNL A   1      33.417  28.520  25.765  1.00  0.00    -0.463 OA
BRANCH   3   4
ATOM      4  C   UNL A   1      33.593  27.249  25.333  1.00  0.00     0.306 C 
ATOM      5  O   UNL A   1      34.247  26.396  25.921  1.00  0.00    -0.252 OA
BRANCH   4   6
ATOM      6  C   UNL A   1      32.873  26.978  24.026  1.00  0.00     0.129 C 
BRANCH   6   7
ATOM      7  C   UNL A   1      33.362  25.797  23.176  1.00  0.00     0.066 C 
BRANCH   7   8
ATOM      8  C   UNL A   1      32.573  24.525  23.354  1.00  0.00     0.024 A 
ATOM      9  C   UNL A   1      32.155  22.310  23.568  1.00  0.00     0.053 A 
ATOM     10  C   UNL A   1      30.975  22.933  23.208  1.00  0.00     0.029 A 
ATOM     11  N   UNL A   1      33.115  23.305  23.750  1.00  0.00    -0.314 N 
ATOM     12  C   UNL A   1      31.227  24.310  23.129  1.00  0.00     0.024 A 
BRANCH   9  13
ATOM     13  C   UNL A   1      32.342  20.884  23.815  1.00  0.00    -0.001 A 
ATOM     14  C   UNL A   1      32.682  18.140  24.242  1.00  0.00     0.118 A 
ATOM     15  C   UNL A   1      32.739  19.028  25.316  1.00  0.00     0.047 A 
ATOM     16  C   UNL A   1      32.405  18.616  22.961  1.00  0.00     0.047 A 
ATOM     17  C   UNL A   1      32.576  20.398  25.105  1.00  0.00     0.014 A 
ATOM     18  C   UNL A   1      32.235  19.984  22.749  1.00  0.00     0.014 A 
BRANCH  14  19
ATOM     19  O   UNL A   1      32.853  16.818  24.549  1.00  0.00    -0.497 OA
ATOM     20  C   UNL A   1      34.193  16.470  24.887  1.00  0.00     0.278 C 
ENDBRANCH  14  19
ENDBRANCH   9  13
BRANCH  11  21
ATOM     21  C   UNL A   1      34.420  23.116  24.264  1.00  0.00     0.046 A 
ATOM     22  C   UNL A   1      35.480  22.911  23.374  1.00  0.00     0.027 A 
ATOM     23  C   UNL A   1      34.641  23.151  25.639  1.00  0.00     0.027 A 
ATOM     24  C   UNL A   1      36.774  22.726  23.867  1.00  0.00     0.014 A 
ATOM     25  C   UNL A   1      35.932  22.943  26.124  1.00  0.00     0.014 A 
ATOM     26  C   UNL A   1      37.011  22.728  25.247  1.00  0.00     0.017 A 
BRANCH  26  27
ATOM     27  C   UNL A   1      38.360  22.505  25.855  1.00  0.00     0.159 C 
ATOM     28  C   UNL A   1      39.040  21.162  25.782  1.00  0.00     0.093 C 
ATOM     29  O   UNL A   1      38.925  23.444  26.416  1.00  0.00    -0.295 OA
ENDBRANCH  26  27
ENDBRANCH  11  21
ENDBRANCH   7   8
ENDBRANCH   6   7
ENDBRANCH   4   6
ENDBRANCH   3   4
ENDBRANCH   2   3
ENDBRANCH   1   2
BRANCH   1  30
ATOM     30  O   UNL A   1      32.536  31.219  26.688  1.00  0.00    -0.374 OA
BRANCH  30  31
ATOM     31  C   UNL A   1      31.966  32.485  26.993  1.00  0.00     0.202 C 
BRANCH  31  32
ATOM     32  C   UNL A   1      32.891  33.495  27.651  1.00  0.00     0.261 C 
BRANCH  32  33
ATOM     33  O   UNL A   1      32.258  34.159  28.740  1.00  0.00    -0.460 OA
BRANCH  33  34
ATOM     34  C   UNL A   1      32.902  35.273  29.150  1.00  0.00     0.338 C 
ATOM     35  O   UNL A   1      32.676  36.422  28.828  1.00  0.00    -0.246 OA
BRANCH  34  36
ATOM     36  C   UNL A   1      34.112  34.873  29.873  1.00  0.00     0.060 A 
ATOM     37  C   UNL A   1      35.299  34.958  29.145  1.00  0.00     0.016 A 
ATOM     38  C   UNL A   1      34.015  34.139  31.066  1.00  0.00     0.016 A 
ATOM     39  C   UNL A   1      36.347  34.146  29.508  1.00  0.00     0.010 A 
ATOM     40  C   UNL A   1      35.048  33.293  31.406  1.00  0.00     0.010 A 
ATOM     41  C   UNL A   1      36.189  33.280  30.600  1.00  0.00    -0.014 A 
BRANCH  41  42
ATOM     42  C   UNL A   1      37.384  32.565  31.044  1.00  0.00     0.031 A 
ATOM     43  C   UNL A   1      37.649  31.421  30.035  1.00  0.00     0.074 A 
ATOM     44  C   UNL A   1      37.908  32.967  32.249  1.00  0.00     0.049 A 
ATOM     45  N   UNL A   1      38.244  30.294  30.227  1.00  0.00    -0.248 NA
ATOM     46  C   UNL A   1      37.122  31.493  28.632  1.00  0.00     0.031 C 
ATOM     47  C   UNL A   1      37.499  34.182  33.007  1.00  0.00     0.029 A 
ATOM     48  N   UNL A   1      38.871  32.460  33.099  1.00  0.00    -0.354 N 
ATOM     49  C   UNL A   1      38.345  29.632  28.984  1.00  0.00     0.074 A 
ATOM     50  C   UNL A   1      37.548  30.367  28.057  1.00  0.00     0.031 C 
ATOM     51  C   UNL A   1      38.117  34.249  34.212  1.00  0.00     0.029 A 
ATOM     52  C   UNL A   1      38.996  33.106  34.369  1.00  0.00     0.049 A 
ATOM     53  H   UNL A   1      39.440  31.698  32.844  1.00  0.00     0.167 HD
ATOM     54  C   UNL A   1      39.215  28.600  28.791  1.00  0.00     0.031 A 
ATOM     55  C   UNL A   1      39.716  32.703  35.471  1.00  0.00     0.031 A 
ATOM     56  C   UNL A   1      39.785  28.233  30.043  1.00  0.00     0.049 A 
ATOM     57  C   UNL A   1      40.499  31.562  34.987  1.00  0.00     0.074 A 
ATOM     58  C   UNL A   1      39.227  27.637  31.143  1.00  0.00     0.029 A 
ATOM     59  N   UNL A   1      40.915  28.926  30.408  1.00  0.00    -0.354 N 
ATOM     60  N   UNL A   1      41.538  31.652  34.215  1.00  0.00    -0.248 NA
ATOM     61  C   UNL A   1      40.025  30.206  35.292  1.00  0.00     0.031 C 
ATOM     62  C   UNL A   1      39.710  28.442  32.192  1.00  0.00     0.029 A 
ATOM     63  C   UNL A   1      40.782  29.220  31.740  1.00  0.00     0.049 A 
ATOM     64  H   UNL A   1      41.672  29.163  29.827  1.00  0.00     0.167 HD
ATOM     65  C   UNL A   1      41.560  30.409  33.639  1.00  0.00     0.074 A 
ATOM     66  C   UNL A   1      40.895  29.513  34.563  1.00  0.00     0.031 C 
ATOM     67  C   UNL A   1      41.566  30.297  32.284  1.00  0.00     0.031 A 
BRANCH  54  68
ATOM     68  C   UNL A   1      39.849  28.043  27.553  1.00  0.00    -0.014 A 
ATOM     69  C   UNL A   1      40.090  26.647  27.546  1.00  0.00     0.009 A 
ATOM     70  C   UNL A   1      40.531  28.820  26.614  1.00  0.00     0.009 A 
ATOM     71  C   UNL A   1      41.091  26.077  26.761  1.00  0.00     0.001 A 
ATOM     72  C   UNL A   1      41.505  28.237  25.789  1.00  0.00     0.001 A 
ATOM     73  C   UNL A   1      41.815  26.881  25.896  1.00  0.00     0.000 A 
ENDBRANCH  54  68
BRANCH  55  74
ATOM     74  C   UNL A   1      39.904  33.003  36.951  1.00  0.00    -0.014 A 
ATOM     75  C   UNL A   1      38.915  33.263  37.901  1.00  0.00     0.009 A 
ATOM     76  C   UNL A   1      41.238  33.026  37.466  1.00  0.00     0.009 A 
ATOM     77  C   UNL A   1      39.247  33.446  39.271  1.00  0.00     0.001 A 
ATOM     78  C   UNL A   1      41.570  33.160  38.819  1.00  0.00     0.001 A 
ATOM     79  C   UNL A   1      40.562  33.360  39.733  1.00  0.00     0.000 A 
ENDBRANCH  55  74
BRANCH  67  80
ATOM     80  C   UNL A   1      42.089  31.502  31.517  1.00  0.00    -0.014 A 
ATOM     81  C   UNL A   1      41.171  32.399  30.948  1.00  0.00     0.009 A 
ATOM     82  C   UNL A   1      43.453  31.729  31.246  1.00  0.00     0.009 A 
ATOM     83  C   UNL A   1      41.584  33.463  30.135  1.00  0.00     0.001 A 
ATOM     84  C   UNL A   1      43.872  32.792  30.424  1.00  0.00     0.001 A 
ATOM     85  C   UNL A   1      42.935  33.660  29.869  1.00  0.00     0.000 A 
ENDBRANCH  67  80
ENDBRANCH  41  42
ENDBRANCH  34  36
ENDBRANCH  33  34
ENDBRANCH  32  33
ENDBRANCH  31  32
ENDBRANCH  30  31
ENDBRANCH   1  30
TORSDOF 20
ENDMDL
MODEL 3
REMARK VINA RESULT:     -10.6      3.306      9.327
REMARK SMILES COc1ccc(-c2ccc(CCC(=O)OCCOCCOC(=O)c3ccc(-c4c5nc(c(-c6ccccc6)c6ccc([nH]6)c(-c6ccccc6)c6nc(c(-c7ccccc7)c7ccc4[nH]7)C=C6)C=C5)cc3)n2-c2ccc(C(C)=O)cc2)cc1
REMARK SMILES IDX 17 1 16 2 15 3 13 4 14 5 12 6 11 7 10 8 7 9 8 10 72 11 9 12
REMARK SMILES IDX 6 13 3 14 4 15 83 16 5 17 82 18 2 19 1 20 73 21 74 22 81 23
REMARK SMILES IDX 75 24 80 25 76 26 77 27 78 28 79 29 18 30 19 31 20 32 21 33
REMARK SMILES IDX 22 34 23 35 24 36 25 37 71 38 26 39 70 40 27 41 28 42 29 43
REMARK SMILES IDX 64 44 30 45 69 46 63 47 65 48 31 49 68 50 62 51 61 52 32 54
REMARK SMILES IDX 54 55 39 56 53 57 40 58 43 59 52 60 66 61 41 62 42 63 51 65
REMARK SMILES IDX 67 66 44 67 33 68 34 69 38 70 35 71 37 72 36 73 55 74 56 75
REMARK SMILES IDX 60 76 57 77 59 78 58 79 45 80 46 81 50 82 47 83 49 84 48 85
REMARK H PARENT 65 53 43 64
REMARK Flexibility Score: inf
ROOT
ATOM      1  C   UNL A   1      33.006  24.969  25.818  1.00  0.00     0.202 C 
ENDROOT
BRANCH   1   2
ATOM      2  C   UNL A   1      32.891  26.430  25.370  1.00  0.00     0.261 C 
BRANCH   2   3
ATOM      3  O   UNL A   1      33.558  27.321  26.289  1.00  0.00    -0.463 OA
BRANCH   3   4
ATOM      4  C   UNL A   1      32.844  28.358  26.787  1.00  0.00     0.306 C 
ATOM      5  O   UNL A   1      31.850  28.245  27.495  1.00  0.00    -0.252 OA
BRANCH   4   6
ATOM      6  C   UNL A   1      33.418  29.702  26.382  1.00  0.00     0.129 C 
BRANCH   6   7
ATOM      7  C   UNL A   1      33.695  30.722  27.495  1.00  0.00     0.066 C 
BRANCH   7   8
ATOM      8  C   UNL A   1      35.112  30.722  28.010  1.00  0.00     0.024 A 
ATOM      9  C   UNL A   1      37.066  31.528  28.820  1.00  0.00     0.053 A 
ATOM     10  C   UNL A   1      37.309  30.274  28.296  1.00  0.00     0.029 A 
ATOM     11  N   UNL A   1      35.695  31.762  28.728  1.00  0.00    -0.314 N 
ATOM     12  C   UNL A   1      36.087  29.757  27.844  1.00  0.00     0.024 A 
BRANCH   9  13
ATOM     13  C   UNL A   1      38.045  32.409  29.449  1.00  0.00    -0.001 A 
ATOM     14  C   UNL A   1      39.920  34.069  30.697  1.00  0.00     0.118 A 
ATOM     15  C   UNL A   1      39.276  34.492  29.534  1.00  0.00     0.047 A 
ATOM     16  C   UNL A   1      39.592  32.839  31.265  1.00  0.00     0.047 A 
ATOM     17  C   UNL A   1      38.344  33.663  28.906  1.00  0.00     0.014 A 
ATOM     18  C   UNL A   1      38.657  32.012  30.642  1.00  0.00     0.014 A 
BRANCH  14  19
ATOM     19  O   UNL A   1      40.815  34.950  31.240  1.00  0.00    -0.497 OA
ATOM     20  C   UNL A   1      41.581  34.410  32.314  1.00  0.00     0.278 C 
ENDBRANCH  14  19
ENDBRANCH   9  13
BRANCH  11  21
ATOM     21  C   UNL A   1      35.001  32.864  29.283  1.00  0.00     0.046 A 
ATOM     22  C   UNL A   1      34.605  33.912  28.445  1.00  0.00     0.027 A 
ATOM     23  C   UNL A   1      34.706  32.890  30.644  1.00  0.00     0.027 A 
ATOM     24  C   UNL A   1      33.918  35.006  28.978  1.00  0.00     0.014 A 
ATOM     25  C   UNL A   1      34.038  33.996  31.172  1.00  0.00     0.014 A 
ATOM     26  C   UNL A   1      33.638  35.064  30.349  1.00  0.00     0.017 A 
BRANCH  26  27
ATOM     27  C   UNL A   1      32.936  36.212  31.002  1.00  0.00     0.159 C 
ATOM     28  C   UNL A   1      32.278  36.065  32.350  1.00  0.00     0.093 C 
ATOM     29  O   UNL A   1      32.907  37.300  30.425  1.00  0.00    -0.295 OA
ENDBRANCH  26  27
ENDBRANCH  11  21
ENDBRANCH   7   8
ENDBRANCH   6   7
ENDBRANCH   4   6
ENDBRANCH   3   4
ENDBRANCH   2   3
ENDBRANCH   1   2
BRANCH   1  30
ATOM     30  O   UNL A   1      33.600  24.084  24.866  1.00  0.00    -0.374 OA
BRANCH  30  31
ATOM     31  C   UNL A   1      35.020  24.021  24.840  1.00  0.00     0.202 C 
BRANCH  31  32
ATOM     32  C   UNL A   1      35.623  22.708  24.369  1.00  0.00     0.261 C 
BRANCH  32  33
ATOM     33  O   UNL A   1      37.035  22.803  24.215  1.00  0.00    -0.460 OA
BRANCH  33  34
ATOM     34  C   UNL A   1      37.728  21.927  24.976  1.00  0.00     0.338 C 
ATOM     35  O   UNL A   1      37.602  20.720  25.020  1.00  0.00    -0.246 OA
BRANCH  34  36
ATOM     36  C   UNL A   1      38.513  22.680  25.958  1.00  0.00     0.060 A 
ATOM     37  C   UNL A   1      38.249  24.049  26.012  1.00  0.00     0.016 A 
ATOM     38  C   UNL A   1      39.667  22.116  26.525  1.00  0.00     0.016 A 
ATOM     39  C   UNL A   1      39.238  24.887  26.468  1.00  0.00     0.010 A 
ATOM     40  C   UNL A   1      40.676  22.957  26.942  1.00  0.00     0.010 A 
ATOM     41  C   UNL A   1      40.462  24.336  26.873  1.00  0.00    -0.014 A 
BRANCH  41  42
ATOM     42  C   UNL A   1      41.412  25.251  27.503  1.00  0.00     0.031 A 
ATOM     43  C   UNL A   1      40.624  26.134  28.501  1.00  0.00     0.074 A 
ATOM     44  C   UNL A   1      42.696  25.209  27.014  1.00  0.00     0.049 A 
ATOM     45  N   UNL A   1      40.890  27.327  28.911  1.00  0.00    -0.248 NA
ATOM     46  C   UNL A   1      39.318  25.671  29.076  1.00  0.00     0.031 C 
ATOM     47  C   UNL A   1      43.230  24.182  26.077  1.00  0.00     0.029 A 
ATOM     48  N   UNL A   1      43.816  26.000  27.176  1.00  0.00    -0.354 N 
ATOM     49  C   UNL A   1      39.946  27.672  29.903  1.00  0.00     0.074 A 
ATOM     50  C   UNL A   1      38.943  26.658  29.890  1.00  0.00     0.031 C 
ATOM     51  C   UNL A   1      44.496  24.472  25.690  1.00  0.00     0.029 A 
ATOM     52  C   UNL A   1      44.930  25.700  26.330  1.00  0.00     0.049 A 
ATOM     53  H   UNL A   1      43.846  26.729  27.837  1.00  0.00     0.167 HD
ATOM     54  C   UNL A   1      40.160  28.705  30.766  1.00  0.00     0.031 A 
ATOM     55  C   UNL A   1      46.081  26.428  26.134  1.00  0.00     0.031 A 
ATOM     56  C   UNL A   1      41.320  29.421  30.355  1.00  0.00     0.049 A 
ATOM     57  C   UNL A   1      46.010  27.487  27.145  1.00  0.00     0.074 A 
ATOM     58  C   UNL A   1      41.546  30.211  29.258  1.00  0.00     0.029 A 
ATOM     59  N   UNL A   1      42.514  28.953  30.849  1.00  0.00    -0.354 N 
ATOM     60  N   UNL A   1      46.214  27.313  28.415  1.00  0.00    -0.248 NA
ATOM     61  C   UNL A   1      45.563  28.823  26.730  1.00  0.00     0.031 C 
ATOM     62  C   UNL A   1      42.792  29.738  28.807  1.00  0.00     0.029 A 
ATOM     63  C   UNL A   1      43.407  28.981  29.811  1.00  0.00     0.049 A 
ATOM     64  H   UNL A   1      42.692  28.656  31.770  1.00  0.00     0.167 HD
ATOM     65  C   UNL A   1      45.532  28.374  28.950  1.00  0.00     0.074 A 
ATOM     66  C   UNL A   1      45.491  29.399  27.927  1.00  0.00     0.031 C 
ATOM     67  C   UNL A   1      44.580  28.151  29.895  1.00  0.00     0.031 A 
BRANCH  54  68
ATOM     68  C   UNL A   1      39.611  29.003  32.127  1.00  0.00    -0.014 A 
ATOM     69  C   UNL A   1      38.202  28.929  32.266  1.00  0.00     0.009 A 
ATOM     70  C   UNL A   1      40.321  29.684  33.119  1.00  0.00     0.009 A 
ATOM     71  C   UNL A   1      37.521  29.648  33.246  1.00  0.00     0.001 A 
ATOM     72  C   UNL A   1      39.636  30.367  34.135  1.00  0.00     0.001 A 
ATOM     73  C   UNL A   1      38.242  30.387  34.170  1.00  0.00     0.000 A 
ENDBRANCH  54  68
BRANCH  55  74
ATOM     74  C   UNL A   1      47.298  26.518  25.225  1.00  0.00    -0.014 A 
ATOM     75  C   UNL A   1      47.366  27.066  23.943  1.00  0.00     0.009 A 
ATOM     76  C   UNL A   1      48.537  25.994  25.709  1.00  0.00     0.009 A 
ATOM     77  C   UNL A   1      48.603  27.151  23.247  1.00  0.00     0.001 A 
ATOM     78  C   UNL A   1      49.767  26.113  25.051  1.00  0.00     0.001 A 
ATOM     79  C   UNL A   1      49.802  26.709  23.812  1.00  0.00     0.000 A 
ENDBRANCH  55  74
BRANCH  67  80
ATOM     80  C   UNL A   1      44.706  26.853  30.677  1.00  0.00    -0.014 A 
ATOM     81  C   UNL A   1      43.963  25.735  30.266  1.00  0.00     0.009 A 
ATOM     82  C   UNL A   1      45.451  26.721  31.866  1.00  0.00     0.009 A 
ATOM     83  C   UNL A   1      43.946  24.546  31.007  1.00  0.00     0.001 A 
ATOM     84  C   UNL A   1      45.432  25.531  32.617  1.00  0.00     0.001 A 
ATOM     85  C   UNL A   1      44.678  24.443  32.186  1.00  0.00     0.000 A 
ENDBRANCH  67  80
ENDBRANCH  41  42
ENDBRANCH  34  36
ENDBRANCH  33  34
ENDBRANCH  32  33
ENDBRANCH  31  32
ENDBRANCH  30  31
ENDBRANCH   1  30
TORSDOF 20
ENDMDL
