MODEL 1
REMARK VINA RESULT:      -7.1      0.000      0.000
REMARK SMILES CC[NH2+][C@@]1(C(=O)OCCOCCOC(=O)c2ccc(-c3c4nc(c(-c5ccccc5)c5ccc([nH]5)c(-c5ccccc5)c5nc(c(-c6ccccc6)c6ccc3[nH]6)C=C5)C=C4)cc2)CC[C@@H](OCCOC)C1
REMARK SMILES IDX 9 1 8 2 7 3 5 4 6 5 4 6 64 7 72 8 65 9 66 10 3 11 2 14 1 15
REMARK SMILES IDX 67 16 68 17 69 18 70 19 71 20 10 21 11 22 12 23 13 24 14 25
REMARK SMILES IDX 15 26 16 27 17 28 63 29 18 30 62 31 19 32 20 33 21 34 56 35
REMARK SMILES IDX 22 36 61 37 55 38 57 39 23 40 60 41 54 42 53 43 24 45 46 46
REMARK SMILES IDX 31 47 45 48 32 49 35 50 44 51 58 52 33 53 34 54 43 56 59 57
REMARK SMILES IDX 36 58 25 59 26 60 30 61 27 62 29 63 28 64 47 65 48 66 52 67
REMARK SMILES IDX 49 68 51 69 50 70 37 71 38 72 42 73 39 74 41 75 40 76
REMARK H PARENT 3 12 3 13 57 44 35 55
REMARK Flexibility Score: inf
ROOT
ATOM      1  C   UNL A   1      35.910  34.853  33.441  1.00  0.00     0.202 C 
ENDROOT
BRANCH   1   2
ATOM      2  C   UNL A   1      35.952  33.590  34.303  1.00  0.00     0.261 C 
BRANCH   2   3
ATOM      3  O   UNL A   1      37.270  33.015  34.338  1.00  0.00    -0.459 OA
BRANCH   3   4
ATOM      4  C   UNL A   1      38.107  33.526  35.281  1.00  0.00     0.368 C 
ATOM      5  O   UNL A   1      38.627  34.638  35.215  1.00  0.00    -0.245 OA
BRANCH   4   6
ATOM      6  C   UNL A   1      38.321  32.569  36.501  1.00  0.00     0.196 C 
ATOM      7  C   UNL A   1      39.730  32.827  37.046  1.00  0.00     0.084 C 
ATOM      8  C   UNL A   1      38.381  31.069  36.148  1.00  0.00     0.113 C 
ATOM      9  C   UNL A   1      40.649  32.021  36.129  1.00  0.00     0.039 C 
ATOM     10  C   UNL A   1      39.816  30.818  35.662  1.00  0.00     0.125 C 
BRANCH   6  11
ATOM     11  N   UNL A   1      37.339  32.987  37.534  1.00  0.00    -0.332 N 
ATOM     12  H   UNL A   1      36.881  33.830  37.189  1.00  0.00     0.347 HD
ATOM     13  H   UNL A   1      36.741  32.169  37.656  1.00  0.00     0.347 HD
BRANCH  11  14
ATOM     14  C   UNL A   1      37.822  33.277  38.870  1.00  0.00     0.257 C 
ATOM     15  C   UNL A   1      37.213  32.289  39.855  1.00  0.00     0.071 C 
ENDBRANCH  11  14
ENDBRANCH   6  11
BRANCH  10  16
ATOM     16  O   UNL A   1      40.281  29.523  36.047  1.00  0.00    -0.376 OA
BRANCH  16  17
ATOM     17  C   UNL A   1      40.820  28.707  35.011  1.00  0.00     0.189 C 
BRANCH  17  18
ATOM     18  C   UNL A   1      41.986  29.378  34.264  1.00  0.00     0.188 C 
BRANCH  18  19
ATOM     19  O   UNL A   1      43.294  29.038  34.728  1.00  0.00    -0.382 OA
ATOM     20  C   UNL A   1      43.817  29.972  35.669  1.00  0.00     0.195 C 
ENDBRANCH  18  19
ENDBRANCH  17  18
ENDBRANCH  16  17
ENDBRANCH  10  16
ENDBRANCH   4   6
ENDBRANCH   3   4
ENDBRANCH   2   3
ENDBRANCH   1   2
BRANCH   1  21
ATOM     21  O   UNL A   1      34.862  35.781  33.719  1.00  0.00    -0.374 OA
BRANCH  21  22
ATOM     22  C   UNL A   1      34.278  36.468  32.612  1.00  0.00     0.202 C 
BRANCH  22  23
ATOM     23  C   UNL A   1      33.308  35.665  31.738  1.00  0.00     0.261 C 
BRANCH  23  24
ATOM     24  O   UNL A   1      33.574  35.822  30.332  1.00  0.00    -0.460 OA
BRANCH  24  25
ATOM     25  C   UNL A   1      33.396  34.693  29.602  1.00  0.00     0.338 C 
ATOM     26  O   UNL A   1      32.421  34.389  28.936  1.00  0.00    -0.246 OA
BRANCH  25  27
ATOM     27  C   UNL A   1      34.636  33.894  29.569  1.00  0.00     0.060 A 
ATOM     28  C   UNL A   1      34.822  32.964  30.598  1.00  0.00     0.016 A 
ATOM     29  C   UNL A   1      35.646  34.128  28.632  1.00  0.00     0.016 A 
ATOM     30  C   UNL A   1      36.046  32.313  30.739  1.00  0.00     0.010 A 
ATOM     31  C   UNL A   1      36.878  33.479  28.780  1.00  0.00     0.010 A 
ATOM     32  C   UNL A   1      37.097  32.604  29.860  1.00  0.00    -0.014 A 
BRANCH  32  33
ATOM     33  C   UNL A   1      38.460  32.116  30.180  1.00  0.00     0.031 A 
ATOM     34  C   UNL A   1      38.907  30.785  29.637  1.00  0.00     0.074 A 
ATOM     35  C   UNL A   1      39.314  32.871  30.893  1.00  0.00     0.049 A 
ATOM     36  N   UNL A   1      40.058  30.176  29.777  1.00  0.00    -0.248 NA
ATOM     37  C   UNL A   1      37.927  30.043  28.827  1.00  0.00     0.031 C 
ATOM     38  C   UNL A   1      39.024  34.198  31.433  1.00  0.00     0.029 A 
ATOM     39  N   UNL A   1      40.607  32.623  31.280  1.00  0.00    -0.354 N 
ATOM     40  C   UNL A   1      39.939  28.982  29.077  1.00  0.00     0.074 A 
ATOM     41  C   UNL A   1      38.597  28.937  28.538  1.00  0.00     0.031 C 
ATOM     42  C   UNL A   1      40.110  34.649  32.086  1.00  0.00     0.029 A 
ATOM     43  C   UNL A   1      41.158  33.631  32.032  1.00  0.00     0.049 A 
ATOM     44  H   UNL A   1      41.093  31.801  31.042  1.00  0.00     0.167 HD
ATOM     45  C   UNL A   1      40.865  28.010  28.894  1.00  0.00     0.031 A 
ATOM     46  C   UNL A   1      42.366  33.718  32.622  1.00  0.00     0.031 A 
ATOM     47  C   UNL A   1      42.197  28.043  29.435  1.00  0.00     0.049 A 
ATOM     48  C   UNL A   1      43.351  32.591  32.466  1.00  0.00     0.074 A 
ATOM     49  C   UNL A   1      43.210  27.112  29.290  1.00  0.00     0.029 A 
ATOM     50  N   UNL A   1      42.698  29.061  30.231  1.00  0.00    -0.354 N 
ATOM     51  N   UNL A   1      43.234  31.478  31.783  1.00  0.00    -0.248 NA
ATOM     52  C   UNL A   1      44.640  32.738  33.160  1.00  0.00     0.031 C 
ATOM     53  C   UNL A   1      44.309  27.542  30.042  1.00  0.00     0.029 A 
ATOM     54  C   UNL A   1      43.996  28.766  30.610  1.00  0.00     0.049 A 
ATOM     55  H   UNL A   1      42.204  29.872  30.490  1.00  0.00     0.167 HD
ATOM     56  C   UNL A   1      44.439  30.806  31.944  1.00  0.00     0.074 A 
ATOM     57  C   UNL A   1      45.279  31.641  32.778  1.00  0.00     0.031 C 
ATOM     58  C   UNL A   1      44.818  29.605  31.443  1.00  0.00     0.031 A 
BRANCH  45  59
ATOM     59  C   UNL A   1      40.452  26.806  28.096  1.00  0.00    -0.014 A 
ATOM     60  C   UNL A   1      39.636  25.808  28.652  1.00  0.00     0.009 A 
ATOM     61  C   UNL A   1      40.860  26.686  26.758  1.00  0.00     0.009 A 
ATOM     62  C   UNL A   1      39.263  24.698  27.891  1.00  0.00     0.001 A 
ATOM     63  C   UNL A   1      40.465  25.588  25.993  1.00  0.00     0.001 A 
ATOM     64  C   UNL A   1      39.673  24.590  26.562  1.00  0.00     0.000 A 
ENDBRANCH  45  59
BRANCH  46  65
ATOM     65  C   UNL A   1      42.708  34.912  33.437  1.00  0.00    -0.014 A 
ATOM     66  C   UNL A   1      42.430  34.948  34.811  1.00  0.00     0.009 A 
ATOM     67  C   UNL A   1      43.302  36.032  32.834  1.00  0.00     0.009 A 
ATOM     68  C   UNL A   1      42.721  36.090  35.561  1.00  0.00     0.001 A 
ATOM     69  C   UNL A   1      43.615  37.162  33.591  1.00  0.00     0.001 A 
ATOM     70  C   UNL A   1      43.317  37.193  34.952  1.00  0.00     0.000 A 
ENDBRANCH  46  65
BRANCH  58  71
ATOM     71  C   UNL A   1      46.209  29.134  31.759  1.00  0.00    -0.014 A 
ATOM     72  C   UNL A   1      47.298  29.482  30.945  1.00  0.00     0.009 A 
ATOM     73  C   UNL A   1      46.438  28.367  32.912  1.00  0.00     0.009 A 
ATOM     74  C   UNL A   1      48.585  29.044  31.264  1.00  0.00     0.001 A 
ATOM     75  C   UNL A   1      47.730  27.952  33.242  1.00  0.00     0.001 A 
ATOM     76  C   UNL A   1      48.800  28.284  32.413  1.00  0.00     0.000 A 
ENDBRANCH  58  71
ENDBRANCH  32  33
ENDBRANCH  25  27
ENDBRANCH  24  25
ENDBRANCH  23  24
ENDBRANCH  22  23
ENDBRANCH  21  22
ENDBRANCH   1  21
TORSDOF 20
ENDMDL
MODEL 2
REMARK VINA RESULT:      -6.7      5.522     11.303
REMARK SMILES CC[NH2+][C@@]1(C(=O)OCCOCCOC(=O)c2ccc(-c3c4nc(c(-c5ccccc5)c5ccc([nH]5)c(-c5ccccc5)c5nc(c(-c6ccccc6)c6ccc3[nH]6)C=C5)C=C4)cc2)CC[C@@H](OCCOC)C1
REMARK SMILES IDX 9 1 8 2 7 3 5 4 6 5 4 6 64 7 72 8 65 9 66 10 3 11 2 14 1 15
REMARK SMILES IDX 67 16 68 17 69 18 70 19 71 20 10 21 11 22 12 23 13 24 14 25
REMARK SMILES IDX 15 26 16 27 17 28 63 29 18 30 62 31 19 32 20 33 21 34 56 35
REMARK SMILES IDX 22 36 61 37 55 38 57 39 23 40 60 41 54 42 53 43 24 45 46 46
REMARK SMILES IDX 31 47 45 48 32 49 35 50 44 51 58 52 33 53 34 54 43 56 59 57
REMARK SMILES IDX 36 58 25 59 26 60 30 61 27 62 29 63 28 64 47 65 48 66 52 67
REMARK SMILES IDX 49 68 51 69 50 70 37 71 38 72 42 73 39 74 41 75 40 76
REMARK H PARENT 3 12 3 13 57 44 35 55
REMARK Flexibility Score: inf
ROOT
ATOM      1  C   UNL A   1      35.101  20.954  24.864  1.00  0.00     0.202 C 
ENDROOT
BRANCH   1   2
ATOM      2  C   UNL A   1      34.510  21.639  26.097  1.00  0.00     0.261 C 
BRANCH   2   3
ATOM      3  O   UNL A   1      33.080  21.491  26.151  1.00  0.00    -0.459 OA
BRANCH   3   4
ATOM      4  C   UNL A   1      32.443  21.517  24.949  1.00  0.00     0.368 C 
ATOM      5  O   UNL A   1      32.229  20.523  24.259  1.00  0.00    -0.245 OA
BRANCH   4   6
ATOM      6  C   UNL A   1      31.962  22.948  24.535  1.00  0.00     0.196 C 
ATOM      7  C   UNL A   1      31.560  22.887  23.057  1.00  0.00     0.084 C 
ATOM      8  C   UNL A   1      33.064  24.026  24.525  1.00  0.00     0.113 C 
ATOM      9  C   UNL A   1      32.880  23.004  22.295  1.00  0.00     0.039 C 
ATOM     10  C   UNL A   1      33.798  23.853  23.188  1.00  0.00     0.125 C 
BRANCH   6  11
ATOM     11  N   UNL A   1      30.744  23.225  25.338  1.00  0.00    -0.332 N 
ATOM     12  H   UNL A   1      29.995  23.441  24.681  1.00  0.00     0.347 HD
ATOM     13  H   UNL A   1      30.619  22.384  25.901  1.00  0.00     0.347 HD
BRANCH  11  14
ATOM     14  C   UNL A   1      30.787  24.301  26.309  1.00  0.00     0.257 C 
ATOM     15  C   UNL A   1      29.995  25.491  25.783  1.00  0.00     0.071 C 
ENDBRANCH  11  14
ENDBRANCH   6  11
BRANCH  10  16
ATOM     16  O   UNL A   1      34.229  25.109  22.659  1.00  0.00    -0.376 OA
BRANCH  16  17
ATOM     17  C   UNL A   1      33.216  25.952  22.117  1.00  0.00     0.189 C 
BRANCH  17  18
ATOM     18  C   UNL A   1      32.829  27.105  23.059  1.00  0.00     0.188 C 
BRANCH  18  19
ATOM     19  O   UNL A   1      31.916  28.063  22.519  1.00  0.00    -0.382 OA
ATOM     20  C   UNL A   1      30.565  27.608  22.510  1.00  0.00     0.195 C 
ENDBRANCH  18  19
ENDBRANCH  17  18
ENDBRANCH  16  17
ENDBRANCH  10  16
ENDBRANCH   4   6
ENDBRANCH   3   4
ENDBRANCH   2   3
ENDBRANCH   1   2
BRANCH   1  21
ATOM     21  O   UNL A   1      36.099  19.962  25.103  1.00  0.00    -0.374 OA
BRANCH  21  22
ATOM     22  C   UNL A   1      37.453  20.303  24.808  1.00  0.00     0.202 C 
BRANCH  22  23
ATOM     23  C   UNL A   1      37.821  21.790  24.882  1.00  0.00     0.261 C 
BRANCH  23  24
ATOM     24  O   UNL A   1      38.185  22.202  26.212  1.00  0.00    -0.460 OA
BRANCH  24  25
ATOM     25  C   UNL A   1      39.472  22.608  26.338  1.00  0.00     0.338 C 
ATOM     26  O   UNL A   1      40.473  22.013  25.976  1.00  0.00    -0.246 OA
BRANCH  25  27
ATOM     27  C   UNL A   1      39.535  23.992  26.847  1.00  0.00     0.060 A 
ATOM     28  C   UNL A   1      40.183  24.937  26.043  1.00  0.00     0.016 A 
ATOM     29  C   UNL A   1      39.087  24.333  28.125  1.00  0.00     0.016 A 
ATOM     30  C   UNL A   1      40.449  26.211  26.540  1.00  0.00     0.010 A 
ATOM     31  C   UNL A   1      39.361  25.612  28.625  1.00  0.00     0.010 A 
ATOM     32  C   UNL A   1      40.083  26.540  27.852  1.00  0.00    -0.014 A 
BRANCH  32  33
ATOM     33  C   UNL A   1      40.607  27.790  28.453  1.00  0.00     0.031 A 
ATOM     34  C   UNL A   1      39.662  28.937  28.696  1.00  0.00     0.074 A 
ATOM     35  C   UNL A   1      41.892  27.886  28.837  1.00  0.00     0.049 A 
ATOM     36  N   UNL A   1      39.901  30.110  29.226  1.00  0.00    -0.248 NA
ATOM     37  C   UNL A   1      38.262  28.732  28.289  1.00  0.00     0.031 C 
ATOM     38  C   UNL A   1      42.896  26.833  28.705  1.00  0.00     0.029 A 
ATOM     39  N   UNL A   1      42.567  28.928  29.422  1.00  0.00    -0.354 N 
ATOM     40  C   UNL A   1      38.685  30.783  29.213  1.00  0.00     0.074 A 
ATOM     41  C   UNL A   1      37.717  29.900  28.599  1.00  0.00     0.031 C 
ATOM     42  C   UNL A   1      44.065  27.283  29.194  1.00  0.00     0.029 A 
ATOM     43  C   UNL A   1      43.895  28.662  29.647  1.00  0.00     0.049 A 
ATOM     44  H   UNL A   1      42.141  29.783  29.658  1.00  0.00     0.167 HD
ATOM     45  C   UNL A   1      38.396  32.022  29.676  1.00  0.00     0.031 A 
ATOM     46  C   UNL A   1      44.868  29.449  30.148  1.00  0.00     0.031 A 
ATOM     47  C   UNL A   1      39.355  32.909  30.279  1.00  0.00     0.049 A 
ATOM     48  C   UNL A   1      44.538  30.850  30.587  1.00  0.00     0.074 A 
ATOM     49  C   UNL A   1      39.153  34.178  30.792  1.00  0.00     0.029 A 
ATOM     50  N   UNL A   1      40.700  32.619  30.443  1.00  0.00    -0.354 N 
ATOM     51  N   UNL A   1      43.380  31.465  30.590  1.00  0.00    -0.248 NA
ATOM     52  C   UNL A   1      45.653  31.663  31.098  1.00  0.00     0.031 C 
ATOM     53  C   UNL A   1      40.387  34.678  31.221  1.00  0.00     0.029 A 
ATOM     54  C   UNL A   1      41.346  33.698  31.022  1.00  0.00     0.049 A 
ATOM     55  H   UNL A   1      41.132  31.774  30.186  1.00  0.00     0.167 HD
ATOM     56  C   UNL A   1      43.621  32.725  31.125  1.00  0.00     0.074 A 
ATOM     57  C   UNL A   1      45.033  32.782  31.446  1.00  0.00     0.031 C 
ATOM     58  C   UNL A   1      42.751  33.742  31.334  1.00  0.00     0.031 A 
BRANCH  45  59
ATOM     59  C   UNL A   1      36.983  32.507  29.516  1.00  0.00    -0.014 A 
ATOM     60  C   UNL A   1      36.566  33.165  28.349  1.00  0.00     0.009 A 
ATOM     61  C   UNL A   1      36.048  32.272  30.537  1.00  0.00     0.009 A 
ATOM     62  C   UNL A   1      35.247  33.604  28.220  1.00  0.00     0.001 A 
ATOM     63  C   UNL A   1      34.725  32.691  30.396  1.00  0.00     0.001 A 
ATOM     64  C   UNL A   1      34.326  33.364  29.241  1.00  0.00     0.000 A 
ENDBRANCH  45  59
BRANCH  46  65
ATOM     65  C   UNL A   1      46.259  28.936  30.245  1.00  0.00    -0.014 A 
ATOM     66  C   UNL A   1      47.158  29.092  29.179  1.00  0.00     0.009 A 
ATOM     67  C   UNL A   1      46.687  28.269  31.403  1.00  0.00     0.009 A 
ATOM     68  C   UNL A   1      48.451  28.573  29.265  1.00  0.00     0.001 A 
ATOM     69  C   UNL A   1      47.989  27.774  31.496  1.00  0.00     0.001 A 
ATOM     70  C   UNL A   1      48.867  27.919  30.424  1.00  0.00     0.000 A 
ENDBRANCH  46  65
BRANCH  58  71
ATOM     71  C   UNL A   1      43.292  34.994  31.964  1.00  0.00    -0.014 A 
ATOM     72  C   UNL A   1      43.394  35.122  33.357  1.00  0.00     0.009 A 
ATOM     73  C   UNL A   1      43.746  36.042  31.147  1.00  0.00     0.009 A 
ATOM     74  C   UNL A   1      43.913  36.290  33.921  1.00  0.00     0.001 A 
ATOM     75  C   UNL A   1      44.287  37.198  31.714  1.00  0.00     0.001 A 
ATOM     76  C   UNL A   1      44.361  37.324  33.100  1.00  0.00     0.000 A 
ENDBRANCH  58  71
ENDBRANCH  32  33
ENDBRANCH  25  27
ENDBRANCH  24  25
ENDBRANCH  23  24
ENDBRANCH  22  23
ENDBRANCH  21  22
ENDBRANCH   1  21
TORSDOF 20
ENDMDL
MODEL 3
REMARK VINA RESULT:      -6.6      3.582      6.495
REMARK SMILES CC[NH2+][C@@]1(C(=O)OCCOCCOC(=O)c2ccc(-c3c4nc(c(-c5ccccc5)c5ccc([nH]5)c(-c5ccccc5)c5nc(c(-c6ccccc6)c6ccc3[nH]6)C=C5)C=C4)cc2)CC[C@@H](OCCOC)C1
REMARK SMILES IDX 9 1 8 2 7 3 5 4 6 5 4 6 64 7 72 8 65 9 66 10 3 11 2 14 1 15
REMARK SMILES IDX 67 16 68 17 69 18 70 19 71 20 10 21 11 22 12 23 13 24 14 25
REMARK SMILES IDX 15 26 16 27 17 28 63 29 18 30 62 31 19 32 20 33 21 34 56 35
REMARK SMILES IDX 22 36 61 37 55 38 57 39 23 40 60 41 54 42 53 43 24 45 46 46
REMARK SMILES IDX 31 47 45 48 32 49 35 50 44 51 58 52 33 53 34 54 43 56 59 57
REMARK SMILES IDX 36 58 25 59 26 60 30 61 27 62 29 63 28 64 47 65 48 66 52 67
REMARK SMILES IDX 49 68 51 69 50 70 37 71 38 72 42 73 39 74 41 75 40 76
REMARK H PARENT 3 12 3 13 57 44 35 55
REMARK Flexibility Score: inf
ROOT
ATOM      1  C   UNL A   1      34.324  36.399  32.432  1.00  0.00     0.202 C 
ENDROOT
BRANCH   1   2
ATOM      2  C   UNL A   1      33.404  35.473  31.634  1.00  0.00     0.261 C 
BRANCH   2   3
ATOM      3  O   UNL A   1      34.119  34.783  30.595  1.00  0.00    -0.459 OA
BRANCH   3   4
ATOM      4  C   UNL A   1      34.636  33.574  30.942  1.00  0.00     0.368 C 
ATOM      5  O   UNL A   1      34.073  32.768  31.680  1.00  0.00    -0.245 OA
BRANCH   4   6
ATOM      6  C   UNL A   1      36.020  33.278  30.274  1.00  0.00     0.196 C 
ATOM      7  C   UNL A   1      35.940  33.757  28.820  1.00  0.00     0.084 C 
ATOM      8  C   UNL A   1      36.353  31.782  30.102  1.00  0.00     0.113 C 
ATOM      9  C   UNL A   1      35.231  32.624  28.080  1.00  0.00     0.039 C 
ATOM     10  C   UNL A   1      35.611  31.339  28.832  1.00  0.00     0.125 C 
BRANCH   6  11
ATOM     11  N   UNL A   1      37.014  34.119  30.988  1.00  0.00    -0.332 N 
ATOM     12  H   UNL A   1      36.578  35.026  31.150  1.00  0.00     0.347 HD
ATOM     13  H   UNL A   1      37.247  33.577  31.821  1.00  0.00     0.347 HD
BRANCH  11  14
ATOM     14  C   UNL A   1      38.295  34.364  30.353  1.00  0.00     0.257 C 
ATOM     15  C   UNL A   1      39.338  34.669  31.419  1.00  0.00     0.071 C 
ENDBRANCH  11  14
ENDBRANCH   6  11
BRANCH  10  16
ATOM     16  O   UNL A   1      36.358  30.362  28.103  1.00  0.00    -0.376 OA
BRANCH  16  17
ATOM     17  C   UNL A   1      37.764  30.337  28.330  1.00  0.00     0.189 C 
BRANCH  17  18
ATOM     18  C   UNL A   1      38.315  28.913  28.520  1.00  0.00     0.188 C 
BRANCH  18  19
ATOM     19  O   UNL A   1      39.282  28.758  29.560  1.00  0.00    -0.382 OA
ATOM     20  C   UNL A   1      38.857  27.878  30.597  1.00  0.00     0.195 C 
ENDBRANCH  18  19
ENDBRANCH  17  18
ENDBRANCH  16  17
ENDBRANCH  10  16
ENDBRANCH   4   6
ENDBRANCH   3   4
ENDBRANCH   2   3
ENDBRANCH   1   2
BRANCH   1  21
ATOM     21  O   UNL A   1      35.280  35.770  33.283  1.00  0.00    -0.374 OA
BRANCH  21  22
ATOM     22  C   UNL A   1      34.787  34.889  34.292  1.00  0.00     0.202 C 
BRANCH  22  23
ATOM     23  C   UNL A   1      35.709  33.738  34.712  1.00  0.00     0.261 C 
BRANCH  23  24
ATOM     24  O   UNL A   1      36.984  33.781  34.046  1.00  0.00    -0.460 OA
BRANCH  24  25
ATOM     25  C   UNL A   1      38.050  33.653  34.874  1.00  0.00     0.338 C 
ATOM     26  O   UNL A   1      38.185  34.138  35.984  1.00  0.00    -0.246 OA
BRANCH  25  27
ATOM     27  C   UNL A   1      39.022  32.687  34.327  1.00  0.00     0.060 A 
ATOM     28  C   UNL A   1      40.359  32.842  34.711  1.00  0.00     0.016 A 
ATOM     29  C   UNL A   1      38.663  31.733  33.371  1.00  0.00     0.016 A 
ATOM     30  C   UNL A   1      41.355  32.092  34.091  1.00  0.00     0.010 A 
ATOM     31  C   UNL A   1      39.667  30.985  32.744  1.00  0.00     0.010 A 
ATOM     32  C   UNL A   1      41.020  31.195  33.069  1.00  0.00    -0.014 A 
BRANCH  32  33
ATOM     33  C   UNL A   1      42.102  30.610  32.240  1.00  0.00     0.031 A 
ATOM     34  C   UNL A   1      42.680  29.275  32.627  1.00  0.00     0.074 A 
ATOM     35  C   UNL A   1      42.526  31.226  31.123  1.00  0.00     0.049 A 
ATOM     36  N   UNL A   1      43.616  28.574  32.038  1.00  0.00    -0.248 NA
ATOM     37  C   UNL A   1      42.129  28.646  33.839  1.00  0.00     0.031 C 
ATOM     38  C   UNL A   1      42.014  32.496  30.610  1.00  0.00     0.029 A 
ATOM     39  N   UNL A   1      43.486  30.856  30.215  1.00  0.00    -0.354 N 
ATOM     40  C   UNL A   1      43.766  27.426  32.806  1.00  0.00     0.074 A 
ATOM     41  C   UNL A   1      42.848  27.537  33.919  1.00  0.00     0.031 C 
ATOM     42  C   UNL A   1      42.669  32.802  29.476  1.00  0.00     0.029 A 
ATOM     43  C   UNL A   1      43.662  31.765  29.201  1.00  0.00     0.049 A 
ATOM     44  H   UNL A   1      44.000  30.020  30.284  1.00  0.00     0.167 HD
ATOM     45  C   UNL A   1      44.590  26.371  32.603  1.00  0.00     0.031 A 
ATOM     46  C   UNL A   1      44.535  31.768  28.175  1.00  0.00     0.031 A 
ATOM     47  C   UNL A   1      45.512  26.259  31.505  1.00  0.00     0.049 A 
ATOM     48  C   UNL A   1      45.493  30.619  28.012  1.00  0.00     0.074 A 
ATOM     49  C   UNL A   1      46.377  25.220  31.206  1.00  0.00     0.029 A 
ATOM     50  N   UNL A   1      45.693  27.224  30.527  1.00  0.00    -0.354 N 
ATOM     51  N   UNL A   1      45.609  29.529  28.733  1.00  0.00    -0.248 NA
ATOM     52  C   UNL A   1      46.438  30.699  26.888  1.00  0.00     0.031 C 
ATOM     53  C   UNL A   1      47.119  25.581  30.076  1.00  0.00     0.029 A 
ATOM     54  C   UNL A   1      46.677  26.819  29.642  1.00  0.00     0.049 A 
ATOM     55  H   UNL A   1      45.197  28.072  30.471  1.00  0.00     0.167 HD
ATOM     56  C   UNL A   1      46.619  28.785  28.136  1.00  0.00     0.074 A 
ATOM     57  C   UNL A   1      47.075  29.540  26.987  1.00  0.00     0.031 C 
ATOM     58  C   UNL A   1      47.122  27.582  28.505  1.00  0.00     0.031 A 
BRANCH  45  59
ATOM     59  C   UNL A   1      44.553  25.262  33.615  1.00  0.00    -0.014 A 
ATOM     60  C   UNL A   1      43.648  24.195  33.496  1.00  0.00     0.009 A 
ATOM     61  C   UNL A   1      45.461  25.268  34.686  1.00  0.00     0.009 A 
ATOM     62  C   UNL A   1      43.633  23.173  34.447  1.00  0.00     0.001 A 
ATOM     63  C   UNL A   1      45.459  24.233  35.622  1.00  0.00     0.001 A 
ATOM     64  C   UNL A   1      44.541  23.190  35.506  1.00  0.00     0.000 A 
ENDBRANCH  45  59
BRANCH  46  65
ATOM     65  C   UNL A   1      44.560  32.910  27.226  1.00  0.00    -0.014 A 
ATOM     66  C   UNL A   1      43.869  32.848  26.007  1.00  0.00     0.009 A 
ATOM     67  C   UNL A   1      45.295  34.066  27.532  1.00  0.00     0.009 A 
ATOM     68  C   UNL A   1      43.931  33.911  25.105  1.00  0.00     0.001 A 
ATOM     69  C   UNL A   1      45.334  35.139  26.639  1.00  0.00     0.001 A 
ATOM     70  C   UNL A   1      44.659  35.057  25.423  1.00  0.00     0.000 A 
ENDBRANCH  46  65
BRANCH  58  71
ATOM     71  C   UNL A   1      48.203  26.993  27.643  1.00  0.00    -0.014 A 
ATOM     72  C   UNL A   1      47.893  26.229  26.508  1.00  0.00     0.009 A 
ATOM     73  C   UNL A   1      49.550  27.245  27.949  1.00  0.00     0.009 A 
ATOM     74  C   UNL A   1      48.914  25.701  25.713  1.00  0.00     0.001 A 
ATOM     75  C   UNL A   1      50.567  26.737  27.138  1.00  0.00     0.001 A 
ATOM     76  C   UNL A   1      50.248  25.959  26.027  1.00  0.00     0.000 A 
ENDBRANCH  58  71
ENDBRANCH  32  33
ENDBRANCH  25  27
ENDBRANCH  24  25
ENDBRANCH  23  24
ENDBRANCH  22  23
ENDBRANCH  21  22
ENDBRANCH   1  21
TORSDOF 20
ENDMDL
