MODEL 1
REMARK VINA RESULT:     -11.9      0.000      0.000
REMARK SMILES Cc1cc(=O)c(Oc2ccc(C(=O)OCCOCCOC(=O)c3ccc(-c4c5nc(c(-c6ccccc6)c6ccc([nH]6)c(-c6ccccc6)c6nc(c(-c7ccccc7)c7ccc4[nH]7)C=C6)C=C5)cc3)cc2)c(-c2ccc(S(C)(=O)=O)cc2)o1
REMARK SMILES IDX 16 1 15 2 14 3 12 4 13 5 11 6 8 7 9 8 72 9 10 10 71 11 7 12
REMARK SMILES IDX 6 13 1 14 2 15 3 16 84 17 4 18 73 19 5 20 74 21 75 22 83 23
REMARK SMILES IDX 76 24 82 25 77 26 78 27 79 28 80 29 81 30 17 31 18 32 19 33
REMARK SMILES IDX 20 34 21 35 22 36 23 37 24 38 70 39 25 40 69 41 26 42 27 43
REMARK SMILES IDX 28 44 63 45 29 46 68 47 62 48 64 49 30 50 67 51 61 52 60 53
REMARK SMILES IDX 31 55 53 56 38 57 52 58 39 59 42 60 51 61 65 62 40 63 41 64
REMARK SMILES IDX 50 66 66 67 43 68 32 69 33 70 37 71 34 72 36 73 35 74 54 75
REMARK SMILES IDX 55 76 59 77 56 78 58 79 57 80 44 81 45 82 49 83 46 84 48 85
REMARK SMILES IDX 47 86
REMARK H PARENT 64 54 42 65
REMARK Flexibility Score: inf
ROOT
ATOM      1  C   UNL A   1      34.532  32.987  28.354  1.00  0.00     0.202 C 
ENDROOT
BRANCH   1   2
ATOM      2  C   UNL A   1      34.038  31.534  28.355  1.00  0.00     0.261 C 
BRANCH   2   3
ATOM      3  O   UNL A   1      33.965  31.006  27.019  1.00  0.00    -0.460 OA
BRANCH   3   4
ATOM      4  C   UNL A   1      32.763  30.475  26.670  1.00  0.00     0.338 C 
ATOM      5  O   UNL A   1      31.758  31.095  26.368  1.00  0.00    -0.246 OA
BRANCH   4   6
ATOM      6  C   UNL A   1      32.852  28.989  26.590  1.00  0.00     0.060 A 
ATOM      7  C   UNL A   1      32.817  26.196  26.328  1.00  0.00     0.127 A 
ATOM      8  C   UNL A   1      31.768  26.842  26.974  1.00  0.00     0.048 A 
ATOM      9  C   UNL A   1      33.919  26.933  25.883  1.00  0.00     0.048 A 
ATOM     10  C   UNL A   1      31.772  28.237  27.077  1.00  0.00     0.019 A 
ATOM     11  C   UNL A   1      33.940  28.326  26.010  1.00  0.00     0.019 A 
BRANCH   7  12
ATOM     12  O   UNL A   1      32.924  24.837  26.258  1.00  0.00    -0.449 OA
BRANCH  12  13
ATOM     13  C   UNL A   1      32.540  24.049  25.186  1.00  0.00     0.217 A 
ATOM     14  C   UNL A   1      31.944  21.335  21.873  1.00  0.00     0.088 C 
ATOM     15  C   UNL A   1      32.181  22.152  23.102  1.00  0.00     0.105 A 
ATOM     16  C   UNL A   1      32.929  21.749  24.131  1.00  0.00     0.098 A 
ATOM     17  O   UNL A   1      31.563  23.377  23.079  1.00  0.00    -0.457 OA
ATOM     18  C   UNL A   1      33.115  22.663  25.270  1.00  0.00     0.228 A 
ATOM     19  C   UNL A   1      31.796  24.311  24.083  1.00  0.00     0.180 A 
ATOM     20  O   UNL A   1      33.755  22.277  26.244  1.00  0.00    -0.285 OA
BRANCH  19  21
ATOM     21  C   UNL A   1      31.119  25.560  23.708  1.00  0.00     0.021 A 
ATOM     22  C   UNL A   1      31.838  26.548  23.010  1.00  0.00     0.013 A 
ATOM     23  C   UNL A   1      29.836  25.849  24.170  1.00  0.00     0.013 A 
ATOM     24  C   UNL A   1      31.259  27.783  22.706  1.00  0.00     0.021 A 
ATOM     25  C   UNL A   1      29.284  27.104  23.912  1.00  0.00     0.021 A 
ATOM     26  C   UNL A   1      29.973  28.052  23.154  1.00  0.00     0.067 A 
BRANCH  26  27
ATOM     27  S   UNL A   1      29.151  29.552  22.660  1.00  0.00     0.175 S 
ATOM     28  C   UNL A   1      27.426  29.176  22.766  1.00  0.00     0.163 C 
ATOM     29  O   UNL A   1      29.456  30.567  23.649  1.00  0.00    -0.224 OA
ATOM     30  O   UNL A   1      29.471  29.758  21.265  1.00  0.00    -0.224 OA
ENDBRANCH  26  27
ENDBRANCH  19  21
ENDBRANCH  12  13
ENDBRANCH   7  12
ENDBRANCH   4   6
ENDBRANCH   3   4
ENDBRANCH   2   3
ENDBRANCH   1   2
BRANCH   1  31
ATOM     31  O   UNL A   1      33.865  33.842  29.276  1.00  0.00    -0.374 OA
BRANCH  31  32
ATOM     32  C   UNL A   1      34.654  34.252  30.392  1.00  0.00     0.202 C 
BRANCH  32  33
ATOM     33  C   UNL A   1      34.310  33.471  31.658  1.00  0.00     0.261 C 
BRANCH  33  34
ATOM     34  O   UNL A   1      35.134  32.326  31.747  1.00  0.00    -0.460 OA
BRANCH  34  35
ATOM     35  C   UNL A   1      36.059  32.308  32.731  1.00  0.00     0.338 C 
ATOM     36  O   UNL A   1      35.930  32.511  33.911  1.00  0.00    -0.246 OA
BRANCH  35  37
ATOM     37  C   UNL A   1      37.234  31.743  32.048  1.00  0.00     0.060 A 
ATOM     38  C   UNL A   1      37.348  31.890  30.658  1.00  0.00     0.016 A 
ATOM     39  C   UNL A   1      38.098  30.917  32.771  1.00  0.00     0.016 A 
ATOM     40  C   UNL A   1      38.287  31.153  29.976  1.00  0.00     0.010 A 
ATOM     41  C   UNL A   1      39.099  30.236  32.090  1.00  0.00     0.010 A 
ATOM     42  C   UNL A   1      39.194  30.363  30.697  1.00  0.00    -0.014 A 
BRANCH  42  43
ATOM     43  C   UNL A   1      40.350  29.841  29.962  1.00  0.00     0.031 A 
ATOM     44  C   UNL A   1      40.331  28.484  29.353  1.00  0.00     0.074 A 
ATOM     45  C   UNL A   1      41.378  30.696  29.807  1.00  0.00     0.049 A 
ATOM     46  N   UNL A   1      41.234  27.930  28.591  1.00  0.00    -0.248 NA
ATOM     47  C   UNL A   1      39.160  27.635  29.625  1.00  0.00     0.031 C 
ATOM     48  C   UNL A   1      41.432  32.047  30.383  1.00  0.00     0.029 A 
ATOM     49  N   UNL A   1      42.538  30.590  29.098  1.00  0.00    -0.354 N 
ATOM     50  C   UNL A   1      40.745  26.670  28.287  1.00  0.00     0.074 A 
ATOM     51  C   UNL A   1      39.481  26.522  28.975  1.00  0.00     0.031 C 
ATOM     52  C   UNL A   1      42.538  32.663  29.951  1.00  0.00     0.029 A 
ATOM     53  C   UNL A   1      43.302  31.730  29.136  1.00  0.00     0.049 A 
ATOM     54  H   UNL A   1      42.802  29.778  28.609  1.00  0.00     0.167 HD
ATOM     55  C   UNL A   1      41.314  25.739  27.490  1.00  0.00     0.031 A 
ATOM     56  C   UNL A   1      44.497  31.990  28.582  1.00  0.00     0.031 A 
ATOM     57  C   UNL A   1      42.587  25.927  26.840  1.00  0.00     0.049 A 
ATOM     58  C   UNL A   1      45.113  30.919  27.736  1.00  0.00     0.074 A 
ATOM     59  C   UNL A   1      43.266  25.050  26.015  1.00  0.00     0.029 A 
ATOM     60  N   UNL A   1      43.368  27.072  26.941  1.00  0.00    -0.354 N 
ATOM     61  N   UNL A   1      44.631  29.737  27.431  1.00  0.00    -0.248 NA
ATOM     62  C   UNL A   1      46.422  31.213  27.145  1.00  0.00     0.031 C 
ATOM     63  C   UNL A   1      44.487  25.635  25.675  1.00  0.00     0.029 A 
ATOM     64  C   UNL A   1      44.536  26.911  26.216  1.00  0.00     0.049 A 
ATOM     65  H   UNL A   1      43.127  27.877  27.454  1.00  0.00     0.167 HD
ATOM     66  C   UNL A   1      45.577  29.141  26.612  1.00  0.00     0.074 A 
ATOM     67  C   UNL A   1      46.636  30.116  26.431  1.00  0.00     0.031 C 
ATOM     68  C   UNL A   1      45.580  27.898  26.073  1.00  0.00     0.031 A 
BRANCH  55  69
ATOM     69  C   UNL A   1      40.588  24.442  27.271  1.00  0.00    -0.014 A 
ATOM     70  C   UNL A   1      41.157  23.237  27.715  1.00  0.00     0.009 A 
ATOM     71  C   UNL A   1      39.401  24.396  26.524  1.00  0.00     0.009 A 
ATOM     72  C   UNL A   1      40.572  22.012  27.386  1.00  0.00     0.001 A 
ATOM     73  C   UNL A   1      38.802  23.171  26.221  1.00  0.00     0.001 A 
ATOM     74  C   UNL A   1      39.396  21.981  26.639  1.00  0.00     0.000 A 
ENDBRANCH  55  69
BRANCH  56  75
ATOM     75  C   UNL A   1      45.146  33.304  28.829  1.00  0.00    -0.014 A 
ATOM     76  C   UNL A   1      45.894  33.514  30.001  1.00  0.00     0.009 A 
ATOM     77  C   UNL A   1      44.964  34.377  27.947  1.00  0.00     0.009 A 
ATOM     78  C   UNL A   1      46.416  34.773  30.301  1.00  0.00     0.001 A 
ATOM     79  C   UNL A   1      45.523  35.627  28.229  1.00  0.00     0.001 A 
ATOM     80  C   UNL A   1      46.237  35.827  29.410  1.00  0.00     0.000 A 
ENDBRANCH  56  75
BRANCH  68  81
ATOM     81  C   UNL A   1      46.778  27.517  25.248  1.00  0.00    -0.014 A 
ATOM     82  C   UNL A   1      46.854  27.907  23.902  1.00  0.00     0.009 A 
ATOM     83  C   UNL A   1      47.793  26.709  25.784  1.00  0.00     0.009 A 
ATOM     84  C   UNL A   1      47.917  27.483  23.105  1.00  0.00     0.001 A 
ATOM     85  C   UNL A   1      48.876  26.322  24.994  1.00  0.00     0.001 A 
ATOM     86  C   UNL A   1      48.932  26.700  23.653  1.00  0.00     0.000 A 
ENDBRANCH  68  81
ENDBRANCH  42  43
ENDBRANCH  35  37
ENDBRANCH  34  35
ENDBRANCH  33  34
ENDBRANCH  32  33
ENDBRANCH  31  32
ENDBRANCH   1  31
TORSDOF 18
ENDMDL
MODEL 2
REMARK VINA RESULT:     -11.1      1.164      5.824
REMARK SMILES Cc1cc(=O)c(Oc2ccc(C(=O)OCCOCCOC(=O)c3ccc(-c4c5nc(c(-c6ccccc6)c6ccc([nH]6)c(-c6ccccc6)c6nc(c(-c7ccccc7)c7ccc4[nH]7)C=C6)C=C5)cc3)cc2)c(-c2ccc(S(C)(=O)=O)cc2)o1
REMARK SMILES IDX 16 1 15 2 14 3 12 4 13 5 11 6 8 7 9 8 72 9 10 10 71 11 7 12
REMARK SMILES IDX 6 13 1 14 2 15 3 16 84 17 4 18 73 19 5 20 74 21 75 22 83 23
REMARK SMILES IDX 76 24 82 25 77 26 78 27 79 28 80 29 81 30 17 31 18 32 19 33
REMARK SMILES IDX 20 34 21 35 22 36 23 37 24 38 70 39 25 40 69 41 26 42 27 43
REMARK SMILES IDX 28 44 63 45 29 46 68 47 62 48 64 49 30 50 67 51 61 52 60 53
REMARK SMILES IDX 31 55 53 56 38 57 52 58 39 59 42 60 51 61 65 62 40 63 41 64
REMARK SMILES IDX 50 66 66 67 43 68 32 69 33 70 37 71 34 72 36 73 35 74 54 75
REMARK SMILES IDX 55 76 59 77 56 78 58 79 57 80 44 81 45 82 49 83 46 84 48 85
REMARK SMILES IDX 47 86
REMARK H PARENT 64 54 42 65
REMARK Flexibility Score: inf
ROOT
ATOM      1  C   UNL A   1      32.986  34.587  28.959  1.00  0.00     0.202 C 
ENDROOT
BRANCH   1   2
ATOM      2  C   UNL A   1      33.910  33.811  28.012  1.00  0.00     0.261 C 
BRANCH   2   3
ATOM      3  O   UNL A   1      33.402  32.491  27.752  1.00  0.00    -0.460 OA
BRANCH   3   4
ATOM      4  C   UNL A   1      34.348  31.535  27.546  1.00  0.00     0.338 C 
ATOM      5  O   UNL A   1      35.551  31.664  27.698  1.00  0.00    -0.246 OA
BRANCH   4   6
ATOM      6  C   UNL A   1      33.709  30.232  27.205  1.00  0.00     0.060 A 
ATOM      7  C   UNL A   1      32.619  27.689  26.746  1.00  0.00     0.127 A 
ATOM      8  C   UNL A   1      34.000  27.854  26.768  1.00  0.00     0.048 A 
ATOM      9  C   UNL A   1      31.783  28.803  26.873  1.00  0.00     0.048 A 
ATOM     10  C   UNL A   1      34.542  29.117  27.028  1.00  0.00     0.019 A 
ATOM     11  C   UNL A   1      32.321  30.073  27.104  1.00  0.00     0.019 A 
BRANCH   7  12
ATOM     12  O   UNL A   1      32.015  26.509  26.421  1.00  0.00    -0.449 OA
BRANCH  12  13
ATOM     13  C   UNL A   1      32.185  25.812  25.236  1.00  0.00     0.217 A 
ATOM     14  C   UNL A   1      33.333  23.551  21.734  1.00  0.00     0.088 C 
ATOM     15  C   UNL A   1      32.978  24.213  23.026  1.00  0.00     0.105 A 
ATOM     16  C   UNL A   1      33.503  23.875  24.205  1.00  0.00     0.098 A 
ATOM     17  O   UNL A   1      32.057  25.223  22.895  1.00  0.00    -0.457 OA
ATOM     18  C   UNL A   1      33.097  24.629  25.401  1.00  0.00     0.228 A 
ATOM     19  C   UNL A   1      31.724  26.028  23.979  1.00  0.00     0.180 A 
ATOM     20  O   UNL A   1      33.533  24.286  26.498  1.00  0.00    -0.285 OA
BRANCH  19  21
ATOM     21  C   UNL A   1      30.839  27.096  23.496  1.00  0.00     0.021 A 
ATOM     22  C   UNL A   1      31.392  28.182  22.792  1.00  0.00     0.013 A 
ATOM     23  C   UNL A   1      29.494  27.135  23.862  1.00  0.00     0.013 A 
ATOM     24  C   UNL A   1      30.600  29.259  22.388  1.00  0.00     0.021 A 
ATOM     25  C   UNL A   1      28.721  28.239  23.504  1.00  0.00     0.021 A 
ATOM     26  C   UNL A   1      29.257  29.278  22.741  1.00  0.00     0.067 A 
BRANCH  26  27
ATOM     27  S   UNL A   1      28.187  30.557  22.118  1.00  0.00     0.175 S 
ATOM     28  C   UNL A   1      28.866  32.061  22.753  1.00  0.00     0.163 C 
ATOM     29  O   UNL A   1      28.318  30.574  20.674  1.00  0.00    -0.224 OA
ATOM     30  O   UNL A   1      26.899  30.358  22.741  1.00  0.00    -0.224 OA
ENDBRANCH  26  27
ENDBRANCH  19  21
ENDBRANCH  12  13
ENDBRANCH   7  12
ENDBRANCH   4   6
ENDBRANCH   3   4
ENDBRANCH   2   3
ENDBRANCH   1   2
BRANCH   1  31
ATOM     31  O   UNL A   1      33.309  34.460  30.340  1.00  0.00    -0.374 OA
BRANCH  31  32
ATOM     32  C   UNL A   1      34.644  34.031  30.607  1.00  0.00     0.202 C 
BRANCH  32  33
ATOM     33  C   UNL A   1      35.075  34.347  32.037  1.00  0.00     0.261 C 
BRANCH  33  34
ATOM     34  O   UNL A   1      36.399  33.898  32.243  1.00  0.00    -0.460 OA
BRANCH  34  35
ATOM     35  C   UNL A   1      36.556  32.643  32.715  1.00  0.00     0.338 C 
ATOM     36  O   UNL A   1      35.829  31.989  33.419  1.00  0.00    -0.246 OA
BRANCH  35  37
ATOM     37  C   UNL A   1      37.729  32.167  31.962  1.00  0.00     0.060 A 
ATOM     38  C   UNL A   1      37.730  32.280  30.564  1.00  0.00     0.016 A 
ATOM     39  C   UNL A   1      38.717  31.451  32.640  1.00  0.00     0.016 A 
ATOM     40  C   UNL A   1      38.684  31.611  29.834  1.00  0.00     0.010 A 
ATOM     41  C   UNL A   1      39.728  30.845  31.905  1.00  0.00     0.010 A 
ATOM     42  C   UNL A   1      39.711  30.935  30.506  1.00  0.00    -0.014 A 
BRANCH  42  43
ATOM     43  C   UNL A   1      40.857  30.500  29.701  1.00  0.00     0.031 A 
ATOM     44  C   UNL A   1      42.034  31.385  29.490  1.00  0.00     0.074 A 
ATOM     45  C   UNL A   1      40.806  29.234  29.248  1.00  0.00     0.049 A 
ATOM     46  N   UNL A   1      43.157  31.102  28.891  1.00  0.00    -0.248 NA
ATOM     47  C   UNL A   1      41.950  32.760  30.009  1.00  0.00     0.031 C 
ATOM     48  C   UNL A   1      39.669  28.323  29.444  1.00  0.00     0.029 A 
ATOM     49  N   UNL A   1      41.726  28.479  28.582  1.00  0.00    -0.354 N 
ATOM     50  C   UNL A   1      43.920  32.257  28.961  1.00  0.00     0.074 A 
ATOM     51  C   UNL A   1      43.120  33.261  29.629  1.00  0.00     0.031 C 
ATOM     52  C   UNL A   1      39.986  27.116  28.964  1.00  0.00     0.029 A 
ATOM     53  C   UNL A   1      41.310  27.188  28.363  1.00  0.00     0.049 A 
ATOM     54  H   UNL A   1      42.599  28.823  28.287  1.00  0.00     0.167 HD
ATOM     55  C   UNL A   1      45.182  32.436  28.512  1.00  0.00     0.031 A 
ATOM     56  C   UNL A   1      41.927  26.176  27.734  1.00  0.00     0.031 A 
ATOM     57  C   UNL A   1      45.933  31.408  27.836  1.00  0.00     0.049 A 
ATOM     58  C   UNL A   1      43.310  26.425  27.217  1.00  0.00     0.074 A 
ATOM     59  C   UNL A   1      47.217  31.478  27.329  1.00  0.00     0.029 A 
ATOM     60  N   UNL A   1      45.467  30.125  27.576  1.00  0.00    -0.354 N 
ATOM     61  N   UNL A   1      44.037  27.514  27.311  1.00  0.00    -0.248 NA
ATOM     62  C   UNL A   1      43.968  25.313  26.524  1.00  0.00     0.031 C 
ATOM     63  C   UNL A   1      47.501  30.263  26.703  1.00  0.00     0.029 A 
ATOM     64  C   UNL A   1      46.429  29.403  26.891  1.00  0.00     0.049 A 
ATOM     65  H   UNL A   1      44.583  29.782  27.840  1.00  0.00     0.167 HD
ATOM     66  C   UNL A   1      45.240  27.223  26.688  1.00  0.00     0.074 A 
ATOM     67  C   UNL A   1      45.159  25.837  26.265  1.00  0.00     0.031 C 
ATOM     68  C   UNL A   1      46.306  28.029  26.468  1.00  0.00     0.031 A 
BRANCH  55  69
ATOM     69  C   UNL A   1      45.836  33.773  28.724  1.00  0.00    -0.014 A 
ATOM     70  C   UNL A   1      45.776  34.749  27.715  1.00  0.00     0.009 A 
ATOM     71  C   UNL A   1      46.608  34.026  29.868  1.00  0.00     0.009 A 
ATOM     72  C   UNL A   1      46.505  35.934  27.832  1.00  0.00     0.001 A 
ATOM     73  C   UNL A   1      47.312  35.226  29.994  1.00  0.00     0.001 A 
ATOM     74  C   UNL A   1      47.272  36.171  28.971  1.00  0.00     0.000 A 
ENDBRANCH  55  69
BRANCH  56  75
ATOM     75  C   UNL A   1      41.224  24.875  27.579  1.00  0.00    -0.014 A 
ATOM     76  C   UNL A   1      41.677  23.739  28.274  1.00  0.00     0.009 A 
ATOM     77  C   UNL A   1      40.155  24.734  26.685  1.00  0.00     0.009 A 
ATOM     78  C   UNL A   1      41.098  22.488  28.054  1.00  0.00     0.001 A 
ATOM     79  C   UNL A   1      39.549  23.488  26.498  1.00  0.00     0.001 A 
ATOM     80  C   UNL A   1      40.029  22.365  27.171  1.00  0.00     0.000 A 
ENDBRANCH  56  75
BRANCH  68  81
ATOM     81  C   UNL A   1      47.467  27.433  25.722  1.00  0.00    -0.014 A 
ATOM     82  C   UNL A   1      47.464  27.416  24.319  1.00  0.00     0.009 A 
ATOM     83  C   UNL A   1      48.526  26.820  26.409  1.00  0.00     0.009 A 
ATOM     84  C   UNL A   1      48.492  26.786  23.618  1.00  0.00     0.001 A 
ATOM     85  C   UNL A   1      49.574  26.228  25.705  1.00  0.00     0.001 A 
ATOM     86  C   UNL A   1      49.551  26.200  24.311  1.00  0.00     0.000 A 
ENDBRANCH  68  81
ENDBRANCH  42  43
ENDBRANCH  35  37
ENDBRANCH  34  35
ENDBRANCH  33  34
ENDBRANCH  32  33
ENDBRANCH  31  32
ENDBRANCH   1  31
TORSDOF 18
ENDMDL
MODEL 3
REMARK VINA RESULT:     -10.9      1.762      2.620
REMARK SMILES Cc1cc(=O)c(Oc2ccc(C(=O)OCCOCCOC(=O)c3ccc(-c4c5nc(c(-c6ccccc6)c6ccc([nH]6)c(-c6ccccc6)c6nc(c(-c7ccccc7)c7ccc4[nH]7)C=C6)C=C5)cc3)cc2)c(-c2ccc(S(C)(=O)=O)cc2)o1
REMARK SMILES IDX 16 1 15 2 14 3 12 4 13 5 11 6 8 7 9 8 72 9 10 10 71 11 7 12
REMARK SMILES IDX 6 13 1 14 2 15 3 16 84 17 4 18 73 19 5 20 74 21 75 22 83 23
REMARK SMILES IDX 76 24 82 25 77 26 78 27 79 28 80 29 81 30 17 31 18 32 19 33
REMARK SMILES IDX 20 34 21 35 22 36 23 37 24 38 70 39 25 40 69 41 26 42 27 43
REMARK SMILES IDX 28 44 63 45 29 46 68 47 62 48 64 49 30 50 67 51 61 52 60 53
REMARK SMILES IDX 31 55 53 56 38 57 52 58 39 59 42 60 51 61 65 62 40 63 41 64
REMARK SMILES IDX 50 66 66 67 43 68 32 69 33 70 37 71 34 72 36 73 35 74 54 75
REMARK SMILES IDX 55 76 59 77 56 78 58 79 57 80 44 81 45 82 49 83 46 84 48 85
REMARK SMILES IDX 47 86
REMARK H PARENT 64 54 42 65
REMARK Flexibility Score: inf
ROOT
ATOM      1  C   UNL A   1      33.452  33.662  28.465  1.00  0.00     0.202 C 
ENDROOT
BRANCH   1   2
ATOM      2  C   UNL A   1      33.745  32.469  27.544  1.00  0.00     0.261 C 
BRANCH   2   3
ATOM      3  O   UNL A   1      32.905  31.346  27.859  1.00  0.00    -0.460 OA
BRANCH   3   4
ATOM      4  C   UNL A   1      32.145  30.883  26.832  1.00  0.00     0.338 C 
ATOM      5  O   UNL A   1      31.181  31.442  26.335  1.00  0.00    -0.246 OA
BRANCH   4   6
ATOM      6  C   UNL A   1      32.714  29.616  26.290  1.00  0.00     0.060 A 
ATOM      7  C   UNL A   1      33.572  27.146  25.274  1.00  0.00     0.127 A 
ATOM      8  C   UNL A   1      32.905  27.197  26.493  1.00  0.00     0.048 A 
ATOM      9  C   UNL A   1      33.881  28.333  24.601  1.00  0.00     0.048 A 
ATOM     10  C   UNL A   1      32.450  28.425  26.984  1.00  0.00     0.019 A 
ATOM     11  C   UNL A   1      33.455  29.566  25.102  1.00  0.00     0.019 A 
BRANCH   7  12
ATOM     12  O   UNL A   1      34.115  26.000  24.769  1.00  0.00    -0.449 OA
BRANCH  12  13
ATOM     13  C   UNL A   1      33.408  24.937  24.235  1.00  0.00     0.217 A 
ATOM     14  C   UNL A   1      31.777  21.404  22.349  1.00  0.00     0.088 C 
ATOM     15  C   UNL A   1      32.428  22.532  23.082  1.00  0.00     0.105 A 
ATOM     16  C   UNL A   1      33.629  22.453  23.658  1.00  0.00     0.098 A 
ATOM     17  O   UNL A   1      31.677  23.681  23.105  1.00  0.00    -0.457 OA
ATOM     18  C   UNL A   1      34.175  23.648  24.320  1.00  0.00     0.228 A 
ATOM     19  C   UNL A   1      32.198  24.861  23.626  1.00  0.00     0.180 A 
ATOM     20  O   UNL A   1      35.254  23.565  24.901  1.00  0.00    -0.285 OA
BRANCH  19  21
ATOM     21  C   UNL A   1      31.227  25.935  23.378  1.00  0.00     0.021 A 
ATOM     22  C   UNL A   1      31.531  26.931  22.431  1.00  0.00     0.013 A 
ATOM     23  C   UNL A   1      30.090  26.074  24.174  1.00  0.00     0.013 A 
ATOM     24  C   UNL A   1      30.674  28.015  22.224  1.00  0.00     0.021 A 
ATOM     25  C   UNL A   1      29.268  27.188  24.000  1.00  0.00     0.021 A 
ATOM     26  C   UNL A   1      29.535  28.133  23.009  1.00  0.00     0.067 A 
BRANCH  26  27
ATOM     27  S   UNL A   1      28.347  29.416  22.672  1.00  0.00     0.175 S 
ATOM     28  C   UNL A   1      28.950  30.830  23.546  1.00  0.00     0.163 C 
ATOM     29  O   UNL A   1      28.401  29.703  21.252  1.00  0.00    -0.224 OA
ATOM     30  O   UNL A   1      27.110  29.007  23.297  1.00  0.00    -0.224 OA
ENDBRANCH  26  27
ENDBRANCH  19  21
ENDBRANCH  12  13
ENDBRANCH   7  12
ENDBRANCH   4   6
ENDBRANCH   3   4
ENDBRANCH   2   3
ENDBRANCH   1   2
BRANCH   1  31
ATOM     31  O   UNL A   1      33.799  33.456  29.830  1.00  0.00    -0.374 OA
BRANCH  31  32
ATOM     32  C   UNL A   1      35.201  33.440  30.097  1.00  0.00     0.202 C 
BRANCH  32  33
ATOM     33  C   UNL A   1      35.692  32.056  30.514  1.00  0.00     0.261 C 
BRANCH  33  34
ATOM     34  O   UNL A   1      36.489  31.505  29.485  1.00  0.00    -0.460 OA
BRANCH  34  35
ATOM     35  C   UNL A   1      36.306  30.198  29.200  1.00  0.00     0.338 C 
ATOM     36  O   UNL A   1      35.289  29.598  28.957  1.00  0.00    -0.246 OA
BRANCH  35  37
ATOM     37  C   UNL A   1      37.686  29.719  29.018  1.00  0.00     0.060 A 
ATOM     38  C   UNL A   1      38.237  29.707  27.728  1.00  0.00     0.016 A 
ATOM     39  C   UNL A   1      38.335  29.117  30.098  1.00  0.00     0.016 A 
ATOM     40  C   UNL A   1      39.410  29.027  27.502  1.00  0.00     0.010 A 
ATOM     41  C   UNL A   1      39.562  28.500  29.882  1.00  0.00     0.010 A 
ATOM     42  C   UNL A   1      40.097  28.466  28.587  1.00  0.00    -0.014 A 
BRANCH  42  43
ATOM     43  C   UNL A   1      41.473  28.021  28.343  1.00  0.00     0.031 A 
ATOM     44  C   UNL A   1      41.782  26.601  28.026  1.00  0.00     0.074 A 
ATOM     45  C   UNL A   1      42.407  28.988  28.342  1.00  0.00     0.049 A 
ATOM     46  N   UNL A   1      42.930  26.082  27.688  1.00  0.00    -0.248 NA
ATOM     47  C   UNL A   1      40.673  25.635  28.093  1.00  0.00     0.031 C 
ATOM     48  C   UNL A   1      42.143  30.404  28.639  1.00  0.00     0.029 A 
ATOM     49  N   UNL A   1      43.738  28.954  28.044  1.00  0.00    -0.354 N 
ATOM     50  C   UNL A   1      42.689  24.731  27.498  1.00  0.00     0.074 A 
ATOM     51  C   UNL A   1      41.292  24.498  27.792  1.00  0.00     0.031 C 
ATOM     52  C   UNL A   1      43.263  31.109  28.448  1.00  0.00     0.029 A 
ATOM     53  C   UNL A   1      44.335  30.190  28.091  1.00  0.00     0.049 A 
ATOM     54  H   UNL A   1      44.222  28.128  27.820  1.00  0.00     0.167 HD
ATOM     55  C   UNL A   1      43.571  23.788  27.099  1.00  0.00     0.031 A 
ATOM     56  C   UNL A   1      45.613  30.542  27.879  1.00  0.00     0.031 A 
ATOM     57  C   UNL A   1      44.960  24.068  26.834  1.00  0.00     0.049 A 
ATOM     58  C   UNL A   1      46.568  29.462  27.475  1.00  0.00     0.074 A 
ATOM     59  C   UNL A   1      45.950  23.190  26.432  1.00  0.00     0.029 A 
ATOM     60  N   UNL A   1      45.553  25.320  26.944  1.00  0.00    -0.354 N 
ATOM     61  N   UNL A   1      46.327  28.188  27.271  1.00  0.00    -0.248 NA
ATOM     62  C   UNL A   1      47.962  29.859  27.257  1.00  0.00     0.031 C 
ATOM     63  C   UNL A   1      47.152  23.895  26.366  1.00  0.00     0.029 A 
ATOM     64  C   UNL A   1      46.901  25.231  26.644  1.00  0.00     0.049 A 
ATOM     65  H   UNL A   1      45.083  26.146  27.198  1.00  0.00     0.167 HD
ATOM     66  C   UNL A   1      47.538  27.627  26.900  1.00  0.00     0.074 A 
ATOM     67  C   UNL A   1      48.500  28.713  26.861  1.00  0.00     0.031 C 
ATOM     68  C   UNL A   1      47.835  26.332  26.634  1.00  0.00     0.031 A 
BRANCH  55  69
ATOM     69  C   UNL A   1      43.083  22.378  26.924  1.00  0.00    -0.014 A 
ATOM     70  C   UNL A   1      43.390  21.670  25.750  1.00  0.00     0.009 A 
ATOM     71  C   UNL A   1      42.222  21.790  27.864  1.00  0.00     0.009 A 
ATOM     72  C   UNL A   1      42.818  20.420  25.505  1.00  0.00     0.001 A 
ATOM     73  C   UNL A   1      41.675  20.527  27.630  1.00  0.00     0.001 A 
ATOM     74  C   UNL A   1      41.962  19.850  26.445  1.00  0.00     0.000 A 
ENDBRANCH  55  69
BRANCH  56  75
ATOM     75  C   UNL A   1      46.019  31.962  28.053  1.00  0.00    -0.014 A 
ATOM     76  C   UNL A   1      45.930  32.860  26.975  1.00  0.00     0.009 A 
ATOM     77  C   UNL A   1      46.568  32.413  29.260  1.00  0.00     0.009 A 
ATOM     78  C   UNL A   1      46.410  34.165  27.089  1.00  0.00     0.001 A 
ATOM     79  C   UNL A   1      47.010  33.733  29.386  1.00  0.00     0.001 A 
ATOM     80  C   UNL A   1      46.943  34.604  28.298  1.00  0.00     0.000 A 
ENDBRANCH  56  75
BRANCH  68  81
ATOM     81  C   UNL A   1      49.264  26.018  26.292  1.00  0.00    -0.014 A 
ATOM     82  C   UNL A   1      50.116  25.476  27.267  1.00  0.00     0.009 A 
ATOM     83  C   UNL A   1      49.788  26.331  25.027  1.00  0.00     0.009 A 
ATOM     84  C   UNL A   1      51.466  25.266  26.987  1.00  0.00     0.001 A 
ATOM     85  C   UNL A   1      51.128  26.079  24.737  1.00  0.00     0.001 A 
ATOM     86  C   UNL A   1      51.969  25.558  25.721  1.00  0.00     0.000 A 
ENDBRANCH  68  81
ENDBRANCH  42  43
ENDBRANCH  35  37
ENDBRANCH  34  35
ENDBRANCH  33  34
ENDBRANCH  32  33
ENDBRANCH  31  32
ENDBRANCH   1  31
TORSDOF 18
ENDMDL
