MODEL 1
REMARK VINA RESULT:      -9.2      0.000      0.000
REMARK SMILES COc1ccc(/C=C2\SC(=S)N=C2OCCOCCOC(=O)c2ccc(-c3c4nc(c(-c5ccccc5)c5ccc([nH]5)c(-c5ccccc5)c5nc(c(-c6ccccc6)c6ccc3[nH]6)C=C5)C=C4)cc2)c(C(=O)[O-])c1OC
REMARK SMILES IDX 18 1 17 2 16 3 15 4 14 5 13 6 7 7 8 8 9 9 10 10 12 11 11 12
REMARK SMILES IDX 6 13 3 14 4 15 75 16 5 17 71 18 2 19 1 20 76 21 77 22 72 23
REMARK SMILES IDX 73 24 74 25 19 26 20 27 21 28 22 29 23 30 24 31 70 32 25 33
REMARK SMILES IDX 69 34 26 35 27 36 28 37 63 38 29 39 68 40 62 41 64 42 30 43
REMARK SMILES IDX 67 44 61 45 60 46 31 48 53 49 38 50 52 51 39 52 42 53 51 54
REMARK SMILES IDX 65 55 40 56 41 57 50 59 66 60 43 61 32 62 33 63 37 64 34 65
REMARK SMILES IDX 36 66 35 67 54 68 55 69 59 70 56 71 58 72 57 73 44 74 45 75
REMARK SMILES IDX 49 76 46 77 48 78 47 79
REMARK H PARENT 64 47 42 58
REMARK Flexibility Score: inf
ROOT
ATOM      1  C   UNL A   1      45.021  19.457  24.975  1.00  0.00     0.202 C 
ENDROOT
BRANCH   1   2
ATOM      2  O   UNL A   1      45.031  20.661  24.201  1.00  0.00    -0.374 OA
BRANCH   2   3
ATOM      3  C   UNL A   1      45.912  21.690  24.656  1.00  0.00     0.202 C 
BRANCH   3   4
ATOM      4  C   UNL A   1      45.451  23.140  24.469  1.00  0.00     0.260 C 
BRANCH   4   5
ATOM      5  O   UNL A   1      46.514  24.109  24.540  1.00  0.00    -0.474 OA
BRANCH   5   6
ATOM      6  C   UNL A   1      46.464  25.419  24.813  1.00  0.00     0.229 C 
ATOM      7  C   UNL A   1      48.734  26.243  24.000  1.00  0.00     0.030 C 
ATOM      8  C   UNL A   1      47.529  26.434  24.564  1.00  0.00     0.077 C 
ATOM      9  S   UNL A   1      46.866  27.942  25.108  1.00  0.00    -0.053 SA
ATOM     10  C   UNL A   1      45.312  27.183  25.470  1.00  0.00     0.168 C 
ATOM     11  N   UNL A   1      45.330  25.824  25.304  1.00  0.00    -0.194 NA
ATOM     12  S   UNL A   1      43.963  28.078  25.889  1.00  0.00    -0.050 S 
BRANCH   7  13
ATOM     13  C   UNL A   1      49.876  27.091  23.558  1.00  0.00    -0.011 A 
ATOM     14  C   UNL A   1      52.172  28.547  22.776  1.00  0.00     0.161 A 
ATOM     15  C   UNL A   1      52.093  27.988  24.049  1.00  0.00     0.051 A 
ATOM     16  C   UNL A   1      51.078  28.478  21.898  1.00  0.00     0.170 A 
ATOM     17  C   UNL A   1      50.955  27.284  24.434  1.00  0.00     0.013 A 
ATOM     18  C   UNL A   1      49.902  27.781  22.299  1.00  0.00     0.050 A 
BRANCH  14  19
ATOM     19  O   UNL A   1      53.379  29.039  22.353  1.00  0.00    -0.493 OA
ATOM     20  C   UNL A   1      53.683  30.327  22.885  1.00  0.00     0.278 C 
ENDBRANCH  14  19
BRANCH  16  21
ATOM     21  O   UNL A   1      51.083  29.007  20.633  1.00  0.00    -0.492 OA
ATOM     22  C   UNL A   1      50.942  30.404  20.441  1.00  0.00     0.278 C 
ENDBRANCH  16  21
BRANCH  18  23
ATOM     23  C   UNL A   1      48.652  27.876  21.444  1.00  0.00     0.076 C 
ATOM     24  O   UNL A   1      48.299  27.097  20.576  1.00  0.00    -0.545 OA
ATOM     25  O   UNL A   1      47.838  28.913  21.704  1.00  0.00    -0.545 OA
ENDBRANCH  18  23
ENDBRANCH   7  13
ENDBRANCH   5   6
ENDBRANCH   4   5
ENDBRANCH   3   4
ENDBRANCH   2   3
ENDBRANCH   1   2
BRANCH   1  26
ATOM     26  C   UNL A   1      43.733  18.632  24.902  1.00  0.00     0.261 C 
BRANCH  26  27
ATOM     27  O   UNL A   1      42.995  18.718  26.128  1.00  0.00    -0.460 OA
BRANCH  27  28
ATOM     28  C   UNL A   1      41.804  19.350  26.025  1.00  0.00     0.338 C 
ATOM     29  O   UNL A   1      40.735  18.871  25.675  1.00  0.00    -0.246 OA
BRANCH  28  30
ATOM     30  C   UNL A   1      41.931  20.702  26.597  1.00  0.00     0.060 A 
ATOM     31  C   UNL A   1      42.099  21.771  25.706  1.00  0.00     0.016 A 
ATOM     32  C   UNL A   1      41.888  20.924  27.976  1.00  0.00     0.016 A 
ATOM     33  C   UNL A   1      42.281  23.062  26.194  1.00  0.00     0.010 A 
ATOM     34  C   UNL A   1      42.078  22.217  28.464  1.00  0.00     0.010 A 
ATOM     35  C   UNL A   1      42.314  23.282  27.576  1.00  0.00    -0.014 A 
BRANCH  35  36
ATOM     36  C   UNL A   1      42.762  24.591  28.101  1.00  0.00     0.031 A 
ATOM     37  C   UNL A   1      41.728  25.654  28.350  1.00  0.00     0.074 A 
ATOM     38  C   UNL A   1      44.062  24.827  28.350  1.00  0.00     0.049 A 
ATOM     39  N   UNL A   1      41.890  26.892  28.739  1.00  0.00    -0.248 NA
ATOM     40  C   UNL A   1      40.323  25.274  28.121  1.00  0.00     0.031 C 
ATOM     41  C   UNL A   1      45.147  23.862  28.178  1.00  0.00     0.029 A 
ATOM     42  N   UNL A   1      44.688  25.965  28.788  1.00  0.00    -0.354 N 
ATOM     43  C   UNL A   1      40.615  27.444  28.776  1.00  0.00     0.074 A 
ATOM     44  C   UNL A   1      39.690  26.414  28.355  1.00  0.00     0.031 C 
ATOM     45  C   UNL A   1      46.311  24.456  28.490  1.00  0.00     0.029 A 
ATOM     46  C   UNL A   1      46.056  25.850  28.846  1.00  0.00     0.049 A 
ATOM     47  H   UNL A   1      44.205  26.786  29.037  1.00  0.00     0.167 HD
ATOM     48  C   UNL A   1      40.250  28.698  29.129  1.00  0.00     0.031 A 
ATOM     49  C   UNL A   1      46.994  26.777  29.124  1.00  0.00     0.031 A 
ATOM     50  C   UNL A   1      41.174  29.714  29.551  1.00  0.00     0.049 A 
ATOM     51  C   UNL A   1      46.559  28.180  29.461  1.00  0.00     0.074 A 
ATOM     52  C   UNL A   1      40.899  31.001  29.977  1.00  0.00     0.029 A 
ATOM     53  N   UNL A   1      42.551  29.561  29.590  1.00  0.00    -0.354 N 
ATOM     54  N   UNL A   1      45.348  28.674  29.548  1.00  0.00    -0.248 NA
ATOM     55  C   UNL A   1      47.625  29.152  29.748  1.00  0.00     0.031 C 
ATOM     56  C   UNL A   1      42.115  31.651  30.205  1.00  0.00     0.029 A 
ATOM     57  C   UNL A   1      43.141  30.745  29.995  1.00  0.00     0.049 A 
ATOM     58  H   UNL A   1      43.035  28.735  29.365  1.00  0.00     0.167 HD
ATOM     59  C   UNL A   1      45.505  30.001  29.931  1.00  0.00     0.074 A 
ATOM     60  C   UNL A   1      46.928  30.230  30.078  1.00  0.00     0.031 C 
ATOM     61  C   UNL A   1      44.560  30.949  30.144  1.00  0.00     0.031 A 
BRANCH  48  62
ATOM     62  C   UNL A   1      38.795  29.061  29.035  1.00  0.00    -0.014 A 
ATOM     63  C   UNL A   1      37.930  28.929  30.132  1.00  0.00     0.009 A 
ATOM     64  C   UNL A   1      38.300  29.610  27.841  1.00  0.00     0.009 A 
ATOM     65  C   UNL A   1      36.595  29.325  30.029  1.00  0.00     0.001 A 
ATOM     66  C   UNL A   1      36.973  30.031  27.750  1.00  0.00     0.001 A 
ATOM     67  C   UNL A   1      36.119  29.883  28.842  1.00  0.00     0.000 A 
ENDBRANCH  48  62
BRANCH  49  68
ATOM     68  C   UNL A   1      48.440  26.431  29.053  1.00  0.00    -0.014 A 
ATOM     69  C   UNL A   1      49.117  25.931  30.175  1.00  0.00     0.009 A 
ATOM     70  C   UNL A   1      49.161  26.648  27.868  1.00  0.00     0.009 A 
ATOM     71  C   UNL A   1      50.494  25.696  30.125  1.00  0.00     0.001 A 
ATOM     72  C   UNL A   1      50.530  26.378  27.810  1.00  0.00     0.001 A 
ATOM     73  C   UNL A   1      51.198  25.917  28.942  1.00  0.00     0.000 A 
ENDBRANCH  49  68
BRANCH  61  74
ATOM     74  C   UNL A   1      45.024  32.301  30.605  1.00  0.00    -0.014 A 
ATOM     75  C   UNL A   1      45.203  32.592  31.967  1.00  0.00     0.009 A 
ATOM     76  C   UNL A   1      45.338  33.285  29.653  1.00  0.00     0.009 A 
ATOM     77  C   UNL A   1      45.652  33.853  32.366  1.00  0.00     0.001 A 
ATOM     78  C   UNL A   1      45.820  34.532  30.054  1.00  0.00     0.001 A 
ATOM     79  C   UNL A   1      45.966  34.818  31.410  1.00  0.00     0.000 A 
ENDBRANCH  61  74
ENDBRANCH  35  36
ENDBRANCH  28  30
ENDBRANCH  27  28
ENDBRANCH  26  27
ENDBRANCH   1  26
TORSDOF 17
ENDMDL
MODEL 2
REMARK VINA RESULT:      -8.5      7.534     12.726
REMARK SMILES COc1ccc(/C=C2\SC(=S)N=C2OCCOCCOC(=O)c2ccc(-c3c4nc(c(-c5ccccc5)c5ccc([nH]5)c(-c5ccccc5)c5nc(c(-c6ccccc6)c6ccc3[nH]6)C=C5)C=C4)cc2)c(C(=O)[O-])c1OC
REMARK SMILES IDX 18 1 17 2 16 3 15 4 14 5 13 6 7 7 8 8 9 9 10 10 12 11 11 12
REMARK SMILES IDX 6 13 3 14 4 15 75 16 5 17 71 18 2 19 1 20 76 21 77 22 72 23
REMARK SMILES IDX 73 24 74 25 19 26 20 27 21 28 22 29 23 30 24 31 70 32 25 33
REMARK SMILES IDX 69 34 26 35 27 36 28 37 63 38 29 39 68 40 62 41 64 42 30 43
REMARK SMILES IDX 67 44 61 45 60 46 31 48 53 49 38 50 52 51 39 52 42 53 51 54
REMARK SMILES IDX 65 55 40 56 41 57 50 59 66 60 43 61 32 62 33 63 37 64 34 65
REMARK SMILES IDX 36 66 35 67 54 68 55 69 59 70 56 71 58 72 57 73 44 74 45 75
REMARK SMILES IDX 49 76 46 77 48 78 47 79
REMARK H PARENT 64 47 42 58
REMARK Flexibility Score: inf
ROOT
ATOM      1  C   UNL A   1      33.140  31.741  27.699  1.00  0.00     0.202 C 
ENDROOT
BRANCH   1   2
ATOM      2  O   UNL A   1      32.402  30.852  26.853  1.00  0.00    -0.374 OA
BRANCH   2   3
ATOM      3  C   UNL A   1      32.263  29.511  27.327  1.00  0.00     0.202 C 
BRANCH   3   4
ATOM      4  C   UNL A   1      33.477  28.585  27.177  1.00  0.00     0.260 C 
BRANCH   4   5
ATOM      5  O   UNL A   1      33.895  28.379  25.815  1.00  0.00    -0.474 OA
BRANCH   5   6
ATOM      6  C   UNL A   1      33.327  27.654  24.844  1.00  0.00     0.229 C 
ATOM      7  C   UNL A   1      34.444  25.380  25.124  1.00  0.00     0.030 C 
ATOM      8  C   UNL A   1      33.598  26.225  24.509  1.00  0.00     0.077 C 
ATOM      9  S   UNL A   1      32.546  25.855  23.180  1.00  0.00    -0.053 SA
ATOM     10  C   UNL A   1      31.803  27.456  23.260  1.00  0.00     0.168 C 
ATOM     11  N   UNL A   1      32.409  28.281  24.170  1.00  0.00    -0.194 NA
ATOM     12  S   UNL A   1      30.452  27.853  22.358  1.00  0.00    -0.050 S 
BRANCH   7  13
ATOM     13  C   UNL A   1      34.786  23.933  25.044  1.00  0.00    -0.011 A 
ATOM     14  C   UNL A   1      35.625  21.232  24.964  1.00  0.00     0.161 A 
ATOM     15  C   UNL A   1      36.378  22.222  24.339  1.00  0.00     0.051 A 
ATOM     16  C   UNL A   1      34.392  21.544  25.559  1.00  0.00     0.170 A 
ATOM     17  C   UNL A   1      35.955  23.549  24.370  1.00  0.00     0.013 A 
ATOM     18  C   UNL A   1      33.942  22.896  25.569  1.00  0.00     0.050 A 
BRANCH  14  19
ATOM     19  O   UNL A   1      36.175  19.985  25.103  1.00  0.00    -0.493 OA
ATOM     20  C   UNL A   1      37.562  19.937  24.775  1.00  0.00     0.278 C 
ENDBRANCH  14  19
BRANCH  16  21
ATOM     21  O   UNL A   1      33.595  20.622  26.188  1.00  0.00    -0.492 OA
ATOM     22  C   UNL A   1      32.857  19.679  25.430  1.00  0.00     0.278 C 
ENDBRANCH  16  21
BRANCH  18  23
ATOM     23  C   UNL A   1      32.528  23.206  26.025  1.00  0.00     0.076 C 
ATOM     24  O   UNL A   1      31.527  23.238  25.330  1.00  0.00    -0.545 OA
ATOM     25  O   UNL A   1      32.369  23.434  27.339  1.00  0.00    -0.545 OA
ENDBRANCH  18  23
ENDBRANCH   7  13
ENDBRANCH   5   6
ENDBRANCH   4   5
ENDBRANCH   3   4
ENDBRANCH   2   3
ENDBRANCH   1   2
BRANCH   1  26
ATOM     26  C   UNL A   1      33.165  33.207  27.256  1.00  0.00     0.261 C 
BRANCH  26  27
ATOM     27  O   UNL A   1      32.306  34.008  28.078  1.00  0.00    -0.460 OA
BRANCH  27  28
ATOM     28  C   UNL A   1      32.922  35.043  28.695  1.00  0.00     0.338 C 
ATOM     29  O   UNL A   1      32.548  36.205  28.750  1.00  0.00    -0.246 OA
BRANCH  28  30
ATOM     30  C   UNL A   1      34.053  34.523  29.484  1.00  0.00     0.060 A 
ATOM     31  C   UNL A   1      35.336  34.635  28.932  1.00  0.00     0.016 A 
ATOM     32  C   UNL A   1      33.865  33.935  30.737  1.00  0.00     0.016 A 
ATOM     33  C   UNL A   1      36.433  34.109  29.609  1.00  0.00     0.010 A 
ATOM     34  C   UNL A   1      34.964  33.402  31.411  1.00  0.00     0.010 A 
ATOM     35  C   UNL A   1      36.244  33.453  30.830  1.00  0.00    -0.014 A 
BRANCH  35  36
ATOM     36  C   UNL A   1      37.352  32.671  31.424  1.00  0.00     0.031 A 
ATOM     37  C   UNL A   1      37.903  33.108  32.753  1.00  0.00     0.074 A 
ATOM     38  C   UNL A   1      37.856  31.597  30.792  1.00  0.00     0.049 A 
ATOM     39  N   UNL A   1      38.912  32.624  33.430  1.00  0.00    -0.248 NA
ATOM     40  C   UNL A   1      37.233  34.249  33.403  1.00  0.00     0.031 C 
ATOM     41  C   UNL A   1      37.378  31.063  29.517  1.00  0.00     0.029 A 
ATOM     42  N   UNL A   1      38.895  30.772  31.137  1.00  0.00    -0.354 N 
ATOM     43  C   UNL A   1      39.013  33.415  34.569  1.00  0.00     0.074 A 
ATOM     44  C   UNL A   1      37.977  34.420  34.486  1.00  0.00     0.031 C 
ATOM     45  C   UNL A   1      38.138  30.008  29.176  1.00  0.00     0.029 A 
ATOM     46  C   UNL A   1      39.174  29.818  30.189  1.00  0.00     0.049 A 
ATOM     47  H   UNL A   1      39.393  30.855  31.981  1.00  0.00     0.167 HD
ATOM     48  C   UNL A   1      39.895  33.311  35.590  1.00  0.00     0.031 A 
ATOM     49  C   UNL A   1      40.174  28.917  30.133  1.00  0.00     0.031 A 
ATOM     50  C   UNL A   1      40.919  32.306  35.668  1.00  0.00     0.049 A 
ATOM     51  C   UNL A   1      41.173  28.861  31.261  1.00  0.00     0.074 A 
ATOM     52  C   UNL A   1      41.830  32.086  36.685  1.00  0.00     0.029 A 
ATOM     53  N   UNL A   1      41.174  31.363  34.686  1.00  0.00    -0.354 N 
ATOM     54  N   UNL A   1      41.224  29.575  32.359  1.00  0.00    -0.248 NA
ATOM     55  C   UNL A   1      42.247  27.863  31.144  1.00  0.00     0.031 C 
ATOM     56  C   UNL A   1      42.683  31.054  36.287  1.00  0.00     0.029 A 
ATOM     57  C   UNL A   1      42.255  30.583  35.056  1.00  0.00     0.049 A 
ATOM     58  H   UNL A   1      40.663  31.262  33.851  1.00  0.00     0.167 HD
ATOM     59  C   UNL A   1      42.313  29.093  33.076  1.00  0.00     0.074 A 
ATOM     60  C   UNL A   1      42.882  28.013  32.298  1.00  0.00     0.031 C 
ATOM     61  C   UNL A   1      42.801  29.505  34.271  1.00  0.00     0.031 A 
BRANCH  48  62
ATOM     62  C   UNL A   1      39.822  34.333  36.690  1.00  0.00    -0.014 A 
ATOM     63  C   UNL A   1      39.164  34.067  37.900  1.00  0.00     0.009 A 
ATOM     64  C   UNL A   1      40.487  35.559  36.532  1.00  0.00     0.009 A 
ATOM     65  C   UNL A   1      39.160  35.018  38.923  1.00  0.00     0.001 A 
ATOM     66  C   UNL A   1      40.505  36.495  37.566  1.00  0.00     0.001 A 
ATOM     67  C   UNL A   1      39.836  36.227  38.760  1.00  0.00     0.000 A 
ENDBRANCH  48  62
BRANCH  49  68
ATOM     68  C   UNL A   1      40.318  28.021  28.953  1.00  0.00    -0.014 A 
ATOM     69  C   UNL A   1      41.001  28.447  27.804  1.00  0.00     0.009 A 
ATOM     70  C   UNL A   1      39.725  26.749  28.954  1.00  0.00     0.009 A 
ATOM     71  C   UNL A   1      41.050  27.635  26.667  1.00  0.00     0.001 A 
ATOM     72  C   UNL A   1      39.806  25.925  27.831  1.00  0.00     0.001 A 
ATOM     73  C   UNL A   1      40.456  26.374  26.683  1.00  0.00     0.000 A 
ENDBRANCH  49  68
BRANCH  61  74
ATOM     74  C   UNL A   1      43.975  28.757  34.837  1.00  0.00    -0.014 A 
ATOM     75  C   UNL A   1      43.803  27.611  35.629  1.00  0.00     0.009 A 
ATOM     76  C   UNL A   1      45.278  29.179  34.525  1.00  0.00     0.009 A 
ATOM     77  C   UNL A   1      44.913  26.925  36.128  1.00  0.00     0.001 A 
ATOM     78  C   UNL A   1      46.384  28.471  34.996  1.00  0.00     0.001 A 
ATOM     79  C   UNL A   1      46.201  27.352  35.805  1.00  0.00     0.000 A 
ENDBRANCH  61  74
ENDBRANCH  35  36
ENDBRANCH  28  30
ENDBRANCH  27  28
ENDBRANCH  26  27
ENDBRANCH   1  26
TORSDOF 17
ENDMDL
MODEL 3
REMARK VINA RESULT:      -8.3      5.704     10.527
REMARK SMILES COc1ccc(/C=C2\SC(=S)N=C2OCCOCCOC(=O)c2ccc(-c3c4nc(c(-c5ccccc5)c5ccc([nH]5)c(-c5ccccc5)c5nc(c(-c6ccccc6)c6ccc3[nH]6)C=C5)C=C4)cc2)c(C(=O)[O-])c1OC
REMARK SMILES IDX 18 1 17 2 16 3 15 4 14 5 13 6 7 7 8 8 9 9 10 10 12 11 11 12
REMARK SMILES IDX 6 13 3 14 4 15 75 16 5 17 71 18 2 19 1 20 76 21 77 22 72 23
REMARK SMILES IDX 73 24 74 25 19 26 20 27 21 28 22 29 23 30 24 31 70 32 25 33
REMARK SMILES IDX 69 34 26 35 27 36 28 37 63 38 29 39 68 40 62 41 64 42 30 43
REMARK SMILES IDX 67 44 61 45 60 46 31 48 53 49 38 50 52 51 39 52 42 53 51 54
REMARK SMILES IDX 65 55 40 56 41 57 50 59 66 60 43 61 32 62 33 63 37 64 34 65
REMARK SMILES IDX 36 66 35 67 54 68 55 69 59 70 56 71 58 72 57 73 44 74 45 75
REMARK SMILES IDX 49 76 46 77 48 78 47 79
REMARK H PARENT 64 47 42 58
REMARK Flexibility Score: inf
ROOT
ATOM      1  C   UNL A   1      39.418  23.489  27.233  1.00  0.00     0.202 C 
ENDROOT
BRANCH   1   2
ATOM      2  O   UNL A   1      39.415  22.166  26.687  1.00  0.00    -0.374 OA
BRANCH   2   3
ATOM      3  C   UNL A   1      38.374  21.878  25.752  1.00  0.00     0.202 C 
BRANCH   3   4
ATOM      4  C   UNL A   1      37.502  23.052  25.290  1.00  0.00     0.260 C 
BRANCH   4   5
ATOM      5  O   UNL A   1      36.466  22.685  24.359  1.00  0.00    -0.474 OA
BRANCH   5   6
ATOM      6  C   UNL A   1      35.156  22.500  24.563  1.00  0.00     0.229 C 
ATOM      7  C   UNL A   1      34.294  24.885  24.819  1.00  0.00     0.030 C 
ATOM      8  C   UNL A   1      34.123  23.553  24.793  1.00  0.00     0.077 C 
ATOM      9  S   UNL A   1      32.624  22.696  24.969  1.00  0.00    -0.053 SA
ATOM     10  C   UNL A   1      33.409  21.153  24.621  1.00  0.00     0.168 C 
ATOM     11  N   UNL A   1      34.769  21.261  24.500  1.00  0.00    -0.194 NA
ATOM     12  S   UNL A   1      32.538  19.744  24.391  1.00  0.00    -0.050 S 
BRANCH   7  13
ATOM     13  C   UNL A   1      33.427  26.093  24.913  1.00  0.00    -0.011 A 
ATOM     14  C   UNL A   1      31.927  28.473  25.212  1.00  0.00     0.161 A 
ATOM     15  C   UNL A   1      32.407  27.798  26.331  1.00  0.00     0.051 A 
ATOM     16  C   UNL A   1      32.098  27.933  23.927  1.00  0.00     0.170 A 
ATOM     17  C   UNL A   1      33.134  26.620  26.180  1.00  0.00     0.013 A 
ATOM     18  C   UNL A   1      32.818  26.713  23.770  1.00  0.00     0.050 A 
BRANCH  14  19
ATOM     19  O   UNL A   1      31.411  29.731  25.380  1.00  0.00    -0.493 OA
ATOM     20  C   UNL A   1      32.130  30.516  26.329  1.00  0.00     0.278 C 
ENDBRANCH  14  19
BRANCH  16  21
ATOM     21  O   UNL A   1      31.649  28.538  22.781  1.00  0.00    -0.492 OA
ATOM     22  C   UNL A   1      30.272  28.510  22.449  1.00  0.00     0.278 C 
ENDBRANCH  16  21
BRANCH  18  23
ATOM     23  C   UNL A   1      32.829  26.024  22.418  1.00  0.00     0.076 C 
ATOM     24  O   UNL A   1      32.007  25.229  21.996  1.00  0.00    -0.545 OA
ATOM     25  O   UNL A   1      33.836  26.358  21.595  1.00  0.00    -0.545 OA
ENDBRANCH  18  23
ENDBRANCH   7  13
ENDBRANCH   5   6
ENDBRANCH   4   5
ENDBRANCH   3   4
ENDBRANCH   2   3
ENDBRANCH   1   2
BRANCH   1  26
ATOM     26  C   UNL A   1      40.759  24.227  27.171  1.00  0.00     0.261 C 
BRANCH  26  27
ATOM     27  O   UNL A   1      41.633  23.629  26.205  1.00  0.00    -0.460 OA
BRANCH  27  28
ATOM     28  C   UNL A   1      42.877  23.358  26.662  1.00  0.00     0.338 C 
ATOM     29  O   UNL A   1      43.373  22.258  26.863  1.00  0.00    -0.246 OA
BRANCH  28  30
ATOM     30  C   UNL A   1      43.651  24.611  26.707  1.00  0.00     0.060 A 
ATOM     31  C   UNL A   1      43.897  25.266  25.493  1.00  0.00     0.016 A 
ATOM     32  C   UNL A   1      44.130  25.135  27.910  1.00  0.00     0.016 A 
ATOM     33  C   UNL A   1      44.672  26.422  25.471  1.00  0.00     0.010 A 
ATOM     34  C   UNL A   1      44.913  26.291  27.885  1.00  0.00     0.010 A 
ATOM     35  C   UNL A   1      45.218  26.914  26.661  1.00  0.00    -0.014 A 
BRANCH  35  36
ATOM     36  C   UNL A   1      46.245  27.979  26.616  1.00  0.00     0.031 A 
ATOM     37  C   UNL A   1      45.794  29.411  26.705  1.00  0.00     0.074 A 
ATOM     38  C   UNL A   1      47.549  27.676  26.495  1.00  0.00     0.049 A 
ATOM     39  N   UNL A   1      46.501  30.507  26.617  1.00  0.00    -0.248 NA
ATOM     40  C   UNL A   1      44.353  29.637  26.913  1.00  0.00     0.031 C 
ATOM     41  C   UNL A   1      48.103  26.323  26.434  1.00  0.00     0.029 A 
ATOM     42  N   UNL A   1      48.643  28.495  26.390  1.00  0.00    -0.354 N 
ATOM     43  C   UNL A   1      45.590  31.551  26.732  1.00  0.00     0.074 A 
ATOM     44  C   UNL A   1      44.278  30.960  26.880  1.00  0.00     0.031 C 
ATOM     45  C   UNL A   1      49.436  26.407  26.281  1.00  0.00     0.029 A 
ATOM     46  C   UNL A   1      49.821  27.814  26.197  1.00  0.00     0.049 A 
ATOM     47  H   UNL A   1      48.591  29.476  26.445  1.00  0.00     0.167 HD
ATOM     48  C   UNL A   1      45.829  32.882  26.715  1.00  0.00     0.031 A 
ATOM     49  C   UNL A   1      51.061  28.278  25.949  1.00  0.00     0.031 A 
ATOM     50  C   UNL A   1      47.136  33.463  26.573  1.00  0.00     0.049 A 
ATOM     51  C   UNL A   1      51.286  29.767  25.881  1.00  0.00     0.074 A 
ATOM     52  C   UNL A   1      47.488  34.800  26.592  1.00  0.00     0.029 A 
ATOM     53  N   UNL A   1      48.301  32.740  26.373  1.00  0.00    -0.354 N 
ATOM     54  N   UNL A   1      50.427  30.743  26.049  1.00  0.00    -0.248 NA
ATOM     55  C   UNL A   1      52.657  30.217  25.600  1.00  0.00     0.031 C 
ATOM     56  C   UNL A   1      48.858  34.891  26.333  1.00  0.00     0.029 A 
ATOM     57  C   UNL A   1      49.369  33.607  26.228  1.00  0.00     0.049 A 
ATOM     58  H   UNL A   1      48.360  31.758  26.341  1.00  0.00     0.167 HD
ATOM     59  C   UNL A   1      51.158  31.918  25.926  1.00  0.00     0.074 A 
ATOM     60  C   UNL A   1      52.534  31.533  25.689  1.00  0.00     0.031 C 
ATOM     61  C   UNL A   1      50.733  33.203  26.002  1.00  0.00     0.031 A 
BRANCH  48  62
ATOM     62  C   UNL A   1      44.650  33.811  26.810  1.00  0.00    -0.014 A 
ATOM     63  C   UNL A   1      44.277  34.405  28.024  1.00  0.00     0.009 A 
ATOM     64  C   UNL A   1      43.945  34.146  25.643  1.00  0.00     0.009 A 
ATOM     65  C   UNL A   1      43.209  35.305  28.070  1.00  0.00     0.001 A 
ATOM     66  C   UNL A   1      42.897  35.066  25.687  1.00  0.00     0.001 A 
ATOM     67  C   UNL A   1      42.526  35.641  26.901  1.00  0.00     0.000 A 
ENDBRANCH  48  62
BRANCH  49  68
ATOM     68  C   UNL A   1      52.183  27.333  25.698  1.00  0.00    -0.014 A 
ATOM     69  C   UNL A   1      52.429  26.830  24.412  1.00  0.00     0.009 A 
ATOM     70  C   UNL A   1      52.986  26.891  26.762  1.00  0.00     0.009 A 
ATOM     71  C   UNL A   1      53.426  25.872  24.204  1.00  0.00     0.001 A 
ATOM     72  C   UNL A   1      54.005  25.962  26.545  1.00  0.00     0.001 A 
ATOM     73  C   UNL A   1      54.215  25.442  25.269  1.00  0.00     0.000 A 
ENDBRANCH  49  68
BRANCH  61  74
ATOM     74  C   UNL A   1      51.769  34.285  25.879  1.00  0.00    -0.014 A 
ATOM     75  C   UNL A   1      52.071  34.877  24.643  1.00  0.00     0.009 A 
ATOM     76  C   UNL A   1      52.417  34.755  27.034  1.00  0.00     0.009 A 
ATOM     77  C   UNL A   1      53.026  35.892  24.561  1.00  0.00     0.001 A 
ATOM     78  C   UNL A   1      53.345  35.793  26.953  1.00  0.00     0.001 A 
ATOM     79  C   UNL A   1      53.657  36.353  25.716  1.00  0.00     0.000 A 
ENDBRANCH  61  74
ENDBRANCH  35  36
ENDBRANCH  28  30
ENDBRANCH  27  28
ENDBRANCH  26  27
ENDBRANCH   1  26
TORSDOF 17
ENDMDL
