MODEL 1
REMARK VINA RESULT:      -9.5      0.000      0.000
REMARK SMILES COC(=O)CCN(C)C(=O)NCc1ccc(C(=O)OCCOCCOC(=O)c2ccc(-c3c4nc(c(-c5ccccc5)c5ccc([nH]5)c(-c5ccccc5)c5nc(c(-c6ccccc6)c6ccc3[nH]6)C=C5)C=C4)cc2)o1
REMARK SMILES IDX 20 1 19 2 17 3 18 4 16 5 13 6 14 7 76 8 15 9 12 10 11 11
REMARK SMILES IDX 9 12 10 13 7 15 8 16 6 17 5 18 3 19 4 20 2 21 1 22 21 23
REMARK SMILES IDX 22 24 23 25 24 26 25 27 26 28 27 29 28 30 29 31 75 32 30 33
REMARK SMILES IDX 74 34 31 35 32 36 33 37 68 38 34 39 73 40 67 41 69 42 35 43
REMARK SMILES IDX 72 44 66 45 65 46 36 48 58 49 43 50 57 51 44 52 47 53 56 54
REMARK SMILES IDX 70 55 45 56 46 57 55 59 71 60 48 61 37 62 38 63 42 64 39 65
REMARK SMILES IDX 41 66 40 67 59 68 60 69 64 70 61 71 63 72 62 73 49 74 50 75
REMARK SMILES IDX 54 76 51 77 53 78 52 79
REMARK H PARENT 11 14 69 47 47 58
REMARK Flexibility Score: inf
ROOT
ATOM      1  C   UNL A   1      32.386  36.036  31.024  1.00  0.00     0.261 C 
ENDROOT
BRANCH   1   2
ATOM      2  O   UNL A   1      32.813  34.892  30.267  1.00  0.00    -0.457 OA
BRANCH   2   3
ATOM      3  C   UNL A   1      33.419  35.155  29.074  1.00  0.00     0.374 C 
ATOM      4  O   UNL A   1      33.353  36.217  28.469  1.00  0.00    -0.242 OA
BRANCH   3   5
ATOM      5  C   UNL A   1      34.256  34.032  28.725  1.00  0.00     0.211 A 
ATOM      6  C   UNL A   1      34.611  31.991  27.984  1.00  0.00     0.124 A 
ATOM      7  C   UNL A   1      35.848  32.599  28.057  1.00  0.00     0.048 A 
ATOM      8  O   UNL A   1      33.644  32.848  28.407  1.00  0.00    -0.452 OA
ATOM      9  C   UNL A   1      35.621  33.908  28.533  1.00  0.00     0.058 A 
BRANCH   6  10
ATOM     10  C   UNL A   1      34.161  30.651  27.528  1.00  0.00     0.193 C 
BRANCH  10  11
ATOM     11  N   UNL A   1      32.836  30.806  26.979  1.00  0.00    -0.331 N 
ATOM     12  C   UNL A   1      32.158  30.314  25.936  1.00  0.00     0.317 C 
ATOM     13  O   UNL A   1      31.140  30.950  25.642  1.00  0.00    -0.249 OA
ATOM     14  H   UNL A   1      32.292  31.435  27.506  1.00  0.00     0.165 HD
BRANCH  12  15
ATOM     15  N   UNL A   1      32.496  29.159  25.289  1.00  0.00    -0.327 N 
ATOM     16  C   UNL A   1      33.605  28.967  24.371  1.00  0.00     0.148 C 
BRANCH  15  17
ATOM     17  C   UNL A   1      31.773  27.944  25.696  1.00  0.00     0.132 C 
BRANCH  17  18
ATOM     18  C   UNL A   1      32.675  26.933  26.400  1.00  0.00     0.144 C 
BRANCH  18  19
ATOM     19  C   UNL A   1      32.250  25.520  26.090  1.00  0.00     0.307 C 
ATOM     20  O   UNL A   1      32.778  24.824  25.232  1.00  0.00    -0.252 OA
BRANCH  19  21
ATOM     21  O   UNL A   1      31.202  25.151  26.877  1.00  0.00    -0.469 OA
ATOM     22  C   UNL A   1      30.492  24.000  26.415  1.00  0.00     0.282 C 
ENDBRANCH  19  21
ENDBRANCH  18  19
ENDBRANCH  17  18
ENDBRANCH  15  17
ENDBRANCH  12  15
ENDBRANCH  10  11
ENDBRANCH   6  10
ENDBRANCH   3   5
ENDBRANCH   2   3
ENDBRANCH   1   2
BRANCH   1  23
ATOM     23  C   UNL A   1      32.984  35.963  32.434  1.00  0.00     0.202 C 
BRANCH  23  24
ATOM     24  O   UNL A   1      33.132  34.628  32.923  1.00  0.00    -0.374 OA
BRANCH  24  25
ATOM     25  C   UNL A   1      34.442  34.261  33.364  1.00  0.00     0.202 C 
BRANCH  25  26
ATOM     26  C   UNL A   1      35.221  33.396  32.370  1.00  0.00     0.261 C 
BRANCH  26  27
ATOM     27  O   UNL A   1      35.492  32.099  32.935  1.00  0.00    -0.460 OA
BRANCH  27  28
ATOM     28  C   UNL A   1      36.720  31.959  33.484  1.00  0.00     0.338 C 
ATOM     29  O   UNL A   1      37.043  32.165  34.641  1.00  0.00    -0.246 OA
BRANCH  28  30
ATOM     30  C   UNL A   1      37.634  31.341  32.502  1.00  0.00     0.060 A 
ATOM     31  C   UNL A   1      38.684  30.562  33.006  1.00  0.00     0.016 A 
ATOM     32  C   UNL A   1      37.502  31.547  31.126  1.00  0.00     0.016 A 
ATOM     33  C   UNL A   1      39.632  30.025  32.139  1.00  0.00     0.010 A 
ATOM     34  C   UNL A   1      38.459  31.009  30.257  1.00  0.00     0.010 A 
ATOM     35  C   UNL A   1      39.545  30.274  30.763  1.00  0.00    -0.014 A 
BRANCH  35  36
ATOM     36  C   UNL A   1      40.663  29.869  29.879  1.00  0.00     0.031 A 
ATOM     37  C   UNL A   1      40.602  28.537  29.183  1.00  0.00     0.074 A 
ATOM     38  C   UNL A   1      41.704  30.692  29.666  1.00  0.00     0.049 A 
ATOM     39  N   UNL A   1      41.458  27.999  28.352  1.00  0.00    -0.248 NA
ATOM     40  C   UNL A   1      39.421  27.705  29.459  1.00  0.00     0.031 C 
ATOM     41  C   UNL A   1      41.867  32.021  30.254  1.00  0.00     0.029 A 
ATOM     42  N   UNL A   1      42.824  30.525  28.891  1.00  0.00    -0.354 N 
ATOM     43  C   UNL A   1      40.920  26.766  28.006  1.00  0.00     0.074 A 
ATOM     44  C   UNL A   1      39.681  26.623  28.741  1.00  0.00     0.031 C 
ATOM     45  C   UNL A   1      43.024  32.549  29.819  1.00  0.00     0.029 A 
ATOM     46  C   UNL A   1      43.691  31.587  28.943  1.00  0.00     0.049 A 
ATOM     47  H   UNL A   1      42.990  29.719  28.350  1.00  0.00     0.167 HD
ATOM     48  C   UNL A   1      41.409  25.837  27.149  1.00  0.00     0.031 A 
ATOM     49  C   UNL A   1      44.892  31.761  28.360  1.00  0.00     0.031 A 
ATOM     50  C   UNL A   1      42.646  25.966  26.429  1.00  0.00     0.049 A 
ATOM     51  C   UNL A   1      45.448  30.684  27.468  1.00  0.00     0.074 A 
ATOM     52  C   UNL A   1      43.211  25.087  25.521  1.00  0.00     0.029 A 
ATOM     53  N   UNL A   1      43.517  27.038  26.544  1.00  0.00    -0.354 N 
ATOM     54  N   UNL A   1      44.911  29.539  27.121  1.00  0.00    -0.248 NA
ATOM     55  C   UNL A   1      46.774  30.930  26.882  1.00  0.00     0.031 C 
ATOM     56  C   UNL A   1      44.449  25.605  25.125  1.00  0.00     0.029 A 
ATOM     57  C   UNL A   1      44.630  26.829  25.748  1.00  0.00     0.049 A 
ATOM     58  H   UNL A   1      43.366  27.829  27.109  1.00  0.00     0.167 HD
ATOM     59  C   UNL A   1      45.822  28.939  26.261  1.00  0.00     0.074 A 
ATOM     60  C   UNL A   1      46.939  29.851  26.129  1.00  0.00     0.031 C 
ATOM     61  C   UNL A   1      45.738  27.741  25.634  1.00  0.00     0.031 A 
BRANCH  48  62
ATOM     62  C   UNL A   1      40.607  24.579  26.975  1.00  0.00    -0.014 A 
ATOM     63  C   UNL A   1      39.387  24.585  26.281  1.00  0.00     0.009 A 
ATOM     64  C   UNL A   1      41.089  23.369  27.494  1.00  0.00     0.009 A 
ATOM     65  C   UNL A   1      38.648  23.408  26.141  1.00  0.00     0.001 A 
ATOM     66  C   UNL A   1      40.361  22.189  27.333  1.00  0.00     0.001 A 
ATOM     67  C   UNL A   1      39.138  22.211  26.665  1.00  0.00     0.000 A 
ENDBRANCH  48  62
BRANCH  49  68
ATOM     68  C   UNL A   1      45.663  33.005  28.611  1.00  0.00    -0.014 A 
ATOM     69  C   UNL A   1      46.565  33.085  29.682  1.00  0.00     0.009 A 
ATOM     70  C   UNL A   1      45.492  34.123  27.779  1.00  0.00     0.009 A 
ATOM     71  C   UNL A   1      47.266  34.267  29.926  1.00  0.00     0.001 A 
ATOM     72  C   UNL A   1      46.213  35.295  28.012  1.00  0.00     0.001 A 
ATOM     73  C   UNL A   1      47.095  35.369  29.090  1.00  0.00     0.000 A 
ENDBRANCH  49  68
BRANCH  61  74
ATOM     74  C   UNL A   1      46.875  27.356  24.731  1.00  0.00    -0.014 A 
ATOM     75  C   UNL A   1      47.763  26.326  25.079  1.00  0.00     0.009 A 
ATOM     76  C   UNL A   1      47.037  28.007  23.498  1.00  0.00     0.009 A 
ATOM     77  C   UNL A   1      48.807  25.975  24.222  1.00  0.00     0.001 A 
ATOM     78  C   UNL A   1      48.068  27.638  22.633  1.00  0.00     0.001 A 
ATOM     79  C   UNL A   1      48.957  26.628  22.998  1.00  0.00     0.000 A 
ENDBRANCH  61  74
ENDBRANCH  35  36
ENDBRANCH  28  30
ENDBRANCH  27  28
ENDBRANCH  26  27
ENDBRANCH  25  26
ENDBRANCH  24  25
ENDBRANCH  23  24
ENDBRANCH   1  23
TORSDOF 21
ENDMDL
MODEL 2
REMARK VINA RESULT:      -9.1      4.407      8.031
REMARK SMILES COC(=O)CCN(C)C(=O)NCc1ccc(C(=O)OCCOCCOC(=O)c2ccc(-c3c4nc(c(-c5ccccc5)c5ccc([nH]5)c(-c5ccccc5)c5nc(c(-c6ccccc6)c6ccc3[nH]6)C=C5)C=C4)cc2)o1
REMARK SMILES IDX 20 1 19 2 17 3 18 4 16 5 13 6 14 7 76 8 15 9 12 10 11 11
REMARK SMILES IDX 9 12 10 13 7 15 8 16 6 17 5 18 3 19 4 20 2 21 1 22 21 23
REMARK SMILES IDX 22 24 23 25 24 26 25 27 26 28 27 29 28 30 29 31 75 32 30 33
REMARK SMILES IDX 74 34 31 35 32 36 33 37 68 38 34 39 73 40 67 41 69 42 35 43
REMARK SMILES IDX 72 44 66 45 65 46 36 48 58 49 43 50 57 51 44 52 47 53 56 54
REMARK SMILES IDX 70 55 45 56 46 57 55 59 71 60 48 61 37 62 38 63 42 64 39 65
REMARK SMILES IDX 41 66 40 67 59 68 60 69 64 70 61 71 63 72 62 73 49 74 50 75
REMARK SMILES IDX 54 76 51 77 53 78 52 79
REMARK H PARENT 11 14 69 47 47 58
REMARK Flexibility Score: inf
ROOT
ATOM      1  C   UNL A   1      33.183  28.342  26.447  1.00  0.00     0.261 C 
ENDROOT
BRANCH   1   2
ATOM      2  O   UNL A   1      33.751  27.978  25.179  1.00  0.00    -0.457 OA
BRANCH   2   3
ATOM      3  C   UNL A   1      33.148  28.508  24.077  1.00  0.00     0.374 C 
ATOM      4  O   UNL A   1      33.654  29.330  23.324  1.00  0.00    -0.242 OA
BRANCH   3   5
ATOM      5  C   UNL A   1      31.886  27.837  23.875  1.00  0.00     0.211 A 
ATOM      6  C   UNL A   1      30.570  26.074  23.848  1.00  0.00     0.124 A 
ATOM      7  C   UNL A   1      29.748  27.175  23.715  1.00  0.00     0.048 A 
ATOM      8  O   UNL A   1      31.869  26.469  23.925  1.00  0.00    -0.452 OA
ATOM      9  C   UNL A   1      30.591  28.307  23.731  1.00  0.00     0.058 A 
BRANCH   6  10
ATOM     10  C   UNL A   1      30.309  24.615  23.944  1.00  0.00     0.193 C 
BRANCH  10  11
ATOM     11  N   UNL A   1      30.261  24.278  25.346  1.00  0.00    -0.331 N 
ATOM     12  C   UNL A   1      31.005  23.558  26.194  1.00  0.00     0.317 C 
ATOM     13  O   UNL A   1      30.436  23.266  27.251  1.00  0.00    -0.249 OA
ATOM     14  H   UNL A   1      29.481  24.679  25.793  1.00  0.00     0.165 HD
BRANCH  12  15
ATOM     15  N   UNL A   1      32.313  23.235  25.966  1.00  0.00    -0.327 N 
ATOM     16  C   UNL A   1      33.446  24.144  25.953  1.00  0.00     0.148 C 
BRANCH  15  17
ATOM     17  C   UNL A   1      32.631  21.800  25.902  1.00  0.00     0.132 C 
BRANCH  17  18
ATOM     18  C   UNL A   1      33.021  21.348  24.496  1.00  0.00     0.144 C 
BRANCH  18  19
ATOM     19  C   UNL A   1      32.532  19.950  24.221  1.00  0.00     0.307 C 
ATOM     20  O   UNL A   1      32.213  19.547  23.110  1.00  0.00    -0.252 OA
BRANCH  19  21
ATOM     21  O   UNL A   1      32.479  19.225  25.373  1.00  0.00    -0.469 OA
ATOM     22  C   UNL A   1      32.523  17.809  25.183  1.00  0.00     0.282 C 
ENDBRANCH  19  21
ENDBRANCH  18  19
ENDBRANCH  17  18
ENDBRANCH  15  17
ENDBRANCH  12  15
ENDBRANCH  10  11
ENDBRANCH   6  10
ENDBRANCH   3   5
ENDBRANCH   2   3
ENDBRANCH   1   2
BRANCH   1  23
ATOM     23  C   UNL A   1      34.086  29.374  27.131  1.00  0.00     0.202 C 
BRANCH  23  24
ATOM     24  O   UNL A   1      33.713  30.728  26.861  1.00  0.00    -0.374 OA
BRANCH  24  25
ATOM     25  C   UNL A   1      32.317  31.026  26.949  1.00  0.00     0.202 C 
BRANCH  25  26
ATOM     26  C   UNL A   1      32.002  32.511  27.147  1.00  0.00     0.261 C 
BRANCH  26  27
ATOM     27  O   UNL A   1      33.218  33.281  27.195  1.00  0.00    -0.460 OA
BRANCH  27  28
ATOM     28  C   UNL A   1      33.278  34.195  28.191  1.00  0.00     0.338 C 
ATOM     29  O   UNL A   1      32.526  35.135  28.380  1.00  0.00    -0.246 OA
BRANCH  28  30
ATOM     30  C   UNL A   1      34.318  33.801  29.162  1.00  0.00     0.060 A 
ATOM     31  C   UNL A   1      35.637  34.173  28.873  1.00  0.00     0.016 A 
ATOM     32  C   UNL A   1      34.029  33.049  30.305  1.00  0.00     0.016 A 
ATOM     33  C   UNL A   1      36.677  33.757  29.701  1.00  0.00     0.010 A 
ATOM     34  C   UNL A   1      35.076  32.627  31.132  1.00  0.00     0.010 A 
ATOM     35  C   UNL A   1      36.407  32.953  30.816  1.00  0.00    -0.014 A 
BRANCH  35  36
ATOM     36  C   UNL A   1      37.532  32.352  31.569  1.00  0.00     0.031 A 
ATOM     37  C   UNL A   1      38.248  31.162  30.993  1.00  0.00     0.074 A 
ATOM     38  C   UNL A   1      37.939  32.882  32.736  1.00  0.00     0.049 A 
ATOM     39  N   UNL A   1      39.270  30.499  31.474  1.00  0.00    -0.248 NA
ATOM     40  C   UNL A   1      37.749  30.655  29.706  1.00  0.00     0.031 C 
ATOM     41  C   UNL A   1      37.352  34.052  33.385  1.00  0.00     0.029 A 
ATOM     42  N   UNL A   1      38.950  32.498  33.581  1.00  0.00    -0.354 N 
ATOM     43  C   UNL A   1      39.535  29.497  30.549  1.00  0.00     0.074 A 
ATOM     44  C   UNL A   1      38.548  29.620  29.497  1.00  0.00     0.031 C 
ATOM     45  C   UNL A   1      38.012  34.291  34.531  1.00  0.00     0.029 A 
ATOM     46  C   UNL A   1      39.052  33.277  34.706  1.00  0.00     0.049 A 
ATOM     47  H   UNL A   1      39.546  31.735  33.397  1.00  0.00     0.167 HD
ATOM     48  C   UNL A   1      40.514  28.561  30.569  1.00  0.00     0.031 A 
ATOM     49  C   UNL A   1      39.880  33.179  35.762  1.00  0.00     0.031 A 
ATOM     50  C   UNL A   1      41.486  28.424  31.619  1.00  0.00     0.049 A 
ATOM     51  C   UNL A   1      40.915  32.087  35.796  1.00  0.00     0.074 A 
ATOM     52  C   UNL A   1      42.531  27.520  31.715  1.00  0.00     0.029 A 
ATOM     53  N   UNL A   1      41.526  29.205  32.763  1.00  0.00    -0.354 N 
ATOM     54  N   UNL A   1      41.178  31.169  34.897  1.00  0.00    -0.248 NA
ATOM     55  C   UNL A   1      41.771  32.024  36.989  1.00  0.00     0.031 C 
ATOM     56  C   UNL A   1      43.172  27.723  32.941  1.00  0.00     0.029 A 
ATOM     57  C   UNL A   1      42.558  28.785  33.586  1.00  0.00     0.049 A 
ATOM     58  H   UNL A   1      40.911  29.948  32.961  1.00  0.00     0.167 HD
ATOM     59  C   UNL A   1      42.242  30.435  35.406  1.00  0.00     0.074 A 
ATOM     60  C   UNL A   1      42.584  31.022  36.685  1.00  0.00     0.031 C 
ATOM     61  C   UNL A   1      42.880  29.372  34.860  1.00  0.00     0.031 A 
BRANCH  48  62
ATOM     62  C   UNL A   1      40.554  27.589  29.425  1.00  0.00    -0.014 A 
ATOM     63  C   UNL A   1      41.473  27.740  28.375  1.00  0.00     0.009 A 
ATOM     64  C   UNL A   1      39.674  26.497  29.408  1.00  0.00     0.009 A 
ATOM     65  C   UNL A   1      41.486  26.834  27.312  1.00  0.00     0.001 A 
ATOM     66  C   UNL A   1      39.705  25.579  28.357  1.00  0.00     0.001 A 
ATOM     67  C   UNL A   1      40.604  25.753  27.306  1.00  0.00     0.000 A 
ENDBRANCH  48  62
BRANCH  49  68
ATOM     68  C   UNL A   1      39.760  34.139  36.889  1.00  0.00    -0.014 A 
ATOM     69  C   UNL A   1      40.386  35.393  36.831  1.00  0.00     0.009 A 
ATOM     70  C   UNL A   1      39.020  33.798  38.032  1.00  0.00     0.009 A 
ATOM     71  C   UNL A   1      40.289  36.279  37.906  1.00  0.00     0.001 A 
ATOM     72  C   UNL A   1      38.907  34.696  39.095  1.00  0.00     0.001 A 
ATOM     73  C   UNL A   1      39.547  35.933  39.034  1.00  0.00     0.000 A 
ENDBRANCH  49  68
BRANCH  61  74
ATOM     74  C   UNL A   1      44.028  28.788  35.633  1.00  0.00    -0.014 A 
ATOM     75  C   UNL A   1      45.331  29.289  35.487  1.00  0.00     0.009 A 
ATOM     76  C   UNL A   1      43.796  27.749  36.548  1.00  0.00     0.009 A 
ATOM     77  C   UNL A   1      46.384  28.741  36.222  1.00  0.00     0.001 A 
ATOM     78  C   UNL A   1      44.847  27.220  37.299  1.00  0.00     0.001 A 
ATOM     79  C   UNL A   1      46.141  27.710  37.129  1.00  0.00     0.000 A 
ENDBRANCH  61  74
ENDBRANCH  35  36
ENDBRANCH  28  30
ENDBRANCH  27  28
ENDBRANCH  26  27
ENDBRANCH  25  26
ENDBRANCH  24  25
ENDBRANCH  23  24
ENDBRANCH   1  23
TORSDOF 21
ENDMDL
MODEL 3
REMARK VINA RESULT:      -9.1      3.893      6.226
REMARK SMILES COC(=O)CCN(C)C(=O)NCc1ccc(C(=O)OCCOCCOC(=O)c2ccc(-c3c4nc(c(-c5ccccc5)c5ccc([nH]5)c(-c5ccccc5)c5nc(c(-c6ccccc6)c6ccc3[nH]6)C=C5)C=C4)cc2)o1
REMARK SMILES IDX 20 1 19 2 17 3 18 4 16 5 13 6 14 7 76 8 15 9 12 10 11 11
REMARK SMILES IDX 9 12 10 13 7 15 8 16 6 17 5 18 3 19 4 20 2 21 1 22 21 23
REMARK SMILES IDX 22 24 23 25 24 26 25 27 26 28 27 29 28 30 29 31 75 32 30 33
REMARK SMILES IDX 74 34 31 35 32 36 33 37 68 38 34 39 73 40 67 41 69 42 35 43
REMARK SMILES IDX 72 44 66 45 65 46 36 48 58 49 43 50 57 51 44 52 47 53 56 54
REMARK SMILES IDX 70 55 45 56 46 57 55 59 71 60 48 61 37 62 38 63 42 64 39 65
REMARK SMILES IDX 41 66 40 67 59 68 60 69 64 70 61 71 63 72 62 73 49 74 50 75
REMARK SMILES IDX 54 76 51 77 53 78 52 79
REMARK H PARENT 11 14 69 47 47 58
REMARK Flexibility Score: inf
ROOT
ATOM      1  C   UNL A   1      31.059  28.813  22.916  1.00  0.00     0.261 C 
ENDROOT
BRANCH   1   2
ATOM      2  O   UNL A   1      30.844  27.393  22.898  1.00  0.00    -0.457 OA
BRANCH   2   3
ATOM      3  C   UNL A   1      29.928  26.914  23.787  1.00  0.00     0.374 C 
ATOM      4  O   UNL A   1      28.722  27.122  23.736  1.00  0.00    -0.242 OA
BRANCH   3   5
ATOM      5  C   UNL A   1      30.595  26.017  24.700  1.00  0.00     0.211 A 
ATOM      6  C   UNL A   1      32.342  24.921  25.465  1.00  0.00     0.124 A 
ATOM      7  C   UNL A   1      31.356  24.797  26.422  1.00  0.00     0.048 A 
ATOM      8  O   UNL A   1      31.880  25.642  24.409  1.00  0.00    -0.452 OA
ATOM      9  C   UNL A   1      30.234  25.499  25.932  1.00  0.00     0.058 A 
BRANCH   6  10
ATOM     10  C   UNL A   1      33.751  24.457  25.390  1.00  0.00     0.193 C 
BRANCH  10  11
ATOM     11  N   UNL A   1      33.967  23.554  26.494  1.00  0.00    -0.331 N 
ATOM     12  C   UNL A   1      34.418  22.305  26.648  1.00  0.00     0.317 C 
ATOM     13  O   UNL A   1      34.147  21.794  27.739  1.00  0.00    -0.249 OA
ATOM     14  H   UNL A   1      33.719  23.962  27.355  1.00  0.00     0.165 HD
BRANCH  12  15
ATOM     15  N   UNL A   1      35.189  21.659  25.723  1.00  0.00    -0.327 N 
ATOM     16  C   UNL A   1      36.551  21.988  25.339  1.00  0.00     0.148 C 
BRANCH  15  17
ATOM     17  C   UNL A   1      34.651  20.398  25.187  1.00  0.00     0.132 C 
BRANCH  17  18
ATOM     18  C   UNL A   1      33.396  20.609  24.342  1.00  0.00     0.144 C 
BRANCH  18  19
ATOM     19  C   UNL A   1      32.525  19.379  24.350  1.00  0.00     0.307 C 
ATOM     20  O   UNL A   1      32.150  18.818  25.371  1.00  0.00    -0.252 OA
BRANCH  19  21
ATOM     21  O   UNL A   1      32.242  18.983  23.078  1.00  0.00    -0.469 OA
ATOM     22  C   UNL A   1      32.850  17.749  22.693  1.00  0.00     0.282 C 
ENDBRANCH  19  21
ENDBRANCH  18  19
ENDBRANCH  17  18
ENDBRANCH  15  17
ENDBRANCH  12  15
ENDBRANCH  10  11
ENDBRANCH   6  10
ENDBRANCH   3   5
ENDBRANCH   2   3
ENDBRANCH   1   2
BRANCH   1  23
ATOM     23  C   UNL A   1      31.954  29.176  24.106  1.00  0.00     0.202 C 
BRANCH  23  24
ATOM     24  O   UNL A   1      33.302  28.720  23.968  1.00  0.00    -0.374 OA
BRANCH  24  25
ATOM     25  C   UNL A   1      33.983  28.392  25.182  1.00  0.00     0.202 C 
BRANCH  25  26
ATOM     26  C   UNL A   1      33.108  28.473  26.435  1.00  0.00     0.261 C 
BRANCH  26  27
ATOM     27  O   UNL A   1      33.923  28.688  27.604  1.00  0.00    -0.460 OA
BRANCH  27  28
ATOM     28  C   UNL A   1      34.493  29.913  27.687  1.00  0.00     0.338 C 
ATOM     29  O   UNL A   1      33.951  30.994  27.537  1.00  0.00    -0.246 OA
BRANCH  28  30
ATOM     30  C   UNL A   1      35.884  29.780  28.164  1.00  0.00     0.060 A 
ATOM     31  C   UNL A   1      36.905  30.009  27.233  1.00  0.00     0.016 A 
ATOM     32  C   UNL A   1      36.192  29.399  29.473  1.00  0.00     0.016 A 
ATOM     33  C   UNL A   1      38.236  29.814  27.595  1.00  0.00     0.010 A 
ATOM     34  C   UNL A   1      37.530  29.198  29.833  1.00  0.00     0.010 A 
ATOM     35  C   UNL A   1      38.554  29.374  28.887  1.00  0.00    -0.014 A 
BRANCH  35  36
ATOM     36  C   UNL A   1      39.947  28.978  29.197  1.00  0.00     0.031 A 
ATOM     37  C   UNL A   1      40.428  27.610  28.798  1.00  0.00     0.074 A 
ATOM     38  C   UNL A   1      40.790  29.839  29.794  1.00  0.00     0.049 A 
ATOM     39  N   UNL A   1      41.611  27.071  28.952  1.00  0.00    -0.248 NA
ATOM     40  C   UNL A   1      39.446  26.737  28.136  1.00  0.00     0.031 C 
ATOM     41  C   UNL A   1      40.459  31.202  30.202  1.00  0.00     0.029 A 
ATOM     42  N   UNL A   1      42.104  29.686  30.159  1.00  0.00    -0.354 N 
ATOM     43  C   UNL A   1      41.515  25.796  28.407  1.00  0.00     0.074 A 
ATOM     44  C   UNL A   1      40.153  25.632  27.948  1.00  0.00     0.031 C 
ATOM     45  C   UNL A   1      41.543  31.763  30.765  1.00  0.00     0.029 A 
ATOM     46  C   UNL A   1      42.635  30.790  30.777  1.00  0.00     0.049 A 
ATOM     47  H   UNL A   1      42.617  28.861  29.994  1.00  0.00     0.167 HD
ATOM     48  C   UNL A   1      42.477  24.849  28.293  1.00  0.00     0.031 A 
ATOM     49  C   UNL A   1      43.857  30.991  31.303  1.00  0.00     0.031 A 
ATOM     50  C   UNL A   1      43.827  24.999  28.762  1.00  0.00     0.049 A 
ATOM     51  C   UNL A   1      44.888  29.897  31.228  1.00  0.00     0.074 A 
ATOM     52  C   UNL A   1      44.878  24.102  28.670  1.00  0.00     0.029 A 
ATOM     53  N   UNL A   1      44.312  26.117  29.422  1.00  0.00    -0.354 N 
ATOM     54  N   UNL A   1      44.795  28.711  30.677  1.00  0.00    -0.248 NA
ATOM     55  C   UNL A   1      46.194  30.176  31.842  1.00  0.00     0.031 C 
ATOM     56  C   UNL A   1      45.984  24.659  29.319  1.00  0.00     0.029 A 
ATOM     57  C   UNL A   1      45.637  25.922  29.772  1.00  0.00     0.049 A 
ATOM     58  H   UNL A   1      43.790  26.929  29.615  1.00  0.00     0.167 HD
ATOM     59  C   UNL A   1      46.035  28.111  30.859  1.00  0.00     0.074 A 
ATOM     60  C   UNL A   1      46.866  29.068  31.559  1.00  0.00     0.031 C 
ATOM     61  C   UNL A   1      46.449  26.879  30.477  1.00  0.00     0.031 A 
BRANCH  48  62
ATOM     62  C   UNL A   1      42.081  23.546  27.660  1.00  0.00    -0.014 A 
ATOM     63  C   UNL A   1      41.462  22.532  28.408  1.00  0.00     0.009 A 
ATOM     64  C   UNL A   1      42.311  23.338  26.292  1.00  0.00     0.009 A 
ATOM     65  C   UNL A   1      41.114  21.321  27.805  1.00  0.00     0.001 A 
ATOM     66  C   UNL A   1      41.940  22.137  25.686  1.00  0.00     0.001 A 
ATOM     67  C   UNL A   1      41.351  21.127  26.444  1.00  0.00     0.000 A 
ENDBRANCH  48  62
BRANCH  49  68
ATOM     68  C   UNL A   1      44.176  32.283  31.962  1.00  0.00    -0.014 A 
ATOM     69  C   UNL A   1      43.944  32.462  33.334  1.00  0.00     0.009 A 
ATOM     70  C   UNL A   1      44.707  33.346  31.216  1.00  0.00     0.009 A 
ATOM     71  C   UNL A   1      44.222  33.688  33.941  1.00  0.00     0.001 A 
ATOM     72  C   UNL A   1      45.005  34.563  31.831  1.00  0.00     0.001 A 
ATOM     73  C   UNL A   1      44.756  34.735  33.192  1.00  0.00     0.000 A 
ENDBRANCH  49  68
BRANCH  61  74
ATOM     74  C   UNL A   1      47.870  26.503  30.788  1.00  0.00    -0.014 A 
ATOM     75  C   UNL A   1      48.205  25.861  31.990  1.00  0.00     0.009 A 
ATOM     76  C   UNL A   1      48.880  26.759  29.848  1.00  0.00     0.009 A 
ATOM     77  C   UNL A   1      49.529  25.510  32.257  1.00  0.00     0.001 A 
ATOM     78  C   UNL A   1      50.199  26.385  30.107  1.00  0.00     0.001 A 
ATOM     79  C   UNL A   1      50.524  25.769  31.315  1.00  0.00     0.000 A 
ENDBRANCH  61  74
ENDBRANCH  35  36
ENDBRANCH  28  30
ENDBRANCH  27  28
ENDBRANCH  26  27
ENDBRANCH  25  26
ENDBRANCH  24  25
ENDBRANCH  23  24
ENDBRANCH   1  23
TORSDOF 21
ENDMDL
