MODEL 1
REMARK VINA RESULT:     -10.0      0.000      0.000
REMARK SMILES C[C@H](CNS(=O)(=O)c1ccc(C(=O)OCCOCCOC(=O)c2ccc(-c3c4nc(c(-c5ccccc5)c5ccc([nH]5)c(-c5ccccc5)c5nc(c(-c6ccccc6)c6ccc3[nH]6)C=C5)C=C4)cc2)o1)c1ccccc1
REMARK SMILES IDX 15 1 14 2 12 3 13 4 11 5 8 6 9 7 71 8 10 9 5 10 6 11 7 12
REMARK SMILES IDX 4 13 3 15 2 16 1 17 72 18 73 19 77 20 74 21 76 22 75 23
REMARK SMILES IDX 16 24 17 25 18 26 19 27 20 28 21 29 22 30 23 31 24 32 70 33
REMARK SMILES IDX 25 34 69 35 26 36 27 37 28 38 63 39 29 40 68 41 62 42 64 43
REMARK SMILES IDX 30 44 67 45 61 46 60 47 31 49 53 50 38 51 52 52 39 53 42 54
REMARK SMILES IDX 51 55 65 56 40 57 41 58 50 60 66 61 43 62 32 63 33 64 37 65
REMARK SMILES IDX 34 66 36 67 35 68 54 69 55 70 59 71 56 72 58 73 57 74 44 75
REMARK SMILES IDX 45 76 49 77 46 78 48 79 47 80
REMARK H PARENT 4 14 64 48 42 59
REMARK Flexibility Score: inf
ROOT
ATOM      1  C   UNL A   1      32.584  29.131  25.749  1.00  0.00     0.261 C 
ENDROOT
BRANCH   1   2
ATOM      2  O   UNL A   1      31.430  28.273  25.756  1.00  0.00    -0.457 OA
BRANCH   2   3
ATOM      3  C   UNL A   1      30.968  27.900  24.527  1.00  0.00     0.374 C 
ATOM      4  O   UNL A   1      30.777  28.665  23.590  1.00  0.00    -0.242 OA
BRANCH   3   5
ATOM      5  C   UNL A   1      30.849  26.461  24.471  1.00  0.00     0.213 A 
ATOM      6  C   UNL A   1      30.789  24.433  25.406  1.00  0.00     0.234 A 
ATOM      7  C   UNL A   1      30.508  24.282  24.054  1.00  0.00     0.065 A 
ATOM      8  O   UNL A   1      30.993  25.773  25.642  1.00  0.00    -0.436 OA
ATOM      9  C   UNL A   1      30.543  25.569  23.460  1.00  0.00     0.060 A 
BRANCH   6  10
ATOM     10  S   UNL A   1      30.896  23.245  26.742  1.00  0.00     0.274 S 
ATOM     11  O   UNL A   1      29.598  23.237  27.374  1.00  0.00    -0.204 OA
ATOM     12  O   UNL A   1      32.095  23.589  27.472  1.00  0.00    -0.204 OA
BRANCH  10  13
ATOM     13  N   UNL A   1      31.151  21.702  26.085  1.00  0.00    -0.208 NA
ATOM     14  H   UNL A   1      31.379  21.071  26.854  1.00  0.00     0.141 HD
BRANCH  13  15
ATOM     15  C   UNL A   1      32.228  21.586  25.070  1.00  0.00     0.107 C 
BRANCH  15  16
ATOM     16  C   UNL A   1      33.408  20.695  25.536  1.00  0.00     0.031 C 
ATOM     17  C   UNL A   1      33.454  19.303  24.897  1.00  0.00     0.014 C 
BRANCH  16  18
ATOM     18  C   UNL A   1      34.757  21.390  25.418  1.00  0.00    -0.044 A 
ATOM     19  C   UNL A   1      35.879  20.649  25.007  1.00  0.00     0.004 A 
ATOM     20  C   UNL A   1      34.928  22.752  25.705  1.00  0.00     0.004 A 
ATOM     21  C   UNL A   1      37.135  21.249  24.901  1.00  0.00     0.000 A 
ATOM     22  C   UNL A   1      36.187  23.349  25.599  1.00  0.00     0.000 A 
ATOM     23  C   UNL A   1      37.289  22.598  25.201  1.00  0.00     0.000 A 
ENDBRANCH  16  18
ENDBRANCH  15  16
ENDBRANCH  13  15
ENDBRANCH  10  13
ENDBRANCH   6  10
ENDBRANCH   3   5
ENDBRANCH   2   3
ENDBRANCH   1   2
BRANCH   1  24
ATOM     24  C   UNL A   1      32.407  30.261  26.767  1.00  0.00     0.202 C 
BRANCH  24  25
ATOM     25  O   UNL A   1      31.469  31.265  26.374  1.00  0.00    -0.374 OA
BRANCH  25  26
ATOM     26  C   UNL A   1      31.722  32.591  26.842  1.00  0.00     0.202 C 
BRANCH  26  27
ATOM     27  C   UNL A   1      33.052  32.770  27.583  1.00  0.00     0.261 C 
BRANCH  27  28
ATOM     28  O   UNL A   1      33.311  34.163  27.841  1.00  0.00    -0.460 OA
BRANCH  28  29
ATOM     29  C   UNL A   1      33.420  34.490  29.151  1.00  0.00     0.338 C 
ATOM     30  O   UNL A   1      32.562  34.981  29.864  1.00  0.00    -0.246 OA
BRANCH  29  31
ATOM     31  C   UNL A   1      34.711  34.007  29.680  1.00  0.00     0.060 A 
ATOM     32  C   UNL A   1      35.862  34.313  28.943  1.00  0.00     0.016 A 
ATOM     33  C   UNL A   1      34.799  33.228  30.837  1.00  0.00     0.016 A 
ATOM     34  C   UNL A   1      37.098  33.801  29.330  1.00  0.00     0.010 A 
ATOM     35  C   UNL A   1      36.040  32.708  31.221  1.00  0.00     0.010 A 
ATOM     36  C   UNL A   1      37.188  32.965  30.451  1.00  0.00    -0.014 A 
BRANCH  36  37
ATOM     37  C   UNL A   1      38.457  32.251  30.730  1.00  0.00     0.031 A 
ATOM     38  C   UNL A   1      39.433  32.846  31.706  1.00  0.00     0.074 A 
ATOM     39  C   UNL A   1      38.725  31.070  30.146  1.00  0.00     0.049 A 
ATOM     40  N   UNL A   1      40.601  32.395  32.090  1.00  0.00    -0.248 NA
ATOM     41  C   UNL A   1      39.041  34.118  32.334  1.00  0.00     0.031 C 
ATOM     42  C   UNL A   1      37.845  30.364  29.215  1.00  0.00     0.029 A 
ATOM     43  N   UNL A   1      39.824  30.255  30.256  1.00  0.00    -0.354 N 
ATOM     44  C   UNL A   1      41.082  33.328  33.001  1.00  0.00     0.074 A 
ATOM     45  C   UNL A   1      40.096  34.383  33.090  1.00  0.00     0.031 C 
ATOM     46  C   UNL A   1      38.441  29.221  28.836  1.00  0.00     0.029 A 
ATOM     47  C   UNL A   1      39.753  29.129  29.473  1.00  0.00     0.049 A 
ATOM     48  H   UNL A   1      40.590  30.459  30.840  1.00  0.00     0.167 HD
ATOM     49  C   UNL A   1      42.238  33.305  33.705  1.00  0.00     0.031 A 
ATOM     50  C   UNL A   1      40.651  28.144  29.282  1.00  0.00     0.031 A 
ATOM     51  C   UNL A   1      43.229  32.268  33.610  1.00  0.00     0.049 A 
ATOM     52  C   UNL A   1      41.965  28.184  30.016  1.00  0.00     0.074 A 
ATOM     53  C   UNL A   1      44.427  32.153  34.294  1.00  0.00     0.029 A 
ATOM     54  N   UNL A   1      43.140  31.169  32.771  1.00  0.00    -0.354 N 
ATOM     55  N   UNL A   1      42.396  29.058  30.891  1.00  0.00    -0.248 NA
ATOM     56  C   UNL A   1      42.912  27.093  29.736  1.00  0.00     0.031 C 
ATOM     57  C   UNL A   1      45.086  31.009  33.833  1.00  0.00     0.029 A 
ATOM     58  C   UNL A   1      44.274  30.385  32.899  1.00  0.00     0.049 A 
ATOM     59  H   UNL A   1      42.383  30.974  32.172  1.00  0.00     0.167 HD
ATOM     60  C   UNL A   1      43.652  28.611  31.287  1.00  0.00     0.074 A 
ATOM     61  C   UNL A   1      43.907  27.382  30.563  1.00  0.00     0.031 C 
ATOM     62  C   UNL A   1      44.514  29.167  32.172  1.00  0.00     0.031 A 
BRANCH  49  63
ATOM     63  C   UNL A   1      42.505  34.465  34.623  1.00  0.00    -0.014 A 
ATOM     64  C   UNL A   1      42.118  34.429  35.972  1.00  0.00     0.009 A 
ATOM     65  C   UNL A   1      43.176  35.597  34.137  1.00  0.00     0.009 A 
ATOM     66  C   UNL A   1      42.370  35.519  36.807  1.00  0.00     0.001 A 
ATOM     67  C   UNL A   1      43.448  36.675  34.980  1.00  0.00     0.001 A 
ATOM     68  C   UNL A   1      43.037  36.639  36.312  1.00  0.00     0.000 A 
ENDBRANCH  49  63
BRANCH  50  69
ATOM     69  C   UNL A   1      40.350  27.036  28.340  1.00  0.00    -0.014 A 
ATOM     70  C   UNL A   1      39.590  25.932  28.752  1.00  0.00     0.009 A 
ATOM     71  C   UNL A   1      40.840  27.072  27.024  1.00  0.00     0.009 A 
ATOM     72  C   UNL A   1      39.345  24.875  27.873  1.00  0.00     0.001 A 
ATOM     73  C   UNL A   1      40.572  26.026  26.140  1.00  0.00     0.001 A 
ATOM     74  C   UNL A   1      39.833  24.924  26.568  1.00  0.00     0.000 A 
ENDBRANCH  50  69
BRANCH  62  75
ATOM     75  C   UNL A   1      45.800  28.434  32.432  1.00  0.00    -0.014 A 
ATOM     76  C   UNL A   1      46.952  28.692  31.675  1.00  0.00     0.009 A 
ATOM     77  C   UNL A   1      45.868  27.504  33.481  1.00  0.00     0.009 A 
ATOM     78  C   UNL A   1      48.141  28.009  31.943  1.00  0.00     0.001 A 
ATOM     79  C   UNL A   1      47.064  26.841  33.764  1.00  0.00     0.001 A 
ATOM     80  C   UNL A   1      48.197  27.088  32.989  1.00  0.00     0.000 A 
ENDBRANCH  62  75
ENDBRANCH  36  37
ENDBRANCH  29  31
ENDBRANCH  28  29
ENDBRANCH  27  28
ENDBRANCH  26  27
ENDBRANCH  25  26
ENDBRANCH  24  25
ENDBRANCH   1  24
TORSDOF 19
ENDMDL
MODEL 2
REMARK VINA RESULT:      -9.9      3.328      9.000
REMARK SMILES C[C@H](CNS(=O)(=O)c1ccc(C(=O)OCCOCCOC(=O)c2ccc(-c3c4nc(c(-c5ccccc5)c5ccc([nH]5)c(-c5ccccc5)c5nc(c(-c6ccccc6)c6ccc3[nH]6)C=C5)C=C4)cc2)o1)c1ccccc1
REMARK SMILES IDX 15 1 14 2 12 3 13 4 11 5 8 6 9 7 71 8 10 9 5 10 6 11 7 12
REMARK SMILES IDX 4 13 3 15 2 16 1 17 72 18 73 19 77 20 74 21 76 22 75 23
REMARK SMILES IDX 16 24 17 25 18 26 19 27 20 28 21 29 22 30 23 31 24 32 70 33
REMARK SMILES IDX 25 34 69 35 26 36 27 37 28 38 63 39 29 40 68 41 62 42 64 43
REMARK SMILES IDX 30 44 67 45 61 46 60 47 31 49 53 50 38 51 52 52 39 53 42 54
REMARK SMILES IDX 51 55 65 56 40 57 41 58 50 60 66 61 43 62 32 63 33 64 37 65
REMARK SMILES IDX 34 66 36 67 35 68 54 69 55 70 59 71 56 72 58 73 57 74 44 75
REMARK SMILES IDX 45 76 49 77 46 78 48 79 47 80
REMARK H PARENT 4 14 64 48 42 59
REMARK Flexibility Score: inf
ROOT
ATOM      1  C   UNL A   1      39.991  21.416  26.499  1.00  0.00     0.261 C 
ENDROOT
BRANCH   1   2
ATOM      2  O   UNL A   1      38.848  21.646  25.657  1.00  0.00    -0.457 OA
BRANCH   2   3
ATOM      3  C   UNL A   1      38.214  22.840  25.841  1.00  0.00     0.374 C 
ATOM      4  O   UNL A   1      38.661  23.778  26.489  1.00  0.00    -0.242 OA
BRANCH   3   5
ATOM      5  C   UNL A   1      36.995  22.866  25.065  1.00  0.00     0.213 A 
ATOM      6  C   UNL A   1      34.795  23.176  24.828  1.00  0.00     0.234 A 
ATOM      7  C   UNL A   1      35.325  22.932  23.567  1.00  0.00     0.065 A 
ATOM      8  O   UNL A   1      35.833  23.133  25.731  1.00  0.00    -0.436 OA
ATOM      9  C   UNL A   1      36.722  22.738  23.716  1.00  0.00     0.060 A 
BRANCH   6  10
ATOM     10  S   UNL A   1      33.124  23.516  25.374  1.00  0.00     0.274 S 
ATOM     11  O   UNL A   1      32.385  23.888  24.190  1.00  0.00    -0.204 OA
ATOM     12  O   UNL A   1      33.259  24.413  26.499  1.00  0.00    -0.204 OA
BRANCH  10  13
ATOM     13  N   UNL A   1      32.439  22.084  25.971  1.00  0.00    -0.208 NA
ATOM     14  H   UNL A   1      32.386  22.165  26.987  1.00  0.00     0.141 HD
BRANCH  13  15
ATOM     15  C   UNL A   1      33.159  20.825  25.654  1.00  0.00     0.107 C 
BRANCH  15  16
ATOM     16  C   UNL A   1      32.425  19.954  24.602  1.00  0.00     0.031 C 
ATOM     17  C   UNL A   1      32.493  20.487  23.167  1.00  0.00     0.014 C 
BRANCH  16  18
ATOM     18  C   UNL A   1      32.835  18.489  24.656  1.00  0.00    -0.044 A 
ATOM     19  C   UNL A   1      33.545  17.933  23.577  1.00  0.00     0.004 A 
ATOM     20  C   UNL A   1      32.529  17.664  25.747  1.00  0.00     0.004 A 
ATOM     21  C   UNL A   1      33.925  16.590  23.584  1.00  0.00     0.000 A 
ATOM     22  C   UNL A   1      32.910  16.319  25.751  1.00  0.00     0.000 A 
ATOM     23  C   UNL A   1      33.604  15.783  24.671  1.00  0.00     0.000 A 
ENDBRANCH  16  18
ENDBRANCH  15  16
ENDBRANCH  13  15
ENDBRANCH  10  13
ENDBRANCH   6  10
ENDBRANCH   3   5
ENDBRANCH   2   3
ENDBRANCH   1   2
BRANCH   1  24
ATOM     24  C   UNL A   1      40.450  19.960  26.378  1.00  0.00     0.202 C 
BRANCH  24  25
ATOM     25  O   UNL A   1      41.840  19.758  26.644  1.00  0.00    -0.374 OA
BRANCH  25  26
ATOM     26  C   UNL A   1      42.685  19.576  25.506  1.00  0.00     0.202 C 
BRANCH  26  27
ATOM     27  C   UNL A   1      43.865  20.549  25.417  1.00  0.00     0.261 C 
BRANCH  27  28
ATOM     28  O   UNL A   1      43.622  21.724  26.214  1.00  0.00    -0.460 OA
BRANCH  28  29
ATOM     29  C   UNL A   1      43.432  22.864  25.507  1.00  0.00     0.338 C 
ATOM     30  O   UNL A   1      43.570  23.021  24.307  1.00  0.00    -0.246 OA
BRANCH  29  31
ATOM     31  C   UNL A   1      42.851  23.901  26.382  1.00  0.00     0.060 A 
ATOM     32  C   UNL A   1      43.127  25.237  26.065  1.00  0.00     0.016 A 
ATOM     33  C   UNL A   1      42.099  23.585  27.517  1.00  0.00     0.016 A 
ATOM     34  C   UNL A   1      42.696  26.260  26.907  1.00  0.00     0.010 A 
ATOM     35  C   UNL A   1      41.673  24.612  28.366  1.00  0.00     0.010 A 
ATOM     36  C   UNL A   1      41.998  25.951  28.082  1.00  0.00    -0.014 A 
BRANCH  36  37
ATOM     37  C   UNL A   1      41.735  27.017  29.077  1.00  0.00     0.031 A 
ATOM     38  C   UNL A   1      40.476  27.831  28.963  1.00  0.00     0.074 A 
ATOM     39  C   UNL A   1      42.590  27.240  30.090  1.00  0.00     0.049 A 
ATOM     40  N   UNL A   1      40.052  28.813  29.718  1.00  0.00    -0.248 NA
ATOM     41  C   UNL A   1      39.573  27.491  27.851  1.00  0.00     0.031 C 
ATOM     42  C   UNL A   1      43.823  26.494  30.339  1.00  0.00     0.029 A 
ATOM     43  N   UNL A   1      42.544  28.165  31.103  1.00  0.00    -0.354 N 
ATOM     44  C   UNL A   1      38.837  29.209  29.171  1.00  0.00     0.074 A 
ATOM     45  C   UNL A   1      38.606  28.383  28.006  1.00  0.00     0.031 C 
ATOM     46  C   UNL A   1      44.420  26.994  31.435  1.00  0.00     0.029 A 
ATOM     47  C   UNL A   1      43.626  28.112  31.946  1.00  0.00     0.049 A 
ATOM     48  H   UNL A   1      41.805  28.806  31.214  1.00  0.00     0.167 HD
ATOM     49  C   UNL A   1      37.987  30.170  29.604  1.00  0.00     0.031 A 
ATOM     50  C   UNL A   1      43.948  28.884  33.000  1.00  0.00     0.031 A 
ATOM     51  C   UNL A   1      38.218  31.004  30.751  1.00  0.00     0.049 A 
ATOM     52  C   UNL A   1      43.025  30.000  33.412  1.00  0.00     0.074 A 
ATOM     53  C   UNL A   1      37.407  31.998  31.274  1.00  0.00     0.029 A 
ATOM     54  N   UNL A   1      39.349  30.949  31.551  1.00  0.00    -0.354 N 
ATOM     55  N   UNL A   1      41.869  30.347  32.903  1.00  0.00    -0.248 NA
ATOM     56  C   UNL A   1      43.453  30.825  34.553  1.00  0.00     0.031 C 
ATOM     57  C   UNL A   1      38.071  32.576  32.361  1.00  0.00     0.029 A 
ATOM     58  C   UNL A   1      39.271  31.908  32.546  1.00  0.00     0.049 A 
ATOM     59  H   UNL A   1      40.097  30.321  31.428  1.00  0.00     0.167 HD
ATOM     60  C   UNL A   1      41.419  31.413  33.674  1.00  0.00     0.074 A 
ATOM     61  C   UNL A   1      42.422  31.646  34.692  1.00  0.00     0.031 C 
ATOM     62  C   UNL A   1      40.276  32.130  33.551  1.00  0.00     0.031 A 
BRANCH  49  63
ATOM     63  C   UNL A   1      36.735  30.389  28.804  1.00  0.00    -0.014 A 
ATOM     64  C   UNL A   1      35.862  29.328  28.513  1.00  0.00     0.009 A 
ATOM     65  C   UNL A   1      36.410  31.679  28.357  1.00  0.00     0.009 A 
ATOM     66  C   UNL A   1      34.706  29.551  27.761  1.00  0.00     0.001 A 
ATOM     67  C   UNL A   1      35.242  31.903  27.627  1.00  0.00     0.001 A 
ATOM     68  C   UNL A   1      34.395  30.837  27.323  1.00  0.00     0.000 A 
ENDBRANCH  49  63
BRANCH  50  69
ATOM     69  C   UNL A   1      45.214  28.645  33.739  1.00  0.00    -0.014 A 
ATOM     70  C   UNL A   1      46.441  29.079  33.215  1.00  0.00     0.009 A 
ATOM     71  C   UNL A   1      45.201  27.965  34.967  1.00  0.00     0.009 A 
ATOM     72  C   UNL A   1      47.632  28.816  33.895  1.00  0.00     0.001 A 
ATOM     73  C   UNL A   1      46.391  27.725  35.656  1.00  0.00     0.001 A 
ATOM     74  C   UNL A   1      47.606  28.143  35.116  1.00  0.00     0.000 A 
ENDBRANCH  50  69
BRANCH  62  75
ATOM     75  C   UNL A   1      40.033  33.215  34.562  1.00  0.00    -0.014 A 
ATOM     76  C   UNL A   1      39.399  32.942  35.784  1.00  0.00     0.009 A 
ATOM     77  C   UNL A   1      40.485  34.518  34.304  1.00  0.00     0.009 A 
ATOM     78  C   UNL A   1      39.196  33.963  36.716  1.00  0.00     0.001 A 
ATOM     79  C   UNL A   1      40.302  35.530  35.248  1.00  0.00     0.001 A 
ATOM     80  C   UNL A   1      39.651  35.254  36.449  1.00  0.00     0.000 A 
ENDBRANCH  62  75
ENDBRANCH  36  37
ENDBRANCH  29  31
ENDBRANCH  28  29
ENDBRANCH  27  28
ENDBRANCH  26  27
ENDBRANCH  25  26
ENDBRANCH  24  25
ENDBRANCH   1  24
TORSDOF 19
ENDMDL
MODEL 3
REMARK VINA RESULT:      -9.8      2.552      4.113
REMARK SMILES C[C@H](CNS(=O)(=O)c1ccc(C(=O)OCCOCCOC(=O)c2ccc(-c3c4nc(c(-c5ccccc5)c5ccc([nH]5)c(-c5ccccc5)c5nc(c(-c6ccccc6)c6ccc3[nH]6)C=C5)C=C4)cc2)o1)c1ccccc1
REMARK SMILES IDX 15 1 14 2 12 3 13 4 11 5 8 6 9 7 71 8 10 9 5 10 6 11 7 12
REMARK SMILES IDX 4 13 3 15 2 16 1 17 72 18 73 19 77 20 74 21 76 22 75 23
REMARK SMILES IDX 16 24 17 25 18 26 19 27 20 28 21 29 22 30 23 31 24 32 70 33
REMARK SMILES IDX 25 34 69 35 26 36 27 37 28 38 63 39 29 40 68 41 62 42 64 43
REMARK SMILES IDX 30 44 67 45 61 46 60 47 31 49 53 50 38 51 52 52 39 53 42 54
REMARK SMILES IDX 51 55 65 56 40 57 41 58 50 60 66 61 43 62 32 63 33 64 37 65
REMARK SMILES IDX 34 66 36 67 35 68 54 69 55 70 59 71 56 72 58 73 57 74 44 75
REMARK SMILES IDX 45 76 49 77 46 78 48 79 47 80
REMARK H PARENT 4 14 64 48 42 59
REMARK Flexibility Score: inf
ROOT
ATOM      1  C   UNL A   1      31.148  27.964  24.944  1.00  0.00     0.261 C 
ENDROOT
BRANCH   1   2
ATOM      2  O   UNL A   1      31.444  26.992  25.962  1.00  0.00    -0.457 OA
BRANCH   2   3
ATOM      3  C   UNL A   1      30.981  25.731  25.723  1.00  0.00     0.374 C 
ATOM      4  O   UNL A   1      29.920  25.284  26.139  1.00  0.00    -0.242 OA
BRANCH   3   5
ATOM      5  C   UNL A   1      31.877  25.051  24.815  1.00  0.00     0.213 A 
ATOM      6  C   UNL A   1      33.655  23.777  24.358  1.00  0.00     0.234 A 
ATOM      7  C   UNL A   1      32.992  24.021  23.162  1.00  0.00     0.065 A 
ATOM      8  O   UNL A   1      32.956  24.414  25.358  1.00  0.00    -0.436 OA
ATOM      9  C   UNL A   1      31.861  24.826  23.451  1.00  0.00     0.060 A 
BRANCH   6  10
ATOM     10  S   UNL A   1      35.130  22.835  24.733  1.00  0.00     0.274 S 
ATOM     11  O   UNL A   1      35.510  23.205  26.076  1.00  0.00    -0.204 OA
ATOM     12  O   UNL A   1      36.016  23.037  23.609  1.00  0.00    -0.204 OA
BRANCH  10  13
ATOM     13  N   UNL A   1      34.737  21.185  24.754  1.00  0.00    -0.208 NA
ATOM     14  H   UNL A   1      34.619  20.882  23.787  1.00  0.00     0.141 HD
BRANCH  13  15
ATOM     15  C   UNL A   1      33.511  20.807  25.500  1.00  0.00     0.107 C 
BRANCH  15  16
ATOM     16  C   UNL A   1      32.528  19.951  24.660  1.00  0.00     0.031 C 
ATOM     17  C   UNL A   1      32.271  20.473  23.242  1.00  0.00     0.014 C 
BRANCH  16  18
ATOM     18  C   UNL A   1      32.902  18.475  24.633  1.00  0.00    -0.044 A 
ATOM     19  C   UNL A   1      32.616  17.673  25.753  1.00  0.00     0.004 A 
ATOM     20  C   UNL A   1      33.527  17.878  23.529  1.00  0.00     0.004 A 
ATOM     21  C   UNL A   1      32.957  16.320  25.772  1.00  0.00     0.000 A 
ATOM     22  C   UNL A   1      33.868  16.523  23.551  1.00  0.00     0.000 A 
ATOM     23  C   UNL A   1      33.586  15.746  24.672  1.00  0.00     0.000 A 
ENDBRANCH  16  18
ENDBRANCH  15  16
ENDBRANCH  13  15
ENDBRANCH  10  13
ENDBRANCH   6  10
ENDBRANCH   3   5
ENDBRANCH   2   3
ENDBRANCH   1   2
BRANCH   1  24
ATOM     24  C   UNL A   1      32.040  29.197  25.117  1.00  0.00     0.202 C 
BRANCH  24  25
ATOM     25  O   UNL A   1      31.338  30.382  25.498  1.00  0.00    -0.374 OA
BRANCH  25  26
ATOM     26  C   UNL A   1      31.849  31.087  26.631  1.00  0.00     0.202 C 
BRANCH  26  27
ATOM     27  C   UNL A   1      33.378  31.118  26.736  1.00  0.00     0.261 C 
BRANCH  27  28
ATOM     28  O   UNL A   1      33.824  30.454  27.933  1.00  0.00    -0.460 OA
BRANCH  28  29
ATOM     29  C   UNL A   1      34.736  31.142  28.661  1.00  0.00     0.338 C 
ATOM     30  O   UNL A   1      34.546  32.142  29.331  1.00  0.00    -0.246 OA
BRANCH  29  31
ATOM     31  C   UNL A   1      36.015  30.404  28.681  1.00  0.00     0.060 A 
ATOM     32  C   UNL A   1      36.402  29.823  29.895  1.00  0.00     0.016 A 
ATOM     33  C   UNL A   1      36.847  30.324  27.561  1.00  0.00     0.016 A 
ATOM     34  C   UNL A   1      37.644  29.202  30.009  1.00  0.00     0.010 A 
ATOM     35  C   UNL A   1      38.097  29.706  27.679  1.00  0.00     0.010 A 
ATOM     36  C   UNL A   1      38.514  29.172  28.911  1.00  0.00    -0.014 A 
BRANCH  36  37
ATOM     37  C   UNL A   1      39.910  28.709  29.098  1.00  0.00     0.031 A 
ATOM     38  C   UNL A   1      40.909  29.635  29.734  1.00  0.00     0.074 A 
ATOM     39  C   UNL A   1      40.278  27.467  28.737  1.00  0.00     0.049 A 
ATOM     40  N   UNL A   1      42.179  29.437  29.986  1.00  0.00    -0.248 NA
ATOM     41  C   UNL A   1      40.412  30.959  30.141  1.00  0.00     0.031 C 
ATOM     42  C   UNL A   1      39.397  26.458  28.151  1.00  0.00     0.029 A 
ATOM     43  N   UNL A   1      41.499  26.846  28.814  1.00  0.00    -0.354 N 
ATOM     44  C   UNL A   1      42.631  30.610  30.578  1.00  0.00     0.074 A 
ATOM     45  C   UNL A   1      41.510  31.524  30.620  1.00  0.00     0.031 C 
ATOM     46  C   UNL A   1      40.108  25.342  27.918  1.00  0.00     0.029 A 
ATOM     47  C   UNL A   1      41.499  25.568  28.312  1.00  0.00     0.049 A 
ATOM     48  H   UNL A   1      42.299  27.276  29.193  1.00  0.00     0.167 HD
ATOM     49  C   UNL A   1      43.866  30.900  31.050  1.00  0.00     0.031 A 
ATOM     50  C   UNL A   1      42.507  24.687  28.173  1.00  0.00     0.031 A 
ATOM     51  C   UNL A   1      44.988  30.002  30.996  1.00  0.00     0.049 A 
ATOM     52  C   UNL A   1      43.890  25.063  28.630  1.00  0.00     0.074 A 
ATOM     53  C   UNL A   1      46.278  30.203  31.460  1.00  0.00     0.029 A 
ATOM     54  N   UNL A   1      44.957  28.735  30.437  1.00  0.00    -0.354 N 
ATOM     55  N   UNL A   1      44.298  26.165  29.209  1.00  0.00    -0.248 NA
ATOM     56  C   UNL A   1      44.951  24.066  28.419  1.00  0.00     0.031 C 
ATOM     57  C   UNL A   1      47.038  29.075  31.137  1.00  0.00     0.029 A 
ATOM     58  C   UNL A   1      46.210  28.152  30.519  1.00  0.00     0.049 A 
ATOM     59  H   UNL A   1      44.162  28.312  30.040  1.00  0.00     0.167 HD
ATOM     60  C   UNL A   1      45.655  25.985  29.456  1.00  0.00     0.074 A 
ATOM     61  C   UNL A   1      45.997  24.664  28.972  1.00  0.00     0.031 C 
ATOM     62  C   UNL A   1      46.536  26.838  30.033  1.00  0.00     0.031 A 
BRANCH  49  63
ATOM     63  C   UNL A   1      44.073  32.266  31.639  1.00  0.00    -0.014 A 
ATOM     64  C   UNL A   1      43.868  32.507  33.007  1.00  0.00     0.009 A 
ATOM     65  C   UNL A   1      44.505  33.320  30.819  1.00  0.00     0.009 A 
ATOM     66  C   UNL A   1      44.059  33.786  33.534  1.00  0.00     0.001 A 
ATOM     67  C   UNL A   1      44.719  34.591  31.354  1.00  0.00     0.001 A 
ATOM     68  C   UNL A   1      44.488  34.825  32.709  1.00  0.00     0.000 A 
ENDBRANCH  49  63
BRANCH  50  69
ATOM     69  C   UNL A   1      42.255  23.360  27.554  1.00  0.00    -0.014 A 
ATOM     70  C   UNL A   1      42.554  23.132  26.203  1.00  0.00     0.009 A 
ATOM     71  C   UNL A   1      41.697  22.320  28.313  1.00  0.00     0.009 A 
ATOM     72  C   UNL A   1      42.277  21.895  25.617  1.00  0.00     0.001 A 
ATOM     73  C   UNL A   1      41.444  21.076  27.731  1.00  0.00     0.001 A 
ATOM     74  C   UNL A   1      41.726  20.867  26.382  1.00  0.00     0.000 A 
ENDBRANCH  50  69
BRANCH  62  75
ATOM     75  C   UNL A   1      47.949  26.354  30.204  1.00  0.00    -0.014 A 
ATOM     76  C   UNL A   1      48.369  25.736  31.391  1.00  0.00     0.009 A 
ATOM     77  C   UNL A   1      48.858  26.481  29.143  1.00  0.00     0.009 A 
ATOM     78  C   UNL A   1      49.683  25.282  31.523  1.00  0.00     0.001 A 
ATOM     79  C   UNL A   1      50.164  26.004  29.269  1.00  0.00     0.001 A 
ATOM     80  C   UNL A   1      50.577  25.412  30.461  1.00  0.00     0.000 A 
ENDBRANCH  62  75
ENDBRANCH  36  37
ENDBRANCH  29  31
ENDBRANCH  28  29
ENDBRANCH  27  28
ENDBRANCH  26  27
ENDBRANCH  25  26
ENDBRANCH  24  25
ENDBRANCH   1  24
TORSDOF 19
ENDMDL
