MODEL 1
REMARK VINA RESULT:      -8.7      0.000      0.000
REMARK SMILES Cc1cc2c(c(C)c1Cl)C=C(C(=O)OCCOCCOC(=O)c1ccc(-c3c4nc(c(-c5ccccc5)c5ccc([nH]5)c(-c5ccccc5)c5nc(c(-c6ccccc6)c6ccc3[nH]6)C=C5)C=C4)cc1)[C@@H](C(F)(F)F)O2
REMARK SMILES IDX 18 1 17 2 16 3 15 4 14 5 12 6 13 7 11 8 1 9 2 10 3 11 8 12
REMARK SMILES IDX 4 13 6 14 9 15 5 16 76 17 7 18 10 19 71 20 72 21 73 22 74 23
REMARK SMILES IDX 75 24 19 25 20 26 21 27 22 28 23 29 24 30 70 31 25 32 69 33
REMARK SMILES IDX 26 34 27 35 28 36 63 37 29 38 68 39 62 40 64 41 30 42 67 43
REMARK SMILES IDX 61 44 60 45 31 47 53 48 38 49 52 50 39 51 42 52 51 53 65 54
REMARK SMILES IDX 40 55 41 56 50 58 66 59 43 60 32 61 33 62 37 63 34 64 36 65
REMARK SMILES IDX 35 66 54 67 55 68 59 69 56 70 58 71 57 72 44 73 45 74 49 75
REMARK SMILES IDX 46 76 48 77 47 78
REMARK H PARENT 64 46 42 57
REMARK Flexibility Score: inf
ROOT
ATOM      1  C   UNL A   1      44.900  18.754  25.240  1.00  0.00     0.202 C 
ENDROOT
BRANCH   1   2
ATOM      2  O   UNL A   1      45.818  19.753  24.792  1.00  0.00    -0.374 OA
BRANCH   2   3
ATOM      3  C   UNL A   1      45.788  21.019  25.448  1.00  0.00     0.202 C 
BRANCH   3   4
ATOM      4  C   UNL A   1      46.092  22.238  24.573  1.00  0.00     0.261 C 
BRANCH   4   5
ATOM      5  O   UNL A   1      46.803  23.244  25.313  1.00  0.00    -0.460 OA
BRANCH   5   6
ATOM      6  C   UNL A   1      47.079  24.368  24.614  1.00  0.00     0.338 C 
ATOM      7  O   UNL A   1      47.517  24.434  23.473  1.00  0.00    -0.246 OA
BRANCH   6   8
ATOM      8  C   UNL A   1      46.655  25.552  25.382  1.00  0.00     0.087 C 
ATOM      9  C   UNL A   1      43.861  31.012  27.436  1.00  0.00     0.046 C 
ATOM     10  C   UNL A   1      44.156  29.630  26.915  1.00  0.00    -0.028 A 
ATOM     11  C   UNL A   1      45.451  29.126  27.104  1.00  0.00     0.052 A 
ATOM     12  C   UNL A   1      43.192  28.812  26.293  1.00  0.00     0.047 A 
ATOM     13  C   UNL A   1      45.814  27.878  26.603  1.00  0.00     0.128 A 
ATOM     14  C   UNL A   1      43.541  27.540  25.783  1.00  0.00    -0.021 A 
ATOM     15  Cl  UNL A   1      41.561  29.396  26.157  1.00  0.00    -0.084 Cl
ATOM     16  C   UNL A   1      44.883  27.099  25.909  1.00  0.00     0.022 A 
ATOM     17  O   UNL A   1      47.106  27.507  26.846  1.00  0.00    -0.475 OA
ATOM     18  C   UNL A   1      42.525  26.644  25.110  1.00  0.00     0.047 C 
ATOM     19  C   UNL A   1      45.360  25.871  25.280  1.00  0.00     0.027 C 
ATOM     20  C   UNL A   1      47.649  26.332  26.188  1.00  0.00     0.316 C 
BRANCH  20  21
ATOM     21  C   UNL A   1      48.876  26.765  25.372  1.00  0.00     0.430 C 
ATOM     22  F   UNL A   1      48.514  27.206  24.142  1.00  0.00    -0.167 F 
ATOM     23  F   UNL A   1      49.541  27.784  25.964  1.00  0.00    -0.167 F 
ATOM     24  F   UNL A   1      49.754  25.753  25.199  1.00  0.00    -0.167 F 
ENDBRANCH  20  21
ENDBRANCH   6   8
ENDBRANCH   5   6
ENDBRANCH   4   5
ENDBRANCH   3   4
ENDBRANCH   2   3
ENDBRANCH   1   2
BRANCH   1  25
ATOM     25  C   UNL A   1      43.412  19.025  24.988  1.00  0.00     0.261 C 
BRANCH  25  26
ATOM     26  O   UNL A   1      42.665  19.104  26.218  1.00  0.00    -0.460 OA
BRANCH  26  27
ATOM     27  C   UNL A   1      41.678  20.029  26.226  1.00  0.00     0.338 C 
ATOM     28  O   UNL A   1      40.496  19.860  25.952  1.00  0.00    -0.246 OA
BRANCH  27  29
ATOM     29  C   UNL A   1      42.175  21.292  26.797  1.00  0.00     0.060 A 
ATOM     30  C   UNL A   1      42.106  21.447  28.187  1.00  0.00     0.016 A 
ATOM     31  C   UNL A   1      42.618  22.338  25.985  1.00  0.00     0.016 A 
ATOM     32  C   UNL A   1      42.435  22.668  28.770  1.00  0.00     0.010 A 
ATOM     33  C   UNL A   1      42.935  23.568  26.571  1.00  0.00     0.010 A 
ATOM     34  C   UNL A   1      42.811  23.749  27.960  1.00  0.00    -0.014 A 
BRANCH  34  35
ATOM     35  C   UNL A   1      42.929  25.098  28.558  1.00  0.00     0.031 A 
ATOM     36  C   UNL A   1      44.267  25.553  29.073  1.00  0.00     0.074 A 
ATOM     37  C   UNL A   1      41.873  25.929  28.597  1.00  0.00     0.049 A 
ATOM     38  N   UNL A   1      44.595  26.690  29.632  1.00  0.00    -0.248 NA
ATOM     39  C   UNL A   1      45.384  24.604  28.932  1.00  0.00     0.031 C 
ATOM     40  C   UNL A   1      40.541  25.628  28.074  1.00  0.00     0.029 A 
ATOM     41  N   UNL A   1      41.762  27.202  29.096  1.00  0.00    -0.354 N 
ATOM     42  C   UNL A   1      45.954  26.597  29.904  1.00  0.00     0.074 A 
ATOM     43  C   UNL A   1      46.383  25.282  29.479  1.00  0.00     0.031 C 
ATOM     44  C   UNL A   1      39.746  26.692  28.275  1.00  0.00     0.029 A 
ATOM     45  C   UNL A   1      40.503  27.734  28.967  1.00  0.00     0.049 A 
ATOM     46  H   UNL A   1      42.514  27.688  29.506  1.00  0.00     0.167 HD
ATOM     47  C   UNL A   1      46.773  27.525  30.451  1.00  0.00     0.031 A 
ATOM     48  C   UNL A   1      40.014  28.921  29.374  1.00  0.00     0.031 A 
ATOM     49  C   UNL A   1      46.346  28.824  30.893  1.00  0.00     0.049 A 
ATOM     50  C   UNL A   1      40.922  29.897  30.073  1.00  0.00     0.074 A 
ATOM     51  C   UNL A   1      47.103  29.829  31.469  1.00  0.00     0.029 A 
ATOM     52  N   UNL A   1      45.045  29.295  30.812  1.00  0.00    -0.354 N 
ATOM     53  N   UNL A   1      42.203  29.795  30.328  1.00  0.00    -0.248 NA
ATOM     54  C   UNL A   1      40.313  31.151  30.541  1.00  0.00     0.031 C 
ATOM     55  C   UNL A   1      46.249  30.891  31.782  1.00  0.00     0.029 A 
ATOM     56  C   UNL A   1      44.972  30.568  31.350  1.00  0.00     0.049 A 
ATOM     57  H   UNL A   1      44.286  28.799  30.428  1.00  0.00     0.167 HD
ATOM     58  C   UNL A   1      42.560  30.978  30.961  1.00  0.00     0.074 A 
ATOM     59  C   UNL A   1      41.362  31.788  31.045  1.00  0.00     0.031 C 
ATOM     60  C   UNL A   1      43.773  31.361  31.430  1.00  0.00     0.031 A 
BRANCH  47  61
ATOM     61  C   UNL A   1      48.219  27.157  30.624  1.00  0.00    -0.014 A 
ATOM     62  C   UNL A   1      48.694  26.636  31.837  1.00  0.00     0.009 A 
ATOM     63  C   UNL A   1      49.106  27.287  29.544  1.00  0.00     0.009 A 
ATOM     64  C   UNL A   1      50.034  26.272  31.973  1.00  0.00     0.001 A 
ATOM     65  C   UNL A   1      50.441  26.898  29.675  1.00  0.00     0.001 A 
ATOM     66  C   UNL A   1      50.905  26.398  30.890  1.00  0.00     0.000 A 
ENDBRANCH  47  61
BRANCH  48  67
ATOM     67  C   UNL A   1      38.587  29.255  29.133  1.00  0.00    -0.014 A 
ATOM     68  C   UNL A   1      38.164  29.712  27.876  1.00  0.00     0.009 A 
ATOM     69  C   UNL A   1      37.638  29.112  30.158  1.00  0.00     0.009 A 
ATOM     70  C   UNL A   1      36.823  30.033  27.654  1.00  0.00     0.001 A 
ATOM     71  C   UNL A   1      36.294  29.409  29.927  1.00  0.00     0.001 A 
ATOM     72  C   UNL A   1      35.888  29.875  28.677  1.00  0.00     0.000 A 
ENDBRANCH  48  67
BRANCH  60  73
ATOM     73  C   UNL A   1      43.881  32.722  32.055  1.00  0.00    -0.014 A 
ATOM     74  C   UNL A   1      43.753  32.896  33.441  1.00  0.00     0.009 A 
ATOM     75  C   UNL A   1      44.189  33.833  31.253  1.00  0.00     0.009 A 
ATOM     76  C   UNL A   1      43.913  34.162  34.010  1.00  0.00     0.001 A 
ATOM     77  C   UNL A   1      44.373  35.091  31.827  1.00  0.00     0.001 A 
ATOM     78  C   UNL A   1      44.229  35.256  33.203  1.00  0.00     0.000 A 
ENDBRANCH  60  73
ENDBRANCH  34  35
ENDBRANCH  27  29
ENDBRANCH  26  27
ENDBRANCH  25  26
ENDBRANCH   1  25
TORSDOF 15
ENDMDL
MODEL 2
REMARK VINA RESULT:      -8.2      6.095     11.063
REMARK SMILES Cc1cc2c(c(C)c1Cl)C=C(C(=O)OCCOCCOC(=O)c1ccc(-c3c4nc(c(-c5ccccc5)c5ccc([nH]5)c(-c5ccccc5)c5nc(c(-c6ccccc6)c6ccc3[nH]6)C=C5)C=C4)cc1)[C@@H](C(F)(F)F)O2
REMARK SMILES IDX 18 1 17 2 16 3 15 4 14 5 12 6 13 7 11 8 1 9 2 10 3 11 8 12
REMARK SMILES IDX 4 13 6 14 9 15 5 16 76 17 7 18 10 19 71 20 72 21 73 22 74 23
REMARK SMILES IDX 75 24 19 25 20 26 21 27 22 28 23 29 24 30 70 31 25 32 69 33
REMARK SMILES IDX 26 34 27 35 28 36 63 37 29 38 68 39 62 40 64 41 30 42 67 43
REMARK SMILES IDX 61 44 60 45 31 47 53 48 38 49 52 50 39 51 42 52 51 53 65 54
REMARK SMILES IDX 40 55 41 56 50 58 66 59 43 60 32 61 33 62 37 63 34 64 36 65
REMARK SMILES IDX 35 66 54 67 55 68 59 69 56 70 58 71 57 72 44 73 45 74 49 75
REMARK SMILES IDX 46 76 48 77 47 78
REMARK H PARENT 64 46 42 57
REMARK Flexibility Score: inf
ROOT
ATOM      1  C   UNL A   1      33.780  34.971  29.391  1.00  0.00     0.202 C 
ENDROOT
BRANCH   1   2
ATOM      2  O   UNL A   1      32.563  35.390  30.012  1.00  0.00    -0.374 OA
BRANCH   2   3
ATOM      3  C   UNL A   1      32.633  35.846  31.361  1.00  0.00     0.202 C 
BRANCH   3   4
ATOM      4  C   UNL A   1      34.038  36.004  31.946  1.00  0.00     0.261 C 
BRANCH   4   5
ATOM      5  O   UNL A   1      34.275  35.051  32.995  1.00  0.00    -0.460 OA
BRANCH   5   6
ATOM      6  C   UNL A   1      35.017  33.983  32.628  1.00  0.00     0.338 C 
ATOM      7  O   UNL A   1      34.607  32.929  32.160  1.00  0.00    -0.246 OA
BRANCH   6   8
ATOM      8  C   UNL A   1      36.451  34.301  32.753  1.00  0.00     0.087 C 
ATOM      9  C   UNL A   1      42.893  34.495  32.205  1.00  0.00     0.046 C 
ATOM     10  C   UNL A   1      41.407  34.491  31.961  1.00  0.00    -0.028 A 
ATOM     11  C   UNL A   1      40.566  34.706  33.061  1.00  0.00     0.052 A 
ATOM     12  C   UNL A   1      40.830  34.326  30.686  1.00  0.00     0.047 A 
ATOM     13  C   UNL A   1      39.180  34.664  32.923  1.00  0.00     0.128 A 
ATOM     14  C   UNL A   1      39.426  34.286  30.525  1.00  0.00    -0.021 A 
ATOM     15  Cl  UNL A   1      41.877  34.167  29.308  1.00  0.00    -0.084 Cl
ATOM     16  C   UNL A   1      38.604  34.415  31.674  1.00  0.00     0.022 A 
ATOM     17  O   UNL A   1      38.474  34.881  34.073  1.00  0.00    -0.475 OA
ATOM     18  C   UNL A   1      38.782  34.108  29.168  1.00  0.00     0.047 C 
ATOM     19  C   UNL A   1      37.157  34.234  31.618  1.00  0.00     0.027 C 
ATOM     20  C   UNL A   1      37.041  34.647  34.087  1.00  0.00     0.316 C 
BRANCH  20  21
ATOM     21  C   UNL A   1      36.738  33.597  35.166  1.00  0.00     0.430 C 
ATOM     22  F   UNL A   1      37.702  33.583  36.119  1.00  0.00    -0.167 F 
ATOM     23  F   UNL A   1      35.572  33.852  35.804  1.00  0.00    -0.167 F 
ATOM     24  F   UNL A   1      36.656  32.350  34.653  1.00  0.00    -0.167 F 
ENDBRANCH  20  21
ENDBRANCH   6   8
ENDBRANCH   5   6
ENDBRANCH   4   5
ENDBRANCH   3   4
ENDBRANCH   2   3
ENDBRANCH   1   2
BRANCH   1  25
ATOM     25  C   UNL A   1      33.655  33.949  28.254  1.00  0.00     0.261 C 
BRANCH  25  26
ATOM     26  O   UNL A   1      34.794  33.068  28.198  1.00  0.00    -0.460 OA
BRANCH  26  27
ATOM     27  C   UNL A   1      34.495  31.749  28.229  1.00  0.00     0.338 C 
ATOM     28  O   UNL A   1      33.416  31.224  27.979  1.00  0.00    -0.246 OA
BRANCH  27  29
ATOM     29  C   UNL A   1      35.718  30.958  28.441  1.00  0.00     0.060 A 
ATOM     30  C   UNL A   1      35.674  29.939  29.401  1.00  0.00     0.016 A 
ATOM     31  C   UNL A   1      36.909  31.260  27.779  1.00  0.00     0.016 A 
ATOM     32  C   UNL A   1      36.834  29.248  29.739  1.00  0.00     0.010 A 
ATOM     33  C   UNL A   1      38.077  30.575  28.129  1.00  0.00     0.010 A 
ATOM     34  C   UNL A   1      38.051  29.591  29.134  1.00  0.00    -0.014 A 
BRANCH  34  35
ATOM     35  C   UNL A   1      39.312  29.022  29.664  1.00  0.00     0.031 A 
ATOM     36  C   UNL A   1      39.916  29.618  30.905  1.00  0.00     0.074 A 
ATOM     37  C   UNL A   1      39.886  27.956  29.078  1.00  0.00     0.049 A 
ATOM     38  N   UNL A   1      41.010  29.277  31.538  1.00  0.00    -0.248 NA
ATOM     39  C   UNL A   1      39.188  30.741  31.519  1.00  0.00     0.031 C 
ATOM     40  C   UNL A   1      39.363  27.252  27.908  1.00  0.00     0.029 A 
ATOM     41  N   UNL A   1      41.034  27.279  29.398  1.00  0.00    -0.354 N 
ATOM     42  C   UNL A   1      41.098  30.138  32.625  1.00  0.00     0.074 A 
ATOM     43  C   UNL A   1      39.967  31.036  32.549  1.00  0.00     0.031 C 
ATOM     44  C   UNL A   1      40.189  26.234  27.611  1.00  0.00     0.029 A 
ATOM     45  C   UNL A   1      41.311  26.236  28.548  1.00  0.00     0.049 A 
ATOM     46  H   UNL A   1      41.606  27.517  30.164  1.00  0.00     0.167 HD
ATOM     47  C   UNL A   1      42.033  30.172  33.603  1.00  0.00     0.031 A 
ATOM     48  C   UNL A   1      42.357  25.389  28.523  1.00  0.00     0.031 A 
ATOM     49  C   UNL A   1      43.169  29.294  33.670  1.00  0.00     0.049 A 
ATOM     50  C   UNL A   1      43.438  25.513  29.562  1.00  0.00     0.074 A 
ATOM     51  C   UNL A   1      44.176  29.260  34.620  1.00  0.00     0.029 A 
ATOM     52  N   UNL A   1      43.451  28.299  32.748  1.00  0.00    -0.354 N 
ATOM     53  N   UNL A   1      43.512  26.332  30.582  1.00  0.00    -0.248 NA
ATOM     54  C   UNL A   1      44.580  24.594  29.445  1.00  0.00     0.031 C 
ATOM     55  C   UNL A   1      45.094  28.275  34.244  1.00  0.00     0.029 A 
ATOM     56  C   UNL A   1      44.630  27.661  33.092  1.00  0.00     0.049 A 
ATOM     57  H   UNL A   1      42.896  28.079  31.965  1.00  0.00     0.167 HD
ATOM     58  C   UNL A   1      44.692  26.013  31.242  1.00  0.00     0.074 A 
ATOM     59  C   UNL A   1      45.298  24.918  30.513  1.00  0.00     0.031 C 
ATOM     60  C   UNL A   1      45.223  26.575  32.355  1.00  0.00     0.031 A 
BRANCH  47  61
ATOM     61  C   UNL A   1      41.877  31.212  34.675  1.00  0.00    -0.014 A 
ATOM     62  C   UNL A   1      40.857  31.117  35.634  1.00  0.00     0.009 A 
ATOM     63  C   UNL A   1      42.792  32.273  34.756  1.00  0.00     0.009 A 
ATOM     64  C   UNL A   1      40.743  32.075  36.642  1.00  0.00     0.001 A 
ATOM     65  C   UNL A   1      42.690  33.218  35.780  1.00  0.00     0.001 A 
ATOM     66  C   UNL A   1      41.663  33.122  36.717  1.00  0.00     0.000 A 
ENDBRANCH  47  61
BRANCH  48  67
ATOM     67  C   UNL A   1      42.437  24.344  27.469  1.00  0.00    -0.014 A 
ATOM     68  C   UNL A   1      43.048  24.621  26.237  1.00  0.00     0.009 A 
ATOM     69  C   UNL A   1      41.908  23.064  27.692  1.00  0.00     0.009 A 
ATOM     70  C   UNL A   1      43.114  23.641  25.244  1.00  0.00     0.001 A 
ATOM     71  C   UNL A   1      41.997  22.078  26.708  1.00  0.00     0.001 A 
ATOM     72  C   UNL A   1      42.595  22.369  25.482  1.00  0.00     0.000 A 
ENDBRANCH  48  67
BRANCH  60  73
ATOM     73  C   UNL A   1      46.513  26.007  32.874  1.00  0.00    -0.014 A 
ATOM     74  C   UNL A   1      46.522  24.991  33.840  1.00  0.00     0.009 A 
ATOM     75  C   UNL A   1      47.733  26.445  32.333  1.00  0.00     0.009 A 
ATOM     76  C   UNL A   1      47.730  24.436  34.269  1.00  0.00     0.001 A 
ATOM     77  C   UNL A   1      48.936  25.872  32.744  1.00  0.00     0.001 A 
ATOM     78  C   UNL A   1      48.935  24.872  33.716  1.00  0.00     0.000 A 
ENDBRANCH  60  73
ENDBRANCH  34  35
ENDBRANCH  27  29
ENDBRANCH  26  27
ENDBRANCH  25  26
ENDBRANCH   1  25
TORSDOF 15
ENDMDL
MODEL 3
REMARK VINA RESULT:      -8.1      6.447     11.365
REMARK SMILES Cc1cc2c(c(C)c1Cl)C=C(C(=O)OCCOCCOC(=O)c1ccc(-c3c4nc(c(-c5ccccc5)c5ccc([nH]5)c(-c5ccccc5)c5nc(c(-c6ccccc6)c6ccc3[nH]6)C=C5)C=C4)cc1)[C@@H](C(F)(F)F)O2
REMARK SMILES IDX 18 1 17 2 16 3 15 4 14 5 12 6 13 7 11 8 1 9 2 10 3 11 8 12
REMARK SMILES IDX 4 13 6 14 9 15 5 16 76 17 7 18 10 19 71 20 72 21 73 22 74 23
REMARK SMILES IDX 75 24 19 25 20 26 21 27 22 28 23 29 24 30 70 31 25 32 69 33
REMARK SMILES IDX 26 34 27 35 28 36 63 37 29 38 68 39 62 40 64 41 30 42 67 43
REMARK SMILES IDX 61 44 60 45 31 47 53 48 38 49 52 50 39 51 42 52 51 53 65 54
REMARK SMILES IDX 40 55 41 56 50 58 66 59 43 60 32 61 33 62 37 63 34 64 36 65
REMARK SMILES IDX 35 66 54 67 55 68 59 69 56 70 58 71 57 72 44 73 45 74 49 75
REMARK SMILES IDX 46 76 48 77 47 78
REMARK H PARENT 64 46 42 57
REMARK Flexibility Score: inf
ROOT
ATOM      1  C   UNL A   1      31.412  31.790  26.749  1.00  0.00     0.202 C 
ENDROOT
BRANCH   1   2
ATOM      2  O   UNL A   1      32.003  30.557  27.167  1.00  0.00    -0.374 OA
BRANCH   2   3
ATOM      3  C   UNL A   1      33.415  30.417  27.017  1.00  0.00     0.202 C 
BRANCH   3   4
ATOM      4  C   UNL A   1      33.976  29.007  27.213  1.00  0.00     0.261 C 
BRANCH   4   5
ATOM      5  O   UNL A   1      33.098  28.016  26.658  1.00  0.00    -0.460 OA
BRANCH   5   6
ATOM      6  C   UNL A   1      33.530  27.463  25.503  1.00  0.00     0.338 C 
ATOM      7  O   UNL A   1      34.048  28.045  24.558  1.00  0.00    -0.246 OA
BRANCH   6   8
ATOM      8  C   UNL A   1      33.409  25.996  25.572  1.00  0.00     0.087 C 
ATOM      9  C   UNL A   1      34.090  19.612  24.782  1.00  0.00     0.046 C 
ATOM     10  C   UNL A   1      34.298  21.081  25.042  1.00  0.00    -0.028 A 
ATOM     11  C   UNL A   1      33.162  21.867  25.278  1.00  0.00     0.052 A 
ATOM     12  C   UNL A   1      35.568  21.687  25.101  1.00  0.00     0.047 A 
ATOM     13  C   UNL A   1      33.270  23.242  25.472  1.00  0.00     0.128 A 
ATOM     14  C   UNL A   1      35.699  23.080  25.303  1.00  0.00    -0.021 A 
ATOM     15  Cl  UNL A   1      36.980  20.691  24.915  1.00  0.00    -0.084 Cl
ATOM     16  C   UNL A   1      34.524  23.861  25.446  1.00  0.00     0.022 A 
ATOM     17  O   UNL A   1      32.088  23.895  25.684  1.00  0.00    -0.475 OA
ATOM     18  C   UNL A   1      37.051  23.755  25.369  1.00  0.00     0.047 C 
ATOM     19  C   UNL A   1      34.562  25.319  25.508  1.00  0.00     0.027 C 
ATOM     20  C   UNL A   1      32.063  25.347  25.683  1.00  0.00     0.316 C 
BRANCH  20  21
ATOM     21  C   UNL A   1      31.085  25.807  24.592  1.00  0.00     0.430 C 
ATOM     22  F   UNL A   1      31.746  26.192  23.473  1.00  0.00    -0.167 F 
ATOM     23  F   UNL A   1      30.244  24.814  24.218  1.00  0.00    -0.167 F 
ATOM     24  F   UNL A   1      30.327  26.850  24.996  1.00  0.00    -0.167 F 
ENDBRANCH  20  21
ENDBRANCH   6   8
ENDBRANCH   5   6
ENDBRANCH   4   5
ENDBRANCH   3   4
ENDBRANCH   2   3
ENDBRANCH   1   2
BRANCH   1  25
ATOM     25  C   UNL A   1      32.300  33.037  26.822  1.00  0.00     0.261 C 
BRANCH  25  26
ATOM     26  O   UNL A   1      32.059  33.799  28.021  1.00  0.00    -0.460 OA
BRANCH  26  27
ATOM     27  C   UNL A   1      33.093  34.575  28.420  1.00  0.00     0.338 C 
ATOM     28  O   UNL A   1      33.066  35.769  28.692  1.00  0.00    -0.246 OA
BRANCH  27  29
ATOM     29  C   UNL A   1      34.282  33.744  28.670  1.00  0.00     0.060 A 
ATOM     30  C   UNL A   1      34.205  32.792  29.695  1.00  0.00     0.016 A 
ATOM     31  C   UNL A   1      35.477  33.947  27.977  1.00  0.00     0.016 A 
ATOM     32  C   UNL A   1      35.337  32.072  30.065  1.00  0.00     0.010 A 
ATOM     33  C   UNL A   1      36.617  33.233  28.359  1.00  0.00     0.010 A 
ATOM     34  C   UNL A   1      36.560  32.319  29.427  1.00  0.00    -0.014 A 
BRANCH  34  35
ATOM     35  C   UNL A   1      37.801  31.728  29.979  1.00  0.00     0.031 A 
ATOM     36  C   UNL A   1      38.468  32.395  31.150  1.00  0.00     0.074 A 
ATOM     37  C   UNL A   1      38.301  30.584  29.479  1.00  0.00     0.049 A 
ATOM     38  N   UNL A   1      39.557  32.050  31.788  1.00  0.00    -0.248 NA
ATOM     39  C   UNL A   1      37.818  33.607  31.676  1.00  0.00     0.031 C 
ATOM     40  C   UNL A   1      37.711  29.810  28.387  1.00  0.00     0.029 A 
ATOM     41  N   UNL A   1      39.418  29.873  29.835  1.00  0.00    -0.354 N 
ATOM     42  C   UNL A   1      39.720  32.997  32.792  1.00  0.00     0.074 A 
ATOM     43  C   UNL A   1      38.638  33.948  32.660  1.00  0.00     0.031 C 
ATOM     44  C   UNL A   1      38.472  28.725  28.166  1.00  0.00     0.029 A 
ATOM     45  C   UNL A   1      39.616  28.746  29.076  1.00  0.00     0.049 A 
ATOM     46  H   UNL A   1      40.021  30.145  30.564  1.00  0.00     0.167 HD
ATOM     47  C   UNL A   1      40.680  33.063  33.744  1.00  0.00     0.031 A 
ATOM     48  C   UNL A   1      40.613  27.842  29.105  1.00  0.00     0.031 A 
ATOM     49  C   UNL A   1      41.768  32.132  33.866  1.00  0.00     0.049 A 
ATOM     50  C   UNL A   1      41.725  27.995  30.107  1.00  0.00     0.074 A 
ATOM     51  C   UNL A   1      42.794  32.125  34.794  1.00  0.00     0.029 A 
ATOM     52  N   UNL A   1      41.971  31.046  33.030  1.00  0.00    -0.354 N 
ATOM     53  N   UNL A   1      41.870  28.896  31.048  1.00  0.00    -0.248 NA
ATOM     54  C   UNL A   1      42.812  27.006  30.049  1.00  0.00     0.031 C 
ATOM     55  C   UNL A   1      43.648  31.060  34.489  1.00  0.00     0.029 A 
ATOM     56  C   UNL A   1      43.122  30.374  33.406  1.00  0.00     0.049 A 
ATOM     57  H   UNL A   1      41.385  30.790  32.282  1.00  0.00     0.167 HD
ATOM     58  C   UNL A   1      43.046  28.569  31.710  1.00  0.00     0.074 A 
ATOM     59  C   UNL A   1      43.573  27.382  31.069  1.00  0.00     0.031 C 
ATOM     60  C   UNL A   1      43.636  29.196  32.757  1.00  0.00     0.031 A 
BRANCH  47  61
ATOM     61  C   UNL A   1      40.608  34.201  34.722  1.00  0.00    -0.014 A 
ATOM     62  C   UNL A   1      39.930  34.065  35.942  1.00  0.00     0.009 A 
ATOM     63  C   UNL A   1      41.269  35.407  34.440  1.00  0.00     0.009 A 
ATOM     64  C   UNL A   1      39.897  35.122  36.854  1.00  0.00     0.001 A 
ATOM     65  C   UNL A   1      41.255  36.453  35.364  1.00  0.00     0.001 A 
ATOM     66  C   UNL A   1      40.565  36.313  36.566  1.00  0.00     0.000 A 
ENDBRANCH  47  61
BRANCH  48  67
ATOM     67  C   UNL A   1      40.609  26.706  28.147  1.00  0.00    -0.014 A 
ATOM     68  C   UNL A   1      41.223  26.831  26.892  1.00  0.00     0.009 A 
ATOM     69  C   UNL A   1      39.996  25.489  28.486  1.00  0.00     0.009 A 
ATOM     70  C   UNL A   1      41.211  25.765  25.989  1.00  0.00     0.001 A 
ATOM     71  C   UNL A   1      40.007  24.417  27.592  1.00  0.00     0.001 A 
ATOM     72  C   UNL A   1      40.609  24.557  26.342  1.00  0.00     0.000 A 
ENDBRANCH  48  67
BRANCH  60  73
ATOM     73  C   UNL A   1      44.906  28.604  33.298  1.00  0.00    -0.014 A 
ATOM     74  C   UNL A   1      44.879  27.599  34.277  1.00  0.00     0.009 A 
ATOM     75  C   UNL A   1      46.142  29.006  32.767  1.00  0.00     0.009 A 
ATOM     76  C   UNL A   1      46.068  27.021  34.727  1.00  0.00     0.001 A 
ATOM     77  C   UNL A   1      47.326  28.408  33.199  1.00  0.00     0.001 A 
ATOM     78  C   UNL A   1      47.289  27.421  34.183  1.00  0.00     0.000 A 
ENDBRANCH  60  73
ENDBRANCH  34  35
ENDBRANCH  27  29
ENDBRANCH  26  27
ENDBRANCH  25  26
ENDBRANCH   1  25
TORSDOF 15
ENDMDL
