MODEL 1
REMARK VINA RESULT:     -10.9      0.000      0.000
REMARK SMILES Cc1oc2c(c1C(=O)OCCOCCOC(=O)c1ccc(-c3c4nc(c(-c5ccccc5)c5ccc([nH]5)c(-c5ccccc5)c5nc(c(-c6ccccc6)c6ccc3[nH]6)C=C5)C=C4)cc1)C(=O)C[C@H](c1ccco1)C2
REMARK SMILES IDX 13 1 12 2 11 3 10 4 9 5 7 6 8 7 6 8 1 9 2 10 3 11 4 12 5 13
REMARK SMILES IDX 75 14 66 15 69 16 67 17 68 18 70 19 71 20 74 21 72 22 73 23
REMARK SMILES IDX 14 24 15 25 16 26 17 27 18 28 19 29 65 30 20 31 64 32 21 33
REMARK SMILES IDX 22 34 23 35 58 36 24 37 63 38 57 39 59 40 25 41 62 42 56 43
REMARK SMILES IDX 55 44 26 46 48 47 33 48 47 49 34 50 37 51 46 52 60 53 35 54
REMARK SMILES IDX 36 55 45 57 61 58 38 59 27 60 28 61 32 62 29 63 31 64 30 65
REMARK SMILES IDX 49 66 50 67 54 68 51 69 53 70 52 71 39 72 40 73 44 74 41 75
REMARK SMILES IDX 43 76 42 77
REMARK H PARENT 59 45 37 56
REMARK Flexibility Score: inf
ROOT
ATOM      1  C   UNL A   1      32.559  29.917  27.041  1.00  0.00     0.202 C 
ENDROOT
BRANCH   1   2
ATOM      2  O   UNL A   1      31.699  29.899  25.908  1.00  0.00    -0.374 OA
BRANCH   2   3
ATOM      3  C   UNL A   1      32.107  29.240  24.711  1.00  0.00     0.202 C 
BRANCH   3   4
ATOM      4  C   UNL A   1      31.345  27.987  24.273  1.00  0.00     0.261 C 
BRANCH   4   5
ATOM      5  O   UNL A   1      31.566  26.872  25.153  1.00  0.00    -0.460 OA
BRANCH   5   6
ATOM      6  C   UNL A   1      31.315  25.649  24.596  1.00  0.00     0.342 C 
ATOM      7  O   UNL A   1      30.229  25.094  24.590  1.00  0.00    -0.246 OA
BRANCH   6   8
ATOM      8  C   UNL A   1      32.474  25.073  23.941  1.00  0.00     0.112 A 
ATOM      9  C   UNL A   1      32.217  25.738  21.393  1.00  0.00     0.088 C 
ATOM     10  C   UNL A   1      32.839  25.164  22.605  1.00  0.00     0.116 A 
ATOM     11  O   UNL A   1      34.097  24.650  22.420  1.00  0.00    -0.465 OA
ATOM     12  C   UNL A   1      34.501  24.188  23.625  1.00  0.00     0.116 A 
ATOM     13  C   UNL A   1      33.516  24.332  24.566  1.00  0.00     0.074 A 
ATOM     14  C   UNL A   1      35.863  23.644  23.809  1.00  0.00     0.088 C 
ATOM     15  C   UNL A   1      33.690  23.773  25.890  1.00  0.00     0.168 C 
ATOM     16  C   UNL A   1      35.888  22.749  25.079  1.00  0.00     0.071 C 
ATOM     17  O   UNL A   1      32.749  23.592  26.655  1.00  0.00    -0.294 OA
ATOM     18  C   UNL A   1      35.116  23.383  26.264  1.00  0.00     0.093 C 
BRANCH  16  19
ATOM     19  C   UNL A   1      37.286  22.406  25.500  1.00  0.00     0.107 A 
ATOM     20  C   UNL A   1      38.073  21.283  25.332  1.00  0.00     0.046 A 
ATOM     21  O   UNL A   1      37.978  23.346  26.207  1.00  0.00    -0.469 OA
ATOM     22  C   UNL A   1      39.306  21.555  25.976  1.00  0.00     0.042 A 
ATOM     23  C   UNL A   1      39.197  22.824  26.490  1.00  0.00     0.195 A 
ENDBRANCH  16  19
ENDBRANCH   6   8
ENDBRANCH   5   6
ENDBRANCH   4   5
ENDBRANCH   3   4
ENDBRANCH   2   3
ENDBRANCH   1   2
BRANCH   1  24
ATOM     24  C   UNL A   1      33.374  31.174  27.302  1.00  0.00     0.261 C 
BRANCH  24  25
ATOM     25  O   UNL A   1      34.775  30.945  27.267  1.00  0.00    -0.460 OA
BRANCH  25  26
ATOM     26  C   UNL A   1      35.497  31.871  27.938  1.00  0.00     0.338 C 
ATOM     27  O   UNL A   1      35.484  33.079  27.781  1.00  0.00    -0.246 OA
BRANCH  26  28
ATOM     28  C   UNL A   1      36.468  31.174  28.789  1.00  0.00     0.060 A 
ATOM     29  C   UNL A   1      37.671  31.841  29.027  1.00  0.00     0.016 A 
ATOM     30  C   UNL A   1      36.310  29.805  29.055  1.00  0.00     0.016 A 
ATOM     31  C   UNL A   1      38.785  31.085  29.308  1.00  0.00     0.010 A 
ATOM     32  C   UNL A   1      37.425  29.051  29.330  1.00  0.00     0.010 A 
ATOM     33  C   UNL A   1      38.659  29.690  29.355  1.00  0.00    -0.014 A 
BRANCH  33  34
ATOM     34  C   UNL A   1      39.864  28.911  29.529  1.00  0.00     0.031 A 
ATOM     35  C   UNL A   1      40.243  28.774  30.950  1.00  0.00     0.074 A 
ATOM     36  C   UNL A   1      40.517  28.328  28.509  1.00  0.00     0.049 A 
ATOM     37  N   UNL A   1      41.243  29.329  31.543  1.00  0.00    -0.248 NA
ATOM     38  C   UNL A   1      39.294  28.103  31.853  1.00  0.00     0.031 C 
ATOM     39  C   UNL A   1      40.097  28.176  27.113  1.00  0.00     0.029 A 
ATOM     40  N   UNL A   1      41.688  27.645  28.545  1.00  0.00    -0.354 N 
ATOM     41  C   UNL A   1      41.165  28.920  32.868  1.00  0.00     0.074 A 
ATOM     42  C   UNL A   1      39.864  28.325  33.037  1.00  0.00     0.031 C 
ATOM     43  C   UNL A   1      40.876  27.242  26.513  1.00  0.00     0.029 A 
ATOM     44  C   UNL A   1      41.931  26.850  27.435  1.00  0.00     0.049 A 
ATOM     45  H   UNL A   1      42.317  27.710  29.301  1.00  0.00     0.167 HD
ATOM     46  C   UNL A   1      42.276  28.866  33.650  1.00  0.00     0.031 A 
ATOM     47  C   UNL A   1      42.894  25.900  27.327  1.00  0.00     0.031 A 
ATOM     48  C   UNL A   1      43.362  29.622  33.083  1.00  0.00     0.049 A 
ATOM     49  C   UNL A   1      43.914  26.186  28.365  1.00  0.00     0.074 A 
ATOM     50  C   UNL A   1      43.565  30.952  32.777  1.00  0.00     0.029 A 
ATOM     51  N   UNL A   1      44.301  28.916  32.370  1.00  0.00    -0.354 N 
ATOM     52  N   UNL A   1      44.681  27.238  28.339  1.00  0.00    -0.248 NA
ATOM     53  C   UNL A   1      43.749  25.565  29.671  1.00  0.00     0.031 C 
ATOM     54  C   UNL A   1      44.291  30.939  31.552  1.00  0.00     0.029 A 
ATOM     55  C   UNL A   1      44.557  29.609  31.217  1.00  0.00     0.049 A 
ATOM     56  H   UNL A   1      44.716  28.065  32.639  1.00  0.00     0.167 HD
ATOM     57  C   UNL A   1      44.731  27.671  29.657  1.00  0.00     0.074 A 
ATOM     58  C   UNL A   1      44.211  26.552  30.445  1.00  0.00     0.031 C 
ATOM     59  C   UNL A   1      44.914  28.989  29.960  1.00  0.00     0.031 A 
BRANCH  46  60
ATOM     60  C   UNL A   1      42.505  27.773  34.658  1.00  0.00    -0.014 A 
ATOM     61  C   UNL A   1      42.911  26.511  34.194  1.00  0.00     0.009 A 
ATOM     62  C   UNL A   1      42.052  27.847  35.990  1.00  0.00     0.009 A 
ATOM     63  C   UNL A   1      42.788  25.371  34.997  1.00  0.00     0.001 A 
ATOM     64  C   UNL A   1      41.967  26.719  36.807  1.00  0.00     0.001 A 
ATOM     65  C   UNL A   1      42.307  25.475  36.299  1.00  0.00     0.000 A 
ENDBRANCH  46  60
BRANCH  47  66
ATOM     66  C   UNL A   1      42.821  24.588  26.642  1.00  0.00    -0.014 A 
ATOM     67  C   UNL A   1      43.222  24.448  25.303  1.00  0.00     0.009 A 
ATOM     68  C   UNL A   1      42.632  23.412  27.392  1.00  0.00     0.009 A 
ATOM     69  C   UNL A   1      43.460  23.181  24.749  1.00  0.00     0.001 A 
ATOM     70  C   UNL A   1      42.869  22.148  26.838  1.00  0.00     0.001 A 
ATOM     71  C   UNL A   1      43.297  22.033  25.520  1.00  0.00     0.000 A 
ENDBRANCH  47  66
BRANCH  59  72
ATOM     72  C   UNL A   1      45.286  29.932  28.843  1.00  0.00    -0.014 A 
ATOM     73  C   UNL A   1      46.605  30.111  28.390  1.00  0.00     0.009 A 
ATOM     74  C   UNL A   1      44.243  30.508  28.103  1.00  0.00     0.009 A 
ATOM     75  C   UNL A   1      46.867  30.855  27.233  1.00  0.00     0.001 A 
ATOM     76  C   UNL A   1      44.503  31.232  26.939  1.00  0.00     0.001 A 
ATOM     77  C   UNL A   1      45.814  31.406  26.504  1.00  0.00     0.000 A 
ENDBRANCH  59  72
ENDBRANCH  33  34
ENDBRANCH  26  28
ENDBRANCH  25  26
ENDBRANCH  24  25
ENDBRANCH   1  24
TORSDOF 15
ENDMDL
MODEL 2
REMARK VINA RESULT:     -10.9      2.331      8.295
REMARK SMILES Cc1oc2c(c1C(=O)OCCOCCOC(=O)c1ccc(-c3c4nc(c(-c5ccccc5)c5ccc([nH]5)c(-c5ccccc5)c5nc(c(-c6ccccc6)c6ccc3[nH]6)C=C5)C=C4)cc1)C(=O)C[C@H](c1ccco1)C2
REMARK SMILES IDX 13 1 12 2 11 3 10 4 9 5 7 6 8 7 6 8 1 9 2 10 3 11 4 12 5 13
REMARK SMILES IDX 75 14 66 15 69 16 67 17 68 18 70 19 71 20 74 21 72 22 73 23
REMARK SMILES IDX 14 24 15 25 16 26 17 27 18 28 19 29 65 30 20 31 64 32 21 33
REMARK SMILES IDX 22 34 23 35 58 36 24 37 63 38 57 39 59 40 25 41 62 42 56 43
REMARK SMILES IDX 55 44 26 46 48 47 33 48 47 49 34 50 37 51 46 52 60 53 35 54
REMARK SMILES IDX 36 55 45 57 61 58 38 59 27 60 28 61 32 62 29 63 31 64 30 65
REMARK SMILES IDX 49 66 50 67 54 68 51 69 53 70 52 71 39 72 40 73 44 74 41 75
REMARK SMILES IDX 43 76 42 77
REMARK H PARENT 59 45 37 56
REMARK Flexibility Score: inf
ROOT
ATOM      1  C   UNL A   1      37.883  22.070  25.563  1.00  0.00     0.202 C 
ENDROOT
BRANCH   1   2
ATOM      2  O   UNL A   1      37.297  21.752  24.306  1.00  0.00    -0.374 OA
BRANCH   2   3
ATOM      3  C   UNL A   1      36.488  22.712  23.630  1.00  0.00     0.202 C 
BRANCH   3   4
ATOM      4  C   UNL A   1      34.996  22.770  23.963  1.00  0.00     0.261 C 
BRANCH   4   5
ATOM      5  O   UNL A   1      34.328  23.863  23.311  1.00  0.00    -0.460 OA
BRANCH   5   6
ATOM      6  C   UNL A   1      33.896  24.851  24.151  1.00  0.00     0.342 C 
ATOM      7  O   UNL A   1      34.604  25.454  24.940  1.00  0.00    -0.246 OA
BRANCH   6   8
ATOM      8  C   UNL A   1      32.493  25.173  23.978  1.00  0.00     0.112 A 
ATOM      9  C   UNL A   1      31.189  23.064  24.900  1.00  0.00     0.088 C 
ATOM     10  C   UNL A   1      31.386  24.417  24.339  1.00  0.00     0.116 A 
ATOM     11  O   UNL A   1      30.238  25.152  24.186  1.00  0.00    -0.465 OA
ATOM     12  C   UNL A   1      30.616  26.347  23.680  1.00  0.00     0.116 A 
ATOM     13  C   UNL A   1      31.964  26.382  23.443  1.00  0.00     0.074 A 
ATOM     14  C   UNL A   1      29.628  27.428  23.473  1.00  0.00     0.088 C 
ATOM     15  C   UNL A   1      32.554  27.519  22.769  1.00  0.00     0.168 C 
ATOM     16  C   UNL A   1      30.194  28.448  22.448  1.00  0.00     0.071 C 
ATOM     17  O   UNL A   1      33.667  27.474  22.256  1.00  0.00    -0.294 OA
ATOM     18  C   UNL A   1      31.688  28.772  22.700  1.00  0.00     0.093 C 
BRANCH  16  19
ATOM     19  C   UNL A   1      29.392  29.715  22.411  1.00  0.00     0.107 A 
ATOM     20  C   UNL A   1      28.772  30.468  23.389  1.00  0.00     0.046 A 
ATOM     21  O   UNL A   1      29.185  30.292  21.192  1.00  0.00    -0.469 OA
ATOM     22  C   UNL A   1      28.151  31.556  22.728  1.00  0.00     0.042 A 
ATOM     23  C   UNL A   1      28.435  31.404  21.392  1.00  0.00     0.195 A 
ENDBRANCH  16  19
ENDBRANCH   6   8
ENDBRANCH   5   6
ENDBRANCH   4   5
ENDBRANCH   3   4
ENDBRANCH   2   3
ENDBRANCH   1   2
BRANCH   1  24
ATOM     24  C   UNL A   1      39.135  21.315  25.982  1.00  0.00     0.261 C 
BRANCH  24  25
ATOM     25  O   UNL A   1      40.292  22.137  26.020  1.00  0.00    -0.460 OA
BRANCH  25  26
ATOM     26  C   UNL A   1      40.657  22.508  27.269  1.00  0.00     0.338 C 
ATOM     27  O   UNL A   1      40.625  21.834  28.283  1.00  0.00    -0.246 OA
BRANCH  26  28
ATOM     28  C   UNL A   1      40.933  23.949  27.262  1.00  0.00     0.060 A 
ATOM     29  C   UNL A   1      42.047  24.368  27.990  1.00  0.00     0.016 A 
ATOM     30  C   UNL A   1      39.948  24.849  26.823  1.00  0.00     0.016 A 
ATOM     31  C   UNL A   1      42.052  25.653  28.483  1.00  0.00     0.010 A 
ATOM     32  C   UNL A   1      39.952  26.129  27.321  1.00  0.00     0.010 A 
ATOM     33  C   UNL A   1      40.952  26.479  28.221  1.00  0.00    -0.014 A 
BRANCH  33  34
ATOM     34  C   UNL A   1      40.923  27.780  28.851  1.00  0.00     0.031 A 
ATOM     35  C   UNL A   1      41.897  28.715  28.253  1.00  0.00     0.074 A 
ATOM     36  C   UNL A   1      40.055  28.107  29.825  1.00  0.00     0.049 A 
ATOM     37  N   UNL A   1      42.983  29.153  28.790  1.00  0.00    -0.248 NA
ATOM     38  C   UNL A   1      41.745  29.046  26.826  1.00  0.00     0.031 C 
ATOM     39  C   UNL A   1      38.889  27.361  30.309  1.00  0.00     0.029 A 
ATOM     40  N   UNL A   1      39.989  29.261  30.534  1.00  0.00    -0.354 N 
ATOM     41  C   UNL A   1      43.565  29.978  27.836  1.00  0.00     0.074 A 
ATOM     42  C   UNL A   1      42.865  29.733  26.601  1.00  0.00     0.031 C 
ATOM     43  C   UNL A   1      38.105  28.189  31.042  1.00  0.00     0.029 A 
ATOM     44  C   UNL A   1      38.788  29.464  31.199  1.00  0.00     0.049 A 
ATOM     45  H   UNL A   1      40.735  29.903  30.574  1.00  0.00     0.167 HD
ATOM     46  C   UNL A   1      44.401  30.986  28.200  1.00  0.00     0.031 A 
ATOM     47  C   UNL A   1      38.379  30.624  31.773  1.00  0.00     0.031 A 
ATOM     48  C   UNL A   1      44.877  30.822  29.549  1.00  0.00     0.049 A 
ATOM     49  C   UNL A   1      39.587  31.456  31.994  1.00  0.00     0.074 A 
ATOM     50  C   UNL A   1      45.635  29.872  30.202  1.00  0.00     0.029 A 
ATOM     51  N   UNL A   1      44.221  31.530  30.527  1.00  0.00    -0.354 N 
ATOM     52  N   UNL A   1      40.522  31.143  32.844  1.00  0.00    -0.248 NA
ATOM     53  C   UNL A   1      39.986  32.372  30.935  1.00  0.00     0.031 C 
ATOM     54  C   UNL A   1      45.039  29.752  31.491  1.00  0.00     0.029 A 
ATOM     55  C   UNL A   1      44.002  30.683  31.580  1.00  0.00     0.049 A 
ATOM     56  H   UNL A   1      43.957  32.478  30.479  1.00  0.00     0.167 HD
ATOM     57  C   UNL A   1      41.709  31.449  32.192  1.00  0.00     0.074 A 
ATOM     58  C   UNL A   1      41.313  32.284  31.056  1.00  0.00     0.031 C 
ATOM     59  C   UNL A   1      42.858  30.765  32.461  1.00  0.00     0.031 A 
BRANCH  46  60
ATOM     60  C   UNL A   1      44.407  32.322  27.509  1.00  0.00    -0.014 A 
ATOM     61  C   UNL A   1      43.731  33.393  28.119  1.00  0.00     0.009 A 
ATOM     62  C   UNL A   1      44.784  32.491  26.162  1.00  0.00     0.009 A 
ATOM     63  C   UNL A   1      43.379  34.534  27.391  1.00  0.00     0.001 A 
ATOM     64  C   UNL A   1      44.469  33.645  25.445  1.00  0.00     0.001 A 
ATOM     65  C   UNL A   1      43.739  34.655  26.052  1.00  0.00     0.000 A 
ENDBRANCH  46  60
BRANCH  47  66
ATOM     66  C   UNL A   1      37.014  31.198  31.819  1.00  0.00    -0.014 A 
ATOM     67  C   UNL A   1      36.514  31.780  32.995  1.00  0.00     0.009 A 
ATOM     68  C   UNL A   1      36.309  31.435  30.624  1.00  0.00     0.009 A 
ATOM     69  C   UNL A   1      35.373  32.597  32.969  1.00  0.00     0.001 A 
ATOM     70  C   UNL A   1      35.171  32.250  30.597  1.00  0.00     0.001 A 
ATOM     71  C   UNL A   1      34.711  32.843  31.768  1.00  0.00     0.000 A 
ENDBRANCH  47  66
BRANCH  59  72
ATOM     72  C   UNL A   1      42.868  29.824  33.641  1.00  0.00    -0.014 A 
ATOM     73  C   UNL A   1      42.406  28.498  33.575  1.00  0.00     0.009 A 
ATOM     74  C   UNL A   1      43.543  30.239  34.798  1.00  0.00     0.009 A 
ATOM     75  C   UNL A   1      42.610  27.618  34.645  1.00  0.00     0.001 A 
ATOM     76  C   UNL A   1      43.764  29.356  35.856  1.00  0.00     0.001 A 
ATOM     77  C   UNL A   1      43.298  28.045  35.780  1.00  0.00     0.000 A 
ENDBRANCH  59  72
ENDBRANCH  33  34
ENDBRANCH  26  28
ENDBRANCH  25  26
ENDBRANCH  24  25
ENDBRANCH   1  24
TORSDOF 15
ENDMDL
MODEL 3
REMARK VINA RESULT:     -10.8      1.621      2.378
REMARK SMILES Cc1oc2c(c1C(=O)OCCOCCOC(=O)c1ccc(-c3c4nc(c(-c5ccccc5)c5ccc([nH]5)c(-c5ccccc5)c5nc(c(-c6ccccc6)c6ccc3[nH]6)C=C5)C=C4)cc1)C(=O)C[C@H](c1ccco1)C2
REMARK SMILES IDX 13 1 12 2 11 3 10 4 9 5 7 6 8 7 6 8 1 9 2 10 3 11 4 12 5 13
REMARK SMILES IDX 75 14 66 15 69 16 67 17 68 18 70 19 71 20 74 21 72 22 73 23
REMARK SMILES IDX 14 24 15 25 16 26 17 27 18 28 19 29 65 30 20 31 64 32 21 33
REMARK SMILES IDX 22 34 23 35 58 36 24 37 63 38 57 39 59 40 25 41 62 42 56 43
REMARK SMILES IDX 55 44 26 46 48 47 33 48 47 49 34 50 37 51 46 52 60 53 35 54
REMARK SMILES IDX 36 55 45 57 61 58 38 59 27 60 28 61 32 62 29 63 31 64 30 65
REMARK SMILES IDX 49 66 50 67 54 68 51 69 53 70 52 71 39 72 40 73 44 74 41 75
REMARK SMILES IDX 43 76 42 77
REMARK H PARENT 59 45 37 56
REMARK Flexibility Score: inf
ROOT
ATOM      1  C   UNL A   1      33.609  30.752  27.259  1.00  0.00     0.202 C 
ENDROOT
BRANCH   1   2
ATOM      2  O   UNL A   1      32.327  30.647  26.651  1.00  0.00    -0.374 OA
BRANCH   2   3
ATOM      3  C   UNL A   1      31.875  29.392  26.149  1.00  0.00     0.202 C 
BRANCH   3   4
ATOM      4  C   UNL A   1      31.398  29.318  24.697  1.00  0.00     0.261 C 
BRANCH   4   5
ATOM      5  O   UNL A   1      30.795  28.053  24.378  1.00  0.00    -0.460 OA
BRANCH   5   6
ATOM      6  C   UNL A   1      30.930  27.668  23.073  1.00  0.00     0.342 C 
ATOM      7  O   UNL A   1      30.248  28.081  22.150  1.00  0.00    -0.246 OA
BRANCH   6   8
ATOM      8  C   UNL A   1      32.028  26.744  22.862  1.00  0.00     0.112 A 
ATOM      9  C   UNL A   1      34.028  28.246  22.001  1.00  0.00     0.088 C 
ATOM     10  C   UNL A   1      33.323  27.027  22.450  1.00  0.00     0.116 A 
ATOM     11  O   UNL A   1      34.111  25.910  22.559  1.00  0.00    -0.465 OA
ATOM     12  C   UNL A   1      33.303  24.914  22.988  1.00  0.00     0.116 A 
ATOM     13  C   UNL A   1      32.006  25.341  23.097  1.00  0.00     0.074 A 
ATOM     14  C   UNL A   1      33.851  23.577  23.301  1.00  0.00     0.088 C 
ATOM     15  C   UNL A   1      30.955  24.394  23.403  1.00  0.00     0.168 C 
ATOM     16  C   UNL A   1      32.702  22.533  23.264  1.00  0.00     0.071 C 
ATOM     17  O   UNL A   1      29.770  24.642  23.207  1.00  0.00    -0.294 OA
ATOM     18  C   UNL A   1      31.413  23.048  23.953  1.00  0.00     0.093 C 
BRANCH  16  19
ATOM     19  C   UNL A   1      33.114  21.219  23.859  1.00  0.00     0.107 A 
ATOM     20  C   UNL A   1      32.529  19.967  23.877  1.00  0.00     0.046 A 
ATOM     21  O   UNL A   1      34.292  21.182  24.546  1.00  0.00    -0.469 OA
ATOM     22  C   UNL A   1      33.396  19.128  24.619  1.00  0.00     0.042 A 
ATOM     23  C   UNL A   1      34.456  19.915  25.001  1.00  0.00     0.195 A 
ENDBRANCH  16  19
ENDBRANCH   6   8
ENDBRANCH   5   6
ENDBRANCH   4   5
ENDBRANCH   3   4
ENDBRANCH   2   3
ENDBRANCH   1   2
BRANCH   1  24
ATOM     24  C   UNL A   1      33.989  32.076  27.905  1.00  0.00     0.261 C 
BRANCH  24  25
ATOM     25  O   UNL A   1      35.394  32.250  28.027  1.00  0.00    -0.460 OA
BRANCH  25  26
ATOM     26  C   UNL A   1      35.915  31.706  29.150  1.00  0.00     0.338 C 
ATOM     27  O   UNL A   1      35.524  31.848  30.295  1.00  0.00    -0.246 OA
BRANCH  26  28
ATOM     28  C   UNL A   1      37.178  31.045  28.801  1.00  0.00     0.060 A 
ATOM     29  C   UNL A   1      37.070  29.792  28.195  1.00  0.00     0.016 A 
ATOM     30  C   UNL A   1      38.386  31.509  29.344  1.00  0.00     0.016 A 
ATOM     31  C   UNL A   1      38.115  28.909  28.347  1.00  0.00     0.010 A 
ATOM     32  C   UNL A   1      39.425  30.624  29.500  1.00  0.00     0.010 A 
ATOM     33  C   UNL A   1      39.235  29.310  29.086  1.00  0.00    -0.014 A 
BRANCH  33  34
ATOM     34  C   UNL A   1      40.263  28.327  29.336  1.00  0.00     0.031 A 
ATOM     35  C   UNL A   1      40.590  28.209  30.772  1.00  0.00     0.074 A 
ATOM     36  C   UNL A   1      40.804  27.565  28.369  1.00  0.00     0.049 A 
ATOM     37  N   UNL A   1      41.671  28.597  31.356  1.00  0.00    -0.248 NA
ATOM     38  C   UNL A   1      39.517  27.792  31.688  1.00  0.00     0.031 C 
ATOM     39  C   UNL A   1      40.382  27.409  26.974  1.00  0.00     0.029 A 
ATOM     40  N   UNL A   1      41.821  26.673  28.476  1.00  0.00    -0.354 N 
ATOM     41  C   UNL A   1      41.497  28.295  32.700  1.00  0.00     0.074 A 
ATOM     42  C   UNL A   1      40.103  27.974  32.872  1.00  0.00     0.031 C 
ATOM     43  C   UNL A   1      40.973  26.306  26.451  1.00  0.00     0.029 A 
ATOM     44  C   UNL A   1      41.919  25.777  27.421  1.00  0.00     0.049 A 
ATOM     45  H   UNL A   1      42.440  26.662  29.242  1.00  0.00     0.167 HD
ATOM     46  C   UNL A   1      42.565  28.078  33.512  1.00  0.00     0.031 A 
ATOM     47  C   UNL A   1      42.681  24.654  27.394  1.00  0.00     0.031 A 
ATOM     48  C   UNL A   1      43.785  28.572  32.929  1.00  0.00     0.049 A 
ATOM     49  C   UNL A   1      43.723  24.804  28.439  1.00  0.00     0.074 A 
ATOM     50  C   UNL A   1      44.246  29.816  32.550  1.00  0.00     0.029 A 
ATOM     51  N   UNL A   1      44.579  27.655  32.283  1.00  0.00    -0.354 N 
ATOM     52  N   UNL A   1      44.680  25.684  28.370  1.00  0.00    -0.248 NA
ATOM     53  C   UNL A   1      43.423  24.310  29.775  1.00  0.00     0.031 C 
ATOM     54  C   UNL A   1      44.973  29.587  31.346  1.00  0.00     0.029 A 
ATOM     55  C   UNL A   1      44.980  28.212  31.098  1.00  0.00     0.049 A 
ATOM     56  H   UNL A   1      44.817  26.759  32.613  1.00  0.00     0.167 HD
ATOM     57  C   UNL A   1      44.796  26.182  29.661  1.00  0.00     0.074 A 
ATOM     58  C   UNL A   1      44.058  25.236  30.500  1.00  0.00     0.031 C 
ATOM     59  C   UNL A   1      45.226  27.456  29.890  1.00  0.00     0.031 A 
BRANCH  46  60
ATOM     60  C   UNL A   1      42.565  27.027  34.589  1.00  0.00    -0.014 A 
ATOM     61  C   UNL A   1      42.962  25.722  34.250  1.00  0.00     0.009 A 
ATOM     62  C   UNL A   1      41.911  27.193  35.826  1.00  0.00     0.009 A 
ATOM     63  C   UNL A   1      42.644  24.634  35.069  1.00  0.00     0.001 A 
ATOM     64  C   UNL A   1      41.629  26.114  36.664  1.00  0.00     0.001 A 
ATOM     65  C   UNL A   1      41.969  24.829  36.271  1.00  0.00     0.000 A 
ENDBRANCH  46  60
BRANCH  47  66
ATOM     66  C   UNL A   1      42.364  23.341  26.787  1.00  0.00    -0.014 A 
ATOM     67  C   UNL A   1      43.362  22.574  26.163  1.00  0.00     0.009 A 
ATOM     68  C   UNL A   1      41.141  22.707  27.076  1.00  0.00     0.009 A 
ATOM     69  C   UNL A   1      43.154  21.216  25.873  1.00  0.00     0.001 A 
ATOM     70  C   UNL A   1      40.934  21.353  26.788  1.00  0.00     0.001 A 
ATOM     71  C   UNL A   1      41.946  20.604  26.199  1.00  0.00     0.000 A 
ENDBRANCH  47  66
BRANCH  59  72
ATOM     72  C   UNL A   1      45.789  28.237  28.728  1.00  0.00    -0.014 A 
ATOM     73  C   UNL A   1      44.993  28.981  27.839  1.00  0.00     0.009 A 
ATOM     74  C   UNL A   1      47.183  28.376  28.652  1.00  0.00     0.009 A 
ATOM     75  C   UNL A   1      45.582  29.833  26.897  1.00  0.00     0.001 A 
ATOM     76  C   UNL A   1      47.768  29.240  27.725  1.00  0.00     0.001 A 
ATOM     77  C   UNL A   1      46.969  29.968  26.847  1.00  0.00     0.000 A 
ENDBRANCH  59  72
ENDBRANCH  33  34
ENDBRANCH  26  28
ENDBRANCH  25  26
ENDBRANCH  24  25
ENDBRANCH   1  24
TORSDOF 15
ENDMDL
