MODEL 1
REMARK VINA RESULT:     -11.3      0.000      0.000
REMARK SMILES O=C(OCCOCCOC(=O)c1ccc2c(c1)[C@@H]1C=CC[C@@H]1[C@H](c1ccncc1)N2)c1ccc(-c2c3nc(c(-c4ccccc4)c4ccc([nH]4)c(-c4ccccc4)c4nc(c(-c5ccccc5)c5ccc2[nH]5)C=C4)C=C3)cc1
REMARK SMILES IDX 5 1 4 2 3 3 2 4 1 5 31 6 32 7 78 8 33 9 77 10 34 11 35 12
REMARK SMILES IDX 36 13 71 14 37 15 76 16 70 17 72 18 38 19 75 20 69 21 68 22
REMARK SMILES IDX 39 24 61 25 46 26 60 27 47 28 50 29 59 30 73 31 48 32 49 33
REMARK SMILES IDX 58 35 74 36 51 37 40 38 41 39 45 40 42 41 44 42 43 43 62 44
REMARK SMILES IDX 63 45 67 46 64 47 66 48 65 49 52 50 53 51 57 52 54 53 56 54
REMARK SMILES IDX 55 55 6 56 7 57 8 58 9 59 10 60 11 61 12 62 13 63 17 64
REMARK SMILES IDX 14 65 16 66 15 67 18 68 30 69 19 70 22 71 23 72 20 74 21 75
REMARK SMILES IDX 24 76 25 77 29 78 26 79 28 80 27 81
REMARK H PARENT 72 23 50 34 30 73
REMARK Flexibility Score: inf
ROOT
ATOM      1  C   UNL A   1      31.881  31.196  26.365  1.00  0.00     0.202 C 
ENDROOT
BRANCH   1   2
ATOM      2  C   UNL A   1      31.400  32.307  27.302  1.00  0.00     0.261 C 
BRANCH   2   3
ATOM      3  O   UNL A   1      32.283  33.439  27.224  1.00  0.00    -0.460 OA
BRANCH   3   4
ATOM      4  C   UNL A   1      32.995  34.023  28.213  1.00  0.00     0.338 C 
ATOM      5  O   UNL A   1      32.557  35.054  28.722  1.00  0.00    -0.246 OA
BRANCH   4   6
ATOM      6  C   UNL A   1      34.292  33.492  28.734  1.00  0.00     0.060 A 
ATOM      7  C   UNL A   1      34.437  32.711  29.881  1.00  0.00     0.016 A 
ATOM      8  C   UNL A   1      35.432  33.713  27.941  1.00  0.00     0.016 A 
ATOM      9  C   UNL A   1      35.671  32.208  30.268  1.00  0.00     0.010 A 
ATOM     10  C   UNL A   1      36.673  33.178  28.299  1.00  0.00     0.010 A 
ATOM     11  C   UNL A   1      36.793  32.432  29.475  1.00  0.00    -0.014 A 
BRANCH  11  12
ATOM     12  C   UNL A   1      38.089  31.931  29.957  1.00  0.00     0.031 A 
ATOM     13  C   UNL A   1      38.593  30.626  29.428  1.00  0.00     0.074 A 
ATOM     14  C   UNL A   1      38.842  32.708  30.754  1.00  0.00     0.049 A 
ATOM     15  N   UNL A   1      39.695  29.990  29.714  1.00  0.00    -0.248 NA
ATOM     16  C   UNL A   1      37.745  29.955  28.427  1.00  0.00     0.031 C 
ATOM     17  C   UNL A   1      38.474  34.050  31.217  1.00  0.00     0.029 A 
ATOM     18  N   UNL A   1      40.085  32.501  31.288  1.00  0.00    -0.354 N 
ATOM     19  C   UNL A   1      39.664  28.832  28.949  1.00  0.00     0.074 A 
ATOM     20  C   UNL A   1      38.434  28.851  28.188  1.00  0.00     0.031 C 
ATOM     21  C   UNL A   1      39.483  34.554  31.944  1.00  0.00     0.029 A 
ATOM     22  C   UNL A   1      40.534  33.550  32.052  1.00  0.00     0.049 A 
ATOM     23  H   UNL A   1      40.606  31.679  31.138  1.00  0.00     0.167 HD
ATOM     24  C   UNL A   1      40.578  27.837  28.902  1.00  0.00     0.031 A 
ATOM     25  C   UNL A   1      41.660  33.663  32.781  1.00  0.00     0.031 A 
ATOM     26  C   UNL A   1      41.780  27.834  29.690  1.00  0.00     0.049 A 
ATOM     27  C   UNL A   1      42.613  32.500  32.789  1.00  0.00     0.074 A 
ATOM     28  C   UNL A   1      42.751  26.856  29.789  1.00  0.00     0.029 A 
ATOM     29  N   UNL A   1      42.169  28.877  30.520  1.00  0.00    -0.354 N 
ATOM     30  N   UNL A   1      42.548  31.377  32.114  1.00  0.00    -0.248 NA
ATOM     31  C   UNL A   1      43.784  32.612  33.668  1.00  0.00     0.031 C 
ATOM     32  C   UNL A   1      43.704  27.290  30.718  1.00  0.00     0.029 A 
ATOM     33  C   UNL A   1      43.355  28.559  31.155  1.00  0.00     0.049 A 
ATOM     34  H   UNL A   1      41.673  29.719  30.640  1.00  0.00     0.167 HD
ATOM     35  C   UNL A   1      43.671  30.649  32.478  1.00  0.00     0.074 A 
ATOM     36  C   UNL A   1      44.412  31.472  33.415  1.00  0.00     0.031 C 
ATOM     37  C   UNL A   1      44.055  29.410  32.083  1.00  0.00     0.031 A 
BRANCH  24  38
ATOM     38  C   UNL A   1      40.245  26.652  28.044  1.00  0.00    -0.014 A 
ATOM     39  C   UNL A   1      39.456  25.593  28.522  1.00  0.00     0.009 A 
ATOM     40  C   UNL A   1      40.779  26.570  26.748  1.00  0.00     0.009 A 
ATOM     41  C   UNL A   1      39.246  24.458  27.734  1.00  0.00     0.001 A 
ATOM     42  C   UNL A   1      40.548  25.445  25.955  1.00  0.00     0.001 A 
ATOM     43  C   UNL A   1      39.793  24.384  26.453  1.00  0.00     0.000 A 
ENDBRANCH  24  38
BRANCH  25  44
ATOM     44  C   UNL A   1      41.904  34.880  33.601  1.00  0.00    -0.014 A 
ATOM     45  C   UNL A   1      41.345  35.017  34.880  1.00  0.00     0.009 A 
ATOM     46  C   UNL A   1      42.705  35.921  33.101  1.00  0.00     0.009 A 
ATOM     47  C   UNL A   1      41.567  36.177  35.631  1.00  0.00     0.001 A 
ATOM     48  C   UNL A   1      42.950  37.064  33.864  1.00  0.00     0.001 A 
ATOM     49  C   UNL A   1      42.373  37.195  35.125  1.00  0.00     0.000 A 
ENDBRANCH  25  44
BRANCH  37  50
ATOM     50  C   UNL A   1      45.343  28.892  32.652  1.00  0.00    -0.014 A 
ATOM     51  C   UNL A   1      46.568  29.144  32.016  1.00  0.00     0.009 A 
ATOM     52  C   UNL A   1      45.330  28.187  33.865  1.00  0.00     0.009 A 
ATOM     53  C   UNL A   1      47.757  28.674  32.575  1.00  0.00     0.001 A 
ATOM     54  C   UNL A   1      46.523  27.743  34.434  1.00  0.00     0.001 A 
ATOM     55  C   UNL A   1      47.734  27.979  33.784  1.00  0.00     0.000 A 
ENDBRANCH  37  50
ENDBRANCH  11  12
ENDBRANCH   4   6
ENDBRANCH   3   4
ENDBRANCH   2   3
ENDBRANCH   1   2
BRANCH   1  56
ATOM     56  O   UNL A   1      32.178  29.969  27.030  1.00  0.00    -0.374 OA
BRANCH  56  57
ATOM     57  C   UNL A   1      32.425  28.840  26.184  1.00  0.00     0.202 C 
BRANCH  57  58
ATOM     58  C   UNL A   1      33.044  29.331  24.870  1.00  0.00     0.261 C 
BRANCH  58  59
ATOM     59  O   UNL A   1      33.986  28.343  24.425  1.00  0.00    -0.460 OA
BRANCH  59  60
ATOM     60  C   UNL A   1      33.779  27.890  23.162  1.00  0.00     0.338 C 
ATOM     61  O   UNL A   1      33.904  28.512  22.120  1.00  0.00    -0.246 OA
BRANCH  60  62
ATOM     62  C   UNL A   1      33.592  26.424  23.241  1.00  0.00     0.060 A 
ATOM     63  C   UNL A   1      32.999  25.761  22.165  1.00  0.00     0.018 A 
ATOM     64  C   UNL A   1      34.077  25.697  24.327  1.00  0.00     0.022 A 
ATOM     65  C   UNL A   1      32.895  24.368  22.181  1.00  0.00     0.027 A 
ATOM     66  C   UNL A   1      33.966  24.300  24.352  1.00  0.00    -0.017 A 
ATOM     67  C   UNL A   1      33.332  23.631  23.289  1.00  0.00     0.038 A 
ATOM     68  C   UNL A   1      34.492  23.547  25.551  1.00  0.00     0.049 C 
ATOM     69  N   UNL A   1      33.153  22.248  23.313  1.00  0.00    -0.378 N 
ATOM     70  C   UNL A   1      35.983  23.667  25.728  1.00  0.00    -0.023 C 
ATOM     71  C   UNL A   1      34.315  22.022  25.472  1.00  0.00     0.031 C 
ATOM     72  C   UNL A   1      33.096  21.632  24.632  1.00  0.00     0.114 C 
ATOM     73  H   UNL A   1      33.071  21.719  22.486  1.00  0.00     0.161 HD
ATOM     74  C   UNL A   1      36.620  22.527  25.436  1.00  0.00    -0.030 C 
ATOM     75  C   UNL A   1      35.666  21.464  24.996  1.00  0.00     0.034 C 
BRANCH  72  76
ATOM     76  C   UNL A   1      32.896  20.129  24.585  1.00  0.00    -0.022 A 
ATOM     77  C   UNL A   1      32.657  19.525  23.340  1.00  0.00     0.026 A 
ATOM     78  C   UNL A   1      32.907  19.306  25.715  1.00  0.00     0.026 A 
ATOM     79  C   UNL A   1      32.447  18.158  23.281  1.00  0.00     0.111 A 
ATOM     80  C   UNL A   1      32.700  17.944  25.551  1.00  0.00     0.111 A 
ATOM     81  N   UNL A   1      32.470  17.352  24.360  1.00  0.00    -0.265 NA
ENDBRANCH  72  76
ENDBRANCH  60  62
ENDBRANCH  59  60
ENDBRANCH  58  59
ENDBRANCH  57  58
ENDBRANCH  56  57
ENDBRANCH   1  56
TORSDOF 15
ENDMDL
MODEL 2
REMARK VINA RESULT:     -11.2      3.883      9.033
REMARK SMILES O=C(OCCOCCOC(=O)c1ccc2c(c1)[C@@H]1C=CC[C@@H]1[C@H](c1ccncc1)N2)c1ccc(-c2c3nc(c(-c4ccccc4)c4ccc([nH]4)c(-c4ccccc4)c4nc(c(-c5ccccc5)c5ccc2[nH]5)C=C4)C=C3)cc1
REMARK SMILES IDX 5 1 4 2 3 3 2 4 1 5 31 6 32 7 78 8 33 9 77 10 34 11 35 12
REMARK SMILES IDX 36 13 71 14 37 15 76 16 70 17 72 18 38 19 75 20 69 21 68 22
REMARK SMILES IDX 39 24 61 25 46 26 60 27 47 28 50 29 59 30 73 31 48 32 49 33
REMARK SMILES IDX 58 35 74 36 51 37 40 38 41 39 45 40 42 41 44 42 43 43 62 44
REMARK SMILES IDX 63 45 67 46 64 47 66 48 65 49 52 50 53 51 57 52 54 53 56 54
REMARK SMILES IDX 55 55 6 56 7 57 8 58 9 59 10 60 11 61 12 62 13 63 17 64
REMARK SMILES IDX 14 65 16 66 15 67 18 68 30 69 19 70 22 71 23 72 20 74 21 75
REMARK SMILES IDX 24 76 25 77 29 78 26 79 28 80 27 81
REMARK H PARENT 72 23 50 34 30 73
REMARK Flexibility Score: inf
ROOT
ATOM      1  C   UNL A   1      37.819  19.564  24.906  1.00  0.00     0.202 C 
ENDROOT
BRANCH   1   2
ATOM      2  C   UNL A   1      38.936  20.167  25.761  1.00  0.00     0.261 C 
BRANCH   2   3
ATOM      3  O   UNL A   1      40.130  19.374  25.649  1.00  0.00    -0.460 OA
BRANCH   3   4
ATOM      4  C   UNL A   1      41.397  19.708  25.979  1.00  0.00     0.338 C 
ATOM      5  O   UNL A   1      42.276  18.854  25.871  1.00  0.00    -0.246 OA
BRANCH   4   6
ATOM      6  C   UNL A   1      41.804  21.060  26.471  1.00  0.00     0.060 A 
ATOM      7  C   UNL A   1      42.161  22.136  25.658  1.00  0.00     0.016 A 
ATOM      8  C   UNL A   1      41.713  21.285  27.856  1.00  0.00     0.016 A 
ATOM      9  C   UNL A   1      42.473  23.379  26.190  1.00  0.00     0.010 A 
ATOM     10  C   UNL A   1      41.986  22.543  28.400  1.00  0.00     0.010 A 
ATOM     11  C   UNL A   1      42.379  23.591  27.562  1.00  0.00    -0.014 A 
BRANCH  11  12
ATOM     12  C   UNL A   1      42.776  24.907  28.085  1.00  0.00     0.031 A 
ATOM     13  C   UNL A   1      41.715  25.932  28.325  1.00  0.00     0.074 A 
ATOM     14  C   UNL A   1      44.053  25.112  28.453  1.00  0.00     0.049 A 
ATOM     15  N   UNL A   1      41.831  27.153  28.770  1.00  0.00    -0.248 NA
ATOM     16  C   UNL A   1      40.330  25.518  28.039  1.00  0.00     0.031 C 
ATOM     17  C   UNL A   1      45.127  24.118  28.366  1.00  0.00     0.029 A 
ATOM     18  N   UNL A   1      44.657  26.208  29.006  1.00  0.00    -0.354 N 
ATOM     19  C   UNL A   1      40.541  27.664  28.794  1.00  0.00     0.074 A 
ATOM     20  C   UNL A   1      39.656  26.623  28.318  1.00  0.00     0.031 C 
ATOM     21  C   UNL A   1      46.253  24.644  28.872  1.00  0.00     0.029 A 
ATOM     22  C   UNL A   1      45.995  26.027  29.258  1.00  0.00     0.049 A 
ATOM     23  H   UNL A   1      44.179  27.045  29.204  1.00  0.00     0.167 HD
ATOM     24  C   UNL A   1      40.138  28.899  29.169  1.00  0.00     0.031 A 
ATOM     25  C   UNL A   1      46.910  26.899  29.719  1.00  0.00     0.031 A 
ATOM     26  C   UNL A   1      41.044  29.921  29.615  1.00  0.00     0.049 A 
ATOM     27  C   UNL A   1      46.454  28.297  30.034  1.00  0.00     0.074 A 
ATOM     28  C   UNL A   1      40.775  31.233  29.954  1.00  0.00     0.029 A 
ATOM     29  N   UNL A   1      42.410  29.731  29.782  1.00  0.00    -0.354 N 
ATOM     30  N   UNL A   1      45.241  28.796  29.994  1.00  0.00    -0.248 NA
ATOM     31  C   UNL A   1      47.489  29.253  30.443  1.00  0.00     0.031 C 
ATOM     32  C   UNL A   1      41.988  31.851  30.280  1.00  0.00     0.029 A 
ATOM     33  C   UNL A   1      43.003  30.909  30.196  1.00  0.00     0.049 A 
ATOM     34  H   UNL A   1      42.886  28.884  29.626  1.00  0.00     0.167 HD
ATOM     35  C   UNL A   1      45.363  30.122  30.379  1.00  0.00     0.074 A 
ATOM     36  C   UNL A   1      46.766  30.341  30.673  1.00  0.00     0.031 C 
ATOM     37  C   UNL A   1      44.407  31.080  30.475  1.00  0.00     0.031 A 
BRANCH  24  38
ATOM     38  C   UNL A   1      38.679  29.211  29.013  1.00  0.00    -0.014 A 
ATOM     39  C   UNL A   1      38.149  29.673  27.797  1.00  0.00     0.009 A 
ATOM     40  C   UNL A   1      37.827  29.093  30.122  1.00  0.00     0.009 A 
ATOM     41  C   UNL A   1      36.806  30.050  27.709  1.00  0.00     0.001 A 
ATOM     42  C   UNL A   1      36.481  29.448  30.026  1.00  0.00     0.001 A 
ATOM     43  C   UNL A   1      35.975  29.939  28.824  1.00  0.00     0.000 A 
ENDBRANCH  24  38
BRANCH  25  44
ATOM     44  C   UNL A   1      48.337  26.496  29.842  1.00  0.00    -0.014 A 
ATOM     45  C   UNL A   1      48.819  25.880  31.005  1.00  0.00     0.009 A 
ATOM     46  C   UNL A   1      49.232  26.733  28.784  1.00  0.00     0.009 A 
ATOM     47  C   UNL A   1      50.168  25.526  31.114  1.00  0.00     0.001 A 
ATOM     48  C   UNL A   1      50.572  26.351  28.883  1.00  0.00     0.001 A 
ATOM     49  C   UNL A   1      51.040  25.756  30.052  1.00  0.00     0.000 A 
ENDBRANCH  25  44
BRANCH  37  50
ATOM     50  C   UNL A   1      44.856  32.435  30.936  1.00  0.00    -0.014 A 
ATOM     51  C   UNL A   1      44.901  32.756  32.302  1.00  0.00     0.009 A 
ATOM     52  C   UNL A   1      45.285  33.380  29.993  1.00  0.00     0.009 A 
ATOM     53  C   UNL A   1      45.344  34.014  32.711  1.00  0.00     0.001 A 
ATOM     54  C   UNL A   1      45.753  34.626  30.408  1.00  0.00     0.001 A 
ATOM     55  C   UNL A   1      45.774  34.945  31.765  1.00  0.00     0.000 A 
ENDBRANCH  37  50
ENDBRANCH  11  12
ENDBRANCH   4   6
ENDBRANCH   3   4
ENDBRANCH   2   3
ENDBRANCH   1   2
BRANCH   1  56
ATOM     56  O   UNL A   1      36.812  20.500  24.528  1.00  0.00    -0.374 OA
BRANCH  56  57
ATOM     57  C   UNL A   1      35.492  20.236  25.017  1.00  0.00     0.202 C 
BRANCH  57  58
ATOM     58  C   UNL A   1      34.750  21.567  25.187  1.00  0.00     0.261 C 
BRANCH  58  59
ATOM     59  O   UNL A   1      34.122  21.890  23.938  1.00  0.00    -0.460 OA
BRANCH  59  60
ATOM     60  C   UNL A   1      34.633  22.983  23.313  1.00  0.00     0.338 C 
ATOM     61  O   UNL A   1      35.713  23.083  22.756  1.00  0.00    -0.246 OA
BRANCH  60  62
ATOM     62  C   UNL A   1      33.550  23.987  23.219  1.00  0.00     0.060 A 
ATOM     63  C   UNL A   1      32.223  23.553  23.229  1.00  0.00     0.018 A 
ATOM     64  C   UNL A   1      33.837  25.352  23.212  1.00  0.00     0.022 A 
ATOM     65  C   UNL A   1      31.187  24.489  23.232  1.00  0.00     0.027 A 
ATOM     66  C   UNL A   1      32.799  26.295  23.205  1.00  0.00    -0.017 A 
ATOM     67  C   UNL A   1      31.462  25.861  23.174  1.00  0.00     0.038 A 
ATOM     68  C   UNL A   1      33.149  27.764  23.185  1.00  0.00     0.049 C 
ATOM     69  N   UNL A   1      30.410  26.774  23.106  1.00  0.00    -0.378 N 
ATOM     70  C   UNL A   1      33.876  28.225  24.419  1.00  0.00    -0.023 C 
ATOM     71  C   UNL A   1      31.934  28.707  23.175  1.00  0.00     0.031 C 
ATOM     72  C   UNL A   1      30.719  28.064  22.503  1.00  0.00     0.114 C 
ATOM     73  H   UNL A   1      29.510  26.559  23.446  1.00  0.00     0.161 HD
ATOM     74  C   UNL A   1      33.109  28.992  25.202  1.00  0.00    -0.030 C 
ATOM     75  C   UNL A   1      31.737  29.154  24.633  1.00  0.00     0.034 C 
BRANCH  72  76
ATOM     76  C   UNL A   1      29.530  29.006  22.458  1.00  0.00    -0.022 A 
ATOM     77  C   UNL A   1      29.651  30.200  21.731  1.00  0.00     0.026 A 
ATOM     78  C   UNL A   1      28.324  28.770  23.125  1.00  0.00     0.026 A 
ATOM     79  C   UNL A   1      28.586  31.084  21.699  1.00  0.00     0.111 A 
ATOM     80  C   UNL A   1      27.309  29.710  23.021  1.00  0.00     0.111 A 
ATOM     81  N   UNL A   1      27.414  30.861  22.324  1.00  0.00    -0.265 NA
ENDBRANCH  72  76
ENDBRANCH  60  62
ENDBRANCH  59  60
ENDBRANCH  58  59
ENDBRANCH  57  58
ENDBRANCH  56  57
ENDBRANCH   1  56
TORSDOF 15
ENDMDL
MODEL 3
REMARK VINA RESULT:     -11.1      4.024      9.012
REMARK SMILES O=C(OCCOCCOC(=O)c1ccc2c(c1)[C@@H]1C=CC[C@@H]1[C@H](c1ccncc1)N2)c1ccc(-c2c3nc(c(-c4ccccc4)c4ccc([nH]4)c(-c4ccccc4)c4nc(c(-c5ccccc5)c5ccc2[nH]5)C=C4)C=C3)cc1
REMARK SMILES IDX 5 1 4 2 3 3 2 4 1 5 31 6 32 7 78 8 33 9 77 10 34 11 35 12
REMARK SMILES IDX 36 13 71 14 37 15 76 16 70 17 72 18 38 19 75 20 69 21 68 22
REMARK SMILES IDX 39 24 61 25 46 26 60 27 47 28 50 29 59 30 73 31 48 32 49 33
REMARK SMILES IDX 58 35 74 36 51 37 40 38 41 39 45 40 42 41 44 42 43 43 62 44
REMARK SMILES IDX 63 45 67 46 64 47 66 48 65 49 52 50 53 51 57 52 54 53 56 54
REMARK SMILES IDX 55 55 6 56 7 57 8 58 9 59 10 60 11 61 12 62 13 63 17 64
REMARK SMILES IDX 14 65 16 66 15 67 18 68 30 69 19 70 22 71 23 72 20 74 21 75
REMARK SMILES IDX 24 76 25 77 29 78 26 79 28 80 27 81
REMARK H PARENT 72 23 50 34 30 73
REMARK Flexibility Score: inf
ROOT
ATOM      1  C   UNL A   1      38.186  19.259  24.963  1.00  0.00     0.202 C 
ENDROOT
BRANCH   1   2
ATOM      2  C   UNL A   1      39.243  19.717  25.971  1.00  0.00     0.261 C 
BRANCH   2   3
ATOM      3  O   UNL A   1      40.507  19.099  25.679  1.00  0.00    -0.460 OA
BRANCH   3   4
ATOM      4  C   UNL A   1      41.749  19.531  25.993  1.00  0.00     0.338 C 
ATOM      5  O   UNL A   1      42.688  18.742  25.891  1.00  0.00    -0.246 OA
BRANCH   4   6
ATOM      6  C   UNL A   1      42.058  20.917  26.460  1.00  0.00     0.060 A 
ATOM      7  C   UNL A   1      42.301  22.010  25.627  1.00  0.00     0.016 A 
ATOM      8  C   UNL A   1      41.991  21.150  27.846  1.00  0.00     0.016 A 
ATOM      9  C   UNL A   1      42.525  23.280  26.139  1.00  0.00     0.010 A 
ATOM     10  C   UNL A   1      42.176  22.432  28.370  1.00  0.00     0.010 A 
ATOM     11  C   UNL A   1      42.456  23.499  27.511  1.00  0.00    -0.014 A 
BRANCH  11  12
ATOM     12  C   UNL A   1      42.760  24.849  28.010  1.00  0.00     0.031 A 
ATOM     13  C   UNL A   1      44.192  25.241  28.186  1.00  0.00     0.074 A 
ATOM     14  C   UNL A   1      41.761  25.733  28.172  1.00  0.00     0.049 A 
ATOM     15  N   UNL A   1      44.694  26.365  28.617  1.00  0.00    -0.248 NA
ATOM     16  C   UNL A   1      45.197  24.231  27.808  1.00  0.00     0.031 C 
ATOM     17  C   UNL A   1      40.344  25.464  27.903  1.00  0.00     0.029 A 
ATOM     18  N   UNL A   1      41.782  27.042  28.568  1.00  0.00    -0.354 N 
ATOM     19  C   UNL A   1      46.070  26.193  28.588  1.00  0.00     0.074 A 
ATOM     20  C   UNL A   1      46.327  24.856  28.099  1.00  0.00     0.031 C 
ATOM     21  C   UNL A   1      39.638  26.585  28.118  1.00  0.00     0.029 A 
ATOM     22  C   UNL A   1      40.539  27.625  28.599  1.00  0.00     0.049 A 
ATOM     23  H   UNL A   1      42.609  27.520  28.806  1.00  0.00     0.167 HD
ATOM     24  C   UNL A   1      47.030  27.073  28.952  1.00  0.00     0.031 A 
ATOM     25  C   UNL A   1      40.176  28.856  29.005  1.00  0.00     0.031 A 
ATOM     26  C   UNL A   1      46.743  28.387  29.458  1.00  0.00     0.049 A 
ATOM     27  C   UNL A   1      41.254  29.781  29.499  1.00  0.00     0.074 A 
ATOM     28  C   UNL A   1      47.618  29.346  29.929  1.00  0.00     0.029 A 
ATOM     29  N   UNL A   1      45.464  28.921  29.556  1.00  0.00    -0.354 N 
ATOM     30  N   UNL A   1      42.552  29.591  29.531  1.00  0.00    -0.248 NA
ATOM     31  C   UNL A   1      40.819  31.080  30.026  1.00  0.00     0.031 C 
ATOM     32  C   UNL A   1      46.862  30.445  30.357  1.00  0.00     0.029 A 
ATOM     33  C   UNL A   1      45.523  30.189  30.102  1.00  0.00     0.049 A 
ATOM     34  H   UNL A   1      44.638  28.463  29.279  1.00  0.00     0.167 HD
ATOM     35  C   UNL A   1      43.092  30.747  30.073  1.00  0.00     0.074 A 
ATOM     36  C   UNL A   1      41.981  31.643  30.331  1.00  0.00     0.031 C 
ATOM     37  C   UNL A   1      44.388  31.044  30.343  1.00  0.00     0.031 A 
BRANCH  24  38
ATOM     38  C   UNL A   1      48.449  26.588  28.897  1.00  0.00    -0.014 A 
ATOM     39  C   UNL A   1      49.217  26.685  27.725  1.00  0.00     0.009 A 
ATOM     40  C   UNL A   1      49.009  25.969  30.026  1.00  0.00     0.009 A 
ATOM     41  C   UNL A   1      50.501  26.134  27.675  1.00  0.00     0.001 A 
ATOM     42  C   UNL A   1      50.299  25.441  29.980  1.00  0.00     0.001 A 
ATOM     43  C   UNL A   1      51.039  25.512  28.801  1.00  0.00     0.000 A 
ENDBRANCH  24  38
BRANCH  25  44
ATOM     44  C   UNL A   1      38.741  29.248  29.022  1.00  0.00    -0.014 A 
ATOM     45  C   UNL A   1      38.149  29.882  27.920  1.00  0.00     0.009 A 
ATOM     46  C   UNL A   1      37.950  28.989  30.155  1.00  0.00     0.009 A 
ATOM     47  C   UNL A   1      36.804  30.264  27.959  1.00  0.00     0.001 A 
ATOM     48  C   UNL A   1      36.600  29.344  30.180  1.00  0.00     0.001 A 
ATOM     49  C   UNL A   1      36.031  29.989  29.086  1.00  0.00     0.000 A 
ENDBRANCH  25  44
BRANCH  37  50
ATOM     50  C   UNL A   1      44.660  32.399  30.925  1.00  0.00    -0.014 A 
ATOM     51  C   UNL A   1      44.868  33.514  30.098  1.00  0.00     0.009 A 
ATOM     52  C   UNL A   1      44.656  32.568  32.318  1.00  0.00     0.009 A 
ATOM     53  C   UNL A   1      45.096  34.770  30.660  1.00  0.00     0.001 A 
ATOM     54  C   UNL A   1      44.857  33.830  32.875  1.00  0.00     0.001 A 
ATOM     55  C   UNL A   1      45.085  34.928  32.046  1.00  0.00     0.000 A 
ENDBRANCH  37  50
ENDBRANCH  11  12
ENDBRANCH   4   6
ENDBRANCH   3   4
ENDBRANCH   2   3
ENDBRANCH   1   2
BRANCH   1  56
ATOM     56  O   UNL A   1      37.312  20.300  24.529  1.00  0.00    -0.374 OA
BRANCH  56  57
ATOM     57  C   UNL A   1      35.952  20.201  24.965  1.00  0.00     0.202 C 
BRANCH  57  58
ATOM     58  C   UNL A   1      35.411  21.612  25.227  1.00  0.00     0.261 C 
BRANCH  58  59
ATOM     59  O   UNL A   1      34.495  21.942  24.173  1.00  0.00    -0.460 OA
BRANCH  59  60
ATOM     60  C   UNL A   1      34.897  22.961  23.370  1.00  0.00     0.338 C 
ATOM     61  O   UNL A   1      35.911  23.018  22.695  1.00  0.00    -0.246 OA
BRANCH  60  62
ATOM     62  C   UNL A   1      33.773  23.917  23.270  1.00  0.00     0.060 A 
ATOM     63  C   UNL A   1      32.478  23.422  23.100  1.00  0.00     0.018 A 
ATOM     64  C   UNL A   1      33.979  25.287  23.431  1.00  0.00     0.022 A 
ATOM     65  C   UNL A   1      31.394  24.303  23.093  1.00  0.00     0.027 A 
ATOM     66  C   UNL A   1      32.895  26.175  23.415  1.00  0.00    -0.017 A 
ATOM     67  C   UNL A   1      31.594  25.684  23.203  1.00  0.00     0.038 A 
ATOM     68  C   UNL A   1      33.159  27.652  23.581  1.00  0.00     0.049 C 
ATOM     69  N   UNL A   1      30.502  26.549  23.122  1.00  0.00    -0.378 N 
ATOM     70  C   UNL A   1      33.736  28.012  24.924  1.00  0.00    -0.023 C 
ATOM     71  C   UNL A   1      31.898  28.532  23.544  1.00  0.00     0.031 C 
ATOM     72  C   UNL A   1      30.793  27.908  22.689  1.00  0.00     0.114 C 
ATOM     73  H   UNL A   1      29.588  26.256  23.346  1.00  0.00     0.161 HD
ATOM     74  C   UNL A   1      32.854  28.654  25.699  1.00  0.00    -0.030 C 
ATOM     75  C   UNL A   1      31.536  28.811  25.012  1.00  0.00     0.034 C 
BRANCH  72  76
ATOM     76  C   UNL A   1      29.562  28.793  22.620  1.00  0.00    -0.022 A 
ATOM     77  C   UNL A   1      29.662  30.028  21.960  1.00  0.00     0.026 A 
ATOM     78  C   UNL A   1      28.333  28.464  23.201  1.00  0.00     0.026 A 
ATOM     79  C   UNL A   1      28.557  30.859  21.909  1.00  0.00     0.111 A 
ATOM     80  C   UNL A   1      27.279  29.358  23.083  1.00  0.00     0.111 A 
ATOM     81  N   UNL A   1      27.364  30.548  22.451  1.00  0.00    -0.265 NA
ENDBRANCH  72  76
ENDBRANCH  60  62
ENDBRANCH  59  60
ENDBRANCH  58  59
ENDBRANCH  57  58
ENDBRANCH  56  57
ENDBRANCH   1  56
TORSDOF 15
ENDMDL
