MODEL 1
REMARK VINA RESULT:      -9.2      0.000      0.000
REMARK SMILES NS(=O)(=O)c1ccc(-n2nc(C(=O)NCCCCCCCCCCC(=O)OCCOCCOC(=O)c3ccc(-c4c5nc(c(-c6ccccc6)c6ccc([nH]6)c(-c6ccccc6)c6nc(c(-c7ccccc7)c7ccc4[nH]7)C=C6)C=C5)cc3)cc2-c2ccccc2)cc1
REMARK SMILES IDX 23 1 22 2 21 3 20 4 19 5 18 6 17 7 16 8 15 9 14 10 12 11
REMARK SMILES IDX 13 12 11 14 9 15 10 16 85 17 84 18 8 19 5 20 6 21 93 22 7 23
REMARK SMILES IDX 92 24 2 25 3 26 4 27 1 28 86 31 87 32 91 33 88 34 90 35
REMARK SMILES IDX 89 36 24 37 25 38 26 39 27 40 28 41 29 42 30 43 31 44 32 45
REMARK SMILES IDX 33 46 34 47 35 48 36 49 37 50 83 51 38 52 82 53 39 54 40 55
REMARK SMILES IDX 41 56 76 57 42 58 81 59 75 60 77 61 43 62 80 63 74 64 73 65
REMARK SMILES IDX 44 67 66 68 51 69 65 70 52 71 55 72 64 73 78 74 53 75 54 76
REMARK SMILES IDX 63 78 79 79 56 80 45 81 46 82 50 83 47 84 49 85 48 86 67 87
REMARK SMILES IDX 68 88 72 89 69 90 71 91 70 92 57 93 58 94 62 95 59 96 61 97
REMARK SMILES IDX 60 98
REMARK H PARENT 14 13 1 29 1 30 77 66 55 77
REMARK Flexibility Score: inf
ROOT
ATOM      1  C   UNL A   1      37.447  31.202  31.433  1.00  0.00     0.012 C 
ENDROOT
BRANCH   1   2
ATOM      2  C   UNL A   1      36.872  29.799  31.237  1.00  0.00     0.001 C 
BRANCH   2   3
ATOM      3  C   UNL A   1      37.718  28.934  30.307  1.00  0.00     0.000 C 
BRANCH   3   4
ATOM      4  C   UNL A   1      38.335  27.747  31.049  1.00  0.00     0.000 C 
BRANCH   4   5
ATOM      5  C   UNL A   1      39.001  26.750  30.095  1.00  0.00     0.000 C 
BRANCH   5   6
ATOM      6  C   UNL A   1      39.853  27.449  29.028  1.00  0.00     0.000 C 
BRANCH   6   7
ATOM      7  C   UNL A   1      39.737  26.786  27.647  1.00  0.00     0.002 C 
BRANCH   7   8
ATOM      8  C   UNL A   1      40.192  25.325  27.654  1.00  0.00     0.021 C 
BRANCH   8   9
ATOM      9  C   UNL A   1      39.131  24.430  27.026  1.00  0.00     0.116 C 
BRANCH   9  10
ATOM     10  N   UNL A   1      39.727  23.198  26.576  1.00  0.00    -0.351 N 
ATOM     11  C   UNL A   1      39.194  22.037  26.081  1.00  0.00     0.271 C 
ATOM     12  O   UNL A   1      40.001  21.119  25.910  1.00  0.00    -0.267 OA
ATOM     13  H   UNL A   1      40.709  23.189  26.637  1.00  0.00     0.163 HD
BRANCH  11  14
ATOM     14  C   UNL A   1      37.765  21.916  25.725  1.00  0.00     0.151 A 
ATOM     15  N   UNL A   1      35.681  22.436  25.788  1.00  0.00    -0.232 N 
ATOM     16  N   UNL A   1      36.916  22.923  26.020  1.00  0.00    -0.162 NA
ATOM     17  C   UNL A   1      35.706  21.190  25.197  1.00  0.00     0.075 A 
ATOM     18  C   UNL A   1      37.041  20.884  25.085  1.00  0.00     0.065 A 
BRANCH  15  19
ATOM     19  C   UNL A   1      34.536  23.211  26.046  1.00  0.00     0.065 A 
ATOM     20  C   UNL A   1      32.085  24.466  26.214  1.00  0.00     0.082 A 
ATOM     21  C   UNL A   1      32.365  23.396  27.069  1.00  0.00     0.024 A 
ATOM     22  C   UNL A   1      33.040  24.940  25.305  1.00  0.00     0.024 A 
ATOM     23  C   UNL A   1      33.596  22.758  26.979  1.00  0.00     0.030 A 
ATOM     24  C   UNL A   1      34.289  24.327  25.240  1.00  0.00     0.030 A 
BRANCH  20  25
ATOM     25  S   UNL A   1      30.468  25.168  26.298  1.00  0.00     0.238 S 
ATOM     26  O   UNL A   1      30.596  26.560  26.631  1.00  0.00    -0.207 OA
ATOM     27  O   UNL A   1      29.618  24.254  27.036  1.00  0.00    -0.207 OA
BRANCH  25  28
ATOM     28  N   UNL A   1      29.900  25.114  24.718  1.00  0.00    -0.225 NA
ATOM     29  H   UNL A   1      30.279  24.292  24.249  1.00  0.00     0.137 HD
ATOM     30  H   UNL A   1      30.194  25.955  24.223  1.00  0.00     0.137 HD
ENDBRANCH  25  28
ENDBRANCH  20  25
ENDBRANCH  15  19
BRANCH  17  31
ATOM     31  C   UNL A   1      34.576  20.434  24.674  1.00  0.00     0.000 A 
ATOM     32  C   UNL A   1      33.477  21.088  24.106  1.00  0.00     0.010 A 
ATOM     33  C   UNL A   1      34.611  19.034  24.693  1.00  0.00     0.010 A 
ATOM     34  C   UNL A   1      32.414  20.351  23.588  1.00  0.00     0.001 A 
ATOM     35  C   UNL A   1      33.549  18.298  24.169  1.00  0.00     0.001 A 
ATOM     36  C   UNL A   1      32.450  18.958  23.620  1.00  0.00     0.000 A 
ENDBRANCH  17  31
ENDBRANCH  11  14
ENDBRANCH   9  10
ENDBRANCH   8   9
ENDBRANCH   7   8
ENDBRANCH   6   7
ENDBRANCH   5   6
ENDBRANCH   4   5
ENDBRANCH   3   4
ENDBRANCH   2   3
ENDBRANCH   1   2
BRANCH   1  37
ATOM     37  C   UNL A   1      36.549  32.366  30.988  1.00  0.00     0.123 C 
BRANCH  37  38
ATOM     38  C   UNL A   1      35.414  32.787  31.905  1.00  0.00     0.305 C 
ATOM     39  O   UNL A   1      34.239  32.579  31.637  1.00  0.00    -0.252 OA
BRANCH  38  40
ATOM     40  O   UNL A   1      35.853  33.422  33.016  1.00  0.00    -0.463 OA
BRANCH  40  41
ATOM     41  C   UNL A   1      36.662  34.595  32.837  1.00  0.00     0.261 C 
BRANCH  41  42
ATOM     42  C   UNL A   1      37.921  34.501  33.700  1.00  0.00     0.202 C 
BRANCH  42  43
ATOM     43  O   UNL A   1      37.849  33.649  34.846  1.00  0.00    -0.374 OA
BRANCH  43  44
ATOM     44  C   UNL A   1      39.014  32.934  35.246  1.00  0.00     0.202 C 
BRANCH  44  45
ATOM     45  C   UNL A   1      39.658  32.021  34.213  1.00  0.00     0.261 C 
BRANCH  45  46
ATOM     46  O   UNL A   1      40.801  31.359  34.739  1.00  0.00    -0.460 OA
BRANCH  46  47
ATOM     47  C   UNL A   1      40.587  30.076  35.115  1.00  0.00     0.338 C 
ATOM     48  O   UNL A   1      39.913  29.680  36.048  1.00  0.00    -0.246 OA
BRANCH  47  49
ATOM     49  C   UNL A   1      41.462  29.215  34.311  1.00  0.00     0.060 A 
ATOM     50  C   UNL A   1      42.820  29.272  34.619  1.00  0.00     0.016 A 
ATOM     51  C   UNL A   1      40.996  28.666  33.107  1.00  0.00     0.016 A 
ATOM     52  C   UNL A   1      43.716  29.046  33.602  1.00  0.00     0.010 A 
ATOM     53  C   UNL A   1      41.889  28.438  32.093  1.00  0.00     0.010 A 
ATOM     54  C   UNL A   1      43.223  28.745  32.326  1.00  0.00    -0.014 A 
BRANCH  54  55
ATOM     55  C   UNL A   1      44.174  28.629  31.246  1.00  0.00     0.031 A 
ATOM     56  C   UNL A   1      43.996  29.724  30.274  1.00  0.00     0.074 A 
ATOM     57  C   UNL A   1      45.128  27.680  31.204  1.00  0.00     0.049 A 
ATOM     58  N   UNL A   1      43.403  29.655  29.130  1.00  0.00    -0.248 NA
ATOM     59  C   UNL A   1      44.263  31.096  30.738  1.00  0.00     0.031 C 
ATOM     60  C   UNL A   1      45.531  26.742  32.257  1.00  0.00     0.029 A 
ATOM     61  N   UNL A   1      46.015  27.413  30.212  1.00  0.00    -0.354 N 
ATOM     62  C   UNL A   1      43.454  30.946  28.622  1.00  0.00     0.074 A 
ATOM     63  C   UNL A   1      43.741  31.807  29.738  1.00  0.00     0.031 C 
ATOM     64  C   UNL A   1      46.727  26.193  31.933  1.00  0.00     0.029 A 
ATOM     65  C   UNL A   1      47.094  26.625  30.595  1.00  0.00     0.049 A 
ATOM     66  H   UNL A   1      45.904  27.750  29.294  1.00  0.00     0.167 HD
ATOM     67  C   UNL A   1      43.639  31.147  27.289  1.00  0.00     0.031 A 
ATOM     68  C   UNL A   1      48.223  26.403  29.873  1.00  0.00     0.031 A 
ATOM     69  C   UNL A   1      43.341  29.946  26.541  1.00  0.00     0.049 A 
ATOM     70  C   UNL A   1      47.919  26.756  28.466  1.00  0.00     0.074 A 
ATOM     71  C   UNL A   1      42.228  29.161  26.332  1.00  0.00     0.029 A 
ATOM     72  N   UNL A   1      44.430  29.178  26.207  1.00  0.00    -0.354 N 
ATOM     73  N   UNL A   1      47.088  26.084  27.723  1.00  0.00    -0.248 NA
ATOM     74  C   UNL A   1      48.181  28.120  28.034  1.00  0.00     0.031 C 
ATOM     75  C   UNL A   1      42.721  27.824  26.252  1.00  0.00     0.029 A 
ATOM     76  C   UNL A   1      44.115  27.856  26.342  1.00  0.00     0.049 A 
ATOM     77  H   UNL A   1      45.303  29.527  25.915  1.00  0.00     0.167 HD
ATOM     78  C   UNL A   1      46.386  27.050  27.016  1.00  0.00     0.074 A 
ATOM     79  C   UNL A   1      47.177  28.272  27.165  1.00  0.00     0.031 C 
ATOM     80  C   UNL A   1      45.092  26.828  26.635  1.00  0.00     0.031 A 
BRANCH  67  81
ATOM     81  C   UNL A   1      44.615  32.182  26.763  1.00  0.00    -0.014 A 
ATOM     82  C   UNL A   1      45.910  32.203  27.309  1.00  0.00     0.009 A 
ATOM     83  C   UNL A   1      44.238  33.311  26.008  1.00  0.00     0.009 A 
ATOM     84  C   UNL A   1      46.728  33.334  27.205  1.00  0.00     0.001 A 
ATOM     85  C   UNL A   1      45.066  34.428  25.870  1.00  0.00     0.001 A 
ATOM     86  C   UNL A   1      46.299  34.452  26.498  1.00  0.00     0.000 A 
ENDBRANCH  67  81
BRANCH  68  87
ATOM     87  C   UNL A   1      49.617  26.244  30.347  1.00  0.00    -0.014 A 
ATOM     88  C   UNL A   1      50.435  27.359  30.597  1.00  0.00     0.009 A 
ATOM     89  C   UNL A   1      50.051  24.998  30.837  1.00  0.00     0.009 A 
ATOM     90  C   UNL A   1      51.626  27.235  31.329  1.00  0.00     0.001 A 
ATOM     91  C   UNL A   1      51.237  24.874  31.569  1.00  0.00     0.001 A 
ATOM     92  C   UNL A   1      52.020  25.994  31.826  1.00  0.00     0.000 A 
ENDBRANCH  68  87
BRANCH  80  93
ATOM     93  C   UNL A   1      44.571  25.414  26.706  1.00  0.00    -0.014 A 
ATOM     94  C   UNL A   1      44.455  24.562  25.595  1.00  0.00     0.009 A 
ATOM     95  C   UNL A   1      44.322  24.887  27.982  1.00  0.00     0.009 A 
ATOM     96  C   UNL A   1      44.080  23.223  25.762  1.00  0.00     0.001 A 
ATOM     97  C   UNL A   1      43.970  23.547  28.150  1.00  0.00     0.001 A 
ATOM     98  C   UNL A   1      43.844  22.716  27.040  1.00  0.00     0.000 A 
ENDBRANCH  80  93
ENDBRANCH  54  55
ENDBRANCH  47  49
ENDBRANCH  46  47
ENDBRANCH  45  46
ENDBRANCH  44  45
ENDBRANCH  43  44
ENDBRANCH  42  43
ENDBRANCH  41  42
ENDBRANCH  40  41
ENDBRANCH  38  40
ENDBRANCH  37  38
ENDBRANCH   1  37
TORSDOF 29
ENDMDL
MODEL 2
REMARK VINA RESULT:      -8.5      3.406      6.643
REMARK SMILES NS(=O)(=O)c1ccc(-n2nc(C(=O)NCCCCCCCCCCC(=O)OCCOCCOC(=O)c3ccc(-c4c5nc(c(-c6ccccc6)c6ccc([nH]6)c(-c6ccccc6)c6nc(c(-c7ccccc7)c7ccc4[nH]7)C=C6)C=C5)cc3)cc2-c2ccccc2)cc1
REMARK SMILES IDX 23 1 22 2 21 3 20 4 19 5 18 6 17 7 16 8 15 9 14 10 12 11
REMARK SMILES IDX 13 12 11 14 9 15 10 16 85 17 84 18 8 19 5 20 6 21 93 22 7 23
REMARK SMILES IDX 92 24 2 25 3 26 4 27 1 28 86 31 87 32 91 33 88 34 90 35
REMARK SMILES IDX 89 36 24 37 25 38 26 39 27 40 28 41 29 42 30 43 31 44 32 45
REMARK SMILES IDX 33 46 34 47 35 48 36 49 37 50 83 51 38 52 82 53 39 54 40 55
REMARK SMILES IDX 41 56 76 57 42 58 81 59 75 60 77 61 43 62 80 63 74 64 73 65
REMARK SMILES IDX 44 67 66 68 51 69 65 70 52 71 55 72 64 73 78 74 53 75 54 76
REMARK SMILES IDX 63 78 79 79 56 80 45 81 46 82 50 83 47 84 49 85 48 86 67 87
REMARK SMILES IDX 68 88 72 89 69 90 71 91 70 92 57 93 58 94 62 95 59 96 61 97
REMARK SMILES IDX 60 98
REMARK H PARENT 14 13 1 29 1 30 77 66 55 77
REMARK Flexibility Score: inf
ROOT
ATOM      1  C   UNL A   1      40.004  28.189  30.674  1.00  0.00     0.012 C 
ENDROOT
BRANCH   1   2
ATOM      2  C   UNL A   1      40.827  28.968  29.647  1.00  0.00     0.001 C 
BRANCH   2   3
ATOM      3  C   UNL A   1      40.120  29.110  28.302  1.00  0.00     0.000 C 
BRANCH   3   4
ATOM      4  C   UNL A   1      40.974  28.562  27.157  1.00  0.00     0.000 C 
BRANCH   4   5
ATOM      5  C   UNL A   1      40.628  27.108  26.820  1.00  0.00     0.000 C 
BRANCH   5   6
ATOM      6  C   UNL A   1      39.331  26.649  27.495  1.00  0.00     0.000 C 
BRANCH   6   7
ATOM      7  C   UNL A   1      39.436  25.235  28.087  1.00  0.00     0.002 C 
BRANCH   7   8
ATOM      8  C   UNL A   1      40.858  24.673  28.022  1.00  0.00     0.021 C 
BRANCH   8   9
ATOM      9  C   UNL A   1      40.860  23.182  28.330  1.00  0.00     0.116 C 
BRANCH   9  10
ATOM     10  N   UNL A   1      41.397  22.447  27.214  1.00  0.00    -0.351 N 
ATOM     11  C   UNL A   1      40.808  21.797  26.161  1.00  0.00     0.271 C 
ATOM     12  O   UNL A   1      41.579  21.154  25.443  1.00  0.00    -0.267 OA
ATOM     13  H   UNL A   1      42.380  22.404  27.206  1.00  0.00     0.163 HD
BRANCH  11  14
ATOM     14  C   UNL A   1      39.362  21.908  25.877  1.00  0.00     0.151 A 
ATOM     15  N   UNL A   1      37.398  21.178  25.405  1.00  0.00    -0.232 N 
ATOM     16  N   UNL A   1      38.587  20.806  25.919  1.00  0.00    -0.162 NA
ATOM     17  C   UNL A   1      37.324  22.535  25.174  1.00  0.00     0.075 A 
ATOM     18  C   UNL A   1      38.554  23.021  25.546  1.00  0.00     0.065 A 
BRANCH  15  19
ATOM     19  C   UNL A   1      36.354  20.249  25.246  1.00  0.00     0.065 A 
ATOM     20  C   UNL A   1      34.314  18.558  24.477  1.00  0.00     0.082 A 
ATOM     21  C   UNL A   1      35.627  18.079  24.501  1.00  0.00     0.024 A 
ATOM     22  C   UNL A   1      34.010  19.866  24.877  1.00  0.00     0.024 A 
ATOM     23  C   UNL A   1      36.656  18.932  24.881  1.00  0.00     0.030 A 
ATOM     24  C   UNL A   1      35.035  20.712  25.295  1.00  0.00     0.030 A 
BRANCH  20  25
ATOM     25  S   UNL A   1      33.063  17.464  23.885  1.00  0.00     0.238 S 
ATOM     26  O   UNL A   1      31.822  17.808  24.524  1.00  0.00    -0.207 OA
ATOM     27  O   UNL A   1      33.604  16.119  23.884  1.00  0.00    -0.207 OA
BRANCH  25  28
ATOM     28  N   UNL A   1      32.882  17.863  22.263  1.00  0.00    -0.225 NA
ATOM     29  H   UNL A   1      33.774  18.195  21.894  1.00  0.00     0.137 HD
ATOM     30  H   UNL A   1      32.181  18.598  22.171  1.00  0.00     0.137 HD
ENDBRANCH  25  28
ENDBRANCH  20  25
ENDBRANCH  15  19
BRANCH  17  31
ATOM     31  C   UNL A   1      36.154  23.303  24.768  1.00  0.00     0.000 A 
ATOM     32  C   UNL A   1      35.654  23.212  23.464  1.00  0.00     0.010 A 
ATOM     33  C   UNL A   1      35.490  24.103  25.706  1.00  0.00     0.010 A 
ATOM     34  C   UNL A   1      34.521  23.933  23.096  1.00  0.00     0.001 A 
ATOM     35  C   UNL A   1      34.352  24.820  25.337  1.00  0.00     0.001 A 
ATOM     36  C   UNL A   1      33.871  24.736  24.031  1.00  0.00     0.000 A 
ENDBRANCH  17  31
ENDBRANCH  11  14
ENDBRANCH   9  10
ENDBRANCH   8   9
ENDBRANCH   7   8
ENDBRANCH   6   7
ENDBRANCH   5   6
ENDBRANCH   4   5
ENDBRANCH   3   4
ENDBRANCH   2   3
ENDBRANCH   1   2
BRANCH   1  37
ATOM     37  C   UNL A   1      38.525  28.588  30.792  1.00  0.00     0.123 C 
BRANCH  37  38
ATOM     38  C   UNL A   1      37.850  28.443  32.145  1.00  0.00     0.305 C 
ATOM     39  O   UNL A   1      38.073  27.503  32.894  1.00  0.00    -0.252 OA
BRANCH  38  40
ATOM     40  O   UNL A   1      36.978  29.446  32.398  1.00  0.00    -0.463 OA
BRANCH  40  41
ATOM     41  C   UNL A   1      37.278  30.330  33.489  1.00  0.00     0.261 C 
BRANCH  41  42
ATOM     42  C   UNL A   1      37.821  31.656  32.955  1.00  0.00     0.202 C 
BRANCH  42  43
ATOM     43  O   UNL A   1      36.888  32.733  32.848  1.00  0.00    -0.374 OA
BRANCH  43  44
ATOM     44  C   UNL A   1      35.502  32.433  32.717  1.00  0.00     0.202 C 
BRANCH  44  45
ATOM     45  C   UNL A   1      34.836  32.786  31.395  1.00  0.00     0.261 C 
BRANCH  45  46
ATOM     46  O   UNL A   1      35.611  32.351  30.284  1.00  0.00    -0.460 OA
BRANCH  46  47
ATOM     47  C   UNL A   1      35.908  33.321  29.389  1.00  0.00     0.338 C 
ATOM     48  O   UNL A   1      35.142  33.895  28.637  1.00  0.00    -0.246 OA
BRANCH  47  49
ATOM     49  C   UNL A   1      37.368  33.457  29.334  1.00  0.00     0.060 A 
ATOM     50  C   UNL A   1      38.083  32.271  29.177  1.00  0.00     0.016 A 
ATOM     51  C   UNL A   1      37.982  34.643  29.765  1.00  0.00     0.016 A 
ATOM     52  C   UNL A   1      39.340  32.205  29.728  1.00  0.00     0.010 A 
ATOM     53  C   UNL A   1      39.237  34.578  30.312  1.00  0.00     0.010 A 
ATOM     54  C   UNL A   1      39.845  33.332  30.388  1.00  0.00    -0.014 A 
BRANCH  54  55
ATOM     55  C   UNL A   1      41.115  33.206  31.062  1.00  0.00     0.031 A 
ATOM     56  C   UNL A   1      42.222  33.168  30.089  1.00  0.00     0.074 A 
ATOM     57  C   UNL A   1      41.238  33.202  32.403  1.00  0.00     0.049 A 
ATOM     58  N   UNL A   1      42.866  32.124  29.689  1.00  0.00    -0.248 NA
ATOM     59  C   UNL A   1      42.454  34.374  29.275  1.00  0.00     0.031 C 
ATOM     60  C   UNL A   1      40.222  33.508  33.416  1.00  0.00     0.029 A 
ATOM     61  N   UNL A   1      42.353  33.002  33.152  1.00  0.00    -0.354 N 
ATOM     62  C   UNL A   1      43.767  32.600  28.746  1.00  0.00     0.074 A 
ATOM     63  C   UNL A   1      43.292  33.899  28.354  1.00  0.00     0.031 C 
ATOM     64  C   UNL A   1      40.829  33.713  34.611  1.00  0.00     0.029 A 
ATOM     65  C   UNL A   1      42.243  33.408  34.476  1.00  0.00     0.049 A 
ATOM     66  H   UNL A   1      43.175  32.603  32.786  1.00  0.00     0.167 HD
ATOM     67  C   UNL A   1      45.013  32.058  28.661  1.00  0.00     0.031 A 
ATOM     68  C   UNL A   1      43.262  33.530  35.365  1.00  0.00     0.031 A 
ATOM     69  C   UNL A   1      45.060  30.769  29.313  1.00  0.00     0.049 A 
ATOM     70  C   UNL A   1      44.402  32.747  34.837  1.00  0.00     0.074 A 
ATOM     71  C   UNL A   1      44.449  29.547  29.137  1.00  0.00     0.029 A 
ATOM     72  N   UNL A   1      45.548  30.780  30.598  1.00  0.00    -0.354 N 
ATOM     73  N   UNL A   1      44.395  31.448  34.741  1.00  0.00    -0.248 NA
ATOM     74  C   UNL A   1      45.363  33.430  33.984  1.00  0.00     0.031 C 
ATOM     75  C   UNL A   1      44.257  29.029  30.452  1.00  0.00     0.029 A 
ATOM     76  C   UNL A   1      44.823  29.918  31.369  1.00  0.00     0.049 A 
ATOM     77  H   UNL A   1      46.304  31.325  30.913  1.00  0.00     0.167 HD
ATOM     78  C   UNL A   1      45.003  31.181  33.523  1.00  0.00     0.074 A 
ATOM     79  C   UNL A   1      45.676  32.428  33.158  1.00  0.00     0.031 C 
ATOM     80  C   UNL A   1      44.654  30.075  32.799  1.00  0.00     0.031 A 
BRANCH  67  81
ATOM     81  C   UNL A   1      46.254  32.921  28.527  1.00  0.00    -0.014 A 
ATOM     82  C   UNL A   1      46.501  33.877  29.528  1.00  0.00     0.009 A 
ATOM     83  C   UNL A   1      46.998  33.056  27.338  1.00  0.00     0.009 A 
ATOM     84  C   UNL A   1      47.351  34.966  29.302  1.00  0.00     0.001 A 
ATOM     85  C   UNL A   1      47.876  34.121  27.122  1.00  0.00     0.001 A 
ATOM     86  C   UNL A   1      48.026  35.095  28.094  1.00  0.00     0.000 A 
ENDBRANCH  67  81
BRANCH  68  87
ATOM     87  C   UNL A   1      43.444  34.532  36.442  1.00  0.00    -0.014 A 
ATOM     88  C   UNL A   1      43.646  35.891  36.148  1.00  0.00     0.009 A 
ATOM     89  C   UNL A   1      43.127  34.195  37.771  1.00  0.00     0.009 A 
ATOM     90  C   UNL A   1      43.510  36.875  37.139  1.00  0.00     0.001 A 
ATOM     91  C   UNL A   1      42.988  35.176  38.759  1.00  0.00     0.001 A 
ATOM     92  C   UNL A   1      43.168  36.517  38.442  1.00  0.00     0.000 A 
ENDBRANCH  68  87
BRANCH  80  93
ATOM     93  C   UNL A   1      43.854  29.003  33.497  1.00  0.00    -0.014 A 
ATOM     94  C   UNL A   1      42.455  29.021  33.624  1.00  0.00     0.009 A 
ATOM     95  C   UNL A   1      44.548  27.858  33.919  1.00  0.00     0.009 A 
ATOM     96  C   UNL A   1      41.776  27.928  34.176  1.00  0.00     0.001 A 
ATOM     97  C   UNL A   1      43.870  26.761  34.448  1.00  0.00     0.001 A 
ATOM     98  C   UNL A   1      42.484  26.796  34.582  1.00  0.00     0.000 A 
ENDBRANCH  80  93
ENDBRANCH  54  55
ENDBRANCH  47  49
ENDBRANCH  46  47
ENDBRANCH  45  46
ENDBRANCH  44  45
ENDBRANCH  43  44
ENDBRANCH  42  43
ENDBRANCH  41  42
ENDBRANCH  40  41
ENDBRANCH  38  40
ENDBRANCH  37  38
ENDBRANCH   1  37
TORSDOF 29
ENDMDL
MODEL 3
REMARK VINA RESULT:      -8.1      7.354     12.890
REMARK SMILES NS(=O)(=O)c1ccc(-n2nc(C(=O)NCCCCCCCCCCC(=O)OCCOCCOC(=O)c3ccc(-c4c5nc(c(-c6ccccc6)c6ccc([nH]6)c(-c6ccccc6)c6nc(c(-c7ccccc7)c7ccc4[nH]7)C=C6)C=C5)cc3)cc2-c2ccccc2)cc1
REMARK SMILES IDX 23 1 22 2 21 3 20 4 19 5 18 6 17 7 16 8 15 9 14 10 12 11
REMARK SMILES IDX 13 12 11 14 9 15 10 16 85 17 84 18 8 19 5 20 6 21 93 22 7 23
REMARK SMILES IDX 92 24 2 25 3 26 4 27 1 28 86 31 87 32 91 33 88 34 90 35
REMARK SMILES IDX 89 36 24 37 25 38 26 39 27 40 28 41 29 42 30 43 31 44 32 45
REMARK SMILES IDX 33 46 34 47 35 48 36 49 37 50 83 51 38 52 82 53 39 54 40 55
REMARK SMILES IDX 41 56 76 57 42 58 81 59 75 60 77 61 43 62 80 63 74 64 73 65
REMARK SMILES IDX 44 67 66 68 51 69 65 70 52 71 55 72 64 73 78 74 53 75 54 76
REMARK SMILES IDX 63 78 79 79 56 80 45 81 46 82 50 83 47 84 49 85 48 86 67 87
REMARK SMILES IDX 68 88 72 89 69 90 71 91 70 92 57 93 58 94 62 95 59 96 61 97
REMARK SMILES IDX 60 98
REMARK H PARENT 14 13 1 29 1 30 77 66 55 77
REMARK Flexibility Score: inf
ROOT
ATOM      1  C   UNL A   1      48.298  25.913  33.014  1.00  0.00     0.012 C 
ENDROOT
BRANCH   1   2
ATOM      2  C   UNL A   1      47.930  26.708  31.761  1.00  0.00     0.001 C 
BRANCH   2   3
ATOM      3  C   UNL A   1      46.990  25.950  30.829  1.00  0.00     0.000 C 
BRANCH   3   4
ATOM      4  C   UNL A   1      45.865  26.847  30.311  1.00  0.00     0.000 C 
BRANCH   4   5
ATOM      5  C   UNL A   1      44.498  26.159  30.376  1.00  0.00     0.000 C 
BRANCH   5   6
ATOM      6  C   UNL A   1      43.979  25.765  28.988  1.00  0.00     0.000 C 
BRANCH   6   7
ATOM      7  C   UNL A   1      42.503  26.133  28.778  1.00  0.00     0.002 C 
BRANCH   7   8
ATOM      8  C   UNL A   1      42.230  27.623  28.998  1.00  0.00     0.021 C 
BRANCH   8   9
ATOM      9  C   UNL A   1      43.072  28.468  28.051  1.00  0.00     0.116 C 
BRANCH   9  10
ATOM     10  N   UNL A   1      42.572  28.350  26.706  1.00  0.00    -0.351 N 
ATOM     11  C   UNL A   1      43.069  27.746  25.580  1.00  0.00     0.271 C 
ATOM     12  O   UNL A   1      42.427  27.952  24.547  1.00  0.00    -0.267 OA
ATOM     13  H   UNL A   1      41.703  28.791  26.568  1.00  0.00     0.163 HD
BRANCH  11  14
ATOM     14  C   UNL A   1      44.255  26.866  25.619  1.00  0.00     0.151 A 
ATOM     15  N   UNL A   1      45.298  24.990  25.704  1.00  0.00    -0.232 N 
ATOM     16  N   UNL A   1      44.114  25.546  25.380  1.00  0.00    -0.162 NA
ATOM     17  C   UNL A   1      46.261  25.932  25.998  1.00  0.00     0.075 A 
ATOM     18  C   UNL A   1      45.619  27.140  25.872  1.00  0.00     0.065 A 
BRANCH  15  19
ATOM     19  C   UNL A   1      45.492  23.599  25.627  1.00  0.00     0.065 A 
ATOM     20  C   UNL A   1      45.504  20.877  25.174  1.00  0.00     0.082 A 
ATOM     21  C   UNL A   1      46.325  21.703  24.401  1.00  0.00     0.024 A 
ATOM     22  C   UNL A   1      44.708  21.401  26.202  1.00  0.00     0.024 A 
ATOM     23  C   UNL A   1      46.314  23.074  24.623  1.00  0.00     0.030 A 
ATOM     24  C   UNL A   1      44.724  22.771  26.452  1.00  0.00     0.030 A 
BRANCH  20  25
ATOM     25  S   UNL A   1      45.478  19.158  24.778  1.00  0.00     0.238 S 
ATOM     26  O   UNL A   1      46.064  18.985  23.477  1.00  0.00    -0.207 OA
ATOM     27  O   UNL A   1      44.173  18.634  25.133  1.00  0.00    -0.207 OA
BRANCH  25  28
ATOM     28  N   UNL A   1      46.543  18.454  25.869  1.00  0.00    -0.225 NA
ATOM     29  H   UNL A   1      46.975  19.182  26.440  1.00  0.00     0.137 HD
ATOM     30  H   UNL A   1      47.266  17.948  25.359  1.00  0.00     0.137 HD
ENDBRANCH  25  28
ENDBRANCH  20  25
ENDBRANCH  15  19
BRANCH  17  31
ATOM     31  C   UNL A   1      47.680  25.703  26.243  1.00  0.00     0.000 A 
ATOM     32  C   UNL A   1      48.113  25.087  27.423  1.00  0.00     0.010 A 
ATOM     33  C   UNL A   1      48.618  26.058  25.266  1.00  0.00     0.010 A 
ATOM     34  C   UNL A   1      49.470  24.853  27.633  1.00  0.00     0.001 A 
ATOM     35  C   UNL A   1      49.975  25.818  25.475  1.00  0.00     0.001 A 
ATOM     36  C   UNL A   1      50.400  25.219  26.661  1.00  0.00     0.000 A 
ENDBRANCH  17  31
ENDBRANCH  11  14
ENDBRANCH   9  10
ENDBRANCH   8   9
ENDBRANCH   7   8
ENDBRANCH   6   7
ENDBRANCH   5   6
ENDBRANCH   4   5
ENDBRANCH   3   4
ENDBRANCH   2   3
ENDBRANCH   1   2
BRANCH   1  37
ATOM     37  C   UNL A   1      47.403  26.139  34.242  1.00  0.00     0.123 C 
BRANCH  37  38
ATOM     38  C   UNL A   1      45.941  25.741  34.147  1.00  0.00     0.305 C 
ATOM     39  O   UNL A   1      45.061  26.535  33.845  1.00  0.00    -0.252 OA
BRANCH  38  40
ATOM     40  O   UNL A   1      45.738  24.439  34.452  1.00  0.00    -0.463 OA
BRANCH  40  41
ATOM     41  C   UNL A   1      45.648  24.086  35.840  1.00  0.00     0.261 C 
BRANCH  41  42
ATOM     42  C   UNL A   1      44.187  24.111  36.295  1.00  0.00     0.202 C 
BRANCH  42  43
ATOM     43  O   UNL A   1      43.859  25.030  37.340  1.00  0.00    -0.374 OA
BRANCH  43  44
ATOM     44  C   UNL A   1      42.692  25.835  37.206  1.00  0.00     0.202 C 
BRANCH  44  45
ATOM     45  C   UNL A   1      42.885  27.264  36.722  1.00  0.00     0.261 C 
BRANCH  45  46
ATOM     46  O   UNL A   1      44.252  27.653  36.766  1.00  0.00    -0.460 OA
BRANCH  46  47
ATOM     47  C   UNL A   1      44.583  28.434  37.820  1.00  0.00     0.338 C 
ATOM     48  O   UNL A   1      44.174  29.553  38.071  1.00  0.00    -0.246 OA
BRANCH  47  49
ATOM     49  C   UNL A   1      45.679  27.780  38.543  1.00  0.00     0.060 A 
ATOM     50  C   UNL A   1      46.847  27.567  37.813  1.00  0.00     0.016 A 
ATOM     51  C   UNL A   1      45.427  27.114  39.752  1.00  0.00     0.016 A 
ATOM     52  C   UNL A   1      47.617  26.478  38.143  1.00  0.00     0.010 A 
ATOM     53  C   UNL A   1      46.196  26.029  40.084  1.00  0.00     0.010 A 
ATOM     54  C   UNL A   1      47.209  25.663  39.207  1.00  0.00    -0.014 A 
BRANCH  54  55
ATOM     55  C   UNL A   1      47.963  24.459  39.462  1.00  0.00     0.031 A 
ATOM     56  C   UNL A   1      49.348  24.784  39.852  1.00  0.00     0.074 A 
ATOM     57  C   UNL A   1      47.422  23.227  39.414  1.00  0.00     0.049 A 
ATOM     58  N   UNL A   1      50.398  24.719  39.105  1.00  0.00    -0.248 NA
ATOM     59  C   UNL A   1      49.545  25.514  41.117  1.00  0.00     0.031 C 
ATOM     60  C   UNL A   1      46.008  22.854  39.303  1.00  0.00     0.029 A 
ATOM     61  N   UNL A   1      48.038  22.025  39.544  1.00  0.00    -0.354 N 
ATOM     62  C   UNL A   1      51.437  25.169  39.910  1.00  0.00     0.074 A 
ATOM     63  C   UNL A   1      50.823  25.873  41.003  1.00  0.00     0.031 C 
ATOM     64  C   UNL A   1      45.865  21.544  39.619  1.00  0.00     0.029 A 
ATOM     65  C   UNL A   1      47.183  20.960  39.805  1.00  0.00     0.049 A 
ATOM     66  H   UNL A   1      49.013  21.914  39.461  1.00  0.00     0.167 HD
ATOM     67  C   UNL A   1      52.668  24.597  39.814  1.00  0.00     0.031 A 
ATOM     68  C   UNL A   1      47.551  19.714  40.200  1.00  0.00     0.031 A 
ATOM     69  C   UNL A   1      52.803  23.868  38.574  1.00  0.00     0.049 A 
ATOM     70  C   UNL A   1      48.986  19.555  39.869  1.00  0.00     0.074 A 
ATOM     71  C   UNL A   1      52.777  24.182  37.232  1.00  0.00     0.029 A 
ATOM     72  N   UNL A   1      52.582  22.514  38.662  1.00  0.00    -0.354 N 
ATOM     73  N   UNL A   1      49.439  19.505  38.649  1.00  0.00    -0.248 NA
ATOM     74  C   UNL A   1      49.963  19.919  40.883  1.00  0.00     0.031 C 
ATOM     75  C   UNL A   1      52.153  23.067  36.597  1.00  0.00     0.029 A 
ATOM     76  C   UNL A   1      51.892  22.091  37.563  1.00  0.00     0.049 A 
ATOM     77  H   UNL A   1      52.876  21.939  39.404  1.00  0.00     0.167 HD
ATOM     78  C   UNL A   1      50.606  20.255  38.675  1.00  0.00     0.074 A 
ATOM     79  C   UNL A   1      50.935  20.388  40.095  1.00  0.00     0.031 C 
ATOM     80  C   UNL A   1      51.018  20.937  37.564  1.00  0.00     0.031 A 
BRANCH  67  81
ATOM     81  C   UNL A   1      53.473  24.219  41.044  1.00  0.00    -0.014 A 
ATOM     82  C   UNL A   1      54.809  24.651  41.112  1.00  0.00     0.009 A 
ATOM     83  C   UNL A   1      53.092  23.220  41.961  1.00  0.00     0.009 A 
ATOM     84  C   UNL A   1      55.732  24.035  41.966  1.00  0.00     0.001 A 
ATOM     85  C   UNL A   1      54.002  22.627  42.841  1.00  0.00     0.001 A 
ATOM     86  C   UNL A   1      55.330  23.013  42.818  1.00  0.00     0.000 A 
ENDBRANCH  67  81
BRANCH  68  87
ATOM     87  C   UNL A   1      46.865  18.792  41.135  1.00  0.00    -0.014 A 
ATOM     88  C   UNL A   1      47.195  17.427  41.187  1.00  0.00     0.009 A 
ATOM     89  C   UNL A   1      46.087  19.313  42.186  1.00  0.00     0.009 A 
ATOM     90  C   UNL A   1      46.785  16.623  42.262  1.00  0.00     0.001 A 
ATOM     91  C   UNL A   1      45.680  18.512  43.259  1.00  0.00     0.001 A 
ATOM     92  C   UNL A   1      46.038  17.169  43.304  1.00  0.00     0.000 A 
ENDBRANCH  68  87
BRANCH  80  93
ATOM     93  C   UNL A   1      50.370  20.590  36.247  1.00  0.00    -0.014 A 
ATOM     94  C   UNL A   1      49.097  21.038  35.854  1.00  0.00     0.009 A 
ATOM     95  C   UNL A   1      51.151  19.894  35.312  1.00  0.00     0.009 A 
ATOM     96  C   UNL A   1      48.617  20.776  34.564  1.00  0.00     0.001 A 
ATOM     97  C   UNL A   1      50.681  19.652  34.021  1.00  0.00     0.001 A 
ATOM     98  C   UNL A   1      49.413  20.089  33.648  1.00  0.00     0.000 A 
ENDBRANCH  80  93
ENDBRANCH  54  55
ENDBRANCH  47  49
ENDBRANCH  46  47
ENDBRANCH  45  46
ENDBRANCH  44  45
ENDBRANCH  43  44
ENDBRANCH  42  43
ENDBRANCH  41  42
ENDBRANCH  40  41
ENDBRANCH  38  40
ENDBRANCH  37  38
ENDBRANCH   1  37
TORSDOF 29
ENDMDL
