MODEL 1
REMARK VINA RESULT:     -10.6      0.000      0.000
REMARK SMILES CC(C)n1ccc(C[C@@H](C(=O)OCCOCCOC(=O)c2ccc(-c3c4nc(c(-c5ccccc5)c5ccc([nH]5)c(-c5ccccc5)c5nc(c(-c6ccccc6)c6ccc3[nH]6)C=C5)C=C4)cc2)c2cccc(Cl)c2)n1
REMARK SMILES IDX 14 1 13 2 12 3 10 4 11 5 9 6 8 7 7 8 4 9 5 10 76 11 6 12
REMARK SMILES IDX 2 13 1 14 3 15 69 16 70 17 75 18 71 19 73 20 72 21 74 22
REMARK SMILES IDX 15 23 16 24 17 25 18 26 19 27 20 28 21 29 22 30 68 31 23 32
REMARK SMILES IDX 67 33 24 34 25 35 26 36 61 37 27 38 66 39 60 40 62 41 28 42
REMARK SMILES IDX 65 43 59 44 58 45 29 47 51 48 36 49 50 50 37 51 40 52 49 53
REMARK SMILES IDX 63 54 38 55 39 56 48 58 64 59 41 60 30 61 31 62 35 63 32 64
REMARK SMILES IDX 34 65 33 66 52 67 53 68 57 69 54 70 56 71 55 72 42 73 43 74
REMARK SMILES IDX 47 75 44 76 46 77 45 78
REMARK H PARENT 62 46 40 57
REMARK Flexibility Score: inf
ROOT
ATOM      1  C   UNL A   1      33.376  28.356  26.946  1.00  0.00     0.202 C 
ENDROOT
BRANCH   1   2
ATOM      2  C   UNL A   1      32.028  27.785  27.398  1.00  0.00     0.261 C 
BRANCH   2   3
ATOM      3  O   UNL A   1      31.138  27.750  26.266  1.00  0.00    -0.463 OA
BRANCH   3   4
ATOM      4  C   UNL A   1      31.092  26.648  25.492  1.00  0.00     0.313 C 
ATOM      5  O   UNL A   1      30.551  25.603  25.836  1.00  0.00    -0.252 OA
BRANCH   4   6
ATOM      6  C   UNL A   1      31.694  26.870  24.089  1.00  0.00     0.135 C 
BRANCH   6   7
ATOM      7  C   UNL A   1      30.731  27.093  22.886  1.00  0.00     0.078 C 
BRANCH   7   8
ATOM      8  C   UNL A   1      29.529  27.992  23.038  1.00  0.00     0.064 A 
ATOM      9  N   UNL A   1      28.247  29.688  22.797  1.00  0.00    -0.270 N 
ATOM     10  C   UNL A   1      27.425  28.693  23.229  1.00  0.00     0.109 A 
ATOM     11  N   UNL A   1      29.547  29.293  22.700  1.00  0.00    -0.178 NA
ATOM     12  C   UNL A   1      28.212  27.584  23.340  1.00  0.00     0.045 A 
BRANCH   9  13
ATOM     13  C   UNL A   1      27.832  31.024  22.369  1.00  0.00     0.101 C 
ATOM     14  C   UNL A   1      28.500  32.105  23.222  1.00  0.00     0.033 C 
ATOM     15  C   UNL A   1      28.128  31.299  20.886  1.00  0.00     0.033 C 
ENDBRANCH   9  13
ENDBRANCH   7   8
ENDBRANCH   6   7
BRANCH   6  16
ATOM     16  C   UNL A   1      32.672  25.723  23.719  1.00  0.00    -0.032 A 
ATOM     17  C   UNL A   1      32.376  24.871  22.641  1.00  0.00     0.005 A 
ATOM     18  C   UNL A   1      33.846  25.451  24.451  1.00  0.00     0.025 A 
ATOM     19  C   UNL A   1      33.205  23.786  22.325  1.00  0.00     0.002 A 
ATOM     20  C   UNL A   1      34.660  24.355  24.146  1.00  0.00     0.041 A 
ATOM     21  C   UNL A   1      34.344  23.520  23.084  1.00  0.00     0.020 A 
ATOM     22  Cl  UNL A   1      36.053  24.029  25.105  1.00  0.00    -0.084 Cl
ENDBRANCH   6  16
ENDBRANCH   4   6
ENDBRANCH   3   4
ENDBRANCH   2   3
ENDBRANCH   1   2
BRANCH   1  23
ATOM     23  O   UNL A   1      33.306  29.661  26.364  1.00  0.00    -0.374 OA
BRANCH  23  24
ATOM     24  C   UNL A   1      32.706  30.702  27.130  1.00  0.00     0.202 C 
BRANCH  24  25
ATOM     25  C   UNL A   1      33.629  31.812  27.595  1.00  0.00     0.261 C 
BRANCH  25  26
ATOM     26  O   UNL A   1      34.980  31.406  27.446  1.00  0.00    -0.460 OA
BRANCH  26  27
ATOM     27  C   UNL A   1      35.907  32.204  28.021  1.00  0.00     0.338 C 
ATOM     28  O   UNL A   1      36.074  33.390  27.864  1.00  0.00    -0.246 OA
BRANCH  27  29
ATOM     29  C   UNL A   1      36.798  31.317  28.781  1.00  0.00     0.060 A 
ATOM     30  C   UNL A   1      37.862  31.914  29.455  1.00  0.00     0.016 A 
ATOM     31  C   UNL A   1      36.722  29.926  28.594  1.00  0.00     0.016 A 
ATOM     32  C   UNL A   1      38.967  31.139  29.717  1.00  0.00     0.010 A 
ATOM     33  C   UNL A   1      37.806  29.150  28.884  1.00  0.00     0.010 A 
ATOM     34  C   UNL A   1      38.949  29.795  29.323  1.00  0.00    -0.014 A 
BRANCH  34  35
ATOM     35  C   UNL A   1      40.151  29.011  29.445  1.00  0.00     0.031 A 
ATOM     36  C   UNL A   1      40.452  28.709  30.854  1.00  0.00     0.074 A 
ATOM     37  C   UNL A   1      40.804  28.538  28.367  1.00  0.00     0.049 A 
ATOM     38  N   UNL A   1      41.356  29.268  31.581  1.00  0.00    -0.248 NA
ATOM     39  C   UNL A   1      39.488  27.887  31.608  1.00  0.00     0.031 C 
ATOM     40  C   UNL A   1      40.397  28.569  26.958  1.00  0.00     0.029 A 
ATOM     41  N   UNL A   1      41.956  27.826  28.325  1.00  0.00    -0.354 N 
ATOM     42  C   UNL A   1      41.237  28.673  32.827  1.00  0.00     0.074 A 
ATOM     43  C   UNL A   1      39.941  28.045  32.853  1.00  0.00     0.031 C 
ATOM     44  C   UNL A   1      41.160  27.699  26.251  1.00  0.00     0.029 A 
ATOM     45  C   UNL A   1      42.190  27.164  27.126  1.00  0.00     0.049 A 
ATOM     46  H   UNL A   1      42.578  27.780  29.086  1.00  0.00     0.167 HD
ATOM     47  C   UNL A   1      42.342  28.447  33.586  1.00  0.00     0.031 A 
ATOM     48  C   UNL A   1      43.132  26.209  26.913  1.00  0.00     0.031 A 
ATOM     49  C   UNL A   1      43.465  29.222  33.113  1.00  0.00     0.049 A 
ATOM     50  C   UNL A   1      44.122  26.315  28.013  1.00  0.00     0.074 A 
ATOM     51  C   UNL A   1      43.720  30.569  32.953  1.00  0.00     0.029 A 
ATOM     52  N   UNL A   1      44.369  28.561  32.313  1.00  0.00    -0.354 N 
ATOM     53  N   UNL A   1      44.929  27.328  28.147  1.00  0.00    -0.248 NA
ATOM     54  C   UNL A   1      43.877  25.549  29.226  1.00  0.00     0.031 C 
ATOM     55  C   UNL A   1      44.458  30.664  31.736  1.00  0.00     0.029 A 
ATOM     56  C   UNL A   1      44.695  29.375  31.260  1.00  0.00     0.049 A 
ATOM     57  H   UNL A   1      44.722  27.655  32.471  1.00  0.00     0.167 HD
ATOM     58  C   UNL A   1      44.917  27.607  29.507  1.00  0.00     0.074 A 
ATOM     59  C   UNL A   1      44.333  26.420  30.133  1.00  0.00     0.031 C 
ATOM     60  C   UNL A   1      45.096  28.885  29.958  1.00  0.00     0.031 A 
BRANCH  47  61
ATOM     61  C   UNL A   1      42.524  27.185  34.393  1.00  0.00    -0.014 A 
ATOM     62  C   UNL A   1      43.471  26.248  33.950  1.00  0.00     0.009 A 
ATOM     63  C   UNL A   1      41.619  26.751  35.381  1.00  0.00     0.009 A 
ATOM     64  C   UNL A   1      43.452  24.926  34.408  1.00  0.00     0.001 A 
ATOM     65  C   UNL A   1      41.622  25.443  35.871  1.00  0.00     0.001 A 
ATOM     66  C   UNL A   1      42.522  24.523  35.361  1.00  0.00     0.000 A 
ENDBRANCH  47  61
BRANCH  48  67
ATOM     67  C   UNL A   1      43.089  25.021  26.031  1.00  0.00    -0.014 A 
ATOM     68  C   UNL A   1      44.112  24.782  25.096  1.00  0.00     0.009 A 
ATOM     69  C   UNL A   1      42.203  23.965  26.309  1.00  0.00     0.009 A 
ATOM     70  C   UNL A   1      44.269  23.523  24.501  1.00  0.00     0.001 A 
ATOM     71  C   UNL A   1      42.361  22.706  25.715  1.00  0.00     0.001 A 
ATOM     72  C   UNL A   1      43.404  22.481  24.823  1.00  0.00     0.000 A 
ENDBRANCH  48  67
BRANCH  60  73
ATOM     73  C   UNL A   1      45.554  29.922  28.959  1.00  0.00    -0.014 A 
ATOM     74  C   UNL A   1      46.895  30.321  28.801  1.00  0.00     0.009 A 
ATOM     75  C   UNL A   1      44.605  30.421  28.057  1.00  0.00     0.009 A 
ATOM     76  C   UNL A   1      47.262  31.218  27.791  1.00  0.00     0.001 A 
ATOM     77  C   UNL A   1      44.974  31.299  27.036  1.00  0.00     0.001 A 
ATOM     78  C   UNL A   1      46.300  31.704  26.907  1.00  0.00     0.000 A 
ENDBRANCH  60  73
ENDBRANCH  34  35
ENDBRANCH  27  29
ENDBRANCH  26  27
ENDBRANCH  25  26
ENDBRANCH  24  25
ENDBRANCH  23  24
ENDBRANCH   1  23
TORSDOF 18
ENDMDL
MODEL 2
REMARK VINA RESULT:     -10.5      2.773      7.287
REMARK SMILES CC(C)n1ccc(C[C@@H](C(=O)OCCOCCOC(=O)c2ccc(-c3c4nc(c(-c5ccccc5)c5ccc([nH]5)c(-c5ccccc5)c5nc(c(-c6ccccc6)c6ccc3[nH]6)C=C5)C=C4)cc2)c2cccc(Cl)c2)n1
REMARK SMILES IDX 14 1 13 2 12 3 10 4 11 5 9 6 8 7 7 8 4 9 5 10 76 11 6 12
REMARK SMILES IDX 2 13 1 14 3 15 69 16 70 17 75 18 71 19 73 20 72 21 74 22
REMARK SMILES IDX 15 23 16 24 17 25 18 26 19 27 20 28 21 29 22 30 68 31 23 32
REMARK SMILES IDX 67 33 24 34 25 35 26 36 61 37 27 38 66 39 60 40 62 41 28 42
REMARK SMILES IDX 65 43 59 44 58 45 29 47 51 48 36 49 50 50 37 51 40 52 49 53
REMARK SMILES IDX 63 54 38 55 39 56 48 58 64 59 41 60 30 61 31 62 35 63 32 64
REMARK SMILES IDX 34 65 33 66 52 67 53 68 57 69 54 70 56 71 55 72 42 73 43 74
REMARK SMILES IDX 47 75 44 76 46 77 45 78
REMARK H PARENT 62 46 40 57
REMARK Flexibility Score: inf
ROOT
ATOM      1  C   UNL A   1      35.460  22.973  23.586  1.00  0.00     0.202 C 
ENDROOT
BRANCH   1   2
ATOM      2  C   UNL A   1      33.954  23.034  23.309  1.00  0.00     0.261 C 
BRANCH   2   3
ATOM      3  O   UNL A   1      33.437  24.270  23.837  1.00  0.00    -0.463 OA
BRANCH   3   4
ATOM      4  C   UNL A   1      33.359  25.352  23.036  1.00  0.00     0.313 C 
ATOM      5  O   UNL A   1      34.085  25.526  22.063  1.00  0.00    -0.252 OA
BRANCH   4   6
ATOM      6  C   UNL A   1      32.193  26.292  23.404  1.00  0.00     0.135 C 
BRANCH   6   7
ATOM      7  C   UNL A   1      31.832  27.457  22.436  1.00  0.00     0.078 C 
BRANCH   7   8
ATOM      8  C   UNL A   1      30.592  28.280  22.676  1.00  0.00     0.064 A 
ATOM      9  N   UNL A   1      29.206  29.906  22.554  1.00  0.00    -0.270 N 
ATOM     10  C   UNL A   1      28.464  28.853  22.992  1.00  0.00     0.109 A 
ATOM     11  N   UNL A   1      30.520  29.590  22.381  1.00  0.00    -0.178 NA
ATOM     12  C   UNL A   1      29.317  27.788  23.027  1.00  0.00     0.045 A 
BRANCH   9  13
ATOM     13  C   UNL A   1      28.696  31.229  22.192  1.00  0.00     0.101 C 
ATOM     14  C   UNL A   1      28.000  31.195  20.830  1.00  0.00     0.033 C 
ATOM     15  C   UNL A   1      27.728  31.807  23.238  1.00  0.00     0.033 C 
ENDBRANCH   9  13
ENDBRANCH   7   8
ENDBRANCH   6   7
BRANCH   6  16
ATOM     16  C   UNL A   1      32.392  26.888  24.824  1.00  0.00    -0.032 A 
ATOM     17  C   UNL A   1      31.375  26.760  25.785  1.00  0.00     0.005 A 
ATOM     18  C   UNL A   1      33.545  27.609  25.198  1.00  0.00     0.025 A 
ATOM     19  C   UNL A   1      31.497  27.346  27.052  1.00  0.00     0.002 A 
ATOM     20  C   UNL A   1      33.655  28.210  26.456  1.00  0.00     0.041 A 
ATOM     21  C   UNL A   1      32.634  28.081  27.387  1.00  0.00     0.020 A 
ATOM     22  Cl  UNL A   1      35.057  29.131  26.847  1.00  0.00    -0.084 Cl
ENDBRANCH   6  16
ENDBRANCH   4   6
ENDBRANCH   3   4
ENDBRANCH   2   3
ENDBRANCH   1   2
BRANCH   1  23
ATOM     23  O   UNL A   1      35.887  21.816  24.312  1.00  0.00    -0.374 OA
BRANCH  23  24
ATOM     24  C   UNL A   1      36.483  22.013  25.591  1.00  0.00     0.202 C 
BRANCH  24  25
ATOM     25  C   UNL A   1      37.977  21.775  25.680  1.00  0.00     0.261 C 
BRANCH  25  26
ATOM     26  O   UNL A   1      38.614  22.923  26.216  1.00  0.00    -0.460 OA
BRANCH  26  27
ATOM     27  C   UNL A   1      39.753  22.700  26.912  1.00  0.00     0.338 C 
ATOM     28  O   UNL A   1      40.151  21.661  27.382  1.00  0.00    -0.246 OA
BRANCH  27  29
ATOM     29  C   UNL A   1      40.364  24.019  27.130  1.00  0.00     0.060 A 
ATOM     30  C   UNL A   1      41.403  24.088  28.056  1.00  0.00     0.016 A 
ATOM     31  C   UNL A   1      39.734  25.170  26.629  1.00  0.00     0.016 A 
ATOM     32  C   UNL A   1      41.636  25.300  28.663  1.00  0.00     0.010 A 
ATOM     33  C   UNL A   1      39.987  26.379  27.208  1.00  0.00     0.010 A 
ATOM     34  C   UNL A   1      40.842  26.394  28.297  1.00  0.00    -0.014 A 
BRANCH  34  35
ATOM     35  C   UNL A   1      40.963  27.627  29.032  1.00  0.00     0.031 A 
ATOM     36  C   UNL A   1      41.997  28.498  28.449  1.00  0.00     0.074 A 
ATOM     37  C   UNL A   1      40.124  27.941  30.037  1.00  0.00     0.049 A 
ATOM     38  N   UNL A   1      43.180  28.701  28.917  1.00  0.00    -0.248 NA
ATOM     39  C   UNL A   1      41.793  28.994  27.076  1.00  0.00     0.031 C 
ATOM     40  C   UNL A   1      38.909  27.245  30.473  1.00  0.00     0.029 A 
ATOM     41  N   UNL A   1      40.139  29.036  30.836  1.00  0.00    -0.354 N 
ATOM     42  C   UNL A   1      43.781  29.565  28.015  1.00  0.00     0.074 A 
ATOM     43  C   UNL A   1      42.998  29.499  26.808  1.00  0.00     0.031 C 
ATOM     44  C   UNL A   1      38.188  28.063  31.279  1.00  0.00     0.029 A 
ATOM     45  C   UNL A   1      38.956  29.273  31.524  1.00  0.00     0.049 A 
ATOM     46  H   UNL A   1      40.927  29.619  30.920  1.00  0.00     0.167 HD
ATOM     47  C   UNL A   1      44.649  30.515  28.452  1.00  0.00     0.031 A 
ATOM     48  C   UNL A   1      38.634  30.412  32.190  1.00  0.00     0.031 A 
ATOM     49  C   UNL A   1      45.103  30.228  29.793  1.00  0.00     0.049 A 
ATOM     50  C   UNL A   1      39.897  31.155  32.425  1.00  0.00     0.074 A 
ATOM     51  C   UNL A   1      45.781  29.183  30.388  1.00  0.00     0.029 A 
ATOM     52  N   UNL A   1      44.471  30.906  30.810  1.00  0.00    -0.354 N 
ATOM     53  N   UNL A   1      40.827  30.736  33.234  1.00  0.00    -0.248 NA
ATOM     54  C   UNL A   1      40.337  32.090  31.400  1.00  0.00     0.031 C 
ATOM     55  C   UNL A   1      45.166  29.021  31.665  1.00  0.00     0.029 A 
ATOM     56  C   UNL A   1      44.208  30.023  31.825  1.00  0.00     0.049 A 
ATOM     57  H   UNL A   1      44.247  31.864  30.809  1.00  0.00     0.167 HD
ATOM     58  C   UNL A   1      42.015  30.971  32.554  1.00  0.00     0.074 A 
ATOM     59  C   UNL A   1      41.659  31.895  31.476  1.00  0.00     0.031 C 
ATOM     60  C   UNL A   1      43.098  30.159  32.742  1.00  0.00     0.031 A 
BRANCH  47  61
ATOM     61  C   UNL A   1      44.674  31.912  27.883  1.00  0.00    -0.014 A 
ATOM     62  C   UNL A   1      43.776  32.856  28.407  1.00  0.00     0.009 A 
ATOM     63  C   UNL A   1      45.319  32.255  26.678  1.00  0.00     0.009 A 
ATOM     64  C   UNL A   1      43.478  34.035  27.716  1.00  0.00     0.001 A 
ATOM     65  C   UNL A   1      45.055  33.449  26.005  1.00  0.00     0.001 A 
ATOM     66  C   UNL A   1      44.111  34.326  26.511  1.00  0.00     0.000 A 
ENDBRANCH  47  61
BRANCH  48  67
ATOM     67  C   UNL A   1      37.316  31.063  32.364  1.00  0.00    -0.014 A 
ATOM     68  C   UNL A   1      37.030  31.807  33.522  1.00  0.00     0.009 A 
ATOM     69  C   UNL A   1      36.448  31.207  31.267  1.00  0.00     0.009 A 
ATOM     70  C   UNL A   1      35.945  32.695  33.563  1.00  0.00     0.001 A 
ATOM     71  C   UNL A   1      35.364  32.094  31.308  1.00  0.00     0.001 A 
ATOM     72  C   UNL A   1      35.123  32.850  32.450  1.00  0.00     0.000 A 
ENDBRANCH  48  67
BRANCH  60  73
ATOM     73  C   UNL A   1      43.042  29.172  33.885  1.00  0.00    -0.014 A 
ATOM     74  C   UNL A   1      42.461  27.893  33.789  1.00  0.00     0.009 A 
ATOM     75  C   UNL A   1      43.718  29.504  35.067  1.00  0.00     0.009 A 
ATOM     76  C   UNL A   1      42.528  26.993  34.859  1.00  0.00     0.001 A 
ATOM     77  C   UNL A   1      43.804  28.599  36.125  1.00  0.00     0.001 A 
ATOM     78  C   UNL A   1      43.203  27.347  36.026  1.00  0.00     0.000 A 
ENDBRANCH  60  73
ENDBRANCH  34  35
ENDBRANCH  27  29
ENDBRANCH  26  27
ENDBRANCH  25  26
ENDBRANCH  24  25
ENDBRANCH  23  24
ENDBRANCH   1  23
TORSDOF 18
ENDMDL
MODEL 3
REMARK VINA RESULT:     -10.1      2.287      4.119
REMARK SMILES CC(C)n1ccc(C[C@@H](C(=O)OCCOCCOC(=O)c2ccc(-c3c4nc(c(-c5ccccc5)c5ccc([nH]5)c(-c5ccccc5)c5nc(c(-c6ccccc6)c6ccc3[nH]6)C=C5)C=C4)cc2)c2cccc(Cl)c2)n1
REMARK SMILES IDX 14 1 13 2 12 3 10 4 11 5 9 6 8 7 7 8 4 9 5 10 76 11 6 12
REMARK SMILES IDX 2 13 1 14 3 15 69 16 70 17 75 18 71 19 73 20 72 21 74 22
REMARK SMILES IDX 15 23 16 24 17 25 18 26 19 27 20 28 21 29 22 30 68 31 23 32
REMARK SMILES IDX 67 33 24 34 25 35 26 36 61 37 27 38 66 39 60 40 62 41 28 42
REMARK SMILES IDX 65 43 59 44 58 45 29 47 51 48 36 49 50 50 37 51 40 52 49 53
REMARK SMILES IDX 63 54 38 55 39 56 48 58 64 59 41 60 30 61 31 62 35 63 32 64
REMARK SMILES IDX 34 65 33 66 52 67 53 68 57 69 54 70 56 71 55 72 42 73 43 74
REMARK SMILES IDX 47 75 44 76 46 77 45 78
REMARK H PARENT 62 46 40 57
REMARK Flexibility Score: inf
ROOT
ATOM      1  C   UNL A   1      31.776  28.156  26.680  1.00  0.00     0.202 C 
ENDROOT
BRANCH   1   2
ATOM      2  C   UNL A   1      31.741  26.629  26.802  1.00  0.00     0.261 C 
BRANCH   2   3
ATOM      3  O   UNL A   1      30.568  26.138  26.125  1.00  0.00    -0.463 OA
BRANCH   3   4
ATOM      4  C   UNL A   1      30.598  24.922  25.545  1.00  0.00     0.313 C 
ATOM      5  O   UNL A   1      30.478  23.873  26.168  1.00  0.00    -0.252 OA
BRANCH   4   6
ATOM      6  C   UNL A   1      30.687  24.990  24.006  1.00  0.00     0.135 C 
BRANCH   6   7
ATOM      7  C   UNL A   1      32.020  24.581  23.312  1.00  0.00     0.078 C 
BRANCH   7   8
ATOM      8  C   UNL A   1      33.235  24.257  24.145  1.00  0.00     0.064 A 
ATOM      9  N   UNL A   1      34.871  23.146  24.960  1.00  0.00    -0.270 N 
ATOM     10  C   UNL A   1      35.183  24.448  25.205  1.00  0.00     0.109 A 
ATOM     11  N   UNL A   1      33.669  22.999  24.338  1.00  0.00    -0.178 NA
ATOM     12  C   UNL A   1      34.176  25.180  24.647  1.00  0.00     0.045 A 
BRANCH   9  13
ATOM     13  C   UNL A   1      35.732  21.990  25.217  1.00  0.00     0.101 C 
ATOM     14  C   UNL A   1      34.971  20.680  25.000  1.00  0.00     0.033 C 
ATOM     15  C   UNL A   1      37.002  21.983  24.351  1.00  0.00     0.033 C 
ENDBRANCH   9  13
ENDBRANCH   7   8
ENDBRANCH   6   7
BRANCH   6  16
ATOM     16  C   UNL A   1      30.287  26.400  23.492  1.00  0.00    -0.032 A 
ATOM     17  C   UNL A   1      31.277  27.280  23.022  1.00  0.00     0.005 A 
ATOM     18  C   UNL A   1      28.960  26.875  23.514  1.00  0.00     0.025 A 
ATOM     19  C   UNL A   1      30.955  28.581  22.615  1.00  0.00     0.002 A 
ATOM     20  C   UNL A   1      28.646  28.182  23.126  1.00  0.00     0.041 A 
ATOM     21  C   UNL A   1      29.640  29.039  22.676  1.00  0.00     0.020 A 
ATOM     22  Cl  UNL A   1      27.019  28.738  23.226  1.00  0.00    -0.084 Cl
ENDBRANCH   6  16
ENDBRANCH   4   6
ENDBRANCH   3   4
ENDBRANCH   2   3
ENDBRANCH   1   2
BRANCH   1  23
ATOM     23  O   UNL A   1      32.651  28.809  27.605  1.00  0.00    -0.374 OA
BRANCH  23  24
ATOM     24  C   UNL A   1      33.949  29.180  27.147  1.00  0.00     0.202 C 
BRANCH  24  25
ATOM     25  C   UNL A   1      34.318  30.643  27.291  1.00  0.00     0.261 C 
BRANCH  25  26
ATOM     26  O   UNL A   1      34.940  30.859  28.547  1.00  0.00    -0.460 OA
BRANCH  26  27
ATOM     27  C   UNL A   1      36.029  31.661  28.541  1.00  0.00     0.338 C 
ATOM     28  O   UNL A   1      36.194  32.694  27.936  1.00  0.00    -0.246 OA
BRANCH  27  29
ATOM     29  C   UNL A   1      37.064  30.953  29.307  1.00  0.00     0.060 A 
ATOM     30  C   UNL A   1      38.349  31.493  29.283  1.00  0.00     0.016 A 
ATOM     31  C   UNL A   1      36.807  29.661  29.796  1.00  0.00     0.016 A 
ATOM     32  C   UNL A   1      39.402  30.640  29.515  1.00  0.00     0.010 A 
ATOM     33  C   UNL A   1      37.852  28.824  30.058  1.00  0.00     0.010 A 
ATOM     34  C   UNL A   1      39.126  29.296  29.792  1.00  0.00    -0.014 A 
BRANCH  34  35
ATOM     35  C   UNL A   1      40.215  28.358  29.880  1.00  0.00     0.031 A 
ATOM     36  C   UNL A   1      40.740  28.276  31.253  1.00  0.00     0.074 A 
ATOM     37  C   UNL A   1      40.580  27.590  28.836  1.00  0.00     0.049 A 
ATOM     38  N   UNL A   1      41.833  28.801  31.688  1.00  0.00    -0.248 NA
ATOM     39  C   UNL A   1      39.840  27.781  32.312  1.00  0.00     0.031 C 
ATOM     40  C   UNL A   1      39.916  27.427  27.538  1.00  0.00     0.029 A 
ATOM     41  N   UNL A   1      41.599  26.700  28.760  1.00  0.00    -0.354 N 
ATOM     42  C   UNL A   1      41.879  28.476  33.034  1.00  0.00     0.074 A 
ATOM     43  C   UNL A   1      40.542  28.090  33.403  1.00  0.00     0.031 C 
ATOM     44  C   UNL A   1      40.408  26.326  26.918  1.00  0.00     0.029 A 
ATOM     45  C   UNL A   1      41.508  25.797  27.708  1.00  0.00     0.049 A 
ATOM     46  H   UNL A   1      42.344  26.693  29.402  1.00  0.00     0.167 HD
ATOM     47  C   UNL A   1      43.071  28.213  33.634  1.00  0.00     0.031 A 
ATOM     48  C   UNL A   1      42.258  24.675  27.552  1.00  0.00     0.031 A 
ATOM     49  C   UNL A   1      44.174  28.687  32.831  1.00  0.00     0.049 A 
ATOM     50  C   UNL A   1      43.447  24.817  28.429  1.00  0.00     0.074 A 
ATOM     51  C   UNL A   1      44.567  29.919  32.349  1.00  0.00     0.029 A 
ATOM     52  N   UNL A   1      44.811  27.747  32.054  1.00  0.00    -0.354 N 
ATOM     53  N   UNL A   1      44.390  25.687  28.211  1.00  0.00    -0.248 NA
ATOM     54  C   UNL A   1      43.342  24.341  29.800  1.00  0.00     0.031 C 
ATOM     55  C   UNL A   1      45.063  29.662  31.036  1.00  0.00     0.029 A 
ATOM     56  C   UNL A   1      45.032  28.285  30.813  1.00  0.00     0.049 A 
ATOM     57  H   UNL A   1      45.067  26.841  32.342  1.00  0.00     0.167 HD
ATOM     58  C   UNL A   1      44.678  26.212  29.465  1.00  0.00     0.074 A 
ATOM     59  C   UNL A   1      44.075  25.277  30.415  1.00  0.00     0.031 C 
ATOM     60  C   UNL A   1      45.107  27.502  29.598  1.00  0.00     0.031 A 
BRANCH  47  61
ATOM     61  C   UNL A   1      43.239  27.111  34.651  1.00  0.00    -0.014 A 
ATOM     62  C   UNL A   1      43.834  27.431  35.881  1.00  0.00     0.009 A 
ATOM     63  C   UNL A   1      43.112  25.740  34.347  1.00  0.00     0.009 A 
ATOM     64  C   UNL A   1      44.351  26.436  36.718  1.00  0.00     0.001 A 
ATOM     65  C   UNL A   1      43.591  24.742  35.198  1.00  0.00     0.001 A 
ATOM     66  C   UNL A   1      44.237  25.093  36.371  1.00  0.00     0.000 A 
ENDBRANCH  47  61
BRANCH  48  67
ATOM     67  C   UNL A   1      41.890  23.369  26.962  1.00  0.00    -0.014 A 
ATOM     68  C   UNL A   1      42.867  22.541  26.382  1.00  0.00     0.009 A 
ATOM     69  C   UNL A   1      40.633  22.799  27.233  1.00  0.00     0.009 A 
ATOM     70  C   UNL A   1      42.611  21.186  26.128  1.00  0.00     0.001 A 
ATOM     71  C   UNL A   1      40.377  21.445  26.980  1.00  0.00     0.001 A 
ATOM     72  C   UNL A   1      41.372  20.635  26.442  1.00  0.00     0.000 A 
ENDBRANCH  48  67
BRANCH  60  73
ATOM     73  C   UNL A   1      45.495  28.245  28.340  1.00  0.00    -0.014 A 
ATOM     74  C   UNL A   1      44.612  29.059  27.606  1.00  0.00     0.009 A 
ATOM     75  C   UNL A   1      46.843  28.217  27.958  1.00  0.00     0.009 A 
ATOM     76  C   UNL A   1      45.064  29.793  26.503  1.00  0.00     0.001 A 
ATOM     77  C   UNL A   1      47.298  28.966  26.871  1.00  0.00     0.001 A 
ATOM     78  C   UNL A   1      46.409  29.748  26.138  1.00  0.00     0.000 A 
ENDBRANCH  60  73
ENDBRANCH  34  35
ENDBRANCH  27  29
ENDBRANCH  26  27
ENDBRANCH  25  26
ENDBRANCH  24  25
ENDBRANCH  23  24
ENDBRANCH   1  23
TORSDOF 18
ENDMDL
