MODEL 1
REMARK VINA RESULT:     -11.3      0.000      0.000
REMARK SMILES C[C@H](C(=O)OCCOCCOC(=O)c1ccc(-c2c3nc(c(-c4ccccc4)c4ccc([nH]4)c(-c4ccccc4)c4nc(c(-c5ccccc5)c5ccc2[nH]5)C=C4)C=C3)cc1)c1ccc2c3cc(Cl)ccc3n(C(=O)c3cocn3)c2c1
REMARK SMILES IDX 7 1 6 2 5 3 3 4 4 5 2 6 1 7 62 8 63 9 82 10 64 11 81 12
REMARK SMILES IDX 65 13 73 14 66 15 72 16 67 17 71 18 68 19 70 20 69 21 74 22
REMARK SMILES IDX 75 23 76 24 77 25 80 26 78 27 79 28 8 29 9 30 10 31 11 32
REMARK SMILES IDX 12 33 13 34 14 35 15 36 61 37 16 38 60 39 17 40 18 41 19 42
REMARK SMILES IDX 54 43 20 44 59 45 53 46 55 47 21 48 58 49 52 50 51 51 22 53
REMARK SMILES IDX 44 54 29 55 43 56 30 57 33 58 42 59 56 60 31 61 32 62 41 64
REMARK SMILES IDX 57 65 34 66 23 67 24 68 28 69 25 70 27 71 26 72 45 73 46 74
REMARK SMILES IDX 50 75 47 76 49 77 48 78 35 79 36 80 40 81 37 82 39 83 38 84
REMARK H PARENT 55 52 33 63
REMARK Flexibility Score: inf
ROOT
ATOM      1  C   UNL A   1      34.437  19.940  25.037  1.00  0.00     0.202 C 
ENDROOT
BRANCH   1   2
ATOM      2  C   UNL A   1      34.105  21.428  24.843  1.00  0.00     0.261 C 
BRANCH   2   3
ATOM      3  O   UNL A   1      33.800  21.746  23.469  1.00  0.00    -0.463 OA
BRANCH   3   4
ATOM      4  C   UNL A   1      34.187  22.984  23.044  1.00  0.00     0.313 C 
ATOM      5  O   UNL A   1      35.339  23.288  22.757  1.00  0.00    -0.252 OA
BRANCH   4   6
ATOM      6  C   UNL A   1      33.027  23.962  22.919  1.00  0.00     0.126 C 
ATOM      7  C   UNL A   1      31.657  23.267  22.985  1.00  0.00     0.025 C 
BRANCH   6   8
ATOM      8  C   UNL A   1      33.058  25.180  23.824  1.00  0.00    -0.032 A 
ATOM      9  C   UNL A   1      33.905  25.347  24.921  1.00  0.00     0.005 A 
ATOM     10  C   UNL A   1      32.148  26.201  23.509  1.00  0.00     0.032 A 
ATOM     11  C   UNL A   1      33.900  26.546  25.654  1.00  0.00     0.011 A 
ATOM     12  C   UNL A   1      32.051  27.322  24.334  1.00  0.00     0.058 A 
ATOM     13  C   UNL A   1      32.972  27.560  25.335  1.00  0.00     0.008 A 
ATOM     14  N   UNL A   1      31.093  28.335  24.341  1.00  0.00    -0.274 N 
ATOM     15  C   UNL A   1      32.739  28.889  25.781  1.00  0.00     0.009 A 
ATOM     16  C   UNL A   1      31.544  29.345  25.196  1.00  0.00     0.057 A 
ATOM     17  C   UNL A   1      33.452  29.729  26.660  1.00  0.00     0.031 A 
ATOM     18  C   UNL A   1      30.981  30.574  25.587  1.00  0.00     0.029 A 
ATOM     19  C   UNL A   1      32.934  30.980  26.976  1.00  0.00     0.041 A 
ATOM     20  C   UNL A   1      31.704  31.386  26.473  1.00  0.00     0.023 A 
ATOM     21  Cl  UNL A   1      33.823  32.022  28.018  1.00  0.00    -0.084 Cl
BRANCH  14  22
ATOM     22  C   UNL A   1      29.865  28.215  23.638  1.00  0.00     0.284 C 
ATOM     23  O   UNL A   1      29.357  27.094  23.664  1.00  0.00    -0.266 OA
BRANCH  22  24
ATOM     24  C   UNL A   1      29.227  29.260  22.851  1.00  0.00     0.167 A 
ATOM     25  C   UNL A   1      28.161  30.072  23.168  1.00  0.00     0.231 A 
ATOM     26  N   UNL A   1      29.774  29.704  21.652  1.00  0.00    -0.211 NA
ATOM     27  O   UNL A   1      28.029  31.014  22.189  1.00  0.00    -0.451 OA
ATOM     28  C   UNL A   1      29.041  30.739  21.323  1.00  0.00     0.308 A 
ENDBRANCH  22  24
ENDBRANCH  14  22
ENDBRANCH   6   8
ENDBRANCH   4   6
ENDBRANCH   3   4
ENDBRANCH   2   3
ENDBRANCH   1   2
BRANCH   1  29
ATOM     29  O   UNL A   1      35.750  19.490  24.687  1.00  0.00    -0.374 OA
BRANCH  29  30
ATOM     30  C   UNL A   1      36.816  20.402  24.925  1.00  0.00     0.202 C 
BRANCH  30  31
ATOM     31  C   UNL A   1      38.235  19.849  25.095  1.00  0.00     0.261 C 
BRANCH  31  32
ATOM     32  O   UNL A   1      39.031  20.655  25.969  1.00  0.00    -0.460 OA
BRANCH  32  33
ATOM     33  C   UNL A   1      40.298  20.208  26.094  1.00  0.00     0.338 C 
ATOM     34  O   UNL A   1      40.736  19.109  25.767  1.00  0.00    -0.246 OA
BRANCH  33  35
ATOM     35  C   UNL A   1      41.180  21.295  26.536  1.00  0.00     0.060 A 
ATOM     36  C   UNL A   1      41.193  21.573  27.907  1.00  0.00     0.016 A 
ATOM     37  C   UNL A   1      41.907  22.075  25.634  1.00  0.00     0.016 A 
ATOM     38  C   UNL A   1      41.862  22.693  28.378  1.00  0.00     0.010 A 
ATOM     39  C   UNL A   1      42.579  23.205  26.109  1.00  0.00     0.010 A 
ATOM     40  C   UNL A   1      42.509  23.544  27.472  1.00  0.00    -0.014 A 
BRANCH  40  41
ATOM     41  C   UNL A   1      42.943  24.876  27.943  1.00  0.00     0.031 A 
ATOM     42  C   UNL A   1      41.897  25.917  28.228  1.00  0.00     0.074 A 
ATOM     43  C   UNL A   1      44.242  25.122  28.185  1.00  0.00     0.049 A 
ATOM     44  N   UNL A   1      42.043  27.140  28.667  1.00  0.00    -0.248 NA
ATOM     45  C   UNL A   1      40.496  25.526  27.990  1.00  0.00     0.031 C 
ATOM     46  C   UNL A   1      45.332  24.165  27.996  1.00  0.00     0.029 A 
ATOM     47  N   UNL A   1      44.859  26.253  28.648  1.00  0.00    -0.354 N 
ATOM     48  C   UNL A   1      40.758  27.664  28.751  1.00  0.00     0.074 A 
ATOM     49  C   UNL A   1      39.849  26.642  28.285  1.00  0.00     0.031 C 
ATOM     50  C   UNL A   1      46.489  24.752  28.342  1.00  0.00     0.029 A 
ATOM     51  C   UNL A   1      46.222  26.132  28.741  1.00  0.00     0.049 A 
ATOM     52  H   UNL A   1      44.372  27.073  28.892  1.00  0.00     0.167 HD
ATOM     53  C   UNL A   1      40.372  28.887  29.186  1.00  0.00     0.031 A 
ATOM     54  C   UNL A   1      47.151  27.042  29.091  1.00  0.00     0.031 A 
ATOM     55  C   UNL A   1      41.287  29.903  29.633  1.00  0.00     0.049 A 
ATOM     56  C   UNL A   1      46.703  28.421  29.493  1.00  0.00     0.074 A 
ATOM     57  C   UNL A   1      41.004  31.175  30.097  1.00  0.00     0.029 A 
ATOM     58  N   UNL A   1      42.665  29.761  29.665  1.00  0.00    -0.354 N 
ATOM     59  N   UNL A   1      45.486  28.902  29.583  1.00  0.00    -0.248 NA
ATOM     60  C   UNL A   1      47.757  29.379  29.851  1.00  0.00     0.031 C 
ATOM     61  C   UNL A   1      42.217  31.824  30.351  1.00  0.00     0.029 A 
ATOM     62  C   UNL A   1      43.251  30.932  30.112  1.00  0.00     0.049 A 
ATOM     63  H   UNL A   1      43.156  28.946  29.407  1.00  0.00     0.167 HD
ATOM     64  C   UNL A   1      45.626  30.208  30.034  1.00  0.00     0.074 A 
ATOM     65  C   UNL A   1      47.045  30.437  30.214  1.00  0.00     0.031 C 
ATOM     66  C   UNL A   1      44.668  31.137  30.278  1.00  0.00     0.031 A 
BRANCH  53  67
ATOM     67  C   UNL A   1      38.901  29.200  29.157  1.00  0.00    -0.014 A 
ATOM     68  C   UNL A   1      38.092  29.028  30.292  1.00  0.00     0.009 A 
ATOM     69  C   UNL A   1      38.319  29.695  27.979  1.00  0.00     0.009 A 
ATOM     70  C   UNL A   1      36.725  29.310  30.235  1.00  0.00     0.001 A 
ATOM     71  C   UNL A   1      36.959  30.004  27.935  1.00  0.00     0.001 A 
ATOM     72  C   UNL A   1      36.160  29.802  29.059  1.00  0.00     0.000 A 
ENDBRANCH  53  67
BRANCH  54  73
ATOM     73  C   UNL A   1      48.592  26.682  29.052  1.00  0.00    -0.014 A 
ATOM     74  C   UNL A   1      49.336  26.811  27.871  1.00  0.00     0.009 A 
ATOM     75  C   UNL A   1      49.232  26.202  30.207  1.00  0.00     0.009 A 
ATOM     76  C   UNL A   1      50.684  26.445  27.841  1.00  0.00     0.001 A 
ATOM     77  C   UNL A   1      50.586  25.867  30.182  1.00  0.00     0.001 A 
ATOM     78  C   UNL A   1      51.310  25.980  28.997  1.00  0.00     0.000 A 
ENDBRANCH  54  73
BRANCH  66  79
ATOM     79  C   UNL A   1      45.124  32.471  30.798  1.00  0.00    -0.014 A 
ATOM     80  C   UNL A   1      45.425  33.531  29.930  1.00  0.00     0.009 A 
ATOM     81  C   UNL A   1      45.213  32.680  32.184  1.00  0.00     0.009 A 
ATOM     82  C   UNL A   1      45.843  34.762  30.438  1.00  0.00     0.001 A 
ATOM     83  C   UNL A   1      45.598  33.922  32.690  1.00  0.00     0.001 A 
ATOM     84  C   UNL A   1      45.923  34.958  31.817  1.00  0.00     0.000 A 
ENDBRANCH  66  79
ENDBRANCH  40  41
ENDBRANCH  33  35
ENDBRANCH  32  33
ENDBRANCH  31  32
ENDBRANCH  30  31
ENDBRANCH  29  30
ENDBRANCH   1  29
TORSDOF 17
ENDMDL
MODEL 2
REMARK VINA RESULT:     -11.3      0.654      5.669
REMARK SMILES C[C@H](C(=O)OCCOCCOC(=O)c1ccc(-c2c3nc(c(-c4ccccc4)c4ccc([nH]4)c(-c4ccccc4)c4nc(c(-c5ccccc5)c5ccc2[nH]5)C=C4)C=C3)cc1)c1ccc2c3cc(Cl)ccc3n(C(=O)c3cocn3)c2c1
REMARK SMILES IDX 7 1 6 2 5 3 3 4 4 5 2 6 1 7 62 8 63 9 82 10 64 11 81 12
REMARK SMILES IDX 65 13 73 14 66 15 72 16 67 17 71 18 68 19 70 20 69 21 74 22
REMARK SMILES IDX 75 23 76 24 77 25 80 26 78 27 79 28 8 29 9 30 10 31 11 32
REMARK SMILES IDX 12 33 13 34 14 35 15 36 61 37 16 38 60 39 17 40 18 41 19 42
REMARK SMILES IDX 54 43 20 44 59 45 53 46 55 47 21 48 58 49 52 50 51 51 22 53
REMARK SMILES IDX 44 54 29 55 43 56 30 57 33 58 42 59 56 60 31 61 32 62 41 64
REMARK SMILES IDX 57 65 34 66 23 67 24 68 28 69 25 70 27 71 26 72 45 73 46 74
REMARK SMILES IDX 50 75 47 76 49 77 48 78 35 79 36 80 40 81 37 82 39 83 38 84
REMARK H PARENT 55 52 33 63
REMARK Flexibility Score: inf
ROOT
ATOM      1  C   UNL A   1      35.288  20.257  25.146  1.00  0.00     0.202 C 
ENDROOT
BRANCH   1   2
ATOM      2  C   UNL A   1      35.056  21.777  25.165  1.00  0.00     0.261 C 
BRANCH   2   3
ATOM      3  O   UNL A   1      34.076  22.193  24.192  1.00  0.00    -0.463 OA
BRANCH   3   4
ATOM      4  C   UNL A   1      34.510  23.084  23.253  1.00  0.00     0.313 C 
ATOM      5  O   UNL A   1      35.588  23.011  22.676  1.00  0.00    -0.252 OA
BRANCH   4   6
ATOM      6  C   UNL A   1      33.494  24.178  22.953  1.00  0.00     0.126 C 
ATOM      7  C   UNL A   1      32.073  23.627  22.753  1.00  0.00     0.025 C 
BRANCH   6   8
ATOM      8  C   UNL A   1      33.482  25.375  23.887  1.00  0.00    -0.032 A 
ATOM      9  C   UNL A   1      34.341  25.559  24.971  1.00  0.00     0.005 A 
ATOM     10  C   UNL A   1      32.516  26.355  23.613  1.00  0.00     0.032 A 
ATOM     11  C   UNL A   1      34.290  26.740  25.733  1.00  0.00     0.011 A 
ATOM     12  C   UNL A   1      32.379  27.452  24.466  1.00  0.00     0.058 A 
ATOM     13  C   UNL A   1      33.307  27.713  25.455  1.00  0.00     0.008 A 
ATOM     14  N   UNL A   1      31.373  28.414  24.515  1.00  0.00    -0.274 N 
ATOM     15  C   UNL A   1      33.017  29.017  25.938  1.00  0.00     0.009 A 
ATOM     16  C   UNL A   1      31.789  29.426  25.385  1.00  0.00     0.057 A 
ATOM     17  C   UNL A   1      33.704  29.872  26.822  1.00  0.00     0.031 A 
ATOM     18  C   UNL A   1      31.173  30.615  25.816  1.00  0.00     0.029 A 
ATOM     19  C   UNL A   1      33.130  31.088  27.178  1.00  0.00     0.041 A 
ATOM     20  C   UNL A   1      31.872  31.442  26.708  1.00  0.00     0.023 A 
ATOM     21  Cl  UNL A   1      33.986  32.149  28.228  1.00  0.00    -0.084 Cl
BRANCH  14  22
ATOM     22  C   UNL A   1      30.139  28.249  23.832  1.00  0.00     0.284 C 
ATOM     23  O   UNL A   1      29.572  27.174  24.033  1.00  0.00    -0.266 OA
BRANCH  22  24
ATOM     24  C   UNL A   1      29.555  29.188  22.884  1.00  0.00     0.167 A 
ATOM     25  C   UNL A   1      30.101  29.746  21.750  1.00  0.00     0.231 A 
ATOM     26  N   UNL A   1      28.207  29.527  22.935  1.00  0.00    -0.211 NA
ATOM     27  O   UNL A   1      29.120  30.431  21.092  1.00  0.00    -0.451 OA
ATOM     28  C   UNL A   1      28.010  30.240  21.854  1.00  0.00     0.308 A 
ENDBRANCH  22  24
ENDBRANCH  14  22
ENDBRANCH   6   8
ENDBRANCH   4   6
ENDBRANCH   3   4
ENDBRANCH   2   3
ENDBRANCH   1   2
BRANCH   1  29
ATOM     29  O   UNL A   1      36.548  19.772  24.671  1.00  0.00    -0.374 OA
BRANCH  29  30
ATOM     30  C   UNL A   1      37.707  20.438  25.159  1.00  0.00     0.202 C 
BRANCH  30  31
ATOM     31  C   UNL A   1      39.042  19.686  25.161  1.00  0.00     0.261 C 
BRANCH  31  32
ATOM     32  O   UNL A   1      39.827  19.974  26.322  1.00  0.00    -0.460 OA
BRANCH  32  33
ATOM     33  C   UNL A   1      41.149  19.794  26.126  1.00  0.00     0.338 C 
ATOM     34  O   UNL A   1      41.698  18.843  25.577  1.00  0.00    -0.246 OA
BRANCH  33  35
ATOM     35  C   UNL A   1      41.889  21.000  26.512  1.00  0.00     0.060 A 
ATOM     36  C   UNL A   1      42.012  21.249  27.884  1.00  0.00     0.016 A 
ATOM     37  C   UNL A   1      42.377  21.908  25.569  1.00  0.00     0.016 A 
ATOM     38  C   UNL A   1      42.542  22.452  28.323  1.00  0.00     0.010 A 
ATOM     39  C   UNL A   1      42.908  23.122  26.013  1.00  0.00     0.010 A 
ATOM     40  C   UNL A   1      42.938  23.416  27.388  1.00  0.00    -0.014 A 
BRANCH  40  41
ATOM     41  C   UNL A   1      43.203  24.791  27.861  1.00  0.00     0.031 A 
ATOM     42  C   UNL A   1      44.631  25.239  28.015  1.00  0.00     0.074 A 
ATOM     43  C   UNL A   1      42.188  25.646  28.072  1.00  0.00     0.049 A 
ATOM     44  N   UNL A   1      45.099  26.400  28.392  1.00  0.00    -0.248 NA
ATOM     45  C   UNL A   1      45.670  24.244  27.697  1.00  0.00     0.031 C 
ATOM     46  C   UNL A   1      40.770  25.331  27.898  1.00  0.00     0.029 A 
ATOM     47  N   UNL A   1      42.200  26.955  28.473  1.00  0.00    -0.354 N 
ATOM     48  C   UNL A   1      46.483  26.274  28.363  1.00  0.00     0.074 A 
ATOM     49  C   UNL A   1      46.779  24.916  27.967  1.00  0.00     0.031 C 
ATOM     50  C   UNL A   1      40.045  26.423  28.192  1.00  0.00     0.029 A 
ATOM     51  C   UNL A   1      40.946  27.496  28.607  1.00  0.00     0.049 A 
ATOM     52  H   UNL A   1      43.027  27.460  28.647  1.00  0.00     0.167 HD
ATOM     53  C   UNL A   1      47.422  27.210  28.635  1.00  0.00     0.031 A 
ATOM     54  C   UNL A   1      40.571  28.716  29.035  1.00  0.00     0.031 A 
ATOM     55  C   UNL A   1      47.116  28.555  29.044  1.00  0.00     0.049 A 
ATOM     56  C   UNL A   1      41.632  29.715  29.410  1.00  0.00     0.074 A 
ATOM     57  C   UNL A   1      47.989  29.586  29.342  1.00  0.00     0.029 A 
ATOM     58  N   UNL A   1      45.833  29.051  29.217  1.00  0.00    -0.354 N 
ATOM     59  N   UNL A   1      42.937  29.590  29.365  1.00  0.00    -0.248 NA
ATOM     60  C   UNL A   1      41.167  31.024  29.885  1.00  0.00     0.031 C 
ATOM     61  C   UNL A   1      47.233  30.688  29.755  1.00  0.00     0.029 A 
ATOM     62  C   UNL A   1      45.889  30.365  29.648  1.00  0.00     0.049 A 
ATOM     63  H   UNL A   1      45.004  28.544  29.058  1.00  0.00     0.167 HD
ATOM     64  C   UNL A   1      43.450  30.812  29.779  1.00  0.00     0.074 A 
ATOM     65  C   UNL A   1      42.314  31.669  30.054  1.00  0.00     0.031 C 
ATOM     66  C   UNL A   1      44.743  31.195  29.920  1.00  0.00     0.031 A 
BRANCH  53  67
ATOM     67  C   UNL A   1      48.864  26.794  28.538  1.00  0.00    -0.014 A 
ATOM     68  C   UNL A   1      49.606  26.445  29.678  1.00  0.00     0.009 A 
ATOM     69  C   UNL A   1      49.486  26.729  27.280  1.00  0.00     0.009 A 
ATOM     70  C   UNL A   1      50.949  26.078  29.564  1.00  0.00     0.001 A 
ATOM     71  C   UNL A   1      50.819  26.332  27.167  1.00  0.00     0.001 A 
ATOM     72  C   UNL A   1      51.553  26.017  28.309  1.00  0.00     0.000 A 
ENDBRANCH  53  67
BRANCH  54  73
ATOM     73  C   UNL A   1      39.127  29.047  29.154  1.00  0.00    -0.014 A 
ATOM     74  C   UNL A   1      38.420  29.589  28.071  1.00  0.00     0.009 A 
ATOM     75  C   UNL A   1      38.448  28.822  30.362  1.00  0.00     0.009 A 
ATOM     76  C   UNL A   1      37.069  29.921  28.203  1.00  0.00     0.001 A 
ATOM     77  C   UNL A   1      37.090  29.125  30.482  1.00  0.00     0.001 A 
ATOM     78  C   UNL A   1      36.404  29.682  29.406  1.00  0.00     0.000 A 
ENDBRANCH  54  73
BRANCH  66  79
ATOM     79  C   UNL A   1      44.995  32.611  30.359  1.00  0.00    -0.014 A 
ATOM     80  C   UNL A   1      45.240  33.633  29.429  1.00  0.00     0.009 A 
ATOM     81  C   UNL A   1      44.946  32.930  31.725  1.00  0.00     0.009 A 
ATOM     82  C   UNL A   1      45.467  34.940  29.862  1.00  0.00     0.001 A 
ATOM     83  C   UNL A   1      45.140  34.245  32.153  1.00  0.00     0.001 A 
ATOM     84  C   UNL A   1      45.411  35.246  31.222  1.00  0.00     0.000 A 
ENDBRANCH  66  79
ENDBRANCH  40  41
ENDBRANCH  33  35
ENDBRANCH  32  33
ENDBRANCH  31  32
ENDBRANCH  30  31
ENDBRANCH  29  30
ENDBRANCH   1  29
TORSDOF 17
ENDMDL
MODEL 3
REMARK VINA RESULT:     -11.0      6.209     11.987
REMARK SMILES C[C@H](C(=O)OCCOCCOC(=O)c1ccc(-c2c3nc(c(-c4ccccc4)c4ccc([nH]4)c(-c4ccccc4)c4nc(c(-c5ccccc5)c5ccc2[nH]5)C=C4)C=C3)cc1)c1ccc2c3cc(Cl)ccc3n(C(=O)c3cocn3)c2c1
REMARK SMILES IDX 7 1 6 2 5 3 3 4 4 5 2 6 1 7 62 8 63 9 82 10 64 11 81 12
REMARK SMILES IDX 65 13 73 14 66 15 72 16 67 17 71 18 68 19 70 20 69 21 74 22
REMARK SMILES IDX 75 23 76 24 77 25 80 26 78 27 79 28 8 29 9 30 10 31 11 32
REMARK SMILES IDX 12 33 13 34 14 35 15 36 61 37 16 38 60 39 17 40 18 41 19 42
REMARK SMILES IDX 54 43 20 44 59 45 53 46 55 47 21 48 58 49 52 50 51 51 22 53
REMARK SMILES IDX 44 54 29 55 43 56 30 57 33 58 42 59 56 60 31 61 32 62 41 64
REMARK SMILES IDX 57 65 34 66 23 67 24 68 28 69 25 70 27 71 26 72 45 73 46 74
REMARK SMILES IDX 50 75 47 76 49 77 48 78 35 79 36 80 40 81 37 82 39 83 38 84
REMARK H PARENT 55 52 33 63
REMARK Flexibility Score: inf
ROOT
ATOM      1  C   UNL A   1      50.876  25.167  33.678  1.00  0.00     0.202 C 
ENDROOT
BRANCH   1   2
ATOM      2  C   UNL A   1      49.829  24.534  32.749  1.00  0.00     0.261 C 
BRANCH   2   3
ATOM      3  O   UNL A   1      48.583  25.260  32.754  1.00  0.00    -0.463 OA
BRANCH   3   4
ATOM      4  C   UNL A   1      48.257  25.893  31.590  1.00  0.00     0.313 C 
ATOM      5  O   UNL A   1      49.031  26.061  30.654  1.00  0.00    -0.252 OA
BRANCH   4   6
ATOM      6  C   UNL A   1      46.804  26.348  31.542  1.00  0.00     0.126 C 
ATOM      7  C   UNL A   1      46.657  27.805  31.076  1.00  0.00     0.025 C 
BRANCH   6   8
ATOM      8  C   UNL A   1      45.830  25.446  30.808  1.00  0.00    -0.032 A 
ATOM      9  C   UNL A   1      44.935  24.562  31.415  1.00  0.00     0.005 A 
ATOM     10  C   UNL A   1      45.855  25.527  29.407  1.00  0.00     0.032 A 
ATOM     11  C   UNL A   1      44.025  23.821  30.643  1.00  0.00     0.011 A 
ATOM     12  C   UNL A   1      45.051  24.677  28.648  1.00  0.00     0.058 A 
ATOM     13  C   UNL A   1      44.069  23.901  29.235  1.00  0.00     0.008 A 
ATOM     14  N   UNL A   1      45.068  24.434  27.275  1.00  0.00    -0.274 N 
ATOM     15  C   UNL A   1      43.282  23.385  28.171  1.00  0.00     0.009 A 
ATOM     16  C   UNL A   1      43.935  23.679  26.960  1.00  0.00     0.057 A 
ATOM     17  C   UNL A   1      42.068  22.670  28.155  1.00  0.00     0.031 A 
ATOM     18  C   UNL A   1      43.462  23.145  25.746  1.00  0.00     0.029 A 
ATOM     19  C   UNL A   1      41.559  22.218  26.942  1.00  0.00     0.041 A 
ATOM     20  C   UNL A   1      42.259  22.425  25.760  1.00  0.00     0.023 A 
ATOM     21  Cl  UNL A   1      40.057  21.378  26.918  1.00  0.00    -0.084 Cl
BRANCH  14  22
ATOM     22  C   UNL A   1      46.148  24.847  26.451  1.00  0.00     0.284 C 
ATOM     23  O   UNL A   1      47.144  24.124  26.495  1.00  0.00    -0.266 OA
BRANCH  22  24
ATOM     24  C   UNL A   1      46.193  26.061  25.648  1.00  0.00     0.167 A 
ATOM     25  C   UNL A   1      45.515  27.249  25.812  1.00  0.00     0.231 A 
ATOM     26  N   UNL A   1      47.129  26.226  24.634  1.00  0.00    -0.211 NA
ATOM     27  O   UNL A   1      46.009  28.154  24.917  1.00  0.00    -0.451 OA
ATOM     28  C   UNL A   1      46.984  27.473  24.257  1.00  0.00     0.308 A 
ENDBRANCH  22  24
ENDBRANCH  14  22
ENDBRANCH   6   8
ENDBRANCH   4   6
ENDBRANCH   3   4
ENDBRANCH   2   3
ENDBRANCH   1   2
BRANCH   1  29
ATOM     29  O   UNL A   1      50.414  25.901  34.817  1.00  0.00    -0.374 OA
BRANCH  29  30
ATOM     30  C   UNL A   1      49.957  25.129  35.923  1.00  0.00     0.202 C 
BRANCH  30  31
ATOM     31  C   UNL A   1      48.691  25.578  36.660  1.00  0.00     0.261 C 
BRANCH  31  32
ATOM     32  O   UNL A   1      47.772  26.258  35.800  1.00  0.00    -0.460 OA
BRANCH  32  33
ATOM     33  C   UNL A   1      46.661  25.539  35.537  1.00  0.00     0.338 C 
ATOM     34  O   UNL A   1      46.510  24.328  35.662  1.00  0.00    -0.246 OA
BRANCH  33  35
ATOM     35  C   UNL A   1      45.539  26.433  35.226  1.00  0.00     0.060 A 
ATOM     36  C   UNL A   1      44.261  25.864  35.242  1.00  0.00     0.016 A 
ATOM     37  C   UNL A   1      45.731  27.765  34.849  1.00  0.00     0.016 A 
ATOM     38  C   UNL A   1      43.173  26.596  34.791  1.00  0.00     0.010 A 
ATOM     39  C   UNL A   1      44.635  28.501  34.392  1.00  0.00     0.010 A 
ATOM     40  C   UNL A   1      43.366  27.897  34.310  1.00  0.00    -0.014 A 
BRANCH  40  41
ATOM     41  C   UNL A   1      42.271  28.541  33.555  1.00  0.00     0.031 A 
ATOM     42  C   UNL A   1      41.405  29.550  34.258  1.00  0.00     0.074 A 
ATOM     43  C   UNL A   1      42.105  28.285  32.246  1.00  0.00     0.049 A 
ATOM     44  N   UNL A   1      40.405  30.251  33.792  1.00  0.00    -0.248 NA
ATOM     45  C   UNL A   1      41.710  29.805  35.677  1.00  0.00     0.031 C 
ATOM     46  C   UNL A   1      42.924  27.367  31.455  1.00  0.00     0.029 A 
ATOM     47  N   UNL A   1      41.193  28.783  31.354  1.00  0.00    -0.354 N 
ATOM     48  C   UNL A   1      39.959  31.024  34.858  1.00  0.00     0.074 A 
ATOM     49  C   UNL A   1      40.772  30.680  36.003  1.00  0.00     0.031 C 
ATOM     50  C   UNL A   1      42.476  27.368  30.189  1.00  0.00     0.029 A 
ATOM     51  C   UNL A   1      41.321  28.257  30.094  1.00  0.00     0.049 A 
ATOM     52  H   UNL A   1      40.514  29.454  31.593  1.00  0.00     0.167 HD
ATOM     53  C   UNL A   1      38.966  31.943  34.877  1.00  0.00     0.031 A 
ATOM     54  C   UNL A   1      40.573  28.459  28.992  1.00  0.00     0.031 A 
ATOM     55  C   UNL A   1      38.153  32.266  33.736  1.00  0.00     0.049 A 
ATOM     56  C   UNL A   1      39.422  29.425  29.059  1.00  0.00     0.074 A 
ATOM     57  C   UNL A   1      37.121  33.183  33.643  1.00  0.00     0.029 A 
ATOM     58  N   UNL A   1      38.278  31.675  32.488  1.00  0.00    -0.354 N 
ATOM     59  N   UNL A   1      39.018  30.161  30.068  1.00  0.00    -0.248 NA
ATOM     60  C   UNL A   1      38.631  29.596  27.834  1.00  0.00     0.031 C 
ATOM     61  C   UNL A   1      36.583  33.102  32.355  1.00  0.00     0.029 A 
ATOM     62  C   UNL A   1      37.323  32.185  31.626  1.00  0.00     0.049 A 
ATOM     63  H   UNL A   1      38.948  30.993  32.251  1.00  0.00     0.167 HD
ATOM     64  C   UNL A   1      37.944  30.901  29.592  1.00  0.00     0.074 A 
ATOM     65  C   UNL A   1      37.772  30.537  28.200  1.00  0.00     0.031 C 
ATOM     66  C   UNL A   1      37.169  31.802  30.245  1.00  0.00     0.031 A 
BRANCH  53  67
ATOM     67  C   UNL A   1      38.682  32.629  36.186  1.00  0.00    -0.014 A 
ATOM     68  C   UNL A   1      39.249  33.875  36.499  1.00  0.00     0.009 A 
ATOM     69  C   UNL A   1      37.816  32.027  37.113  1.00  0.00     0.009 A 
ATOM     70  C   UNL A   1      38.984  34.485  37.727  1.00  0.00     0.001 A 
ATOM     71  C   UNL A   1      37.529  32.654  38.326  1.00  0.00     0.001 A 
ATOM     72  C   UNL A   1      38.121  33.876  38.638  1.00  0.00     0.000 A 
ENDBRANCH  53  67
BRANCH  54  73
ATOM     73  C   UNL A   1      40.878  27.712  27.743  1.00  0.00    -0.014 A 
ATOM     74  C   UNL A   1      40.384  26.415  27.540  1.00  0.00     0.009 A 
ATOM     75  C   UNL A   1      41.672  28.300  26.745  1.00  0.00     0.009 A 
ATOM     76  C   UNL A   1      40.699  25.714  26.373  1.00  0.00     0.001 A 
ATOM     77  C   UNL A   1      41.959  27.609  25.567  1.00  0.00     0.001 A 
ATOM     78  C   UNL A   1      41.481  26.313  25.385  1.00  0.00     0.000 A 
ENDBRANCH  54  73
BRANCH  66  79
ATOM     79  C   UNL A   1      36.088  32.480  29.450  1.00  0.00    -0.014 A 
ATOM     80  C   UNL A   1      34.890  31.821  29.134  1.00  0.00     0.009 A 
ATOM     81  C   UNL A   1      36.258  33.814  29.048  1.00  0.00     0.009 A 
ATOM     82  C   UNL A   1      33.900  32.474  28.398  1.00  0.00     0.001 A 
ATOM     83  C   UNL A   1      35.252  34.475  28.341  1.00  0.00     0.001 A 
ATOM     84  C   UNL A   1      34.080  33.801  28.008  1.00  0.00     0.000 A 
ENDBRANCH  66  79
ENDBRANCH  40  41
ENDBRANCH  33  35
ENDBRANCH  32  33
ENDBRANCH  31  32
ENDBRANCH  30  31
ENDBRANCH  29  30
ENDBRANCH   1  29
TORSDOF 17
ENDMDL
