MODEL 1
REMARK VINA RESULT:      -8.4      0.000      0.000
REMARK SMILES CCc1cc(C)c2c(c1)C=C(C(=O)OCCOCCOC(=O)c1ccc(-c3c4nc(c(-c5ccccc5)c5ccc([nH]5)c(-c5ccccc5)c5nc(c(-c6ccccc6)c6ccc3[nH]6)C=C5)C=C4)cc1)[C@@H](C(F)(F)F)O2
REMARK SMILES IDX 18 1 17 2 16 3 15 4 14 5 12 6 13 7 11 8 3 9 4 10 9 11 5 12
REMARK SMILES IDX 8 13 6 14 7 15 10 16 76 17 71 18 2 19 1 20 72 21 73 22 74 23
REMARK SMILES IDX 75 24 19 25 20 26 21 27 22 28 23 29 24 30 70 31 25 32 69 33
REMARK SMILES IDX 26 34 27 35 28 36 63 37 29 38 68 39 62 40 64 41 30 42 67 43
REMARK SMILES IDX 61 44 60 45 31 47 53 48 38 49 52 50 39 51 42 52 51 53 65 54
REMARK SMILES IDX 40 55 41 56 50 58 66 59 43 60 32 61 33 62 37 63 34 64 36 65
REMARK SMILES IDX 35 66 54 67 55 68 59 69 56 70 58 71 57 72 44 73 45 74 49 75
REMARK SMILES IDX 46 76 48 77 47 78
REMARK H PARENT 64 46 42 57
REMARK Flexibility Score: inf
ROOT
ATOM      1  C   UNL A   1      45.521  19.524  24.761  1.00  0.00     0.202 C 
ENDROOT
BRANCH   1   2
ATOM      2  O   UNL A   1      45.866  20.828  24.284  1.00  0.00    -0.374 OA
BRANCH   2   3
ATOM      3  C   UNL A   1      46.025  21.864  25.248  1.00  0.00     0.202 C 
BRANCH   3   4
ATOM      4  C   UNL A   1      46.318  23.263  24.701  1.00  0.00     0.261 C 
BRANCH   4   5
ATOM      5  O   UNL A   1      46.171  24.270  25.713  1.00  0.00    -0.460 OA
BRANCH   5   6
ATOM      6  C   UNL A   1      45.443  25.344  25.327  1.00  0.00     0.338 C 
ATOM      7  O   UNL A   1      44.452  25.337  24.613  1.00  0.00    -0.246 OA
BRANCH   6   8
ATOM      8  C   UNL A   1      45.943  26.559  25.992  1.00  0.00     0.087 C 
ATOM      9  C   UNL A   1      44.972  31.100  27.262  1.00  0.00    -0.047 A 
ATOM     10  C   UNL A   1      46.338  31.297  27.527  1.00  0.00     0.011 A 
ATOM     11  C   UNL A   1      44.553  29.823  26.875  1.00  0.00     0.015 A 
ATOM     12  C   UNL A   1      47.269  30.247  27.423  1.00  0.00    -0.008 A 
ATOM     13  C   UNL A   1      45.472  28.774  26.746  1.00  0.00     0.018 A 
ATOM     14  C   UNL A   1      48.725  30.508  27.683  1.00  0.00     0.048 C 
ATOM     15  C   UNL A   1      46.822  28.976  27.035  1.00  0.00     0.130 A 
ATOM     16  C   UNL A   1      45.020  27.497  26.230  1.00  0.00     0.027 C 
ATOM     17  O   UNL A   1      47.754  27.977  26.962  1.00  0.00    -0.475 OA
ATOM     18  C   UNL A   1      47.399  26.717  26.322  1.00  0.00     0.316 C 
BRANCH   9  19
ATOM     19  C   UNL A   1      44.038  32.286  27.345  1.00  0.00     0.032 C 
ATOM     20  C   UNL A   1      44.079  33.275  26.186  1.00  0.00     0.009 C 
ENDBRANCH   9  19
BRANCH  18  21
ATOM     21  C   UNL A   1      48.306  26.523  25.098  1.00  0.00     0.430 C 
ATOM     22  F   UNL A   1      49.192  27.541  24.978  1.00  0.00    -0.167 F 
ATOM     23  F   UNL A   1      49.037  25.386  25.194  1.00  0.00    -0.167 F 
ATOM     24  F   UNL A   1      47.603  26.456  23.946  1.00  0.00    -0.167 F 
ENDBRANCH  18  21
ENDBRANCH   6   8
ENDBRANCH   5   6
ENDBRANCH   4   5
ENDBRANCH   3   4
ENDBRANCH   2   3
ENDBRANCH   1   2
BRANCH   1  25
ATOM     25  C   UNL A   1      44.047  19.118  24.650  1.00  0.00     0.261 C 
BRANCH  25  26
ATOM     26  O   UNL A   1      43.386  19.174  25.930  1.00  0.00    -0.460 OA
BRANCH  26  27
ATOM     27  C   UNL A   1      42.103  19.600  25.890  1.00  0.00     0.338 C 
ATOM     28  O   UNL A   1      41.113  18.962  25.561  1.00  0.00    -0.246 OA
BRANCH  27  29
ATOM     29  C   UNL A   1      42.004  20.945  26.473  1.00  0.00     0.060 A 
ATOM     30  C   UNL A   1      42.382  22.037  25.678  1.00  0.00     0.016 A 
ATOM     31  C   UNL A   1      41.682  21.118  27.820  1.00  0.00     0.016 A 
ATOM     32  C   UNL A   1      42.487  23.304  26.244  1.00  0.00     0.010 A 
ATOM     33  C   UNL A   1      41.812  22.386  28.391  1.00  0.00     0.010 A 
ATOM     34  C   UNL A   1      42.255  23.472  27.615  1.00  0.00    -0.014 A 
BRANCH  34  35
ATOM     35  C   UNL A   1      42.664  24.732  28.274  1.00  0.00     0.031 A 
ATOM     36  C   UNL A   1      41.644  25.827  28.429  1.00  0.00     0.074 A 
ATOM     37  C   UNL A   1      43.909  24.892  28.751  1.00  0.00     0.049 A 
ATOM     38  N   UNL A   1      41.796  27.033  28.910  1.00  0.00    -0.248 NA
ATOM     39  C   UNL A   1      40.271  25.517  27.992  1.00  0.00     0.031 C 
ATOM     40  C   UNL A   1      44.960  23.878  28.732  1.00  0.00     0.029 A 
ATOM     41  N   UNL A   1      44.494  25.980  29.346  1.00  0.00    -0.354 N 
ATOM     42  C   UNL A   1      40.541  27.625  28.835  1.00  0.00     0.074 A 
ATOM     43  C   UNL A   1      39.642  26.655  28.252  1.00  0.00     0.031 C 
ATOM     44  C   UNL A   1      46.070  24.396  29.287  1.00  0.00     0.029 A 
ATOM     45  C   UNL A   1      45.815  25.785  29.664  1.00  0.00     0.049 A 
ATOM     46  H   UNL A   1      44.013  26.820  29.529  1.00  0.00     0.167 HD
ATOM     47  C   UNL A   1      40.172  28.867  29.220  1.00  0.00     0.031 A 
ATOM     48  C   UNL A   1      46.720  26.640  30.177  1.00  0.00     0.031 A 
ATOM     49  C   UNL A   1      41.067  29.843  29.779  1.00  0.00     0.049 A 
ATOM     50  C   UNL A   1      46.315  28.055  30.484  1.00  0.00     0.074 A 
ATOM     51  C   UNL A   1      40.786  31.134  30.185  1.00  0.00     0.029 A 
ATOM     52  N   UNL A   1      42.417  29.633  30.003  1.00  0.00    -0.354 N 
ATOM     53  N   UNL A   1      45.134  28.615  30.382  1.00  0.00    -0.248 NA
ATOM     54  C   UNL A   1      47.371  28.959  30.964  1.00  0.00     0.031 C 
ATOM     55  C   UNL A   1      41.979  31.723  30.615  1.00  0.00     0.029 A 
ATOM     56  C   UNL A   1      42.990  30.781  30.517  1.00  0.00     0.049 A 
ATOM     57  H   UNL A   1      42.897  28.792  29.823  1.00  0.00     0.167 HD
ATOM     58  C   UNL A   1      45.301  29.932  30.789  1.00  0.00     0.074 A 
ATOM     59  C   UNL A   1      46.696  30.086  31.154  1.00  0.00     0.031 C 
ATOM     60  C   UNL A   1      44.381  30.924  30.856  1.00  0.00     0.031 A 
BRANCH  47  61
ATOM     61  C   UNL A   1      38.739  29.258  29.024  1.00  0.00    -0.014 A 
ATOM     62  C   UNL A   1      38.259  29.623  27.758  1.00  0.00     0.009 A 
ATOM     63  C   UNL A   1      37.845  29.197  30.104  1.00  0.00     0.009 A 
ATOM     64  C   UNL A   1      36.908  29.930  27.579  1.00  0.00     0.001 A 
ATOM     65  C   UNL A   1      36.493  29.489  29.920  1.00  0.00     0.001 A 
ATOM     66  C   UNL A   1      36.026  29.857  28.658  1.00  0.00     0.000 A 
ENDBRANCH  47  61
BRANCH  48  67
ATOM     67  C   UNL A   1      48.113  26.183  30.400  1.00  0.00    -0.014 A 
ATOM     68  C   UNL A   1      49.008  26.082  29.325  1.00  0.00     0.009 A 
ATOM     69  C   UNL A   1      48.560  25.871  31.693  1.00  0.00     0.009 A 
ATOM     70  C   UNL A   1      50.326  25.674  29.543  1.00  0.00     0.001 A 
ATOM     71  C   UNL A   1      49.884  25.481  31.909  1.00  0.00     0.001 A 
ATOM     72  C   UNL A   1      50.765  25.381  30.834  1.00  0.00     0.000 A 
ENDBRANCH  48  67
BRANCH  60  73
ATOM     73  C   UNL A   1      44.840  32.270  31.332  1.00  0.00    -0.014 A 
ATOM     74  C   UNL A   1      44.866  32.576  32.700  1.00  0.00     0.009 A 
ATOM     75  C   UNL A   1      45.338  33.205  30.411  1.00  0.00     0.009 A 
ATOM     76  C   UNL A   1      45.376  33.800  33.137  1.00  0.00     0.001 A 
ATOM     77  C   UNL A   1      45.866  34.419  30.852  1.00  0.00     0.001 A 
ATOM     78  C   UNL A   1      45.880  34.717  32.214  1.00  0.00     0.000 A 
ENDBRANCH  60  73
ENDBRANCH  34  35
ENDBRANCH  27  29
ENDBRANCH  26  27
ENDBRANCH  25  26
ENDBRANCH   1  25
TORSDOF 16
ENDMDL
MODEL 2
REMARK VINA RESULT:      -8.2      6.675     11.629
REMARK SMILES CCc1cc(C)c2c(c1)C=C(C(=O)OCCOCCOC(=O)c1ccc(-c3c4nc(c(-c5ccccc5)c5ccc([nH]5)c(-c5ccccc5)c5nc(c(-c6ccccc6)c6ccc3[nH]6)C=C5)C=C4)cc1)[C@@H](C(F)(F)F)O2
REMARK SMILES IDX 18 1 17 2 16 3 15 4 14 5 12 6 13 7 11 8 3 9 4 10 9 11 5 12
REMARK SMILES IDX 8 13 6 14 7 15 10 16 76 17 71 18 2 19 1 20 72 21 73 22 74 23
REMARK SMILES IDX 75 24 19 25 20 26 21 27 22 28 23 29 24 30 70 31 25 32 69 33
REMARK SMILES IDX 26 34 27 35 28 36 63 37 29 38 68 39 62 40 64 41 30 42 67 43
REMARK SMILES IDX 61 44 60 45 31 47 53 48 38 49 52 50 39 51 42 52 51 53 65 54
REMARK SMILES IDX 40 55 41 56 50 58 66 59 43 60 32 61 33 62 37 63 34 64 36 65
REMARK SMILES IDX 35 66 54 67 55 68 59 69 56 70 58 71 57 72 44 73 45 74 49 75
REMARK SMILES IDX 46 76 48 77 47 78
REMARK H PARENT 64 46 42 57
REMARK Flexibility Score: inf
ROOT
ATOM      1  C   UNL A   1      31.598  28.592  25.559  1.00  0.00     0.202 C 
ENDROOT
BRANCH   1   2
ATOM      2  O   UNL A   1      30.848  28.226  24.397  1.00  0.00    -0.374 OA
BRANCH   2   3
ATOM      3  C   UNL A   1      31.542  28.164  23.154  1.00  0.00     0.202 C 
BRANCH   3   4
ATOM      4  C   UNL A   1      31.024  27.147  22.136  1.00  0.00     0.261 C 
BRANCH   4   5
ATOM      5  O   UNL A   1      31.456  25.814  22.449  1.00  0.00    -0.460 OA
BRANCH   5   6
ATOM      6  C   UNL A   1      32.634  25.464  21.880  1.00  0.00     0.338 C 
ATOM      7  O   UNL A   1      33.182  26.012  20.936  1.00  0.00    -0.246 OA
BRANCH   6   8
ATOM      8  C   UNL A   1      33.256  24.368  22.642  1.00  0.00     0.087 C 
ATOM      9  C   UNL A   1      32.915  19.766  24.014  1.00  0.00    -0.047 A 
ATOM     10  C   UNL A   1      33.917  19.998  24.971  1.00  0.00     0.011 A 
ATOM     11  C   UNL A   1      32.569  20.814  23.155  1.00  0.00     0.015 A 
ATOM     12  C   UNL A   1      34.570  21.240  25.070  1.00  0.00    -0.008 A 
ATOM     13  C   UNL A   1      33.196  22.062  23.255  1.00  0.00     0.018 A 
ATOM     14  C   UNL A   1      35.612  21.457  26.130  1.00  0.00     0.048 C 
ATOM     15  C   UNL A   1      34.205  22.273  24.195  1.00  0.00     0.130 A 
ATOM     16  C   UNL A   1      32.729  23.158  22.428  1.00  0.00     0.027 C 
ATOM     17  O   UNL A   1      34.877  23.461  24.310  1.00  0.00    -0.475 OA
ATOM     18  C   UNL A   1      34.369  24.635  23.613  1.00  0.00     0.316 C 
BRANCH   9  19
ATOM     19  C   UNL A   1      32.220  18.424  24.000  1.00  0.00     0.032 C 
ATOM     20  C   UNL A   1      32.533  17.476  25.154  1.00  0.00     0.009 C 
ENDBRANCH   9  19
BRANCH  18  21
ATOM     21  C   UNL A   1      33.997  25.695  24.659  1.00  0.00     0.430 C 
ATOM     22  F   UNL A   1      32.719  25.540  25.082  1.00  0.00    -0.167 F 
ATOM     23  F   UNL A   1      34.779  25.605  25.762  1.00  0.00    -0.167 F 
ATOM     24  F   UNL A   1      34.118  26.953  24.180  1.00  0.00    -0.167 F 
ENDBRANCH  18  21
ENDBRANCH   6   8
ENDBRANCH   5   6
ENDBRANCH   4   5
ENDBRANCH   3   4
ENDBRANCH   2   3
ENDBRANCH   1   2
BRANCH   1  25
ATOM     25  C   UNL A   1      31.807  30.091  25.799  1.00  0.00     0.261 C 
BRANCH  25  26
ATOM     26  O   UNL A   1      32.306  30.349  27.126  1.00  0.00    -0.460 OA
BRANCH  26  27
ATOM     27  C   UNL A   1      33.024  31.488  27.254  1.00  0.00     0.338 C 
ATOM     28  O   UNL A   1      32.615  32.639  27.208  1.00  0.00    -0.246 OA
BRANCH  27  29
ATOM     29  C   UNL A   1      34.406  31.167  27.635  1.00  0.00     0.060 A 
ATOM     30  C   UNL A   1      34.749  29.817  27.798  1.00  0.00     0.016 A 
ATOM     31  C   UNL A   1      35.309  32.179  27.966  1.00  0.00     0.016 A 
ATOM     32  C   UNL A   1      35.984  29.474  28.340  1.00  0.00     0.010 A 
ATOM     33  C   UNL A   1      36.538  31.834  28.533  1.00  0.00     0.010 A 
ATOM     34  C   UNL A   1      36.861  30.483  28.760  1.00  0.00    -0.014 A 
BRANCH  34  35
ATOM     35  C   UNL A   1      38.019  30.136  29.611  1.00  0.00     0.031 A 
ATOM     36  C   UNL A   1      39.083  29.235  29.046  1.00  0.00     0.074 A 
ATOM     37  C   UNL A   1      38.140  30.631  30.854  1.00  0.00     0.049 A 
ATOM     38  N   UNL A   1      40.145  28.745  29.630  1.00  0.00    -0.248 NA
ATOM     39  C   UNL A   1      38.933  28.842  27.633  1.00  0.00     0.031 C 
ATOM     40  C   UNL A   1      37.219  31.573  31.484  1.00  0.00     0.029 A 
ATOM     41  N   UNL A   1      39.098  30.401  31.807  1.00  0.00    -0.354 N 
ATOM     42  C   UNL A   1      40.790  27.989  28.659  1.00  0.00     0.074 A 
ATOM     43  C   UNL A   1      39.997  28.071  27.453  1.00  0.00     0.031 C 
ATOM     44  C   UNL A   1      37.655  31.838  32.728  1.00  0.00     0.029 A 
ATOM     45  C   UNL A   1      38.862  31.056  32.990  1.00  0.00     0.049 A 
ATOM     46  H   UNL A   1      39.881  29.822  31.658  1.00  0.00     0.167 HD
ATOM     47  C   UNL A   1      41.941  27.289  28.764  1.00  0.00     0.031 A 
ATOM     48  C   UNL A   1      39.530  31.008  34.158  1.00  0.00     0.031 A 
ATOM     49  C   UNL A   1      42.721  27.185  29.966  1.00  0.00     0.049 A 
ATOM     50  C   UNL A   1      40.741  30.126  34.286  1.00  0.00     0.074 A 
ATOM     51  C   UNL A   1      43.896  26.485  30.172  1.00  0.00     0.029 A 
ATOM     52  N   UNL A   1      42.398  27.794  31.167  1.00  0.00    -0.354 N 
ATOM     53  N   UNL A   1      41.326  29.392  33.372  1.00  0.00    -0.248 NA
ATOM     54  C   UNL A   1      41.375  30.056  35.611  1.00  0.00     0.031 C 
ATOM     55  C   UNL A   1      44.261  26.635  31.513  1.00  0.00     0.029 A 
ATOM     56  C   UNL A   1      43.337  27.464  32.126  1.00  0.00     0.049 A 
ATOM     57  H   UNL A   1      41.617  28.375  31.314  1.00  0.00     0.167 HD
ATOM     58  C   UNL A   1      42.398  28.778  34.006  1.00  0.00     0.074 A 
ATOM     59  C   UNL A   1      42.392  29.236  35.381  1.00  0.00     0.031 C 
ATOM     60  C   UNL A   1      43.306  27.913  33.494  1.00  0.00     0.031 A 
BRANCH  47  61
ATOM     61  C   UNL A   1      42.420  26.552  27.549  1.00  0.00    -0.014 A 
ATOM     62  C   UNL A   1      42.000  25.238  27.293  1.00  0.00     0.009 A 
ATOM     63  C   UNL A   1      43.245  27.201  26.619  1.00  0.00     0.009 A 
ATOM     64  C   UNL A   1      42.409  24.583  26.129  1.00  0.00     0.001 A 
ATOM     65  C   UNL A   1      43.638  26.551  25.449  1.00  0.00     0.001 A 
ATOM     66  C   UNL A   1      43.222  25.242  25.206  1.00  0.00     0.000 A 
ENDBRANCH  47  61
BRANCH  48  67
ATOM     67  C   UNL A   1      39.041  31.801  35.312  1.00  0.00    -0.014 A 
ATOM     68  C   UNL A   1      39.422  33.143  35.463  1.00  0.00     0.009 A 
ATOM     69  C   UNL A   1      38.171  31.227  36.252  1.00  0.00     0.009 A 
ATOM     70  C   UNL A   1      38.940  33.893  36.539  1.00  0.00     0.001 A 
ATOM     71  C   UNL A   1      37.678  31.987  37.316  1.00  0.00     0.001 A 
ATOM     72  C   UNL A   1      38.064  33.318  37.459  1.00  0.00     0.000 A 
ENDBRANCH  48  67
BRANCH  60  73
ATOM     73  C   UNL A   1      44.369  27.392  34.414  1.00  0.00    -0.014 A 
ATOM     74  C   UNL A   1      45.555  28.111  34.619  1.00  0.00     0.009 A 
ATOM     75  C   UNL A   1      44.143  26.220  35.152  1.00  0.00     0.009 A 
ATOM     76  C   UNL A   1      46.500  27.661  35.543  1.00  0.00     0.001 A 
ATOM     77  C   UNL A   1      45.080  25.783  36.089  1.00  0.00     0.001 A 
ATOM     78  C   UNL A   1      46.259  26.501  36.281  1.00  0.00     0.000 A 
ENDBRANCH  60  73
ENDBRANCH  34  35
ENDBRANCH  27  29
ENDBRANCH  26  27
ENDBRANCH  25  26
ENDBRANCH   1  25
TORSDOF 16
ENDMDL
MODEL 3
REMARK VINA RESULT:      -8.1      5.442      8.619
REMARK SMILES CCc1cc(C)c2c(c1)C=C(C(=O)OCCOCCOC(=O)c1ccc(-c3c4nc(c(-c5ccccc5)c5ccc([nH]5)c(-c5ccccc5)c5nc(c(-c6ccccc6)c6ccc3[nH]6)C=C5)C=C4)cc1)[C@@H](C(F)(F)F)O2
REMARK SMILES IDX 18 1 17 2 16 3 15 4 14 5 12 6 13 7 11 8 3 9 4 10 9 11 5 12
REMARK SMILES IDX 8 13 6 14 7 15 10 16 76 17 71 18 2 19 1 20 72 21 73 22 74 23
REMARK SMILES IDX 75 24 19 25 20 26 21 27 22 28 23 29 24 30 70 31 25 32 69 33
REMARK SMILES IDX 26 34 27 35 28 36 63 37 29 38 68 39 62 40 64 41 30 42 67 43
REMARK SMILES IDX 61 44 60 45 31 47 53 48 38 49 52 50 39 51 42 52 51 53 65 54
REMARK SMILES IDX 40 55 41 56 50 58 66 59 43 60 32 61 33 62 37 63 34 64 36 65
REMARK SMILES IDX 35 66 54 67 55 68 59 69 56 70 58 71 57 72 44 73 45 74 49 75
REMARK SMILES IDX 46 76 48 77 47 78
REMARK H PARENT 64 46 42 57
REMARK Flexibility Score: inf
ROOT
ATOM      1  C   UNL A   1      35.765  21.235  25.511  1.00  0.00     0.202 C 
ENDROOT
BRANCH   1   2
ATOM      2  O   UNL A   1      34.577  21.001  24.748  1.00  0.00    -0.374 OA
BRANCH   2   3
ATOM      3  C   UNL A   1      33.337  20.976  25.447  1.00  0.00     0.202 C 
BRANCH   3   4
ATOM      4  C   UNL A   1      32.278  21.981  24.989  1.00  0.00     0.261 C 
BRANCH   4   5
ATOM      5  O   UNL A   1      32.741  23.334  25.112  1.00  0.00    -0.460 OA
BRANCH   5   6
ATOM      6  C   UNL A   1      32.947  23.961  23.930  1.00  0.00     0.338 C 
ATOM      7  O   UNL A   1      33.215  23.435  22.860  1.00  0.00    -0.246 OA
BRANCH   6   8
ATOM      8  C   UNL A   1      32.684  25.403  24.071  1.00  0.00     0.087 C 
ATOM      9  C   UNL A   1      33.742  29.435  26.479  1.00  0.00    -0.047 A 
ATOM     10  C   UNL A   1      32.609  30.045  25.915  1.00  0.00     0.011 A 
ATOM     11  C   UNL A   1      34.055  28.131  26.081  1.00  0.00     0.015 A 
ATOM     12  C   UNL A   1      31.809  29.382  24.967  1.00  0.00    -0.008 A 
ATOM     13  C   UNL A   1      33.255  27.451  25.155  1.00  0.00     0.018 A 
ATOM     14  C   UNL A   1      30.587  30.059  24.413  1.00  0.00     0.048 C 
ATOM     15  C   UNL A   1      32.146  28.077  24.584  1.00  0.00     0.130 A 
ATOM     16  C   UNL A   1      33.543  26.062  24.856  1.00  0.00     0.027 C 
ATOM     17  O   UNL A   1      31.354  27.472  23.645  1.00  0.00    -0.475 OA
ATOM     18  C   UNL A   1      31.502  26.043  23.405  1.00  0.00     0.316 C 
BRANCH   9  19
ATOM     19  C   UNL A   1      34.525  30.188  27.531  1.00  0.00     0.032 C 
ATOM     20  C   UNL A   1      35.717  29.465  28.148  1.00  0.00     0.009 C 
ENDBRANCH   9  19
BRANCH  18  21
ATOM     21  C   UNL A   1      30.177  25.353  23.764  1.00  0.00     0.430 C 
ATOM     22  F   UNL A   1      30.028  24.192  23.080  1.00  0.00    -0.167 F 
ATOM     23  F   UNL A   1      30.122  25.033  25.079  1.00  0.00    -0.167 F 
ATOM     24  F   UNL A   1      29.105  26.128  23.490  1.00  0.00    -0.167 F 
ENDBRANCH  18  21
ENDBRANCH   6   8
ENDBRANCH   5   6
ENDBRANCH   4   5
ENDBRANCH   3   4
ENDBRANCH   2   3
ENDBRANCH   1   2
BRANCH   1  25
ATOM     25  C   UNL A   1      37.045  20.550  25.019  1.00  0.00     0.261 C 
BRANCH  25  26
ATOM     26  O   UNL A   1      38.162  21.461  25.013  1.00  0.00    -0.460 OA
BRANCH  26  27
ATOM     27  C   UNL A   1      39.128  21.184  25.918  1.00  0.00     0.338 C 
ATOM     28  O   UNL A   1      39.693  20.117  26.107  1.00  0.00    -0.246 OA
BRANCH  27  29
ATOM     29  C   UNL A   1      39.560  22.422  26.582  1.00  0.00     0.060 A 
ATOM     30  C   UNL A   1      39.005  23.633  26.145  1.00  0.00     0.016 A 
ATOM     31  C   UNL A   1      40.596  22.406  27.518  1.00  0.00     0.016 A 
ATOM     32  C   UNL A   1      39.520  24.840  26.608  1.00  0.00     0.010 A 
ATOM     33  C   UNL A   1      41.127  23.619  27.963  1.00  0.00     0.010 A 
ATOM     34  C   UNL A   1      40.619  24.837  27.476  1.00  0.00    -0.014 A 
BRANCH  34  35
ATOM     35  C   UNL A   1      41.359  26.094  27.720  1.00  0.00     0.031 A 
ATOM     36  C   UNL A   1      40.722  27.149  28.582  1.00  0.00     0.074 A 
ATOM     37  C   UNL A   1      42.586  26.287  27.209  1.00  0.00     0.049 A 
ATOM     38  N   UNL A   1      41.153  28.349  28.873  1.00  0.00    -0.248 NA
ATOM     39  C   UNL A   1      39.432  26.802  29.205  1.00  0.00     0.031 C 
ATOM     40  C   UNL A   1      43.340  25.311  26.426  1.00  0.00     0.029 A 
ATOM     41  N   UNL A   1      43.410  27.380  27.278  1.00  0.00    -0.354 N 
ATOM     42  C   UNL A   1      40.191  28.898  29.711  1.00  0.00     0.074 A 
ATOM     43  C   UNL A   1      39.147  27.912  29.873  1.00  0.00     0.031 C 
ATOM     44  C   UNL A   1      44.520  25.855  26.079  1.00  0.00     0.029 A 
ATOM     45  C   UNL A   1      44.585  27.224  26.584  1.00  0.00     0.049 A 
ATOM     46  H   UNL A   1      43.183  28.198  27.776  1.00  0.00     0.167 HD
ATOM     47  C   UNL A   1      40.180  30.118  30.294  1.00  0.00     0.031 A 
ATOM     48  C   UNL A   1      45.585  28.098  26.363  1.00  0.00     0.031 A 
ATOM     49  C   UNL A   1      41.204  31.111  30.118  1.00  0.00     0.049 A 
ATOM     50  C   UNL A   1      45.493  29.491  26.922  1.00  0.00     0.074 A 
ATOM     51  C   UNL A   1      41.271  32.382  30.658  1.00  0.00     0.029 A 
ATOM     52  N   UNL A   1      42.334  30.943  29.337  1.00  0.00    -0.354 N 
ATOM     53  N   UNL A   1      44.566  30.011  27.688  1.00  0.00    -0.248 NA
ATOM     54  C   UNL A   1      46.579  30.420  26.574  1.00  0.00     0.031 C 
ATOM     55  C   UNL A   1      42.423  33.002  30.166  1.00  0.00     0.029 A 
ATOM     56  C   UNL A   1      43.093  32.098  29.357  1.00  0.00     0.049 A 
ATOM     57  H   UNL A   1      42.564  30.124  28.841  1.00  0.00     0.167 HD
ATOM     58  C   UNL A   1      44.956  31.323  27.920  1.00  0.00     0.074 A 
ATOM     59  C   UNL A   1      46.213  31.517  27.224  1.00  0.00     0.031 C 
ATOM     60  C   UNL A   1      44.330  32.281  28.645  1.00  0.00     0.031 A 
BRANCH  47  61
ATOM     61  C   UNL A   1      39.007  30.463  31.161  1.00  0.00    -0.014 A 
ATOM     62  C   UNL A   1      37.883  31.110  30.627  1.00  0.00     0.009 A 
ATOM     63  C   UNL A   1      38.999  30.079  32.510  1.00  0.00     0.009 A 
ATOM     64  C   UNL A   1      36.774  31.375  31.434  1.00  0.00     0.001 A 
ATOM     65  C   UNL A   1      37.884  30.329  33.310  1.00  0.00     0.001 A 
ATOM     66  C   UNL A   1      36.774  30.979  32.772  1.00  0.00     0.000 A 
ENDBRANCH  47  61
BRANCH  48  67
ATOM     67  C   UNL A   1      46.748  27.684  25.541  1.00  0.00    -0.014 A 
ATOM     68  C   UNL A   1      47.836  27.026  26.132  1.00  0.00     0.009 A 
ATOM     69  C   UNL A   1      46.763  27.923  24.158  1.00  0.00     0.009 A 
ATOM     70  C   UNL A   1      48.919  26.616  25.350  1.00  0.00     0.001 A 
ATOM     71  C   UNL A   1      47.840  27.495  23.378  1.00  0.00     0.001 A 
ATOM     72  C   UNL A   1      48.917  26.844  23.974  1.00  0.00     0.000 A 
ENDBRANCH  48  67
BRANCH  60  73
ATOM     73  C   UNL A   1      44.978  33.631  28.725  1.00  0.00    -0.014 A 
ATOM     74  C   UNL A   1      45.949  33.903  29.699  1.00  0.00     0.009 A 
ATOM     75  C   UNL A   1      44.683  34.607  27.761  1.00  0.00     0.009 A 
ATOM     76  C   UNL A   1      46.608  35.134  29.711  1.00  0.00     0.001 A 
ATOM     77  C   UNL A   1      45.357  35.829  27.763  1.00  0.00     0.001 A 
ATOM     78  C   UNL A   1      46.316  36.093  28.740  1.00  0.00     0.000 A 
ENDBRANCH  60  73
ENDBRANCH  34  35
ENDBRANCH  27  29
ENDBRANCH  26  27
ENDBRANCH  25  26
ENDBRANCH   1  25
TORSDOF 16
ENDMDL
