MODEL 1
REMARK VINA RESULT:     -11.0      0.000      0.000
REMARK SMILES O=C(COc1ccccc1[C@@H]1[NH2+]CCc2cc(O)c(O)cc21)OCCOCCOC(=O)c1ccc(-c2c3nc(c(-c4ccccc4)c4ccc([nH]4)c(-c4ccccc4)c4nc(c(-c5ccccc5)c5ccc2[nH]5)C=C4)C=C3)cc1
REMARK SMILES IDX 25 1 24 2 23 3 2 4 1 5 3 6 4 7 5 8 6 9 10 10 7 11 9 12 8 13
REMARK SMILES IDX 11 14 12 15 22 16 13 17 15 20 21 21 14 22 16 23 19 24 17 25
REMARK SMILES IDX 20 26 18 28 26 30 27 31 28 32 29 33 30 34 31 35 32 36 33 37
REMARK SMILES IDX 79 38 34 39 78 40 35 41 36 42 37 43 72 44 38 45 77 46 71 47
REMARK SMILES IDX 73 48 39 49 76 50 70 51 69 52 40 54 62 55 47 56 61 57 48 58
REMARK SMILES IDX 51 59 60 60 74 61 49 62 50 63 59 65 75 66 52 67 41 68 42 69
REMARK SMILES IDX 46 70 43 71 45 72 44 73 63 74 64 75 68 76 65 77 67 78 66 79
REMARK SMILES IDX 53 80 54 81 58 82 55 83 57 84 56 85
REMARK H PARENT 12 18 12 19 20 27 18 29 73 53 51 64
REMARK Flexibility Score: inf
ROOT
ATOM      1  C   UNL A   1      34.554  33.988  28.002  1.00  0.00     0.202 C 
ENDROOT
BRANCH   1   2
ATOM      2  C   UNL A   1      33.596  32.782  27.954  1.00  0.00     0.261 C 
BRANCH   2   3
ATOM      3  O   UNL A   1      34.254  31.565  28.334  1.00  0.00    -0.461 OA
BRANCH   3   4
ATOM      4  C   UNL A   1      34.115  30.565  27.430  1.00  0.00     0.344 C 
ATOM      5  O   UNL A   1      35.017  29.746  27.277  1.00  0.00    -0.248 OA
BRANCH   4   6
ATOM      6  C   UNL A   1      32.792  30.624  26.645  1.00  0.00     0.351 C 
BRANCH   6   7
ATOM      7  O   UNL A   1      31.933  29.520  26.674  1.00  0.00    -0.481 OA
BRANCH   7   8
ATOM      8  C   UNL A   1      31.403  28.895  25.587  1.00  0.00     0.129 A 
ATOM      9  C   UNL A   1      31.070  29.898  24.651  1.00  0.00     0.047 A 
ATOM     10  C   UNL A   1      31.130  27.537  25.288  1.00  0.00     0.056 A 
ATOM     11  C   UNL A   1      30.401  29.615  23.470  1.00  0.00     0.004 A 
ATOM     12  C   UNL A   1      30.388  27.292  24.105  1.00  0.00     0.014 A 
ATOM     13  C   UNL A   1      30.030  28.309  23.213  1.00  0.00     0.001 A 
BRANCH  10  14
ATOM     14  C   UNL A   1      31.474  26.336  26.169  1.00  0.00     0.249 C 
ATOM     15  N   UNL A   1      32.861  26.346  26.669  1.00  0.00    -0.336 N 
ATOM     16  C   UNL A   1      31.259  24.895  25.681  1.00  0.00     0.021 A 
ATOM     17  C   UNL A   1      33.882  26.038  25.662  1.00  0.00     0.266 C 
ATOM     18  H   UNL A   1      32.933  25.655  27.415  1.00  0.00     0.347 HD
ATOM     19  H   UNL A   1      33.045  27.299  26.981  1.00  0.00     0.347 HD
ATOM     20  C   UNL A   1      32.293  24.318  24.899  1.00  0.00    -0.029 A 
ATOM     21  C   UNL A   1      30.282  24.073  26.263  1.00  0.00     0.060 A 
ATOM     22  C   UNL A   1      33.392  25.241  24.448  1.00  0.00     0.097 C 
ATOM     23  C   UNL A   1      32.379  22.935  24.746  1.00  0.00     0.054 A 
ATOM     24  C   UNL A   1      30.404  22.694  26.131  1.00  0.00     0.157 A 
ATOM     25  C   UNL A   1      31.451  22.137  25.395  1.00  0.00     0.157 A 
BRANCH  24  26
ATOM     26  O   UNL A   1      29.564  21.833  26.785  1.00  0.00    -0.504 OA
ATOM     27  H   UNL A   1      29.472  21.885  27.717  1.00  0.00     0.293 HD
ENDBRANCH  24  26
BRANCH  25  28
ATOM     28  O   UNL A   1      31.620  20.781  25.376  1.00  0.00    -0.504 OA
ATOM     29  H   UNL A   1      32.050  20.353  26.090  1.00  0.00     0.293 HD
ENDBRANCH  25  28
ENDBRANCH  10  14
ENDBRANCH   7   8
ENDBRANCH   6   7
ENDBRANCH   4   6
ENDBRANCH   3   4
ENDBRANCH   2   3
ENDBRANCH   1   2
BRANCH   1  30
ATOM     30  O   UNL A   1      34.910  34.511  29.279  1.00  0.00    -0.374 OA
BRANCH  30  31
ATOM     31  C   UNL A   1      33.949  34.610  30.338  1.00  0.00     0.202 C 
BRANCH  31  32
ATOM     32  C   UNL A   1      34.186  34.082  31.766  1.00  0.00     0.261 C 
BRANCH  32  33
ATOM     33  O   UNL A   1      34.532  32.703  31.875  1.00  0.00    -0.460 OA
BRANCH  33  34
ATOM     34  C   UNL A   1      35.567  32.461  32.713  1.00  0.00     0.338 C 
ATOM     35  O   UNL A   1      35.637  32.703  33.902  1.00  0.00    -0.246 OA
BRANCH  34  36
ATOM     36  C   UNL A   1      36.541  31.624  31.999  1.00  0.00     0.060 A 
ATOM     37  C   UNL A   1      37.395  30.815  32.763  1.00  0.00     0.016 A 
ATOM     38  C   UNL A   1      36.628  31.659  30.608  1.00  0.00     0.016 A 
ATOM     39  C   UNL A   1      38.365  30.048  32.140  1.00  0.00     0.010 A 
ATOM     40  C   UNL A   1      37.630  30.924  29.985  1.00  0.00     0.010 A 
ATOM     41  C   UNL A   1      38.520  30.154  30.756  1.00  0.00    -0.014 A 
BRANCH  41  42
ATOM     42  C   UNL A   1      39.769  29.677  30.139  1.00  0.00     0.031 A 
ATOM     43  C   UNL A   1      40.883  30.669  29.988  1.00  0.00     0.074 A 
ATOM     44  C   UNL A   1      39.885  28.415  29.709  1.00  0.00     0.049 A 
ATOM     45  N   UNL A   1      42.011  30.555  29.344  1.00  0.00    -0.248 NA
ATOM     46  C   UNL A   1      40.684  31.977  30.641  1.00  0.00     0.031 C 
ATOM     47  C   UNL A   1      38.876  27.369  29.870  1.00  0.00     0.029 A 
ATOM     48  N   UNL A   1      40.898  27.812  29.014  1.00  0.00    -0.354 N 
ATOM     49  C   UNL A   1      42.642  31.785  29.486  1.00  0.00     0.074 A 
ATOM     50  C   UNL A   1      41.769  32.632  30.263  1.00  0.00     0.031 C 
ATOM     51  C   UNL A   1      39.307  26.257  29.250  1.00  0.00     0.029 A 
ATOM     52  C   UNL A   1      40.593  26.536  28.615  1.00  0.00     0.049 A 
ATOM     53  H   UNL A   1      41.759  28.250  28.822  1.00  0.00     0.167 HD
ATOM     54  C   UNL A   1      43.842  32.171  28.994  1.00  0.00     0.031 A 
ATOM     55  C   UNL A   1      41.261  25.713  27.785  1.00  0.00     0.031 A 
ATOM     56  C   UNL A   1      44.678  31.317  28.199  1.00  0.00     0.049 A 
ATOM     57  C   UNL A   1      42.560  26.183  27.190  1.00  0.00     0.074 A 
ATOM     58  C   UNL A   1      45.922  31.584  27.662  1.00  0.00     0.029 A 
ATOM     59  N   UNL A   1      44.338  30.027  27.815  1.00  0.00    -0.354 N 
ATOM     60  N   UNL A   1      43.168  27.336  27.343  1.00  0.00    -0.248 NA
ATOM     61  C   UNL A   1      43.267  25.240  26.315  1.00  0.00     0.031 C 
ATOM     62  C   UNL A   1      46.306  30.478  26.897  1.00  0.00     0.029 A 
ATOM     63  C   UNL A   1      45.334  29.496  27.018  1.00  0.00     0.049 A 
ATOM     64  H   UNL A   1      43.510  29.560  28.072  1.00  0.00     0.167 HD
ATOM     65  C   UNL A   1      44.342  27.248  26.606  1.00  0.00     0.074 A 
ATOM     66  C   UNL A   1      44.362  25.926  26.013  1.00  0.00     0.031 C 
ATOM     67  C   UNL A   1      45.321  28.173  26.442  1.00  0.00     0.031 A 
BRANCH  54  68
ATOM     68  C   UNL A   1      44.262  33.592  29.248  1.00  0.00    -0.014 A 
ATOM     69  C   UNL A   1      44.848  33.986  30.462  1.00  0.00     0.009 A 
ATOM     70  C   UNL A   1      44.049  34.560  28.254  1.00  0.00     0.009 A 
ATOM     71  C   UNL A   1      45.164  35.327  30.693  1.00  0.00     0.001 A 
ATOM     72  C   UNL A   1      44.396  35.894  28.475  1.00  0.00     0.001 A 
ATOM     73  C   UNL A   1      44.941  36.279  29.698  1.00  0.00     0.000 A 
ENDBRANCH  54  68
BRANCH  55  74
ATOM     74  C   UNL A   1      40.678  24.390  27.448  1.00  0.00    -0.014 A 
ATOM     75  C   UNL A   1      39.601  24.284  26.557  1.00  0.00     0.009 A 
ATOM     76  C   UNL A   1      41.230  23.215  27.986  1.00  0.00     0.009 A 
ATOM     77  C   UNL A   1      39.083  23.031  26.220  1.00  0.00     0.001 A 
ATOM     78  C   UNL A   1      40.729  21.963  27.626  1.00  0.00     0.001 A 
ATOM     79  C   UNL A   1      39.651  21.872  26.747  1.00  0.00     0.000 A 
ENDBRANCH  55  74
BRANCH  67  80
ATOM     80  C   UNL A   1      46.516  27.775  25.623  1.00  0.00    -0.014 A 
ATOM     81  C   UNL A   1      47.570  27.035  26.178  1.00  0.00     0.009 A 
ATOM     82  C   UNL A   1      46.540  28.076  24.252  1.00  0.00     0.009 A 
ATOM     83  C   UNL A   1      48.636  26.621  25.377  1.00  0.00     0.001 A 
ATOM     84  C   UNL A   1      47.590  27.635  23.448  1.00  0.00     0.001 A 
ATOM     85  C   UNL A   1      48.641  26.914  24.013  1.00  0.00     0.000 A 
ENDBRANCH  67  80
ENDBRANCH  41  42
ENDBRANCH  34  36
ENDBRANCH  33  34
ENDBRANCH  32  33
ENDBRANCH  31  32
ENDBRANCH  30  31
ENDBRANCH   1  30
TORSDOF 19
ENDMDL
MODEL 2
REMARK VINA RESULT:     -10.8      4.254      6.464
REMARK SMILES O=C(COc1ccccc1[C@@H]1[NH2+]CCc2cc(O)c(O)cc21)OCCOCCOC(=O)c1ccc(-c2c3nc(c(-c4ccccc4)c4ccc([nH]4)c(-c4ccccc4)c4nc(c(-c5ccccc5)c5ccc2[nH]5)C=C4)C=C3)cc1
REMARK SMILES IDX 25 1 24 2 23 3 2 4 1 5 3 6 4 7 5 8 6 9 10 10 7 11 9 12 8 13
REMARK SMILES IDX 11 14 12 15 22 16 13 17 15 20 21 21 14 22 16 23 19 24 17 25
REMARK SMILES IDX 20 26 18 28 26 30 27 31 28 32 29 33 30 34 31 35 32 36 33 37
REMARK SMILES IDX 79 38 34 39 78 40 35 41 36 42 37 43 72 44 38 45 77 46 71 47
REMARK SMILES IDX 73 48 39 49 76 50 70 51 69 52 40 54 62 55 47 56 61 57 48 58
REMARK SMILES IDX 51 59 60 60 74 61 49 62 50 63 59 65 75 66 52 67 41 68 42 69
REMARK SMILES IDX 46 70 43 71 45 72 44 73 63 74 64 75 68 76 65 77 67 78 66 79
REMARK SMILES IDX 53 80 54 81 58 82 55 83 57 84 56 85
REMARK H PARENT 12 18 12 19 20 27 18 29 73 53 51 64
REMARK Flexibility Score: inf
ROOT
ATOM      1  C   UNL A   1      35.171  32.279  28.022  1.00  0.00     0.202 C 
ENDROOT
BRANCH   1   2
ATOM      2  C   UNL A   1      34.587  30.864  27.843  1.00  0.00     0.261 C 
BRANCH   2   3
ATOM      3  O   UNL A   1      33.343  30.887  27.130  1.00  0.00    -0.461 OA
BRANCH   3   4
ATOM      4  C   UNL A   1      33.086  29.747  26.443  1.00  0.00     0.344 C 
ATOM      5  O   UNL A   1      33.744  28.735  26.666  1.00  0.00    -0.248 OA
BRANCH   4   6
ATOM      6  C   UNL A   1      31.976  29.901  25.389  1.00  0.00     0.351 C 
BRANCH   6   7
ATOM      7  O   UNL A   1      31.911  28.990  24.329  1.00  0.00    -0.481 OA
BRANCH   7   8
ATOM      8  C   UNL A   1      31.030  27.960  24.216  1.00  0.00     0.129 A 
ATOM      9  C   UNL A   1      29.919  28.440  23.488  1.00  0.00     0.047 A 
ATOM     10  C   UNL A   1      31.034  26.625  24.691  1.00  0.00     0.056 A 
ATOM     11  C   UNL A   1      28.779  27.677  23.289  1.00  0.00     0.004 A 
ATOM     12  C   UNL A   1      29.829  25.896  24.526  1.00  0.00     0.014 A 
ATOM     13  C   UNL A   1      28.723  26.410  23.839  1.00  0.00     0.001 A 
BRANCH  10  14
ATOM     14  C   UNL A   1      32.175  25.943  25.447  1.00  0.00     0.249 C 
ATOM     15  N   UNL A   1      33.513  26.280  24.926  1.00  0.00    -0.336 N 
ATOM     16  C   UNL A   1      32.215  24.419  25.634  1.00  0.00     0.021 A 
ATOM     17  C   UNL A   1      33.849  25.661  23.640  1.00  0.00     0.266 C 
ATOM     18  H   UNL A   1      34.204  25.978  25.613  1.00  0.00     0.347 HD
ATOM     19  H   UNL A   1      33.512  27.287  24.768  1.00  0.00     0.347 HD
ATOM     20  C   UNL A   1      32.773  23.654  24.577  1.00  0.00    -0.029 A 
ATOM     21  C   UNL A   1      32.052  23.842  26.902  1.00  0.00     0.060 A 
ATOM     22  C   UNL A   1      33.069  24.387  23.297  1.00  0.00     0.097 C 
ATOM     23  C   UNL A   1      33.209  22.348  24.799  1.00  0.00     0.054 A 
ATOM     24  C   UNL A   1      32.526  22.553  27.116  1.00  0.00     0.157 A 
ATOM     25  C   UNL A   1      33.112  21.825  26.079  1.00  0.00     0.157 A 
BRANCH  24  26
ATOM     26  O   UNL A   1      32.521  21.983  28.361  1.00  0.00    -0.504 OA
ATOM     27  H   UNL A   1      32.074  22.406  29.069  1.00  0.00     0.293 HD
ENDBRANCH  24  26
BRANCH  25  28
ATOM     28  O   UNL A   1      33.677  20.609  26.338  1.00  0.00    -0.504 OA
ATOM     29  H   UNL A   1      34.057  20.111  25.641  1.00  0.00     0.293 HD
ENDBRANCH  25  28
ENDBRANCH  10  14
ENDBRANCH   7   8
ENDBRANCH   6   7
ENDBRANCH   4   6
ENDBRANCH   3   4
ENDBRANCH   2   3
ENDBRANCH   1   2
BRANCH   1  30
ATOM     30  O   UNL A   1      34.563  33.137  28.984  1.00  0.00    -0.374 OA
BRANCH  30  31
ATOM     31  C   UNL A   1      33.572  34.100  28.604  1.00  0.00     0.202 C 
BRANCH  31  32
ATOM     32  C   UNL A   1      33.219  35.346  29.438  1.00  0.00     0.261 C 
BRANCH  32  33
ATOM     33  O   UNL A   1      32.517  35.106  30.656  1.00  0.00    -0.460 OA
BRANCH  33  34
ATOM     34  C   UNL A   1      32.976  35.829  31.705  1.00  0.00     0.338 C 
ATOM     35  O   UNL A   1      32.528  36.868  32.149  1.00  0.00    -0.246 OA
BRANCH  34  36
ATOM     36  C   UNL A   1      33.993  35.025  32.397  1.00  0.00     0.060 A 
ATOM     37  C   UNL A   1      35.222  35.636  32.688  1.00  0.00     0.016 A 
ATOM     38  C   UNL A   1      33.750  33.693  32.725  1.00  0.00     0.016 A 
ATOM     39  C   UNL A   1      36.233  34.906  33.292  1.00  0.00     0.010 A 
ATOM     40  C   UNL A   1      34.778  32.947  33.289  1.00  0.00     0.010 A 
ATOM     41  C   UNL A   1      36.028  33.546  33.533  1.00  0.00    -0.014 A 
BRANCH  41  42
ATOM     42  C   UNL A   1      37.193  32.683  33.789  1.00  0.00     0.031 A 
ATOM     43  C   UNL A   1      37.951  32.910  35.062  1.00  0.00     0.074 A 
ATOM     44  C   UNL A   1      37.569  31.754  32.900  1.00  0.00     0.049 A 
ATOM     45  N   UNL A   1      39.090  32.405  35.449  1.00  0.00    -0.248 NA
ATOM     46  C   UNL A   1      37.345  33.851  36.022  1.00  0.00     0.031 C 
ATOM     47  C   UNL A   1      36.856  31.425  31.667  1.00  0.00     0.029 A 
ATOM     48  N   UNL A   1      38.670  30.942  32.889  1.00  0.00    -0.354 N 
ATOM     49  C   UNL A   1      39.353  32.992  36.680  1.00  0.00     0.074 A 
ATOM     50  C   UNL A   1      38.266  33.897  36.970  1.00  0.00     0.031 C 
ATOM     51  C   UNL A   1      37.565  30.503  30.994  1.00  0.00     0.029 A 
ATOM     52  C   UNL A   1      38.795  30.220  31.729  1.00  0.00     0.049 A 
ATOM     53  H   UNL A   1      39.306  30.881  33.638  1.00  0.00     0.167 HD
ATOM     54  C   UNL A   1      40.420  32.797  37.488  1.00  0.00     0.031 A 
ATOM     55  C   UNL A   1      39.819  29.461  31.297  1.00  0.00     0.031 A 
ATOM     56  C   UNL A   1      41.503  31.913  37.163  1.00  0.00     0.049 A 
ATOM     57  C   UNL A   1      41.030  29.309  32.176  1.00  0.00     0.074 A 
ATOM     58  C   UNL A   1      42.628  31.613  37.907  1.00  0.00     0.029 A 
ATOM     59  N   UNL A   1      41.597  31.194  35.978  1.00  0.00    -0.354 N 
ATOM     60  N   UNL A   1      41.268  29.845  33.351  1.00  0.00    -0.248 NA
ATOM     61  C   UNL A   1      42.108  28.448  31.676  1.00  0.00     0.031 C 
ATOM     62  C   UNL A   1      43.435  30.764  37.143  1.00  0.00     0.029 A 
ATOM     63  C   UNL A   1      42.778  30.478  35.955  1.00  0.00     0.049 A 
ATOM     64  H   UNL A   1      40.921  31.195  35.262  1.00  0.00     0.167 HD
ATOM     65  C   UNL A   1      42.512  29.364  33.743  1.00  0.00     0.074 A 
ATOM     66  C   UNL A   1      42.971  28.490  32.683  1.00  0.00     0.031 C 
ATOM     67  C   UNL A   1      43.206  29.615  34.881  1.00  0.00     0.031 A 
BRANCH  54  68
ATOM     68  C   UNL A   1      40.486  33.615  38.748  1.00  0.00    -0.014 A 
ATOM     69  C   UNL A   1      41.107  34.874  38.783  1.00  0.00     0.009 A 
ATOM     70  C   UNL A   1      39.930  33.101  39.930  1.00  0.00     0.009 A 
ATOM     71  C   UNL A   1      41.212  35.578  39.986  1.00  0.00     0.001 A 
ATOM     72  C   UNL A   1      40.008  33.822  41.124  1.00  0.00     0.001 A 
ATOM     73  C   UNL A   1      40.660  35.053  41.154  1.00  0.00     0.000 A 
ENDBRANCH  54  68
BRANCH  55  74
ATOM     74  C   UNL A   1      39.743  28.832  29.954  1.00  0.00    -0.014 A 
ATOM     75  C   UNL A   1      40.141  29.536  28.808  1.00  0.00     0.009 A 
ATOM     76  C   UNL A   1      39.311  27.503  29.817  1.00  0.00     0.009 A 
ATOM     77  C   UNL A   1      40.098  28.923  27.553  1.00  0.00     0.001 A 
ATOM     78  C   UNL A   1      39.295  26.884  28.566  1.00  0.00     0.001 A 
ATOM     79  C   UNL A   1      39.684  27.597  27.434  1.00  0.00     0.000 A 
ENDBRANCH  55  74
BRANCH  67  80
ATOM     80  C   UNL A   1      44.517  28.903  35.061  1.00  0.00    -0.014 A 
ATOM     81  C   UNL A   1      45.728  29.490  34.669  1.00  0.00     0.009 A 
ATOM     82  C   UNL A   1      44.539  27.660  35.714  1.00  0.00     0.009 A 
ATOM     83  C   UNL A   1      46.937  28.833  34.909  1.00  0.00     0.001 A 
ATOM     84  C   UNL A   1      45.749  27.021  35.981  1.00  0.00     0.001 A 
ATOM     85  C   UNL A   1      46.947  27.606  35.573  1.00  0.00     0.000 A 
ENDBRANCH  67  80
ENDBRANCH  41  42
ENDBRANCH  34  36
ENDBRANCH  33  34
ENDBRANCH  32  33
ENDBRANCH  31  32
ENDBRANCH  30  31
ENDBRANCH   1  30
TORSDOF 19
ENDMDL
MODEL 3
REMARK VINA RESULT:     -10.8      1.596      2.362
REMARK SMILES O=C(COc1ccccc1[C@@H]1[NH2+]CCc2cc(O)c(O)cc21)OCCOCCOC(=O)c1ccc(-c2c3nc(c(-c4ccccc4)c4ccc([nH]4)c(-c4ccccc4)c4nc(c(-c5ccccc5)c5ccc2[nH]5)C=C4)C=C3)cc1
REMARK SMILES IDX 25 1 24 2 23 3 2 4 1 5 3 6 4 7 5 8 6 9 10 10 7 11 9 12 8 13
REMARK SMILES IDX 11 14 12 15 22 16 13 17 15 20 21 21 14 22 16 23 19 24 17 25
REMARK SMILES IDX 20 26 18 28 26 30 27 31 28 32 29 33 30 34 31 35 32 36 33 37
REMARK SMILES IDX 79 38 34 39 78 40 35 41 36 42 37 43 72 44 38 45 77 46 71 47
REMARK SMILES IDX 73 48 39 49 76 50 70 51 69 52 40 54 62 55 47 56 61 57 48 58
REMARK SMILES IDX 51 59 60 60 74 61 49 62 50 63 59 65 75 66 52 67 41 68 42 69
REMARK SMILES IDX 46 70 43 71 45 72 44 73 63 74 64 75 68 76 65 77 67 78 66 79
REMARK SMILES IDX 53 80 54 81 58 82 55 83 57 84 56 85
REMARK H PARENT 12 18 12 19 20 27 18 29 73 53 51 64
REMARK Flexibility Score: inf
ROOT
ATOM      1  C   UNL A   1      33.567  31.289  27.626  1.00  0.00     0.202 C 
ENDROOT
BRANCH   1   2
ATOM      2  C   UNL A   1      32.840  30.383  26.614  1.00  0.00     0.261 C 
BRANCH   2   3
ATOM      3  O   UNL A   1      31.976  29.443  27.267  1.00  0.00    -0.461 OA
BRANCH   3   4
ATOM      4  C   UNL A   1      32.179  28.158  26.885  1.00  0.00     0.344 C 
ATOM      5  O   UNL A   1      31.406  27.279  27.253  1.00  0.00    -0.248 OA
BRANCH   4   6
ATOM      6  C   UNL A   1      33.447  27.963  26.035  1.00  0.00     0.351 C 
BRANCH   6   7
ATOM      7  O   UNL A   1      33.870  26.665  25.730  1.00  0.00    -0.481 OA
BRANCH   7   8
ATOM      8  C   UNL A   1      33.619  25.996  24.572  1.00  0.00     0.129 A 
ATOM      9  C   UNL A   1      33.617  26.952  23.532  1.00  0.00     0.047 A 
ATOM     10  C   UNL A   1      33.355  24.636  24.276  1.00  0.00     0.056 A 
ATOM     11  C   UNL A   1      33.278  26.625  22.228  1.00  0.00     0.004 A 
ATOM     12  C   UNL A   1      32.951  24.349  22.947  1.00  0.00     0.014 A 
ATOM     13  C   UNL A   1      32.912  25.323  21.942  1.00  0.00     0.001 A 
BRANCH  10  14
ATOM     14  C   UNL A   1      33.370  23.479  25.276  1.00  0.00     0.249 C 
ATOM     15  N   UNL A   1      34.271  23.700  26.422  1.00  0.00    -0.336 N 
ATOM     16  C   UNL A   1      33.671  22.039  24.831  1.00  0.00     0.021 A 
ATOM     17  C   UNL A   1      35.701  23.596  26.113  1.00  0.00     0.266 C 
ATOM     18  H   UNL A   1      34.050  23.006  27.136  1.00  0.00     0.347 HD
ATOM     19  H   UNL A   1      34.113  24.660  26.728  1.00  0.00     0.347 HD
ATOM     20  C   UNL A   1      35.036  21.665  24.737  1.00  0.00    -0.029 A 
ATOM     21  C   UNL A   1      32.676  21.050  24.867  1.00  0.00     0.060 A 
ATOM     22  C   UNL A   1      36.049  22.770  24.870  1.00  0.00     0.097 C 
ATOM     23  C   UNL A   1      35.404  20.320  24.732  1.00  0.00     0.054 A 
ATOM     24  C   UNL A   1      33.063  19.715  24.899  1.00  0.00     0.157 A 
ATOM     25  C   UNL A   1      34.412  19.360  24.849  1.00  0.00     0.157 A 
BRANCH  24  26
ATOM     26  O   UNL A   1      32.152  18.707  25.070  1.00  0.00    -0.504 OA
ATOM     27  H   UNL A   1      31.294  18.900  25.396  1.00  0.00     0.293 HD
ENDBRANCH  24  26
BRANCH  25  28
ATOM     28  O   UNL A   1      34.776  18.052  25.000  1.00  0.00    -0.504 OA
ATOM     29  H   UNL A   1      35.173  17.591  24.287  1.00  0.00     0.293 HD
ENDBRANCH  25  28
ENDBRANCH  10  14
ENDBRANCH   7   8
ENDBRANCH   6   7
ENDBRANCH   4   6
ENDBRANCH   3   4
ENDBRANCH   2   3
ENDBRANCH   1   2
BRANCH   1  30
ATOM     30  O   UNL A   1      33.210  32.669  27.667  1.00  0.00    -0.374 OA
BRANCH  30  31
ATOM     31  C   UNL A   1      34.026  33.630  28.349  1.00  0.00     0.202 C 
BRANCH  31  32
ATOM     32  C   UNL A   1      34.400  33.537  29.841  1.00  0.00     0.261 C 
BRANCH  32  33
ATOM     33  O   UNL A   1      34.452  32.224  30.393  1.00  0.00    -0.460 OA
BRANCH  33  34
ATOM     34  C   UNL A   1      35.367  32.080  31.381  1.00  0.00     0.338 C 
ATOM     35  O   UNL A   1      35.283  32.449  32.536  1.00  0.00    -0.246 OA
BRANCH  34  36
ATOM     36  C   UNL A   1      36.420  31.177  30.894  1.00  0.00     0.060 A 
ATOM     37  C   UNL A   1      37.252  30.569  31.845  1.00  0.00     0.016 A 
ATOM     38  C   UNL A   1      36.598  30.959  29.529  1.00  0.00     0.016 A 
ATOM     39  C   UNL A   1      38.293  29.752  31.434  1.00  0.00     0.010 A 
ATOM     40  C   UNL A   1      37.669  30.176  29.114  1.00  0.00     0.010 A 
ATOM     41  C   UNL A   1      38.535  29.608  30.066  1.00  0.00    -0.014 A 
BRANCH  41  42
ATOM     42  C   UNL A   1      39.841  29.092  29.624  1.00  0.00     0.031 A 
ATOM     43  C   UNL A   1      40.974  30.071  29.538  1.00  0.00     0.074 A 
ATOM     44  C   UNL A   1      39.993  27.805  29.287  1.00  0.00     0.049 A 
ATOM     45  N   UNL A   1      42.166  29.915  29.033  1.00  0.00    -0.248 NA
ATOM     46  C   UNL A   1      40.715  31.416  30.083  1.00  0.00     0.031 C 
ATOM     47  C   UNL A   1      38.963  26.774  29.398  1.00  0.00     0.029 A 
ATOM     48  N   UNL A   1      41.072  27.159  28.748  1.00  0.00    -0.354 N 
ATOM     49  C   UNL A   1      42.788  31.149  29.169  1.00  0.00     0.074 A 
ATOM     50  C   UNL A   1      41.841  32.045  29.790  1.00  0.00     0.031 C 
ATOM     51  C   UNL A   1      39.451  25.624  28.898  1.00  0.00     0.029 A 
ATOM     52  C   UNL A   1      40.802  25.861  28.396  1.00  0.00     0.049 A 
ATOM     53  H   UNL A   1      41.953  27.582  28.627  1.00  0.00     0.167 HD
ATOM     54  C   UNL A   1      44.039  31.502  28.792  1.00  0.00     0.031 A 
ATOM     55  C   UNL A   1      41.551  24.987  27.698  1.00  0.00     0.031 A 
ATOM     56  C   UNL A   1      44.951  30.599  28.149  1.00  0.00     0.049 A 
ATOM     57  C   UNL A   1      42.913  25.417  27.225  1.00  0.00     0.074 A 
ATOM     58  C   UNL A   1      46.250  30.829  27.740  1.00  0.00     0.029 A 
ATOM     59  N   UNL A   1      44.644  29.289  27.809  1.00  0.00    -0.354 N 
ATOM     60  N   UNL A   1      43.510  26.576  27.374  1.00  0.00    -0.248 NA
ATOM     61  C   UNL A   1      43.704  24.420  26.493  1.00  0.00     0.031 C 
ATOM     62  C   UNL A   1      46.707  29.678  27.092  1.00  0.00     0.029 A 
ATOM     63  C   UNL A   1      45.718  28.707  27.163  1.00  0.00     0.049 A 
ATOM     64  H   UNL A   1      43.789  28.840  28.000  1.00  0.00     0.167 HD
ATOM     65  C   UNL A   1      44.759  26.440  26.780  1.00  0.00     0.074 A 
ATOM     66  C   UNL A   1      44.832  25.084  26.275  1.00  0.00     0.031 C 
ATOM     67  C   UNL A   1      45.758  27.351  26.671  1.00  0.00     0.031 A 
BRANCH  54  68
ATOM     68  C   UNL A   1      44.441  32.935  29.004  1.00  0.00    -0.014 A 
ATOM     69  C   UNL A   1      44.979  33.381  30.223  1.00  0.00     0.009 A 
ATOM     70  C   UNL A   1      44.259  33.861  27.965  1.00  0.00     0.009 A 
ATOM     71  C   UNL A   1      45.278  34.732  30.411  1.00  0.00     0.001 A 
ATOM     72  C   UNL A   1      44.590  35.205  28.145  1.00  0.00     0.001 A 
ATOM     73  C   UNL A   1      45.086  35.642  29.372  1.00  0.00     0.000 A 
ENDBRANCH  54  68
BRANCH  55  74
ATOM     74  C   UNL A   1      40.998  23.647  27.379  1.00  0.00    -0.014 A 
ATOM     75  C   UNL A   1      39.953  23.501  26.455  1.00  0.00     0.009 A 
ATOM     76  C   UNL A   1      41.546  22.496  27.969  1.00  0.00     0.009 A 
ATOM     77  C   UNL A   1      39.464  22.232  26.136  1.00  0.00     0.001 A 
ATOM     78  C   UNL A   1      41.074  21.227  27.628  1.00  0.00     0.001 A 
ATOM     79  C   UNL A   1      40.029  21.097  26.716  1.00  0.00     0.000 A 
ENDBRANCH  55  74
BRANCH  67  80
ATOM     80  C   UNL A   1      47.034  26.901  26.017  1.00  0.00    -0.014 A 
ATOM     81  C   UNL A   1      47.230  27.023  24.634  1.00  0.00     0.009 A 
ATOM     82  C   UNL A   1      48.085  26.428  26.818  1.00  0.00     0.009 A 
ATOM     83  C   UNL A   1      48.452  26.659  24.063  1.00  0.00     0.001 A 
ATOM     84  C   UNL A   1      49.314  26.094  26.250  1.00  0.00     0.001 A 
ATOM     85  C   UNL A   1      49.494  26.204  24.872  1.00  0.00     0.000 A 
ENDBRANCH  67  80
ENDBRANCH  41  42
ENDBRANCH  34  36
ENDBRANCH  33  34
ENDBRANCH  32  33
ENDBRANCH  31  32
ENDBRANCH  30  31
ENDBRANCH   1  30
TORSDOF 19
ENDMDL
