MODEL 1
REMARK VINA RESULT:     -10.4      0.000      0.000
REMARK SMILES CC(C)CCc1cc2c(cc1Cl)C=C(C(=O)OCCOCCOC(=O)c1ccc(-c3c4nc(c(-c5ccccc5)c5ccc([nH]5)c(-c5ccccc5)c5nc(c(-c6ccccc6)c6ccc3[nH]6)C=C5)C=C4)cc1)[C@H](C(F)(F)F)O2
REMARK SMILES IDX 19 1 18 2 17 3 15 4 16 5 14 6 6 7 7 8 11 9 8 10 10 11 12 12
REMARK SMILES IDX 9 13 79 14 13 15 74 16 5 17 4 18 2 19 1 20 3 21 75 22 76 23
REMARK SMILES IDX 77 24 78 25 20 26 21 27 22 28 23 29 24 30 25 31 26 32 27 33
REMARK SMILES IDX 73 34 28 35 72 36 29 37 30 38 31 39 66 40 32 41 71 42 65 43
REMARK SMILES IDX 67 44 33 45 70 46 64 47 63 48 34 50 56 51 41 52 55 53 42 54
REMARK SMILES IDX 45 55 54 56 68 57 43 58 44 59 53 61 69 62 46 63 35 64 36 65
REMARK SMILES IDX 40 66 37 67 39 68 38 69 57 70 58 71 62 72 59 73 61 74 60 75
REMARK SMILES IDX 47 76 48 77 52 78 49 79 51 80 50 81
REMARK H PARENT 67 49 45 60
REMARK Flexibility Score: inf
ROOT
ATOM      1  C   UNL A   1      39.377  21.934  26.200  1.00  0.00     0.202 C 
ENDROOT
BRANCH   1   2
ATOM      2  C   UNL A   1      38.333  21.088  25.466  1.00  0.00     0.261 C 
BRANCH   2   3
ATOM      3  O   UNL A   1      37.162  21.868  25.176  1.00  0.00    -0.460 OA
BRANCH   3   4
ATOM      4  C   UNL A   1      36.051  21.141  24.934  1.00  0.00     0.338 C 
ATOM      5  O   UNL A   1      35.981  19.924  24.869  1.00  0.00    -0.246 OA
BRANCH   4   6
ATOM      6  C   UNL A   1      34.870  22.017  24.905  1.00  0.00     0.087 C 
ATOM      7  C   UNL A   1      32.161  26.230  24.612  1.00  0.00    -0.026 A 
ATOM      8  C   UNL A   1      32.139  25.098  25.458  1.00  0.00     0.052 A 
ATOM      9  C   UNL A   1      33.007  26.203  23.490  1.00  0.00     0.045 A 
ATOM     10  C   UNL A   1      32.997  24.020  25.234  1.00  0.00     0.128 A 
ATOM     11  C   UNL A   1      33.914  25.158  23.310  1.00  0.00     0.032 A 
ATOM     12  Cl  UNL A   1      32.998  27.427  22.274  1.00  0.00    -0.084 Cl
ATOM     13  C   UNL A   1      33.934  24.091  24.204  1.00  0.00     0.019 A 
ATOM     14  O   UNL A   1      32.935  22.961  26.104  1.00  0.00    -0.475 OA
ATOM     15  C   UNL A   1      35.005  23.116  24.151  1.00  0.00     0.027 C 
ATOM     16  C   UNL A   1      33.621  21.733  25.693  1.00  0.00     0.316 C 
BRANCH   7  17
ATOM     17  C   UNL A   1      31.327  27.437  24.989  1.00  0.00     0.037 C 
BRANCH  17  18
ATOM     18  C   UNL A   1      32.160  28.717  25.226  1.00  0.00     0.008 C 
BRANCH  18  19
ATOM     19  C   UNL A   1      32.559  29.009  26.689  1.00  0.00    -0.017 C 
ATOM     20  C   UNL A   1      31.588  28.387  27.696  1.00  0.00     0.007 C 
ATOM     21  C   UNL A   1      33.970  28.486  26.981  1.00  0.00     0.007 C 
ENDBRANCH  18  19
ENDBRANCH  17  18
ENDBRANCH   7  17
BRANCH  16  22
ATOM     22  C   UNL A   1      32.634  20.788  24.971  1.00  0.00     0.430 C 
ATOM     23  F   UNL A   1      32.835  19.487  25.289  1.00  0.00    -0.167 F 
ATOM     24  F   UNL A   1      31.344  21.076  25.263  1.00  0.00    -0.167 F 
ATOM     25  F   UNL A   1      32.748  20.894  23.623  1.00  0.00    -0.167 F 
ENDBRANCH  16  22
ENDBRANCH   4   6
ENDBRANCH   3   4
ENDBRANCH   2   3
ENDBRANCH   1   2
BRANCH   1  26
ATOM     26  O   UNL A   1      40.168  21.260  27.177  1.00  0.00    -0.374 OA
BRANCH  26  27
ATOM     27  C   UNL A   1      41.324  20.556  26.719  1.00  0.00     0.202 C 
BRANCH  27  28
ATOM     28  C   UNL A   1      42.419  21.378  26.025  1.00  0.00     0.261 C 
BRANCH  28  29
ATOM     29  O   UNL A   1      42.774  22.542  26.794  1.00  0.00    -0.460 OA
BRANCH  29  30
ATOM     30  C   UNL A   1      42.859  23.698  26.093  1.00  0.00     0.338 C 
ATOM     31  O   UNL A   1      43.108  23.826  24.905  1.00  0.00    -0.246 OA
BRANCH  30  32
ATOM     32  C   UNL A   1      42.366  24.809  26.934  1.00  0.00     0.060 A 
ATOM     33  C   UNL A   1      41.294  24.647  27.812  1.00  0.00     0.016 A 
ATOM     34  C   UNL A   1      43.020  26.045  26.833  1.00  0.00     0.016 A 
ATOM     35  C   UNL A   1      40.902  25.720  28.618  1.00  0.00     0.010 A 
ATOM     36  C   UNL A   1      42.626  27.115  27.637  1.00  0.00     0.010 A 
ATOM     37  C   UNL A   1      41.580  26.954  28.554  1.00  0.00    -0.014 A 
BRANCH  37  38
ATOM     38  C   UNL A   1      41.296  28.017  29.550  1.00  0.00     0.031 A 
ATOM     39  C   UNL A   1      40.163  28.984  29.375  1.00  0.00     0.074 A 
ATOM     40  C   UNL A   1      42.109  28.119  30.621  1.00  0.00     0.049 A 
ATOM     41  N   UNL A   1      39.761  29.926  30.192  1.00  0.00    -0.248 NA
ATOM     42  C   UNL A   1      39.383  28.892  28.132  1.00  0.00     0.031 C 
ATOM     43  C   UNL A   1      43.261  27.254  30.878  1.00  0.00     0.029 A 
ATOM     44  N   UNL A   1      42.087  28.975  31.692  1.00  0.00    -0.354 N 
ATOM     45  C   UNL A   1      38.672  30.525  29.575  1.00  0.00     0.074 A 
ATOM     46  C   UNL A   1      38.503  29.874  28.292  1.00  0.00     0.031 C 
ATOM     47  C   UNL A   1      43.811  27.596  32.052  1.00  0.00     0.029 A 
ATOM     48  C   UNL A   1      43.080  28.730  32.611  1.00  0.00     0.049 A 
ATOM     49  H   UNL A   1      41.425  29.697  31.793  1.00  0.00     0.167 HD
ATOM     50  C   UNL A   1      37.877  31.514  30.050  1.00  0.00     0.031 A 
ATOM     51  C   UNL A   1      43.373  29.343  33.775  1.00  0.00     0.031 A 
ATOM     52  C   UNL A   1      38.062  32.166  31.321  1.00  0.00     0.049 A 
ATOM     53  C   UNL A   1      42.504  30.475  34.249  1.00  0.00     0.074 A 
ATOM     54  C   UNL A   1      37.273  33.148  31.900  1.00  0.00     0.029 A 
ATOM     55  N   UNL A   1      39.103  31.920  32.202  1.00  0.00    -0.354 N 
ATOM     56  N   UNL A   1      41.422  30.968  33.696  1.00  0.00    -0.248 NA
ATOM     57  C   UNL A   1      42.883  31.126  35.511  1.00  0.00     0.031 C 
ATOM     58  C   UNL A   1      37.881  33.553  33.088  1.00  0.00     0.029 A 
ATOM     59  C   UNL A   1      38.999  32.761  33.299  1.00  0.00     0.049 A 
ATOM     60  H   UNL A   1      39.810  31.249  32.069  1.00  0.00     0.167 HD
ATOM     61  C   UNL A   1      40.978  31.967  34.554  1.00  0.00     0.074 A 
ATOM     62  C   UNL A   1      41.894  31.995  35.675  1.00  0.00     0.031 C 
ATOM     63  C   UNL A   1      39.908  32.786  34.417  1.00  0.00     0.031 A 
BRANCH  50  64
ATOM     64  C   UNL A   1      36.706  31.961  29.215  1.00  0.00    -0.014 A 
ATOM     65  C   UNL A   1      36.775  33.172  28.503  1.00  0.00     0.009 A 
ATOM     66  C   UNL A   1      35.483  31.274  29.266  1.00  0.00     0.009 A 
ATOM     67  C   UNL A   1      35.637  33.699  27.890  1.00  0.00     0.001 A 
ATOM     68  C   UNL A   1      34.354  31.791  28.626  1.00  0.00     0.001 A 
ATOM     69  C   UNL A   1      34.428  33.009  27.952  1.00  0.00     0.000 A 
ENDBRANCH  50  64
BRANCH  51  70
ATOM     70  C   UNL A   1      44.526  28.864  34.586  1.00  0.00    -0.014 A 
ATOM     71  C   UNL A   1      44.348  27.878  35.572  1.00  0.00     0.009 A 
ATOM     72  C   UNL A   1      45.803  29.416  34.410  1.00  0.00     0.009 A 
ATOM     73  C   UNL A   1      45.414  27.477  36.379  1.00  0.00     0.001 A 
ATOM     74  C   UNL A   1      46.876  28.985  35.191  1.00  0.00     0.001 A 
ATOM     75  C   UNL A   1      46.680  28.026  36.183  1.00  0.00     0.000 A 
ENDBRANCH  51  70
BRANCH  63  76
ATOM     76  C   UNL A   1      39.636  33.791  35.505  1.00  0.00    -0.014 A 
ATOM     77  C   UNL A   1      40.096  35.112  35.365  1.00  0.00     0.009 A 
ATOM     78  C   UNL A   1      39.042  33.409  36.718  1.00  0.00     0.009 A 
ATOM     79  C   UNL A   1      39.995  36.017  36.422  1.00  0.00     0.001 A 
ATOM     80  C   UNL A   1      38.908  34.327  37.761  1.00  0.00     0.001 A 
ATOM     81  C   UNL A   1      39.398  35.625  37.619  1.00  0.00     0.000 A 
ENDBRANCH  63  76
ENDBRANCH  37  38
ENDBRANCH  30  32
ENDBRANCH  29  30
ENDBRANCH  28  29
ENDBRANCH  27  28
ENDBRANCH  26  27
ENDBRANCH   1  26
TORSDOF 18
ENDMDL
MODEL 2
REMARK VINA RESULT:     -10.3      3.427      7.105
REMARK SMILES CC(C)CCc1cc2c(cc1Cl)C=C(C(=O)OCCOCCOC(=O)c1ccc(-c3c4nc(c(-c5ccccc5)c5ccc([nH]5)c(-c5ccccc5)c5nc(c(-c6ccccc6)c6ccc3[nH]6)C=C5)C=C4)cc1)[C@H](C(F)(F)F)O2
REMARK SMILES IDX 19 1 18 2 17 3 15 4 16 5 14 6 6 7 7 8 11 9 8 10 10 11 12 12
REMARK SMILES IDX 9 13 79 14 13 15 74 16 5 17 4 18 2 19 1 20 3 21 75 22 76 23
REMARK SMILES IDX 77 24 78 25 20 26 21 27 22 28 23 29 24 30 25 31 26 32 27 33
REMARK SMILES IDX 73 34 28 35 72 36 29 37 30 38 31 39 66 40 32 41 71 42 65 43
REMARK SMILES IDX 67 44 33 45 70 46 64 47 63 48 34 50 56 51 41 52 55 53 42 54
REMARK SMILES IDX 45 55 54 56 68 57 43 58 44 59 53 61 69 62 46 63 35 64 36 65
REMARK SMILES IDX 40 66 37 67 39 68 38 69 57 70 58 71 62 72 59 73 61 74 60 75
REMARK SMILES IDX 47 76 48 77 52 78 49 79 51 80 50 81
REMARK H PARENT 67 49 45 60
REMARK Flexibility Score: inf
ROOT
ATOM      1  C   UNL A   1      34.071  21.510  24.402  1.00  0.00     0.202 C 
ENDROOT
BRANCH   1   2
ATOM      2  C   UNL A   1      32.808  22.302  24.753  1.00  0.00     0.261 C 
BRANCH   2   3
ATOM      3  O   UNL A   1      32.915  23.657  24.290  1.00  0.00    -0.460 OA
BRANCH   3   4
ATOM      4  C   UNL A   1      33.041  24.575  25.270  1.00  0.00     0.338 C 
ATOM      5  O   UNL A   1      33.692  24.457  26.296  1.00  0.00    -0.246 OA
BRANCH   4   6
ATOM      6  C   UNL A   1      32.396  25.834  24.869  1.00  0.00     0.087 C 
ATOM      7  C   UNL A   1      29.164  28.938  22.612  1.00  0.00    -0.026 A 
ATOM      8  C   UNL A   1      30.567  28.923  22.778  1.00  0.00     0.052 A 
ATOM      9  C   UNL A   1      28.403  27.986  23.311  1.00  0.00     0.045 A 
ATOM     10  C   UNL A   1      31.186  27.936  23.546  1.00  0.00     0.128 A 
ATOM     11  C   UNL A   1      29.029  26.957  24.017  1.00  0.00     0.032 A 
ATOM     12  Cl  UNL A   1      26.678  28.003  23.353  1.00  0.00    -0.084 Cl
ATOM     13  C   UNL A   1      30.418  26.913  24.099  1.00  0.00     0.019 A 
ATOM     14  O   UNL A   1      32.555  27.972  23.651  1.00  0.00    -0.475 OA
ATOM     15  C   UNL A   1      31.079  25.744  24.642  1.00  0.00     0.027 C 
ATOM     16  C   UNL A   1      33.155  27.119  24.681  1.00  0.00     0.316 C 
BRANCH   7  17
ATOM     17  C   UNL A   1      28.556  29.931  21.642  1.00  0.00     0.037 C 
BRANCH  17  18
ATOM     18  C   UNL A   1      29.062  31.378  21.835  1.00  0.00     0.008 C 
BRANCH  18  19
ATOM     19  C   UNL A   1      28.817  32.007  23.223  1.00  0.00    -0.017 C 
ATOM     20  C   UNL A   1      28.960  33.532  23.208  1.00  0.00     0.007 C 
ATOM     21  C   UNL A   1      27.419  31.652  23.741  1.00  0.00     0.007 C 
ENDBRANCH  18  19
ENDBRANCH  17  18
ENDBRANCH   7  17
BRANCH  16  22
ATOM     22  C   UNL A   1      33.352  27.920  25.987  1.00  0.00     0.430 C 
ATOM     23  F   UNL A   1      32.657  27.399  27.025  1.00  0.00    -0.167 F 
ATOM     24  F   UNL A   1      34.651  27.975  26.362  1.00  0.00    -0.167 F 
ATOM     25  F   UNL A   1      32.948  29.207  25.841  1.00  0.00    -0.167 F 
ENDBRANCH  16  22
ENDBRANCH   4   6
ENDBRANCH   3   4
ENDBRANCH   2   3
ENDBRANCH   1   2
BRANCH   1  26
ATOM     26  O   UNL A   1      35.242  21.812  25.159  1.00  0.00    -0.374 OA
BRANCH  26  27
ATOM     27  C   UNL A   1      36.331  20.890  25.087  1.00  0.00     0.202 C 
BRANCH  27  28
ATOM     28  C   UNL A   1      37.740  21.477  24.926  1.00  0.00     0.261 C 
BRANCH  28  29
ATOM     29  O   UNL A   1      37.993  22.515  25.890  1.00  0.00    -0.460 OA
BRANCH  29  30
ATOM     30  C   UNL A   1      39.281  22.632  26.295  1.00  0.00     0.338 C 
ATOM     31  O   UNL A   1      40.198  21.857  26.074  1.00  0.00    -0.246 OA
BRANCH  30  32
ATOM     32  C   UNL A   1      39.488  23.981  26.862  1.00  0.00     0.060 A 
ATOM     33  C   UNL A   1      39.025  24.324  28.133  1.00  0.00     0.016 A 
ATOM     34  C   UNL A   1      40.180  24.918  26.082  1.00  0.00     0.016 A 
ATOM     35  C   UNL A   1      39.293  25.600  28.637  1.00  0.00     0.010 A 
ATOM     36  C   UNL A   1      40.444  26.192  26.586  1.00  0.00     0.010 A 
ATOM     37  C   UNL A   1      40.024  26.535  27.877  1.00  0.00    -0.014 A 
BRANCH  37  38
ATOM     38  C   UNL A   1      40.480  27.807  28.491  1.00  0.00     0.031 A 
ATOM     39  C   UNL A   1      41.901  28.015  28.921  1.00  0.00     0.074 A 
ATOM     40  C   UNL A   1      39.568  28.781  28.686  1.00  0.00     0.049 A 
ATOM     41  N   UNL A   1      42.454  29.094  29.416  1.00  0.00    -0.248 NA
ATOM     42  C   UNL A   1      42.821  26.876  28.783  1.00  0.00     0.031 C 
ATOM     43  C   UNL A   1      38.150  28.679  28.338  1.00  0.00     0.029 A 
ATOM     44  N   UNL A   1      39.694  30.044  29.208  1.00  0.00    -0.354 N 
ATOM     45  C   UNL A   1      43.788  28.774  29.632  1.00  0.00     0.074 A 
ATOM     46  C   UNL A   1      43.953  27.384  29.259  1.00  0.00     0.031 C 
ATOM     47  C   UNL A   1      37.546  29.843  28.617  1.00  0.00     0.029 A 
ATOM     48  C   UNL A   1      38.520  30.760  29.203  1.00  0.00     0.049 A 
ATOM     49  H   UNL A   1      40.543  30.403  29.555  1.00  0.00     0.167 HD
ATOM     50  C   UNL A   1      44.782  29.576  30.081  1.00  0.00     0.031 A 
ATOM     51  C   UNL A   1      38.252  32.014  29.618  1.00  0.00     0.031 A 
ATOM     52  C   UNL A   1      44.605  30.954  30.464  1.00  0.00     0.049 A 
ATOM     53  C   UNL A   1      39.367  32.861  30.164  1.00  0.00     0.074 A 
ATOM     54  C   UNL A   1      45.570  31.853  30.887  1.00  0.00     0.029 A 
ATOM     55  N   UNL A   1      43.394  31.629  30.486  1.00  0.00    -0.354 N 
ATOM     56  N   UNL A   1      40.641  32.573  30.275  1.00  0.00    -0.248 NA
ATOM     57  C   UNL A   1      39.015  34.211  30.628  1.00  0.00     0.031 C 
ATOM     58  C   UNL A   1      44.934  33.043  31.242  1.00  0.00     0.029 A 
ATOM     59  C   UNL A   1      43.585  32.919  30.955  1.00  0.00     0.049 A 
ATOM     60  H   UNL A   1      42.530  31.249  30.209  1.00  0.00     0.167 HD
ATOM     61  C   UNL A   1      41.245  33.711  30.795  1.00  0.00     0.074 A 
ATOM     62  C   UNL A   1      40.203  34.702  30.957  1.00  0.00     0.031 C 
ATOM     63  C   UNL A   1      42.548  33.908  31.111  1.00  0.00     0.031 A 
BRANCH  50  64
ATOM     64  C   UNL A   1      46.176  29.013  30.175  1.00  0.00    -0.014 A 
ATOM     65  C   UNL A   1      47.042  29.098  29.071  1.00  0.00     0.009 A 
ATOM     66  C   UNL A   1      46.570  28.255  31.288  1.00  0.00     0.009 A 
ATOM     67  C   UNL A   1      48.257  28.411  29.068  1.00  0.00     0.001 A 
ATOM     68  C   UNL A   1      47.800  27.593  31.293  1.00  0.00     0.001 A 
ATOM     69  C   UNL A   1      48.635  27.659  30.179  1.00  0.00     0.000 A 
ENDBRANCH  50  64
BRANCH  51  70
ATOM     70  C   UNL A   1      36.868  32.546  29.493  1.00  0.00    -0.014 A 
ATOM     71  C   UNL A   1      36.455  33.202  28.321  1.00  0.00     0.009 A 
ATOM     72  C   UNL A   1      35.962  32.440  30.559  1.00  0.00     0.009 A 
ATOM     73  C   UNL A   1      35.179  33.762  28.229  1.00  0.00     0.001 A 
ATOM     74  C   UNL A   1      34.673  32.966  30.450  1.00  0.00     0.001 A 
ATOM     75  C   UNL A   1      34.286  33.637  29.291  1.00  0.00     0.000 A 
ENDBRANCH  51  70
BRANCH  63  76
ATOM     76  C   UNL A   1      42.953  35.252  31.659  1.00  0.00    -0.014 A 
ATOM     77  C   UNL A   1      43.531  36.207  30.804  1.00  0.00     0.009 A 
ATOM     78  C   UNL A   1      42.884  35.528  33.033  1.00  0.00     0.009 A 
ATOM     79  C   UNL A   1      44.057  37.394  31.317  1.00  0.00     0.001 A 
ATOM     80  C   UNL A   1      43.377  36.732  33.538  1.00  0.00     0.001 A 
ATOM     81  C   UNL A   1      43.977  37.657  32.684  1.00  0.00     0.000 A 
ENDBRANCH  63  76
ENDBRANCH  37  38
ENDBRANCH  30  32
ENDBRANCH  29  30
ENDBRANCH  28  29
ENDBRANCH  27  28
ENDBRANCH  26  27
ENDBRANCH   1  26
TORSDOF 18
ENDMDL
MODEL 3
REMARK VINA RESULT:     -10.2      4.066      7.427
REMARK SMILES CC(C)CCc1cc2c(cc1Cl)C=C(C(=O)OCCOCCOC(=O)c1ccc(-c3c4nc(c(-c5ccccc5)c5ccc([nH]5)c(-c5ccccc5)c5nc(c(-c6ccccc6)c6ccc3[nH]6)C=C5)C=C4)cc1)[C@H](C(F)(F)F)O2
REMARK SMILES IDX 19 1 18 2 17 3 15 4 16 5 14 6 6 7 7 8 11 9 8 10 10 11 12 12
REMARK SMILES IDX 9 13 79 14 13 15 74 16 5 17 4 18 2 19 1 20 3 21 75 22 76 23
REMARK SMILES IDX 77 24 78 25 20 26 21 27 22 28 23 29 24 30 25 31 26 32 27 33
REMARK SMILES IDX 73 34 28 35 72 36 29 37 30 38 31 39 66 40 32 41 71 42 65 43
REMARK SMILES IDX 67 44 33 45 70 46 64 47 63 48 34 50 56 51 41 52 55 53 42 54
REMARK SMILES IDX 45 55 54 56 68 57 43 58 44 59 53 61 69 62 46 63 35 64 36 65
REMARK SMILES IDX 40 66 37 67 39 68 38 69 57 70 58 71 62 72 59 73 61 74 60 75
REMARK SMILES IDX 47 76 48 77 52 78 49 79 51 80 50 81
REMARK H PARENT 67 49 45 60
REMARK Flexibility Score: inf
ROOT
ATOM      1  C   UNL A   1      33.650  21.561  24.525  1.00  0.00     0.202 C 
ENDROOT
BRANCH   1   2
ATOM      2  C   UNL A   1      32.949  22.775  25.142  1.00  0.00     0.261 C 
BRANCH   2   3
ATOM      3  O   UNL A   1      32.604  23.731  24.126  1.00  0.00    -0.460 OA
BRANCH   3   4
ATOM      4  C   UNL A   1      33.358  24.849  24.131  1.00  0.00     0.338 C 
ATOM      5  O   UNL A   1      34.572  24.906  24.019  1.00  0.00    -0.246 OA
BRANCH   4   6
ATOM      6  C   UNL A   1      32.495  26.040  24.138  1.00  0.00     0.087 C 
ATOM      7  C   UNL A   1      28.586  29.006  23.096  1.00  0.00    -0.026 A 
ATOM      8  C   UNL A   1      29.986  29.189  23.117  1.00  0.00     0.052 A 
ATOM      9  C   UNL A   1      28.067  27.797  23.590  1.00  0.00     0.045 A 
ATOM     10  C   UNL A   1      30.836  28.165  23.535  1.00  0.00     0.128 A 
ATOM     11  C   UNL A   1      28.920  26.749  23.939  1.00  0.00     0.032 A 
ATOM     12  Cl  UNL A   1      26.379  27.511  23.801  1.00  0.00    -0.084 Cl
ATOM     13  C   UNL A   1      30.300  26.922  23.872  1.00  0.00     0.019 A 
ATOM     14  O   UNL A   1      32.187  28.405  23.514  1.00  0.00    -0.475 OA
ATOM     15  C   UNL A   1      31.186  25.786  24.023  1.00  0.00     0.027 C 
ATOM     16  C   UNL A   1      33.036  27.441  24.221  1.00  0.00     0.316 C 
BRANCH   7  17
ATOM     17  C   UNL A   1      27.718  30.087  22.484  1.00  0.00     0.037 C 
BRANCH  17  18
ATOM     18  C   UNL A   1      27.649  31.380  23.328  1.00  0.00     0.008 C 
BRANCH  18  19
ATOM     19  C   UNL A   1      27.969  32.696  22.586  1.00  0.00    -0.017 C 
ATOM     20  C   UNL A   1      29.236  33.374  23.116  1.00  0.00     0.007 C 
ATOM     21  C   UNL A   1      28.139  32.445  21.084  1.00  0.00     0.007 C 
ENDBRANCH  18  19
ENDBRANCH  17  18
ENDBRANCH   7  17
BRANCH  16  22
ATOM     22  C   UNL A   1      33.295  27.921  25.667  1.00  0.00     0.430 C 
ATOM     23  F   UNL A   1      34.546  28.410  25.835  1.00  0.00    -0.167 F 
ATOM     24  F   UNL A   1      32.432  28.892  26.046  1.00  0.00    -0.167 F 
ATOM     25  F   UNL A   1      33.137  26.909  26.557  1.00  0.00    -0.167 F 
ENDBRANCH  16  22
ENDBRANCH   4   6
ENDBRANCH   3   4
ENDBRANCH   2   3
ENDBRANCH   1   2
BRANCH   1  26
ATOM     26  O   UNL A   1      35.069  21.512  24.655  1.00  0.00    -0.374 OA
BRANCH  26  27
ATOM     27  C   UNL A   1      35.658  20.256  24.999  1.00  0.00     0.202 C 
BRANCH  27  28
ATOM     28  C   UNL A   1      37.185  20.144  24.898  1.00  0.00     0.261 C 
BRANCH  28  29
ATOM     29  O   UNL A   1      37.838  21.292  25.471  1.00  0.00    -0.460 OA
BRANCH  29  30
ATOM     30  C   UNL A   1      39.018  21.042  26.089  1.00  0.00     0.338 C 
ATOM     31  O   UNL A   1      39.650  19.998  26.081  1.00  0.00    -0.246 OA
BRANCH  30  32
ATOM     32  C   UNL A   1      39.573  22.312  26.602  1.00  0.00     0.060 A 
ATOM     33  C   UNL A   1      40.639  22.339  27.502  1.00  0.00     0.016 A 
ATOM     34  C   UNL A   1      38.999  23.507  26.146  1.00  0.00     0.016 A 
ATOM     35  C   UNL A   1      41.154  23.572  27.915  1.00  0.00     0.010 A 
ATOM     36  C   UNL A   1      39.512  24.735  26.562  1.00  0.00     0.010 A 
ATOM     37  C   UNL A   1      40.610  24.778  27.430  1.00  0.00    -0.014 A 
BRANCH  37  38
ATOM     38  C   UNL A   1      41.286  26.070  27.709  1.00  0.00     0.031 A 
ATOM     39  C   UNL A   1      42.635  26.397  27.140  1.00  0.00     0.074 A 
ATOM     40  C   UNL A   1      40.667  26.949  28.521  1.00  0.00     0.049 A 
ATOM     41  N   UNL A   1      43.318  27.509  27.250  1.00  0.00    -0.248 NA
ATOM     42  C   UNL A   1      43.307  25.352  26.353  1.00  0.00     0.031 C 
ATOM     43  C   UNL A   1      39.368  26.725  29.158  1.00  0.00     0.029 A 
ATOM     44  N   UNL A   1      41.033  28.203  28.940  1.00  0.00    -0.354 N 
ATOM     45  C   UNL A   1      44.490  27.308  26.532  1.00  0.00     0.074 A 
ATOM     46  C   UNL A   1      44.448  25.950  26.030  1.00  0.00     0.031 C 
ATOM     47  C   UNL A   1      39.027  27.820  29.852  1.00  0.00     0.029 A 
ATOM     48  C   UNL A   1      40.098  28.807  29.748  1.00  0.00     0.049 A 
ATOM     49  H   UNL A   1      41.883  28.630  28.689  1.00  0.00     0.167 HD
ATOM     50  C   UNL A   1      45.494  28.186  26.301  1.00  0.00     0.031 A 
ATOM     51  C   UNL A   1      40.095  30.019  30.338  1.00  0.00     0.031 A 
ATOM     52  C   UNL A   1      45.533  29.531  26.818  1.00  0.00     0.049 A 
ATOM     53  C   UNL A   1      41.252  30.951  30.106  1.00  0.00     0.074 A 
ATOM     54  C   UNL A   1      46.494  30.504  26.594  1.00  0.00     0.029 A 
ATOM     55  N   UNL A   1      44.590  30.090  27.666  1.00  0.00    -0.354 N 
ATOM     56  N   UNL A   1      42.308  30.779  29.349  1.00  0.00    -0.248 NA
ATOM     57  C   UNL A   1      41.212  32.249  30.795  1.00  0.00     0.031 C 
ATOM     58  C   UNL A   1      46.176  31.619  27.369  1.00  0.00     0.029 A 
ATOM     59  C   UNL A   1      44.969  31.378  28.006  1.00  0.00     0.049 A 
ATOM     60  H   UNL A   1      43.773  29.639  27.980  1.00  0.00     0.167 HD
ATOM     61  C   UNL A   1      43.044  31.954  29.450  1.00  0.00     0.074 A 
ATOM     62  C   UNL A   1      42.302  32.840  30.323  1.00  0.00     0.031 C 
ATOM     63  C   UNL A   1      44.229  32.263  28.871  1.00  0.00     0.031 A 
BRANCH  50  64
ATOM     64  C   UNL A   1      46.645  27.753  25.433  1.00  0.00    -0.014 A 
ATOM     65  C   UNL A   1      47.825  27.268  26.024  1.00  0.00     0.009 A 
ATOM     66  C   UNL A   1      46.626  27.981  24.048  1.00  0.00     0.009 A 
ATOM     67  C   UNL A   1      48.968  27.052  25.252  1.00  0.00     0.001 A 
ATOM     68  C   UNL A   1      47.763  27.736  23.275  1.00  0.00     0.001 A 
ATOM     69  C   UNL A   1      48.936  27.287  23.878  1.00  0.00     0.000 A 
ENDBRANCH  50  64
BRANCH  51  70
ATOM     70  C   UNL A   1      38.933  30.424  31.175  1.00  0.00    -0.014 A 
ATOM     71  C   UNL A   1      37.846  31.112  30.608  1.00  0.00     0.009 A 
ATOM     72  C   UNL A   1      38.918  30.162  32.553  1.00  0.00     0.009 A 
ATOM     73  C   UNL A   1      36.788  31.553  31.404  1.00  0.00     0.001 A 
ATOM     74  C   UNL A   1      37.839  30.569  33.341  1.00  0.00     0.001 A 
ATOM     75  C   UNL A   1      36.781  31.274  32.769  1.00  0.00     0.000 A 
ENDBRANCH  51  70
BRANCH  63  76
ATOM     76  C   UNL A   1      44.819  33.622  29.137  1.00  0.00    -0.014 A 
ATOM     77  C   UNL A   1      45.753  33.786  30.176  1.00  0.00     0.009 A 
ATOM     78  C   UNL A   1      44.364  34.760  28.453  1.00  0.00     0.009 A 
ATOM     79  C   UNL A   1      46.193  35.058  30.542  1.00  0.00     0.001 A 
ATOM     80  C   UNL A   1      44.836  36.028  28.797  1.00  0.00     0.001 A 
ATOM     81  C   UNL A   1      45.736  36.179  29.851  1.00  0.00     0.000 A 
ENDBRANCH  63  76
ENDBRANCH  37  38
ENDBRANCH  30  32
ENDBRANCH  29  30
ENDBRANCH  28  29
ENDBRANCH  27  28
ENDBRANCH  26  27
ENDBRANCH   1  26
TORSDOF 18
ENDMDL
