MODEL 1
REMARK VINA RESULT:     -10.0      0.000      0.000
REMARK SMILES O=C(OCCOCCOC(=O)[C@H]1CCC[N@@H+]1Cc1ccccc1[N+](=O)[O-])c1ccc(-c2c3nc(c(-c4ccccc4)c4ccc([nH]4)c(-c4ccccc4)c4nc(c(-c5ccccc5)c5ccc2[nH]5)C=C4)C=C3)cc1
REMARK SMILES IDX 7 1 6 2 5 3 4 4 3 5 2 6 1 7 27 8 28 9 74 10 29 11 73 12
REMARK SMILES IDX 30 13 31 14 32 15 67 16 33 17 72 18 66 19 68 20 34 21 71 22
REMARK SMILES IDX 65 23 64 24 35 26 57 27 42 28 56 29 43 30 46 31 55 32 69 33
REMARK SMILES IDX 44 34 45 35 54 37 70 38 47 39 36 40 37 41 41 42 38 43 40 44
REMARK SMILES IDX 39 45 58 46 59 47 63 48 60 49 62 50 61 51 48 52 49 53 53 54
REMARK SMILES IDX 50 55 52 56 51 57 8 58 9 59 10 60 11 61 12 62 13 63 16 64
REMARK SMILES IDX 14 65 15 66 17 68 18 69 19 70 23 71 20 72 22 73 21 74 24 75
REMARK SMILES IDX 25 76 26 77
REMARK H PARENT 68 25 46 36 16 67
REMARK Flexibility Score: inf
ROOT
ATOM      1  C   UNL A   1      41.216  19.284  26.682  1.00  0.00     0.202 C 
ENDROOT
BRANCH   1   2
ATOM      2  O   UNL A   1      41.271  20.046  27.894  1.00  0.00    -0.374 OA
BRANCH   2   3
ATOM      3  C   UNL A   1      40.991  21.433  27.765  1.00  0.00     0.202 C 
BRANCH   3   4
ATOM      4  C   UNL A   1      39.990  21.918  26.698  1.00  0.00     0.261 C 
BRANCH   4   5
ATOM      5  O   UNL A   1      40.145  23.312  26.343  1.00  0.00    -0.460 OA
BRANCH   5   6
ATOM      6  C   UNL A   1      39.202  24.275  26.543  1.00  0.00     0.338 C 
ATOM      7  O   UNL A   1      38.077  24.193  26.056  1.00  0.00    -0.246 OA
BRANCH   6   8
ATOM      8  C   UNL A   1      39.558  25.429  27.389  1.00  0.00     0.060 A 
ATOM      9  C   UNL A   1      39.225  25.400  28.732  1.00  0.00     0.016 A 
ATOM     10  C   UNL A   1      40.194  26.554  26.878  1.00  0.00     0.016 A 
ATOM     11  C   UNL A   1      39.187  26.541  29.484  1.00  0.00     0.010 A 
ATOM     12  C   UNL A   1      40.405  27.650  27.722  1.00  0.00     0.010 A 
ATOM     13  C   UNL A   1      39.867  27.653  29.020  1.00  0.00    -0.014 A 
BRANCH  13  14
ATOM     14  C   UNL A   1      39.997  28.782  29.952  1.00  0.00     0.031 A 
ATOM     15  C   UNL A   1      41.146  28.799  30.900  1.00  0.00     0.074 A 
ATOM     16  C   UNL A   1      39.131  29.811  29.859  1.00  0.00     0.049 A 
ATOM     17  N   UNL A   1      41.342  29.566  31.934  1.00  0.00    -0.248 NA
ATOM     18  C   UNL A   1      42.212  27.812  30.659  1.00  0.00     0.031 C 
ATOM     19  C   UNL A   1      38.060  29.940  28.856  1.00  0.00     0.029 A 
ATOM     20  N   UNL A   1      39.025  30.962  30.589  1.00  0.00    -0.354 N 
ATOM     21  C   UNL A   1      42.507  29.096  32.522  1.00  0.00     0.074 A 
ATOM     22  C   UNL A   1      42.990  27.999  31.713  1.00  0.00     0.031 C 
ATOM     23  C   UNL A   1      37.450  31.121  29.004  1.00  0.00     0.029 A 
ATOM     24  C   UNL A   1      37.974  31.757  30.199  1.00  0.00     0.049 A 
ATOM     25  H   UNL A   1      39.641  31.197  31.321  1.00  0.00     0.167 HD
ATOM     26  C   UNL A   1      43.083  29.534  33.664  1.00  0.00     0.031 A 
ATOM     27  C   UNL A   1      37.434  32.831  30.797  1.00  0.00     0.031 A 
ATOM     28  C   UNL A   1      42.551  30.634  34.421  1.00  0.00     0.049 A 
ATOM     29  C   UNL A   1      38.038  33.254  32.100  1.00  0.00     0.074 A 
ATOM     30  C   UNL A   1      42.986  31.154  35.624  1.00  0.00     0.029 A 
ATOM     31  N   UNL A   1      41.450  31.388  34.026  1.00  0.00    -0.354 N 
ATOM     32  N   UNL A   1      39.076  32.745  32.724  1.00  0.00    -0.248 NA
ATOM     33  C   UNL A   1      37.392  34.367  32.797  1.00  0.00     0.031 C 
ATOM     34  C   UNL A   1      42.116  32.193  35.979  1.00  0.00     0.029 A 
ATOM     35  C   UNL A   1      41.176  32.359  34.970  1.00  0.00     0.049 A 
ATOM     36  H   UNL A   1      40.940  31.250  33.196  1.00  0.00     0.167 HD
ATOM     37  C   UNL A   1      39.214  33.478  33.890  1.00  0.00     0.074 A 
ATOM     38  C   UNL A   1      38.163  34.481  33.871  1.00  0.00     0.031 C 
ATOM     39  C   UNL A   1      40.117  33.336  34.891  1.00  0.00     0.031 A 
BRANCH  26  40
ATOM     40  C   UNL A   1      44.244  28.735  34.183  1.00  0.00    -0.014 A 
ATOM     41  C   UNL A   1      44.071  27.640  35.045  1.00  0.00     0.009 A 
ATOM     42  C   UNL A   1      45.548  29.151  33.870  1.00  0.00     0.009 A 
ATOM     43  C   UNL A   1      45.180  27.019  35.628  1.00  0.00     0.001 A 
ATOM     44  C   UNL A   1      46.653  28.509  34.430  1.00  0.00     0.001 A 
ATOM     45  C   UNL A   1      46.469  27.455  35.322  1.00  0.00     0.000 A 
ENDBRANCH  26  40
BRANCH  27  46
ATOM     46  C   UNL A   1      36.215  33.465  30.225  1.00  0.00    -0.014 A 
ATOM     47  C   UNL A   1      35.049  33.607  30.988  1.00  0.00     0.009 A 
ATOM     48  C   UNL A   1      36.236  33.992  28.921  1.00  0.00     0.009 A 
ATOM     49  C   UNL A   1      33.930  34.255  30.455  1.00  0.00     0.001 A 
ATOM     50  C   UNL A   1      35.129  34.669  28.403  1.00  0.00     0.001 A 
ATOM     51  C   UNL A   1      33.974  34.794  29.168  1.00  0.00     0.000 A 
ENDBRANCH  27  46
BRANCH  39  52
ATOM     52  C   UNL A   1      40.021  34.317  36.017  1.00  0.00    -0.014 A 
ATOM     53  C   UNL A   1      40.676  35.556  35.957  1.00  0.00     0.009 A 
ATOM     54  C   UNL A   1      39.204  34.020  37.117  1.00  0.00     0.009 A 
ATOM     55  C   UNL A   1      40.523  36.476  36.994  1.00  0.00     0.001 A 
ATOM     56  C   UNL A   1      39.032  34.952  38.137  1.00  0.00     0.001 A 
ATOM     57  C   UNL A   1      39.696  36.176  38.076  1.00  0.00     0.000 A 
ENDBRANCH  39  52
ENDBRANCH  13  14
ENDBRANCH   6   8
ENDBRANCH   5   6
ENDBRANCH   4   5
ENDBRANCH   3   4
ENDBRANCH   2   3
ENDBRANCH   1   2
BRANCH   1  58
ATOM     58  C   UNL A   1      42.611  18.801  26.300  1.00  0.00     0.261 C 
BRANCH  58  59
ATOM     59  O   UNL A   1      42.815  19.112  24.914  1.00  0.00    -0.459 OA
BRANCH  59  60
ATOM     60  C   UNL A   1      44.101  19.363  24.558  1.00  0.00     0.365 C 
ATOM     61  O   UNL A   1      44.732  18.716  23.725  1.00  0.00    -0.245 OA
BRANCH  60  62
ATOM     62  C   UNL A   1      44.709  20.558  25.306  1.00  0.00     0.295 C 
ATOM     63  C   UNL A   1      46.183  20.719  24.918  1.00  0.00     0.083 C 
ATOM     64  N   UNL A   1      44.064  21.863  24.998  1.00  0.00    -0.319 N 
ATOM     65  C   UNL A   1      46.283  22.020  24.127  1.00  0.00     0.068 C 
ATOM     66  C   UNL A   1      44.854  22.519  23.961  1.00  0.00     0.263 C 
ATOM     67  H   UNL A   1      43.121  21.681  24.653  1.00  0.00     0.349 HD
BRANCH  64  68
ATOM     68  C   UNL A   1      43.791  22.719  26.166  1.00  0.00     0.307 C 
BRANCH  68  69
ATOM     69  C   UNL A   1      44.040  24.202  25.959  1.00  0.00     0.084 A 
ATOM     70  C   UNL A   1      43.139  24.910  25.140  1.00  0.00     0.017 A 
ATOM     71  C   UNL A   1      45.006  24.956  26.654  1.00  0.00     0.278 A 
ATOM     72  C   UNL A   1      43.113  26.305  25.127  1.00  0.00     0.001 A 
ATOM     73  C   UNL A   1      44.976  26.360  26.653  1.00  0.00     0.086 A 
ATOM     74  C   UNL A   1      44.010  27.029  25.907  1.00  0.00     0.007 A 
BRANCH  71  75
ATOM     75  N   UNL A   1      46.056  24.323  27.447  1.00  0.00     0.063 N 
ATOM     76  O   UNL A   1      45.942  24.373  28.681  1.00  0.00    -0.258 OA
ATOM     77  O   UNL A   1      46.993  23.793  26.838  1.00  0.00    -0.258 OA
ENDBRANCH  71  75
ENDBRANCH  68  69
ENDBRANCH  64  68
ENDBRANCH  60  62
ENDBRANCH  59  60
ENDBRANCH  58  59
ENDBRANCH   1  58
TORSDOF 17
ENDMDL
MODEL 2
REMARK VINA RESULT:      -9.9      4.597      8.437
REMARK SMILES O=C(OCCOCCOC(=O)[C@H]1CCC[N@@H+]1Cc1ccccc1[N+](=O)[O-])c1ccc(-c2c3nc(c(-c4ccccc4)c4ccc([nH]4)c(-c4ccccc4)c4nc(c(-c5ccccc5)c5ccc2[nH]5)C=C4)C=C3)cc1
REMARK SMILES IDX 7 1 6 2 5 3 4 4 3 5 2 6 1 7 27 8 28 9 74 10 29 11 73 12
REMARK SMILES IDX 30 13 31 14 32 15 67 16 33 17 72 18 66 19 68 20 34 21 71 22
REMARK SMILES IDX 65 23 64 24 35 26 57 27 42 28 56 29 43 30 46 31 55 32 69 33
REMARK SMILES IDX 44 34 45 35 54 37 70 38 47 39 36 40 37 41 41 42 38 43 40 44
REMARK SMILES IDX 39 45 58 46 59 47 63 48 60 49 62 50 61 51 48 52 49 53 53 54
REMARK SMILES IDX 50 55 52 56 51 57 8 58 9 59 10 60 11 61 12 62 13 63 16 64
REMARK SMILES IDX 14 65 15 66 17 68 18 69 19 70 23 71 20 72 22 73 21 74 24 75
REMARK SMILES IDX 25 76 26 77
REMARK H PARENT 68 25 46 36 16 67
REMARK Flexibility Score: inf
ROOT
ATOM      1  C   UNL A   1      37.759  21.908  25.240  1.00  0.00     0.202 C 
ENDROOT
BRANCH   1   2
ATOM      2  O   UNL A   1      37.275  20.682  24.678  1.00  0.00    -0.374 OA
BRANCH   2   3
ATOM      3  C   UNL A   1      38.136  19.560  24.811  1.00  0.00     0.202 C 
BRANCH   3   4
ATOM      4  C   UNL A   1      39.184  19.526  25.940  1.00  0.00     0.261 C 
BRANCH   4   5
ATOM      5  O   UNL A   1      40.502  19.121  25.502  1.00  0.00    -0.460 OA
BRANCH   5   6
ATOM      6  C   UNL A   1      41.663  19.415  26.151  1.00  0.00     0.338 C 
ATOM      7  O   UNL A   1      42.525  18.564  26.359  1.00  0.00    -0.246 OA
BRANCH   6   8
ATOM      8  C   UNL A   1      41.879  20.806  26.591  1.00  0.00     0.060 A 
ATOM      9  C   UNL A   1      41.789  21.822  25.655  1.00  0.00     0.016 A 
ATOM     10  C   UNL A   1      42.194  21.127  27.906  1.00  0.00     0.016 A 
ATOM     11  C   UNL A   1      42.320  23.060  25.891  1.00  0.00     0.010 A 
ATOM     12  C   UNL A   1      42.485  22.459  28.222  1.00  0.00     0.010 A 
ATOM     13  C   UNL A   1      42.582  23.420  27.201  1.00  0.00    -0.014 A 
BRANCH  13  14
ATOM     14  C   UNL A   1      42.935  24.828  27.439  1.00  0.00     0.031 A 
ATOM     15  C   UNL A   1      44.357  25.244  27.289  1.00  0.00     0.074 A 
ATOM     16  C   UNL A   1      41.952  25.714  27.693  1.00  0.00     0.049 A 
ATOM     17  N   UNL A   1      44.925  26.359  27.650  1.00  0.00    -0.248 NA
ATOM     18  C   UNL A   1      45.265  24.270  26.661  1.00  0.00     0.031 C 
ATOM     19  C   UNL A   1      40.510  25.412  27.713  1.00  0.00     0.029 A 
ATOM     20  N   UNL A   1      42.001  27.056  27.951  1.00  0.00    -0.354 N 
ATOM     21  C   UNL A   1      46.273  26.188  27.377  1.00  0.00     0.074 A 
ATOM     22  C   UNL A   1      46.435  24.876  26.792  1.00  0.00     0.031 C 
ATOM     23  C   UNL A   1      39.820  26.540  27.914  1.00  0.00     0.029 A 
ATOM     24  C   UNL A   1      40.765  27.606  28.193  1.00  0.00     0.049 A 
ATOM     25  H   UNL A   1      42.837  27.574  27.962  1.00  0.00     0.167 HD
ATOM     26  C   UNL A   1      47.279  27.053  27.637  1.00  0.00     0.031 A 
ATOM     27  C   UNL A   1      40.437  28.814  28.680  1.00  0.00     0.031 A 
ATOM     28  C   UNL A   1      47.048  28.347  28.220  1.00  0.00     0.049 A 
ATOM     29  C   UNL A   1      41.567  29.730  29.035  1.00  0.00     0.074 A 
ATOM     30  C   UNL A   1      47.966  29.308  28.597  1.00  0.00     0.029 A 
ATOM     31  N   UNL A   1      45.785  28.857  28.504  1.00  0.00    -0.354 N 
ATOM     32  N   UNL A   1      42.857  29.533  28.884  1.00  0.00    -0.248 NA
ATOM     33  C   UNL A   1      41.213  31.009  29.651  1.00  0.00     0.031 C 
ATOM     34  C   UNL A   1      47.257  30.380  29.154  1.00  0.00     0.029 A 
ATOM     35  C   UNL A   1      45.897  30.112  29.070  1.00  0.00     0.049 A 
ATOM     36  H   UNL A   1      44.937  28.392  28.328  1.00  0.00     0.167 HD
ATOM     37  C   UNL A   1      43.475  30.667  29.382  1.00  0.00     0.074 A 
ATOM     38  C   UNL A   1      42.410  31.555  29.820  1.00  0.00     0.031 C 
ATOM     39  C   UNL A   1      44.797  30.952  29.480  1.00  0.00     0.031 A 
BRANCH  26  40
ATOM     40  C   UNL A   1      48.676  26.552  27.409  1.00  0.00    -0.014 A 
ATOM     41  C   UNL A   1      49.329  26.694  26.174  1.00  0.00     0.009 A 
ATOM     42  C   UNL A   1      49.317  25.840  28.435  1.00  0.00     0.009 A 
ATOM     43  C   UNL A   1      50.566  26.081  25.955  1.00  0.00     0.001 A 
ATOM     44  C   UNL A   1      50.566  25.254  28.223  1.00  0.00     0.001 A 
ATOM     45  C   UNL A   1      51.182  25.361  26.978  1.00  0.00     0.000 A 
ENDBRANCH  26  40
BRANCH  27  46
ATOM     46  C   UNL A   1      39.012  29.142  28.957  1.00  0.00    -0.014 A 
ATOM     47  C   UNL A   1      38.185  29.669  27.957  1.00  0.00     0.009 A 
ATOM     48  C   UNL A   1      38.454  28.868  30.219  1.00  0.00     0.009 A 
ATOM     49  C   UNL A   1      36.833  29.921  28.217  1.00  0.00     0.001 A 
ATOM     50  C   UNL A   1      37.097  29.088  30.466  1.00  0.00     0.001 A 
ATOM     51  C   UNL A   1      36.288  29.621  29.466  1.00  0.00     0.000 A 
ENDBRANCH  27  46
BRANCH  39  52
ATOM     52  C   UNL A   1      45.147  32.293  30.044  1.00  0.00    -0.014 A 
ATOM     53  C   UNL A   1      45.245  33.424  29.221  1.00  0.00     0.009 A 
ATOM     54  C   UNL A   1      45.309  32.431  31.431  1.00  0.00     0.009 A 
ATOM     55  C   UNL A   1      45.517  34.672  29.780  1.00  0.00     0.001 A 
ATOM     56  C   UNL A   1      45.552  33.684  31.988  1.00  0.00     0.001 A 
ATOM     57  C   UNL A   1      45.661  34.801  31.161  1.00  0.00     0.000 A 
ENDBRANCH  39  52
ENDBRANCH  13  14
ENDBRANCH   6   8
ENDBRANCH   5   6
ENDBRANCH   4   5
ENDBRANCH   3   4
ENDBRANCH   2   3
ENDBRANCH   1   2
BRANCH   1  58
ATOM     58  C   UNL A   1      36.821  23.056  24.886  1.00  0.00     0.261 C 
BRANCH  58  59
ATOM     59  O   UNL A   1      36.051  23.366  26.057  1.00  0.00    -0.459 OA
BRANCH  59  60
ATOM     60  C   UNL A   1      34.917  22.636  26.217  1.00  0.00     0.365 C 
ATOM     61  O   UNL A   1      34.669  21.941  27.198  1.00  0.00    -0.245 OA
BRANCH  60  62
ATOM     62  C   UNL A   1      33.949  22.765  25.031  1.00  0.00     0.295 C 
ATOM     63  C   UNL A   1      33.635  21.377  24.462  1.00  0.00     0.083 C 
ATOM     64  N   UNL A   1      32.633  23.367  25.381  1.00  0.00    -0.319 N 
ATOM     65  C   UNL A   1      32.166  21.105  24.769  1.00  0.00     0.068 C 
ATOM     66  C   UNL A   1      31.692  22.277  25.619  1.00  0.00     0.263 C 
ATOM     67  H   UNL A   1      32.748  23.918  26.232  1.00  0.00     0.349 HD
BRANCH  64  68
ATOM     68  C   UNL A   1      32.137  24.382  24.436  1.00  0.00     0.307 C 
BRANCH  68  69
ATOM     69  C   UNL A   1      32.624  25.798  24.686  1.00  0.00     0.084 A 
ATOM     70  C   UNL A   1      32.810  26.201  26.023  1.00  0.00     0.017 A 
ATOM     71  C   UNL A   1      33.059  26.685  23.681  1.00  0.00     0.278 A 
ATOM     72  C   UNL A   1      33.521  27.360  26.339  1.00  0.00     0.001 A 
ATOM     73  C   UNL A   1      33.784  27.845  23.994  1.00  0.00     0.086 A 
ATOM     74  C   UNL A   1      34.034  28.164  25.326  1.00  0.00     0.007 A 
BRANCH  71  75
ATOM     75  N   UNL A   1      32.822  26.421  22.265  1.00  0.00     0.063 N 
ATOM     76  O   UNL A   1      31.669  26.600  21.840  1.00  0.00    -0.258 OA
ATOM     77  O   UNL A   1      33.778  26.026  21.588  1.00  0.00    -0.258 OA
ENDBRANCH  71  75
ENDBRANCH  68  69
ENDBRANCH  64  68
ENDBRANCH  60  62
ENDBRANCH  59  60
ENDBRANCH  58  59
ENDBRANCH   1  58
TORSDOF 17
ENDMDL
MODEL 3
REMARK VINA RESULT:      -9.8      4.340      7.213
REMARK SMILES O=C(OCCOCCOC(=O)[C@H]1CCC[N@@H+]1Cc1ccccc1[N+](=O)[O-])c1ccc(-c2c3nc(c(-c4ccccc4)c4ccc([nH]4)c(-c4ccccc4)c4nc(c(-c5ccccc5)c5ccc2[nH]5)C=C4)C=C3)cc1
REMARK SMILES IDX 7 1 6 2 5 3 4 4 3 5 2 6 1 7 27 8 28 9 74 10 29 11 73 12
REMARK SMILES IDX 30 13 31 14 32 15 67 16 33 17 72 18 66 19 68 20 34 21 71 22
REMARK SMILES IDX 65 23 64 24 35 26 57 27 42 28 56 29 43 30 46 31 55 32 69 33
REMARK SMILES IDX 44 34 45 35 54 37 70 38 47 39 36 40 37 41 41 42 38 43 40 44
REMARK SMILES IDX 39 45 58 46 59 47 63 48 60 49 62 50 61 51 48 52 49 53 53 54
REMARK SMILES IDX 50 55 52 56 51 57 8 58 9 59 10 60 11 61 12 62 13 63 16 64
REMARK SMILES IDX 14 65 15 66 17 68 18 69 19 70 23 71 20 72 22 73 21 74 24 75
REMARK SMILES IDX 25 76 26 77
REMARK H PARENT 68 25 46 36 16 67
REMARK Flexibility Score: inf
ROOT
ATOM      1  C   UNL A   1      33.922  22.005  25.847  1.00  0.00     0.202 C 
ENDROOT
BRANCH   1   2
ATOM      2  O   UNL A   1      34.967  21.375  25.095  1.00  0.00    -0.374 OA
BRANCH   2   3
ATOM      3  C   UNL A   1      36.249  21.368  25.707  1.00  0.00     0.202 C 
BRANCH   3   4
ATOM      4  C   UNL A   1      37.461  21.954  24.959  1.00  0.00     0.261 C 
BRANCH   4   5
ATOM      5  O   UNL A   1      38.030  23.124  25.593  1.00  0.00    -0.460 OA
BRANCH   5   6
ATOM      6  C   UNL A   1      39.261  23.174  26.173  1.00  0.00     0.338 C 
ATOM      7  O   UNL A   1      40.057  22.241  26.088  1.00  0.00    -0.246 OA
BRANCH   6   8
ATOM      8  C   UNL A   1      39.636  24.401  26.900  1.00  0.00     0.060 A 
ATOM      9  C   UNL A   1      39.305  24.511  28.239  1.00  0.00     0.016 A 
ATOM     10  C   UNL A   1      40.288  25.460  26.278  1.00  0.00     0.016 A 
ATOM     11  C   UNL A   1      39.285  25.722  28.873  1.00  0.00     0.010 A 
ATOM     12  C   UNL A   1      40.517  26.631  27.009  1.00  0.00     0.010 A 
ATOM     13  C   UNL A   1      39.981  26.772  28.301  1.00  0.00    -0.014 A 
BRANCH  13  14
ATOM     14  C   UNL A   1      40.129  27.987  29.116  1.00  0.00     0.031 A 
ATOM     15  C   UNL A   1      41.323  28.115  29.998  1.00  0.00     0.074 A 
ATOM     16  C   UNL A   1      39.236  28.985  28.970  1.00  0.00     0.049 A 
ATOM     17  N   UNL A   1      41.551  28.979  30.944  1.00  0.00    -0.248 NA
ATOM     18  C   UNL A   1      42.398  27.129  29.796  1.00  0.00     0.031 C 
ATOM     19  C   UNL A   1      38.114  28.998  28.016  1.00  0.00     0.029 A 
ATOM     20  N   UNL A   1      39.139  30.197  29.595  1.00  0.00    -0.354 N 
ATOM     21  C   UNL A   1      42.753  28.589  31.514  1.00  0.00     0.074 A 
ATOM     22  C   UNL A   1      43.222  27.430  30.788  1.00  0.00     0.031 C 
ATOM     23  C   UNL A   1      37.484  30.176  28.084  1.00  0.00     0.029 A 
ATOM     24  C   UNL A   1      38.051  30.932  29.186  1.00  0.00     0.049 A 
ATOM     25  H   UNL A   1      39.783  30.512  30.269  1.00  0.00     0.167 HD
ATOM     26  C   UNL A   1      43.374  29.144  32.579  1.00  0.00     0.031 A 
ATOM     27  C   UNL A   1      37.515  32.047  29.708  1.00  0.00     0.031 A 
ATOM     28  C   UNL A   1      42.853  30.300  33.257  1.00  0.00     0.049 A 
ATOM     29  C   UNL A   1      38.172  32.603  30.933  1.00  0.00     0.074 A 
ATOM     30  C   UNL A   1      43.334  30.939  34.382  1.00  0.00     0.029 A 
ATOM     31  N   UNL A   1      41.717  30.992  32.850  1.00  0.00    -0.354 N 
ATOM     32  N   UNL A   1      39.251  32.175  31.549  1.00  0.00    -0.248 NA
ATOM     33  C   UNL A   1      37.534  33.764  31.555  1.00  0.00     0.031 C 
ATOM     34  C   UNL A   1      42.459  31.991  34.682  1.00  0.00     0.029 A 
ATOM     35  C   UNL A   1      41.467  32.042  33.712  1.00  0.00     0.049 A 
ATOM     36  H   UNL A   1      41.171  30.767  32.063  1.00  0.00     0.167 HD
ATOM     37  C   UNL A   1      39.428  33.017  32.633  1.00  0.00     0.074 A 
ATOM     38  C   UNL A   1      38.354  33.994  32.573  1.00  0.00     0.031 C 
ATOM     39  C   UNL A   1      40.382  32.987  33.596  1.00  0.00     0.031 A 
BRANCH  26  40
ATOM     40  C   UNL A   1      44.577  28.419  33.112  1.00  0.00    -0.014 A 
ATOM     41  C   UNL A   1      44.474  27.416  34.088  1.00  0.00     0.009 A 
ATOM     42  C   UNL A   1      45.854  28.820  32.685  1.00  0.00     0.009 A 
ATOM     43  C   UNL A   1      45.625  26.875  34.668  1.00  0.00     0.001 A 
ATOM     44  C   UNL A   1      47.001  28.256  33.244  1.00  0.00     0.001 A 
ATOM     45  C   UNL A   1      46.887  27.296  34.248  1.00  0.00     0.000 A 
ENDBRANCH  26  40
BRANCH  27  46
ATOM     46  C   UNL A   1      36.256  32.602  29.142  1.00  0.00    -0.014 A 
ATOM     47  C   UNL A   1      35.032  31.943  29.320  1.00  0.00     0.009 A 
ATOM     48  C   UNL A   1      36.265  33.837  28.468  1.00  0.00     0.009 A 
ATOM     49  C   UNL A   1      33.849  32.505  28.829  1.00  0.00     0.001 A 
ATOM     50  C   UNL A   1      35.078  34.412  28.010  1.00  0.00     0.001 A 
ATOM     51  C   UNL A   1      33.870  33.742  28.184  1.00  0.00     0.000 A 
ENDBRANCH  27  46
BRANCH  39  52
ATOM     52  C   UNL A   1      40.318  34.068  34.628  1.00  0.00    -0.014 A 
ATOM     53  C   UNL A   1      40.982  35.290  34.442  1.00  0.00     0.009 A 
ATOM     54  C   UNL A   1      39.521  33.881  35.768  1.00  0.00     0.009 A 
ATOM     55  C   UNL A   1      40.859  36.302  35.393  1.00  0.00     0.001 A 
ATOM     56  C   UNL A   1      39.378  34.905  36.700  1.00  0.00     0.001 A 
ATOM     57  C   UNL A   1      40.052  36.112  36.514  1.00  0.00     0.000 A 
ENDBRANCH  39  52
ENDBRANCH  13  14
ENDBRANCH   6   8
ENDBRANCH   5   6
ENDBRANCH   4   5
ENDBRANCH   3   4
ENDBRANCH   2   3
ENDBRANCH   1   2
BRANCH   1  58
ATOM     58  C   UNL A   1      34.473  23.203  26.612  1.00  0.00     0.261 C 
BRANCH  58  59
ATOM     59  O   UNL A   1      33.722  24.358  26.211  1.00  0.00    -0.459 OA
BRANCH  59  60
ATOM     60  C   UNL A   1      33.880  24.733  24.915  1.00  0.00     0.365 C 
ATOM     61  O   UNL A   1      34.965  24.839  24.349  1.00  0.00    -0.245 OA
BRANCH  60  62
ATOM     62  C   UNL A   1      32.548  25.015  24.204  1.00  0.00     0.295 C 
ATOM     63  C   UNL A   1      32.459  24.186  22.919  1.00  0.00     0.083 C 
ATOM     64  N   UNL A   1      31.343  24.657  25.002  1.00  0.00    -0.319 N 
ATOM     65  C   UNL A   1      31.354  23.158  23.142  1.00  0.00     0.068 C 
ATOM     66  C   UNL A   1      30.914  23.324  24.591  1.00  0.00     0.263 C 
ATOM     67  H   UNL A   1      31.603  24.649  25.989  1.00  0.00     0.349 HD
BRANCH  64  68
ATOM     68  C   UNL A   1      30.263  25.658  24.989  1.00  0.00     0.307 C 
BRANCH  68  69
ATOM     69  C   UNL A   1      30.693  27.086  25.272  1.00  0.00     0.084 A 
ATOM     70  C   UNL A   1      31.315  27.350  26.509  1.00  0.00     0.017 A 
ATOM     71  C   UNL A   1      30.666  28.133  24.331  1.00  0.00     0.278 A 
ATOM     72  C   UNL A   1      31.998  28.545  26.737  1.00  0.00     0.001 A 
ATOM     73  C   UNL A   1      31.361  29.332  24.551  1.00  0.00     0.086 A 
ATOM     74  C   UNL A   1      32.047  29.523  25.747  1.00  0.00     0.007 A 
BRANCH  71  75
ATOM     75  N   UNL A   1      29.957  28.010  23.060  1.00  0.00     0.063 N 
ATOM     76  O   UNL A   1      30.618  27.648  22.075  1.00  0.00    -0.258 OA
ATOM     77  O   UNL A   1      28.752  28.287  23.047  1.00  0.00    -0.258 OA
ENDBRANCH  71  75
ENDBRANCH  68  69
ENDBRANCH  64  68
ENDBRANCH  60  62
ENDBRANCH  59  60
ENDBRANCH  58  59
ENDBRANCH   1  58
TORSDOF 17
ENDMDL
