MODEL 1
REMARK VINA RESULT:     -11.0      0.000      0.000
REMARK SMILES Cc1cc([N+](=O)[O-])ccc1NC(=O)[C@@H]1[C@@H](C(=O)OCCOCCOC(=O)c2ccc(-c3c4nc(c(-c5ccccc5)c5ccc([nH]5)c(-c5ccccc5)c5nc(c(-c6ccccc6)c6ccc3[nH]6)C=C5)C=C4)cc2)[C@H]2C=C[C@@H]1C2
REMARK SMILES IDX 20 1 19 2 18 3 16 4 17 5 15 6 14 7 78 8 75 9 77 10 79 11
REMARK SMILES IDX 76 12 12 13 11 14 13 16 10 17 1 18 2 19 3 20 4 21 9 22 8 23
REMARK SMILES IDX 5 24 6 25 7 26 21 27 22 28 23 29 24 30 25 31 26 32 27 33
REMARK SMILES IDX 28 34 74 35 29 36 73 37 30 38 31 39 32 40 67 41 33 42 72 43
REMARK SMILES IDX 66 44 68 45 34 46 71 47 65 48 64 49 35 51 57 52 42 53 56 54
REMARK SMILES IDX 43 55 46 56 55 57 69 58 44 59 45 60 54 62 70 63 47 64 36 65
REMARK SMILES IDX 37 66 41 67 38 68 40 69 39 70 58 71 59 72 63 73 60 74 62 75
REMARK SMILES IDX 61 76 48 77 49 78 53 79 50 80 52 81 51 82
REMARK H PARENT 11 15 68 50 46 61
REMARK Flexibility Score: inf
ROOT
ATOM      1  C   UNL A   1      32.862  27.456  26.507  1.00  0.00     0.202 C 
ENDROOT
BRANCH   1   2
ATOM      2  C   UNL A   1      33.926  26.649  25.794  1.00  0.00     0.261 C 
BRANCH   2   3
ATOM      3  O   UNL A   1      33.459  25.316  25.503  1.00  0.00    -0.463 OA
BRANCH   3   4
ATOM      4  C   UNL A   1      34.414  24.359  25.288  1.00  0.00     0.310 C 
ATOM      5  O   UNL A   1      35.609  24.538  25.313  1.00  0.00    -0.252 OA
BRANCH   4   6
ATOM      6  C   UNL A   1      33.737  23.018  25.132  1.00  0.00     0.119 C 
ATOM      7  C   UNL A   1      32.256  23.160  24.686  1.00  0.00     0.100 C 
ATOM      8  C   UNL A   1      31.559  22.044  25.511  1.00  0.00     0.025 C 
ATOM      9  C   UNL A   1      33.614  22.149  26.404  1.00  0.00     0.027 C 
ATOM     10  C   UNL A   1      31.396  22.619  26.894  1.00  0.00    -0.027 C 
ATOM     11  C   UNL A   1      32.700  21.060  25.829  1.00  0.00     0.017 C 
ATOM     12  C   UNL A   1      32.630  22.705  27.415  1.00  0.00    -0.027 C 
BRANCH   7  13
ATOM     13  C   UNL A   1      32.024  23.045  23.193  1.00  0.00     0.228 C 
ATOM     14  N   UNL A   1      31.540  24.120  22.486  1.00  0.00    -0.326 N 
ATOM     15  H   UNL A   1      31.387  23.952  21.528  1.00  0.00     0.169 HD
ATOM     16  O   UNL A   1      32.195  21.982  22.592  1.00  0.00    -0.274 OA
BRANCH  14  17
ATOM     17  C   UNL A   1      31.231  25.425  22.919  1.00  0.00     0.044 A 
ATOM     18  C   UNL A   1      33.446  26.288  21.949  1.00  0.00     0.047 C 
ATOM     19  C   UNL A   1      32.095  26.485  22.585  1.00  0.00    -0.021 A 
ATOM     20  C   UNL A   1      31.691  27.808  22.858  1.00  0.00     0.091 A 
ATOM     21  C   UNL A   1      30.459  28.063  23.473  1.00  0.00     0.269 A 
ATOM     22  C   UNL A   1      30.072  25.701  23.660  1.00  0.00     0.033 A 
ATOM     23  C   UNL A   1      29.662  27.010  23.913  1.00  0.00     0.088 A 
BRANCH  21  24
ATOM     24  N   UNL A   1      29.998  29.443  23.651  1.00  0.00     0.062 N 
ATOM     25  O   UNL A   1      29.040  29.821  22.963  1.00  0.00    -0.258 OA
ATOM     26  O   UNL A   1      30.580  30.140  24.494  1.00  0.00    -0.258 OA
ENDBRANCH  21  24
ENDBRANCH  14  17
ENDBRANCH   7  13
ENDBRANCH   4   6
ENDBRANCH   3   4
ENDBRANCH   2   3
ENDBRANCH   1   2
BRANCH   1  27
ATOM     27  O   UNL A   1      33.527  28.504  27.206  1.00  0.00    -0.374 OA
BRANCH  27  28
ATOM     28  C   UNL A   1      32.866  29.763  27.189  1.00  0.00     0.202 C 
BRANCH  28  29
ATOM     29  C   UNL A   1      33.816  30.971  27.169  1.00  0.00     0.261 C 
BRANCH  29  30
ATOM     30  O   UNL A   1      34.543  31.031  28.410  1.00  0.00    -0.460 OA
BRANCH  30  31
ATOM     31  C   UNL A   1      35.835  31.441  28.309  1.00  0.00     0.338 C 
ATOM     32  O   UNL A   1      36.204  32.554  27.974  1.00  0.00    -0.246 OA
BRANCH  31  33
ATOM     33  C   UNL A   1      36.734  30.257  28.398  1.00  0.00     0.060 A 
ATOM     34  C   UNL A   1      36.756  29.493  29.577  1.00  0.00     0.016 A 
ATOM     35  C   UNL A   1      37.734  30.093  27.440  1.00  0.00     0.016 A 
ATOM     36  C   UNL A   1      37.849  28.662  29.852  1.00  0.00     0.010 A 
ATOM     37  C   UNL A   1      38.844  29.335  27.750  1.00  0.00     0.010 A 
ATOM     38  C   UNL A   1      38.923  28.636  28.963  1.00  0.00    -0.014 A 
BRANCH  38  39
ATOM     39  C   UNL A   1      40.224  28.023  29.233  1.00  0.00     0.031 A 
ATOM     40  C   UNL A   1      40.538  26.683  28.692  1.00  0.00     0.074 A 
ATOM     41  C   UNL A   1      41.230  28.770  29.743  1.00  0.00     0.049 A 
ATOM     42  N   UNL A   1      41.563  25.984  29.044  1.00  0.00    -0.248 NA
ATOM     43  C   UNL A   1      39.703  25.995  27.713  1.00  0.00     0.031 C 
ATOM     44  C   UNL A   1      42.664  28.505  29.682  1.00  0.00     0.029 A 
ATOM     45  N   UNL A   1      41.147  29.922  30.530  1.00  0.00    -0.354 N 
ATOM     46  C   UNL A   1      41.739  25.004  28.097  1.00  0.00     0.074 A 
ATOM     47  C   UNL A   1      40.488  24.967  27.378  1.00  0.00     0.031 C 
ATOM     48  C   UNL A   1      43.281  29.227  30.628  1.00  0.00     0.029 A 
ATOM     49  C   UNL A   1      42.255  29.922  31.384  1.00  0.00     0.049 A 
ATOM     50  H   UNL A   1      40.441  30.607  30.490  1.00  0.00     0.167 HD
ATOM     51  C   UNL A   1      42.983  24.466  27.933  1.00  0.00     0.031 A 
ATOM     52  C   UNL A   1      42.116  29.927  32.735  1.00  0.00     0.031 A 
ATOM     53  C   UNL A   1      43.924  24.954  28.961  1.00  0.00     0.049 A 
ATOM     54  C   UNL A   1      42.745  28.676  33.276  1.00  0.00     0.074 A 
ATOM     55  C   UNL A   1      45.049  25.765  28.925  1.00  0.00     0.029 A 
ATOM     56  N   UNL A   1      43.585  24.834  30.315  1.00  0.00    -0.354 N 
ATOM     57  N   UNL A   1      42.826  27.575  32.573  1.00  0.00    -0.248 NA
ATOM     58  C   UNL A   1      43.470  28.599  34.539  1.00  0.00     0.031 C 
ATOM     59  C   UNL A   1      45.316  26.206  30.253  1.00  0.00     0.029 A 
ATOM     60  C   UNL A   1      44.381  25.640  31.106  1.00  0.00     0.049 A 
ATOM     61  H   UNL A   1      42.870  24.249  30.658  1.00  0.00     0.167 HD
ATOM     62  C   UNL A   1      43.726  26.746  33.166  1.00  0.00     0.074 A 
ATOM     63  C   UNL A   1      44.038  27.383  34.437  1.00  0.00     0.031 C 
ATOM     64  C   UNL A   1      44.250  25.645  32.561  1.00  0.00     0.031 A 
BRANCH  51  65
ATOM     65  C   UNL A   1      43.411  23.710  26.682  1.00  0.00    -0.014 A 
ATOM     66  C   UNL A   1      43.443  22.302  26.679  1.00  0.00     0.009 A 
ATOM     67  C   UNL A   1      43.843  24.314  25.487  1.00  0.00     0.009 A 
ATOM     68  C   UNL A   1      43.931  21.562  25.586  1.00  0.00     0.001 A 
ATOM     69  C   UNL A   1      44.351  23.588  24.399  1.00  0.00     0.001 A 
ATOM     70  C   UNL A   1      44.401  22.206  24.451  1.00  0.00     0.000 A 
ENDBRANCH  51  65
BRANCH  52  71
ATOM     71  C   UNL A   1      40.927  30.683  33.209  1.00  0.00    -0.014 A 
ATOM     72  C   UNL A   1      39.834  29.923  33.686  1.00  0.00     0.009 A 
ATOM     73  C   UNL A   1      41.005  32.030  33.594  1.00  0.00     0.009 A 
ATOM     74  C   UNL A   1      38.913  30.459  34.595  1.00  0.00     0.001 A 
ATOM     75  C   UNL A   1      40.082  32.562  34.511  1.00  0.00     0.001 A 
ATOM     76  C   UNL A   1      39.058  31.771  35.033  1.00  0.00     0.000 A 
ENDBRANCH  52  71
BRANCH  64  77
ATOM     77  C   UNL A   1      44.776  24.482  33.344  1.00  0.00    -0.014 A 
ATOM     78  C   UNL A   1      46.130  24.365  33.693  1.00  0.00     0.009 A 
ATOM     79  C   UNL A   1      43.872  23.585  33.946  1.00  0.00     0.009 A 
ATOM     80  C   UNL A   1      46.568  23.378  34.577  1.00  0.00     0.001 A 
ATOM     81  C   UNL A   1      44.300  22.627  34.864  1.00  0.00     0.001 A 
ATOM     82  C   UNL A   1      45.650  22.519  35.173  1.00  0.00     0.000 A 
ENDBRANCH  64  77
ENDBRANCH  38  39
ENDBRANCH  31  33
ENDBRANCH  30  31
ENDBRANCH  29  30
ENDBRANCH  28  29
ENDBRANCH  27  28
ENDBRANCH   1  27
TORSDOF 17
ENDMDL
MODEL 2
REMARK VINA RESULT:     -11.0      3.327      8.145
REMARK SMILES Cc1cc([N+](=O)[O-])ccc1NC(=O)[C@@H]1[C@@H](C(=O)OCCOCCOC(=O)c2ccc(-c3c4nc(c(-c5ccccc5)c5ccc([nH]5)c(-c5ccccc5)c5nc(c(-c6ccccc6)c6ccc3[nH]6)C=C5)C=C4)cc2)[C@H]2C=C[C@@H]1C2
REMARK SMILES IDX 20 1 19 2 18 3 16 4 17 5 15 6 14 7 78 8 75 9 77 10 79 11
REMARK SMILES IDX 76 12 12 13 11 14 13 16 10 17 1 18 2 19 3 20 4 21 9 22 8 23
REMARK SMILES IDX 5 24 6 25 7 26 21 27 22 28 23 29 24 30 25 31 26 32 27 33
REMARK SMILES IDX 28 34 74 35 29 36 73 37 30 38 31 39 32 40 67 41 33 42 72 43
REMARK SMILES IDX 66 44 68 45 34 46 71 47 65 48 64 49 35 51 57 52 42 53 56 54
REMARK SMILES IDX 43 55 46 56 55 57 69 58 44 59 45 60 54 62 70 63 47 64 36 65
REMARK SMILES IDX 37 66 41 67 38 68 40 69 39 70 58 71 59 72 63 73 60 74 62 75
REMARK SMILES IDX 61 76 48 77 49 78 53 79 50 80 52 81 51 82
REMARK H PARENT 11 15 68 50 46 61
REMARK Flexibility Score: inf
ROOT
ATOM      1  C   UNL A   1      35.121  22.448  25.751  1.00  0.00     0.202 C 
ENDROOT
BRANCH   1   2
ATOM      2  C   UNL A   1      34.944  21.412  24.663  1.00  0.00     0.261 C 
BRANCH   2   3
ATOM      3  O   UNL A   1      33.893  21.790  23.751  1.00  0.00    -0.463 OA
BRANCH   3   4
ATOM      4  C   UNL A   1      34.063  22.962  23.063  1.00  0.00     0.310 C 
ATOM      5  O   UNL A   1      35.117  23.399  22.666  1.00  0.00    -0.252 OA
BRANCH   4   6
ATOM      6  C   UNL A   1      32.707  23.562  22.777  1.00  0.00     0.119 C 
ATOM      7  C   UNL A   1      32.694  25.100  22.984  1.00  0.00     0.100 C 
ATOM      8  C   UNL A   1      31.302  25.330  23.633  1.00  0.00     0.025 C 
ATOM      9  C   UNL A   1      31.539  23.100  23.679  1.00  0.00     0.027 C 
ATOM     10  C   UNL A   1      31.474  24.947  25.081  1.00  0.00    -0.027 C 
ATOM     11  C   UNL A   1      30.486  24.103  23.190  1.00  0.00     0.017 C 
ATOM     12  C   UNL A   1      31.642  23.615  25.101  1.00  0.00    -0.027 C 
BRANCH   7  13
ATOM     13  C   UNL A   1      32.918  25.917  21.728  1.00  0.00     0.228 C 
ATOM     14  N   UNL A   1      32.951  27.289  21.794  1.00  0.00    -0.326 N 
ATOM     15  H   UNL A   1      33.069  27.745  20.929  1.00  0.00     0.169 HD
ATOM     16  O   UNL A   1      33.008  25.385  20.618  1.00  0.00    -0.274 OA
BRANCH  14  17
ATOM     17  C   UNL A   1      32.845  28.145  22.908  1.00  0.00     0.044 A 
ATOM     18  C   UNL A   1      30.420  28.700  22.271  1.00  0.00     0.047 C 
ATOM     19  C   UNL A   1      31.607  28.753  23.195  1.00  0.00    -0.021 A 
ATOM     20  C   UNL A   1      31.457  29.456  24.408  1.00  0.00     0.091 A 
ATOM     21  C   UNL A   1      32.528  29.568  25.303  1.00  0.00     0.269 A 
ATOM     22  C   UNL A   1      33.936  28.395  23.754  1.00  0.00     0.033 A 
ATOM     23  C   UNL A   1      33.784  29.073  24.963  1.00  0.00     0.088 A 
BRANCH  21  24
ATOM     24  N   UNL A   1      32.331  30.204  26.609  1.00  0.00     0.062 N 
ATOM     25  O   UNL A   1      32.980  29.761  27.567  1.00  0.00    -0.258 OA
ATOM     26  O   UNL A   1      31.544  31.159  26.673  1.00  0.00    -0.258 OA
ENDBRANCH  21  24
ENDBRANCH  14  17
ENDBRANCH   7  13
ENDBRANCH   4   6
ENDBRANCH   3   4
ENDBRANCH   2   3
ENDBRANCH   1   2
BRANCH   1  27
ATOM     27  O   UNL A   1      36.429  22.274  26.289  1.00  0.00    -0.374 OA
BRANCH  27  28
ATOM     28  C   UNL A   1      37.497  22.510  25.380  1.00  0.00     0.202 C 
BRANCH  28  29
ATOM     29  C   UNL A   1      38.853  21.956  25.847  1.00  0.00     0.261 C 
BRANCH  29  30
ATOM     30  O   UNL A   1      39.294  22.682  27.009  1.00  0.00    -0.460 OA
BRANCH  30  31
ATOM     31  C   UNL A   1      40.391  23.464  26.826  1.00  0.00     0.338 C 
ATOM     32  O   UNL A   1      41.533  23.063  26.674  1.00  0.00    -0.246 OA
BRANCH  31  33
ATOM     33  C   UNL A   1      40.036  24.881  27.115  1.00  0.00     0.060 A 
ATOM     34  C   UNL A   1      40.516  25.898  26.273  1.00  0.00     0.016 A 
ATOM     35  C   UNL A   1      39.486  25.202  28.355  1.00  0.00     0.016 A 
ATOM     36  C   UNL A   1      40.560  27.222  26.730  1.00  0.00     0.010 A 
ATOM     37  C   UNL A   1      39.604  26.491  28.831  1.00  0.00     0.010 A 
ATOM     38  C   UNL A   1      40.163  27.502  28.037  1.00  0.00    -0.014 A 
BRANCH  38  39
ATOM     39  C   UNL A   1      40.387  28.771  28.730  1.00  0.00     0.031 A 
ATOM     40  C   UNL A   1      39.295  29.764  28.830  1.00  0.00     0.074 A 
ATOM     41  C   UNL A   1      41.487  28.935  29.500  1.00  0.00     0.049 A 
ATOM     42  N   UNL A   1      39.457  30.978  29.235  1.00  0.00    -0.248 NA
ATOM     43  C   UNL A   1      37.913  29.479  28.458  1.00  0.00     0.031 C 
ATOM     44  C   UNL A   1      41.689  29.893  30.582  1.00  0.00     0.029 A 
ATOM     45  N   UNL A   1      42.727  28.299  29.395  1.00  0.00    -0.354 N 
ATOM     46  C   UNL A   1      38.216  31.475  29.553  1.00  0.00     0.074 A 
ATOM     47  C   UNL A   1      37.289  30.565  28.925  1.00  0.00     0.031 C 
ATOM     48  C   UNL A   1      43.004  30.022  30.811  1.00  0.00     0.029 A 
ATOM     49  C   UNL A   1      43.697  29.209  29.827  1.00  0.00     0.049 A 
ATOM     50  H   UNL A   1      42.888  27.382  29.075  1.00  0.00     0.167 HD
ATOM     51  C   UNL A   1      38.131  32.500  30.451  1.00  0.00     0.031 A 
ATOM     52  C   UNL A   1      44.708  29.617  29.017  1.00  0.00     0.031 A 
ATOM     53  C   UNL A   1      39.467  33.012  30.817  1.00  0.00     0.049 A 
ATOM     54  C   UNL A   1      44.592  31.102  28.833  1.00  0.00     0.074 A 
ATOM     55  C   UNL A   1      40.213  32.995  31.986  1.00  0.00     0.029 A 
ATOM     56  N   UNL A   1      40.352  33.406  29.807  1.00  0.00    -0.354 N 
ATOM     57  N   UNL A   1      43.446  31.727  28.909  1.00  0.00    -0.248 NA
ATOM     58  C   UNL A   1      45.730  32.008  28.725  1.00  0.00     0.031 C 
ATOM     59  C   UNL A   1      41.567  33.284  31.649  1.00  0.00     0.029 A 
ATOM     60  C   UNL A   1      41.645  33.512  30.283  1.00  0.00     0.049 A 
ATOM     61  H   UNL A   1      40.087  33.585  28.875  1.00  0.00     0.167 HD
ATOM     62  C   UNL A   1      43.686  33.058  29.048  1.00  0.00     0.074 A 
ATOM     63  C   UNL A   1      45.119  33.203  28.838  1.00  0.00     0.031 C 
ATOM     64  C   UNL A   1      42.738  33.961  29.425  1.00  0.00     0.031 A 
BRANCH  51  65
ATOM     65  C   UNL A   1      36.852  32.856  31.198  1.00  0.00    -0.014 A 
ATOM     66  C   UNL A   1      36.633  32.375  32.503  1.00  0.00     0.009 A 
ATOM     67  C   UNL A   1      35.797  33.618  30.663  1.00  0.00     0.009 A 
ATOM     68  C   UNL A   1      35.424  32.587  33.191  1.00  0.00     0.001 A 
ATOM     69  C   UNL A   1      34.579  33.820  31.331  1.00  0.00     0.001 A 
ATOM     70  C   UNL A   1      34.389  33.297  32.598  1.00  0.00     0.000 A 
ENDBRANCH  51  65
BRANCH  52  71
ATOM     71  C   UNL A   1      45.172  28.567  28.071  1.00  0.00    -0.014 A 
ATOM     72  C   UNL A   1      44.931  28.794  26.696  1.00  0.00     0.009 A 
ATOM     73  C   UNL A   1      46.166  27.639  28.417  1.00  0.00     0.009 A 
ATOM     74  C   UNL A   1      45.721  28.194  25.707  1.00  0.00     0.001 A 
ATOM     75  C   UNL A   1      46.960  27.043  27.421  1.00  0.00     0.001 A 
ATOM     76  C   UNL A   1      46.760  27.344  26.074  1.00  0.00     0.000 A 
ENDBRANCH  52  71
BRANCH  64  77
ATOM     77  C   UNL A   1      42.832  35.411  29.061  1.00  0.00    -0.014 A 
ATOM     78  C   UNL A   1      43.388  36.365  29.926  1.00  0.00     0.009 A 
ATOM     79  C   UNL A   1      42.564  35.813  27.738  1.00  0.00     0.009 A 
ATOM     80  C   UNL A   1      43.638  37.671  29.500  1.00  0.00     0.001 A 
ATOM     81  C   UNL A   1      42.854  37.103  27.297  1.00  0.00     0.001 A 
ATOM     82  C   UNL A   1      43.383  38.034  28.181  1.00  0.00     0.000 A 
ENDBRANCH  64  77
ENDBRANCH  38  39
ENDBRANCH  31  33
ENDBRANCH  30  31
ENDBRANCH  29  30
ENDBRANCH  28  29
ENDBRANCH  27  28
ENDBRANCH   1  27
TORSDOF 17
ENDMDL
MODEL 3
REMARK VINA RESULT:     -10.9      3.107      7.799
REMARK SMILES Cc1cc([N+](=O)[O-])ccc1NC(=O)[C@@H]1[C@@H](C(=O)OCCOCCOC(=O)c2ccc(-c3c4nc(c(-c5ccccc5)c5ccc([nH]5)c(-c5ccccc5)c5nc(c(-c6ccccc6)c6ccc3[nH]6)C=C5)C=C4)cc2)[C@H]2C=C[C@@H]1C2
REMARK SMILES IDX 20 1 19 2 18 3 16 4 17 5 15 6 14 7 78 8 75 9 77 10 79 11
REMARK SMILES IDX 76 12 12 13 11 14 13 16 10 17 1 18 2 19 3 20 4 21 9 22 8 23
REMARK SMILES IDX 5 24 6 25 7 26 21 27 22 28 23 29 24 30 25 31 26 32 27 33
REMARK SMILES IDX 28 34 74 35 29 36 73 37 30 38 31 39 32 40 67 41 33 42 72 43
REMARK SMILES IDX 66 44 68 45 34 46 71 47 65 48 64 49 35 51 57 52 42 53 56 54
REMARK SMILES IDX 43 55 46 56 55 57 69 58 44 59 45 60 54 62 70 63 47 64 36 65
REMARK SMILES IDX 37 66 41 67 38 68 40 69 39 70 58 71 59 72 63 73 60 74 62 75
REMARK SMILES IDX 61 76 48 77 49 78 53 79 50 80 52 81 51 82
REMARK H PARENT 11 15 68 50 46 61
REMARK Flexibility Score: inf
ROOT
ATOM      1  C   UNL A   1      38.166  22.237  25.750  1.00  0.00     0.202 C 
ENDROOT
BRANCH   1   2
ATOM      2  C   UNL A   1      37.497  23.115  24.714  1.00  0.00     0.261 C 
BRANCH   2   3
ATOM      3  O   UNL A   1      36.602  22.349  23.883  1.00  0.00    -0.463 OA
BRANCH   3   4
ATOM      4  C   UNL A   1      35.378  22.902  23.619  1.00  0.00     0.310 C 
ATOM      5  O   UNL A   1      35.179  23.879  22.937  1.00  0.00    -0.252 OA
BRANCH   4   6
ATOM      6  C   UNL A   1      34.305  22.026  24.220  1.00  0.00     0.119 C 
ATOM      7  C   UNL A   1      32.943  22.763  24.330  1.00  0.00     0.100 C 
ATOM      8  C   UNL A   1      32.408  22.257  25.698  1.00  0.00     0.025 C 
ATOM      9  C   UNL A   1      34.534  21.544  25.671  1.00  0.00     0.027 C 
ATOM     10  C   UNL A   1      33.145  23.067  26.734  1.00  0.00    -0.027 C 
ATOM     11  C   UNL A   1      33.151  20.926  25.909  1.00  0.00     0.017 C 
ATOM     12  C   UNL A   1      34.422  22.656  26.696  1.00  0.00    -0.027 C 
BRANCH   7  13
ATOM     13  C   UNL A   1      31.989  22.519  23.179  1.00  0.00     0.228 C 
ATOM     14  N   UNL A   1      31.241  23.555  22.672  1.00  0.00    -0.326 N 
ATOM     15  H   UNL A   1      30.623  23.305  21.947  1.00  0.00     0.169 HD
ATOM     16  O   UNL A   1      31.808  21.390  22.717  1.00  0.00    -0.274 OA
BRANCH  14  17
ATOM     17  C   UNL A   1      31.224  24.919  23.026  1.00  0.00     0.044 A 
ATOM     18  C   UNL A   1      32.644  25.488  20.963  1.00  0.00     0.047 C 
ATOM     19  C   UNL A   1      31.815  25.862  22.163  1.00  0.00    -0.021 A 
ATOM     20  C   UNL A   1      31.635  27.235  22.427  1.00  0.00     0.091 A 
ATOM     21  C   UNL A   1      30.899  27.655  23.542  1.00  0.00     0.269 A 
ATOM     22  C   UNL A   1      30.616  25.366  24.208  1.00  0.00     0.033 A 
ATOM     23  C   UNL A   1      30.420  26.724  24.460  1.00  0.00     0.088 A 
BRANCH  21  24
ATOM     24  N   UNL A   1      30.623  29.080  23.747  1.00  0.00     0.062 N 
ATOM     25  O   UNL A   1      30.109  29.705  22.808  1.00  0.00    -0.258 OA
ATOM     26  O   UNL A   1      30.900  29.568  24.851  1.00  0.00    -0.258 OA
ENDBRANCH  21  24
ENDBRANCH  14  17
ENDBRANCH   7  13
ENDBRANCH   4   6
ENDBRANCH   3   4
ENDBRANCH   2   3
ENDBRANCH   1   2
BRANCH   1  27
ATOM     27  O   UNL A   1      38.167  20.908  25.236  1.00  0.00    -0.374 OA
BRANCH  27  28
ATOM     28  C   UNL A   1      39.249  20.090  25.666  1.00  0.00     0.202 C 
BRANCH  28  29
ATOM     29  C   UNL A   1      40.366  20.857  26.390  1.00  0.00     0.261 C 
BRANCH  29  30
ATOM     30  O   UNL A   1      41.522  20.009  26.524  1.00  0.00    -0.460 OA
BRANCH  30  31
ATOM     31  C   UNL A   1      42.653  20.467  25.924  1.00  0.00     0.338 C 
ATOM     32  O   UNL A   1      43.299  19.873  25.077  1.00  0.00    -0.246 OA
BRANCH  31  33
ATOM     33  C   UNL A   1      43.139  21.674  26.649  1.00  0.00     0.060 A 
ATOM     34  C   UNL A   1      42.838  21.827  28.013  1.00  0.00     0.016 A 
ATOM     35  C   UNL A   1      43.627  22.754  25.915  1.00  0.00     0.016 A 
ATOM     36  C   UNL A   1      42.906  23.095  28.606  1.00  0.00     0.010 A 
ATOM     37  C   UNL A   1      43.615  24.012  26.481  1.00  0.00     0.010 A 
ATOM     38  C   UNL A   1      43.233  24.197  27.816  1.00  0.00    -0.014 A 
BRANCH  38  39
ATOM     39  C   UNL A   1      43.098  25.595  28.227  1.00  0.00     0.031 A 
ATOM     40  C   UNL A   1      41.855  26.339  27.929  1.00  0.00     0.074 A 
ATOM     41  C   UNL A   1      43.983  26.131  29.097  1.00  0.00     0.049 A 
ATOM     42  N   UNL A   1      41.726  27.615  28.065  1.00  0.00    -0.248 NA
ATOM     43  C   UNL A   1      40.640  25.705  27.425  1.00  0.00     0.031 C 
ATOM     44  C   UNL A   1      43.806  27.303  29.949  1.00  0.00     0.029 A 
ATOM     45  N   UNL A   1      45.310  25.760  29.331  1.00  0.00    -0.354 N 
ATOM     46  C   UNL A   1      40.381  27.895  28.067  1.00  0.00     0.074 A 
ATOM     47  C   UNL A   1      39.762  26.707  27.530  1.00  0.00     0.031 C 
ATOM     48  C   UNL A   1      45.009  27.745  30.340  1.00  0.00     0.029 A 
ATOM     49  C   UNL A   1      46.009  26.918  29.687  1.00  0.00     0.049 A 
ATOM     50  H   UNL A   1      45.684  24.852  29.259  1.00  0.00     0.167 HD
ATOM     51  C   UNL A   1      39.950  29.035  28.683  1.00  0.00     0.031 A 
ATOM     52  C   UNL A   1      47.073  27.361  28.969  1.00  0.00     0.031 A 
ATOM     53  C   UNL A   1      41.082  29.875  29.122  1.00  0.00     0.049 A 
ATOM     54  C   UNL A   1      46.744  28.724  28.434  1.00  0.00     0.074 A 
ATOM     55  C   UNL A   1      41.579  30.242  30.363  1.00  0.00     0.029 A 
ATOM     56  N   UNL A   1      42.066  30.240  28.195  1.00  0.00    -0.354 N 
ATOM     57  N   UNL A   1      45.515  29.100  28.189  1.00  0.00    -0.248 NA
ATOM     58  C   UNL A   1      47.709  29.809  28.297  1.00  0.00     0.031 C 
ATOM     59  C   UNL A   1      42.903  30.736  30.180  1.00  0.00     0.029 A 
ATOM     60  C   UNL A   1      43.205  30.704  28.826  1.00  0.00     0.049 A 
ATOM     61  H   UNL A   1      41.961  30.174  27.217  1.00  0.00     0.167 HD
ATOM     62  C   UNL A   1      45.494  30.453  28.054  1.00  0.00     0.074 A 
ATOM     63  C   UNL A   1      46.894  30.848  28.038  1.00  0.00     0.031 C 
ATOM     64  C   UNL A   1      44.351  31.194  28.065  1.00  0.00     0.031 A 
BRANCH  51  65
ATOM     65  C   UNL A   1      38.509  29.256  29.123  1.00  0.00    -0.014 A 
ATOM     66  C   UNL A   1      37.541  29.689  28.197  1.00  0.00     0.009 A 
ATOM     67  C   UNL A   1      38.041  29.106  30.442  1.00  0.00     0.009 A 
ATOM     68  C   UNL A   1      36.224  30.009  28.578  1.00  0.00     0.001 A 
ATOM     69  C   UNL A   1      36.737  29.440  30.838  1.00  0.00     0.001 A 
ATOM     70  C   UNL A   1      35.826  29.900  29.903  1.00  0.00     0.000 A 
ENDBRANCH  51  65
BRANCH  52  71
ATOM     71  C   UNL A   1      47.884  26.267  28.370  1.00  0.00    -0.014 A 
ATOM     72  C   UNL A   1      47.988  26.246  26.960  1.00  0.00     0.009 A 
ATOM     73  C   UNL A   1      48.850  25.568  29.108  1.00  0.00     0.009 A 
ATOM     74  C   UNL A   1      49.071  25.635  26.317  1.00  0.00     0.001 A 
ATOM     75  C   UNL A   1      49.939  24.961  28.458  1.00  0.00     0.001 A 
ATOM     76  C   UNL A   1      50.066  25.021  27.071  1.00  0.00     0.000 A 
ENDBRANCH  52  71
BRANCH  64  77
ATOM     77  C   UNL A   1      44.265  32.532  27.398  1.00  0.00    -0.014 A 
ATOM     78  C   UNL A   1      44.434  32.691  26.014  1.00  0.00     0.009 A 
ATOM     79  C   UNL A   1      43.784  33.639  28.123  1.00  0.00     0.009 A 
ATOM     80  C   UNL A   1      44.167  33.909  25.387  1.00  0.00     0.001 A 
ATOM     81  C   UNL A   1      43.473  34.843  27.493  1.00  0.00     0.001 A 
ATOM     82  C   UNL A   1      43.672  34.979  26.125  1.00  0.00     0.000 A 
ENDBRANCH  64  77
ENDBRANCH  38  39
ENDBRANCH  31  33
ENDBRANCH  30  31
ENDBRANCH  29  30
ENDBRANCH  28  29
ENDBRANCH  27  28
ENDBRANCH   1  27
TORSDOF 17
ENDMDL
