MODEL 1
REMARK VINA RESULT:     -11.1      0.000      0.000
REMARK SMILES O=C(OCCOCCOC(=O)c1ccc(C[N@H+]2CC[N@H+]3CCCC[C@@H]3C2)c(F)c1)c1ccc(-c2c3nc(c(-c4ccccc4)c4ccc([nH]4)c(-c4ccccc4)c4nc(c(-c5ccccc5)c5ccc2[nH]5)C=C4)C=C3)cc1
REMARK SMILES IDX 6 1 5 2 4 3 3 4 2 5 1 6 30 7 31 8 77 9 32 10 76 11 33 12
REMARK SMILES IDX 34 13 35 14 70 15 36 16 75 17 69 18 71 19 37 20 74 21 68 22
REMARK SMILES IDX 67 23 38 25 60 26 45 27 59 28 46 29 49 30 58 31 72 32 47 33
REMARK SMILES IDX 48 34 57 36 73 37 50 38 39 39 40 40 44 41 41 42 43 43 42 44
REMARK SMILES IDX 61 45 62 46 66 47 63 48 65 49 64 50 51 51 52 52 56 53 53 54
REMARK SMILES IDX 55 55 54 56 7 57 8 58 9 59 10 60 11 61 12 62 13 63 29 64
REMARK SMILES IDX 14 65 27 66 15 67 28 68 16 69 17 70 18 71 26 72 19 74 25 75
REMARK SMILES IDX 20 76 24 77 21 78 23 80 22 81
REMARK H PARENT 71 24 49 35 17 73 20 79
REMARK Flexibility Score: inf
ROOT
ATOM      1  O   UNL A   1      41.540  20.431  25.652  1.00  0.00    -0.374 OA
ENDROOT
BRANCH   1   2
ATOM      2  C   UNL A   1      42.910  20.307  26.032  1.00  0.00     0.202 C 
BRANCH   2   3
ATOM      3  C   UNL A   1      43.888  21.167  25.233  1.00  0.00     0.261 C 
BRANCH   3   4
ATOM      4  O   UNL A   1      43.248  22.377  24.794  1.00  0.00    -0.460 OA
BRANCH   4   5
ATOM      5  C   UNL A   1      43.671  23.646  25.000  1.00  0.00     0.338 C 
ATOM      6  O   UNL A   1      44.525  24.121  24.255  1.00  0.00    -0.246 OA
BRANCH   5   7
ATOM      7  C   UNL A   1      43.151  24.502  26.105  1.00  0.00     0.060 A 
ATOM      8  C   UNL A   1      42.464  24.012  27.217  1.00  0.00     0.016 A 
ATOM      9  C   UNL A   1      43.470  25.869  26.072  1.00  0.00     0.016 A 
ATOM     10  C   UNL A   1      42.029  24.855  28.230  1.00  0.00     0.010 A 
ATOM     11  C   UNL A   1      43.090  26.717  27.118  1.00  0.00     0.010 A 
ATOM     12  C   UNL A   1      42.355  26.209  28.195  1.00  0.00    -0.014 A 
BRANCH  12  13
ATOM     13  C   UNL A   1      41.869  27.069  29.288  1.00  0.00     0.031 A 
ATOM     14  C   UNL A   1      42.695  27.200  30.529  1.00  0.00     0.074 A 
ATOM     15  C   UNL A   1      40.759  27.806  29.103  1.00  0.00     0.049 A 
ATOM     16  N   UNL A   1      42.451  27.884  31.614  1.00  0.00    -0.248 NA
ATOM     17  C   UNL A   1      43.977  26.474  30.543  1.00  0.00     0.031 C 
ATOM     18  C   UNL A   1      39.955  27.828  27.877  1.00  0.00     0.029 A 
ATOM     19  N   UNL A   1      40.136  28.707  29.924  1.00  0.00    -0.354 N 
ATOM     20  C   UNL A   1      43.535  27.652  32.450  1.00  0.00     0.074 A 
ATOM     21  C   UNL A   1      44.436  26.763  31.751  1.00  0.00     0.031 C 
ATOM     22  C   UNL A   1      38.967  28.725  28.016  1.00  0.00     0.029 A 
ATOM     23  C   UNL A   1      39.027  29.287  29.359  1.00  0.00     0.049 A 
ATOM     24  H   UNL A   1      40.453  28.918  30.832  1.00  0.00     0.167 HD
ATOM     25  C   UNL A   1      43.747  28.134  33.697  1.00  0.00     0.031 A 
ATOM     26  C   UNL A   1      38.144  30.154  29.887  1.00  0.00     0.031 A 
ATOM     27  C   UNL A   1      42.824  28.999  34.378  1.00  0.00     0.049 A 
ATOM     28  C   UNL A   1      38.352  30.596  31.309  1.00  0.00     0.074 A 
ATOM     29  C   UNL A   1      42.887  29.493  35.668  1.00  0.00     0.029 A 
ATOM     30  N   UNL A   1      41.662  29.503  33.809  1.00  0.00    -0.354 N 
ATOM     31  N   UNL A   1      39.343  30.316  32.122  1.00  0.00    -0.248 NA
ATOM     32  C   UNL A   1      37.315  31.456  31.892  1.00  0.00     0.031 C 
ATOM     33  C   UNL A   1      41.739  30.261  35.892  1.00  0.00     0.029 A 
ATOM     34  C   UNL A   1      40.988  30.288  34.726  1.00  0.00     0.049 A 
ATOM     35  H   UNL A   1      41.363  29.327  32.887  1.00  0.00     0.167 HD
ATOM     36  C   UNL A   1      39.055  30.970  33.311  1.00  0.00     0.074 A 
ATOM     37  C   UNL A   1      37.808  31.683  33.101  1.00  0.00     0.031 C 
ATOM     38  C   UNL A   1      39.749  30.978  34.476  1.00  0.00     0.031 A 
BRANCH  25  39
ATOM     39  C   UNL A   1      44.980  27.654  34.406  1.00  0.00    -0.014 A 
ATOM     40  C   UNL A   1      44.984  26.461  35.146  1.00  0.00     0.009 A 
ATOM     41  C   UNL A   1      46.145  28.434  34.369  1.00  0.00     0.009 A 
ATOM     42  C   UNL A   1      46.119  26.083  35.869  1.00  0.00     0.001 A 
ATOM     43  C   UNL A   1      47.284  28.043  35.073  1.00  0.00     0.001 A 
ATOM     44  C   UNL A   1      47.266  26.874  35.832  1.00  0.00     0.000 A 
ENDBRANCH  25  39
BRANCH  26  45
ATOM     45  C   UNL A   1      36.968  30.609  29.097  1.00  0.00    -0.014 A 
ATOM     46  C   UNL A   1      36.848  31.943  28.680  1.00  0.00     0.009 A 
ATOM     47  C   UNL A   1      35.947  29.703  28.760  1.00  0.00     0.009 A 
ATOM     48  C   UNL A   1      35.725  32.362  27.960  1.00  0.00     0.001 A 
ATOM     49  C   UNL A   1      34.841  30.118  28.015  1.00  0.00     0.001 A 
ATOM     50  C   UNL A   1      34.726  31.450  27.624  1.00  0.00     0.000 A 
ENDBRANCH  26  45
BRANCH  38  51
ATOM     51  C   UNL A   1      39.180  31.802  35.592  1.00  0.00    -0.014 A 
ATOM     52  C   UNL A   1      39.600  33.124  35.802  1.00  0.00     0.009 A 
ATOM     53  C   UNL A   1      38.178  31.260  36.411  1.00  0.00     0.009 A 
ATOM     54  C   UNL A   1      39.046  33.880  36.834  1.00  0.00     0.001 A 
ATOM     55  C   UNL A   1      37.607  32.029  37.425  1.00  0.00     0.001 A 
ATOM     56  C   UNL A   1      38.047  33.334  37.641  1.00  0.00     0.000 A 
ENDBRANCH  38  51
ENDBRANCH  12  13
ENDBRANCH   5   7
ENDBRANCH   4   5
ENDBRANCH   3   4
ENDBRANCH   2   3
ENDBRANCH   1   2
BRANCH   1  57
ATOM     57  C   UNL A   1      40.590  20.417  26.725  1.00  0.00     0.202 C 
BRANCH  57  58
ATOM     58  C   UNL A   1      40.059  21.839  26.952  1.00  0.00     0.261 C 
BRANCH  58  59
ATOM     59  O   UNL A   1      38.899  22.046  26.127  1.00  0.00    -0.460 OA
BRANCH  59  60
ATOM     60  C   UNL A   1      38.397  23.309  26.126  1.00  0.00     0.338 C 
ATOM     61  O   UNL A   1      38.967  24.350  26.402  1.00  0.00    -0.246 OA
BRANCH  60  62
ATOM     62  C   UNL A   1      37.084  23.219  25.470  1.00  0.00     0.063 A 
ATOM     63  C   UNL A   1      36.984  22.956  24.105  1.00  0.00     0.016 A 
ATOM     64  C   UNL A   1      35.960  23.585  26.211  1.00  0.00     0.055 A 
ATOM     65  C   UNL A   1      35.764  23.166  23.460  1.00  0.00     0.013 A 
ATOM     66  C   UNL A   1      34.775  23.865  25.544  1.00  0.00     0.132 A 
ATOM     67  C   UNL A   1      34.675  23.725  24.158  1.00  0.00     0.042 A 
ATOM     68  F   UNL A   1      33.744  24.355  26.248  1.00  0.00    -0.206 F 
BRANCH  67  69
ATOM     69  C   UNL A   1      33.468  24.244  23.412  1.00  0.00     0.302 C 
BRANCH  69  70
ATOM     70  N   UNL A   1      33.634  25.450  22.583  1.00  0.00    -0.322 N 
ATOM     71  C   UNL A   1      32.756  25.563  21.410  1.00  0.00     0.324 C 
ATOM     72  C   UNL A   1      33.715  26.739  23.286  1.00  0.00     0.328 C 
ATOM     73  H   UNL A   1      34.573  25.257  22.234  1.00  0.00     0.348 HD
ATOM     74  C   UNL A   1      31.422  26.328  21.608  1.00  0.00     0.324 C 
ATOM     75  C   UNL A   1      32.340  27.401  23.569  1.00  0.00     0.239 C 
ATOM     76  N   UNL A   1      31.548  27.610  22.339  1.00  0.00    -0.323 N 
ATOM     77  C   UNL A   1      32.511  28.714  24.343  1.00  0.00     0.071 C 
ATOM     78  C   UNL A   1      30.212  28.133  22.671  1.00  0.00     0.262 C 
ATOM     79  H   UNL A   1      32.025  28.292  21.748  1.00  0.00     0.348 HD
ATOM     80  C   UNL A   1      31.144  29.266  24.734  1.00  0.00     0.012 C 
ATOM     81  C   UNL A   1      30.263  29.419  23.499  1.00  0.00     0.062 C 
ENDBRANCH  69  70
ENDBRANCH  67  69
ENDBRANCH  60  62
ENDBRANCH  59  60
ENDBRANCH  58  59
ENDBRANCH  57  58
ENDBRANCH   1  57
TORSDOF 16
ENDMDL
MODEL 2
REMARK VINA RESULT:     -10.8      3.342      7.311
REMARK SMILES O=C(OCCOCCOC(=O)c1ccc(C[N@H+]2CC[N@H+]3CCCC[C@@H]3C2)c(F)c1)c1ccc(-c2c3nc(c(-c4ccccc4)c4ccc([nH]4)c(-c4ccccc4)c4nc(c(-c5ccccc5)c5ccc2[nH]5)C=C4)C=C3)cc1
REMARK SMILES IDX 6 1 5 2 4 3 3 4 2 5 1 6 30 7 31 8 77 9 32 10 76 11 33 12
REMARK SMILES IDX 34 13 35 14 70 15 36 16 75 17 69 18 71 19 37 20 74 21 68 22
REMARK SMILES IDX 67 23 38 25 60 26 45 27 59 28 46 29 49 30 58 31 72 32 47 33
REMARK SMILES IDX 48 34 57 36 73 37 50 38 39 39 40 40 44 41 41 42 43 43 42 44
REMARK SMILES IDX 61 45 62 46 66 47 63 48 65 49 64 50 51 51 52 52 56 53 53 54
REMARK SMILES IDX 55 55 54 56 7 57 8 58 9 59 10 60 11 61 12 62 13 63 29 64
REMARK SMILES IDX 14 65 27 66 15 67 28 68 16 69 17 70 18 71 26 72 19 74 25 75
REMARK SMILES IDX 20 76 24 77 21 78 23 80 22 81
REMARK H PARENT 71 24 49 35 17 73 20 79
REMARK Flexibility Score: inf
ROOT
ATOM      1  O   UNL A   1      37.027  21.596  24.447  1.00  0.00    -0.374 OA
ENDROOT
BRANCH   1   2
ATOM      2  C   UNL A   1      38.044  21.120  25.328  1.00  0.00     0.202 C 
BRANCH   2   3
ATOM      3  C   UNL A   1      38.641  19.762  24.961  1.00  0.00     0.261 C 
BRANCH   3   4
ATOM      4  O   UNL A   1      39.615  19.363  25.941  1.00  0.00    -0.460 OA
BRANCH   4   5
ATOM      5  C   UNL A   1      40.900  19.780  26.034  1.00  0.00     0.338 C 
ATOM      6  O   UNL A   1      41.798  19.045  25.632  1.00  0.00    -0.246 OA
BRANCH   5   7
ATOM      7  C   UNL A   1      41.281  21.099  26.616  1.00  0.00     0.060 A 
ATOM      8  C   UNL A   1      41.239  21.395  27.980  1.00  0.00     0.016 A 
ATOM      9  C   UNL A   1      41.816  22.062  25.745  1.00  0.00     0.016 A 
ATOM     10  C   UNL A   1      41.634  22.633  28.466  1.00  0.00     0.010 A 
ATOM     11  C   UNL A   1      42.276  23.290  26.233  1.00  0.00     0.010 A 
ATOM     12  C   UNL A   1      42.172  23.581  27.597  1.00  0.00    -0.014 A 
BRANCH  12  13
ATOM     13  C   UNL A   1      42.575  24.884  28.155  1.00  0.00     0.031 A 
ATOM     14  C   UNL A   1      41.530  25.931  28.378  1.00  0.00     0.074 A 
ATOM     15  C   UNL A   1      43.847  25.063  28.557  1.00  0.00     0.049 A 
ATOM     16  N   UNL A   1      41.664  27.145  28.839  1.00  0.00    -0.248 NA
ATOM     17  C   UNL A   1      40.143  25.554  28.055  1.00  0.00     0.031 C 
ATOM     18  C   UNL A   1      44.906  24.053  28.483  1.00  0.00     0.029 A 
ATOM     19  N   UNL A   1      44.455  26.139  29.144  1.00  0.00    -0.354 N 
ATOM     20  C   UNL A   1      40.386  27.686  28.837  1.00  0.00     0.074 A 
ATOM     21  C   UNL A   1      39.490  26.672  28.328  1.00  0.00     0.031 C 
ATOM     22  C   UNL A   1      46.023  24.547  29.037  1.00  0.00     0.029 A 
ATOM     23  C   UNL A   1      45.779  25.926  29.440  1.00  0.00     0.049 A 
ATOM     24  H   UNL A   1      43.989  26.985  29.335  1.00  0.00     0.167 HD
ATOM     25  C   UNL A   1      40.002  28.927  29.218  1.00  0.00     0.031 A 
ATOM     26  C   UNL A   1      46.695  26.767  29.953  1.00  0.00     0.031 A 
ATOM     27  C   UNL A   1      40.918  29.924  29.701  1.00  0.00     0.049 A 
ATOM     28  C   UNL A   1      46.262  28.170  30.275  1.00  0.00     0.074 A 
ATOM     29  C   UNL A   1      40.666  31.239  30.045  1.00  0.00     0.029 A 
ATOM     30  N   UNL A   1      42.272  29.704  29.909  1.00  0.00    -0.354 N 
ATOM     31  N   UNL A   1      45.064  28.700  30.204  1.00  0.00    -0.248 NA
ATOM     32  C   UNL A   1      47.307  29.096  30.731  1.00  0.00     0.031 C 
ATOM     33  C   UNL A   1      41.879  31.826  30.421  1.00  0.00     0.029 A 
ATOM     34  C   UNL A   1      42.876  30.862  30.360  1.00  0.00     0.049 A 
ATOM     35  H   UNL A   1      42.735  28.847  29.758  1.00  0.00     0.167 HD
ATOM     36  C   UNL A   1      45.206  30.018  30.611  1.00  0.00     0.074 A 
ATOM     37  C   UNL A   1      46.604  30.198  30.954  1.00  0.00     0.031 C 
ATOM     38  C   UNL A   1      44.272  30.998  30.689  1.00  0.00     0.031 A 
BRANCH  25  39
ATOM     39  C   UNL A   1      38.553  29.272  29.037  1.00  0.00    -0.014 A 
ATOM     40  C   UNL A   1      38.056  29.736  27.810  1.00  0.00     0.009 A 
ATOM     41  C   UNL A   1      37.678  29.171  30.129  1.00  0.00     0.009 A 
ATOM     42  C   UNL A   1      36.721  30.134  27.693  1.00  0.00     0.001 A 
ATOM     43  C   UNL A   1      36.341  29.547  30.005  1.00  0.00     0.001 A 
ATOM     44  C   UNL A   1      35.866  30.040  28.790  1.00  0.00     0.000 A 
ENDBRANCH  25  39
BRANCH  26  45
ATOM     45  C   UNL A   1      48.105  26.329  30.135  1.00  0.00    -0.014 A 
ATOM     46  C   UNL A   1      49.036  26.434  29.091  1.00  0.00     0.009 A 
ATOM     47  C   UNL A   1      48.528  25.792  31.363  1.00  0.00     0.009 A 
ATOM     48  C   UNL A   1      50.351  25.994  29.266  1.00  0.00     0.001 A 
ATOM     49  C   UNL A   1      49.850  25.381  31.545  1.00  0.00     0.001 A 
ATOM     50  C   UNL A   1      50.759  25.474  30.494  1.00  0.00     0.000 A 
ENDBRANCH  26  45
BRANCH  38  51
ATOM     51  C   UNL A   1      44.738  32.334  31.185  1.00  0.00    -0.014 A 
ATOM     52  C   UNL A   1      44.732  32.639  32.555  1.00  0.00     0.009 A 
ATOM     53  C   UNL A   1      45.231  33.278  30.273  1.00  0.00     0.009 A 
ATOM     54  C   UNL A   1      45.187  33.881  32.998  1.00  0.00     0.001 A 
ATOM     55  C   UNL A   1      45.710  34.508  30.723  1.00  0.00     0.001 A 
ATOM     56  C   UNL A   1      45.680  34.811  32.084  1.00  0.00     0.000 A 
ENDBRANCH  38  51
ENDBRANCH  12  13
ENDBRANCH   5   7
ENDBRANCH   4   5
ENDBRANCH   3   4
ENDBRANCH   2   3
ENDBRANCH   1   2
BRANCH   1  57
ATOM     57  C   UNL A   1      35.883  22.188  25.074  1.00  0.00     0.202 C 
BRANCH  57  58
ATOM     58  C   UNL A   1      35.046  21.092  25.746  1.00  0.00     0.261 C 
BRANCH  58  59
ATOM     59  O   UNL A   1      34.334  20.357  24.734  1.00  0.00    -0.460 OA
BRANCH  59  60
ATOM     60  C   UNL A   1      33.050  20.032  25.040  1.00  0.00     0.338 C 
ATOM     61  O   UNL A   1      32.646  19.146  25.772  1.00  0.00    -0.246 OA
BRANCH  60  62
ATOM     62  C   UNL A   1      32.223  21.131  24.518  1.00  0.00     0.063 A 
ATOM     63  C   UNL A   1      32.300  21.509  23.178  1.00  0.00     0.016 A 
ATOM     64  C   UNL A   1      31.505  21.898  25.435  1.00  0.00     0.055 A 
ATOM     65  C   UNL A   1      31.738  22.723  22.781  1.00  0.00     0.013 A 
ATOM     66  C   UNL A   1      31.018  23.138  25.044  1.00  0.00     0.132 A 
ATOM     67  C   UNL A   1      31.183  23.599  23.736  1.00  0.00     0.042 A 
ATOM     68  F   UNL A   1      30.457  23.928  25.971  1.00  0.00    -0.206 F 
BRANCH  67  69
ATOM     69  C   UNL A   1      30.862  25.030  23.373  1.00  0.00     0.302 C 
BRANCH  69  70
ATOM     70  N   UNL A   1      31.985  25.953  23.140  1.00  0.00    -0.322 N 
ATOM     71  C   UNL A   1      31.671  27.197  22.423  1.00  0.00     0.324 C 
ATOM     72  C   UNL A   1      32.870  26.230  24.281  1.00  0.00     0.328 C 
ATOM     73  H   UNL A   1      32.522  25.368  22.499  1.00  0.00     0.348 HD
ATOM     74  C   UNL A   1      31.315  28.431  23.291  1.00  0.00     0.324 C 
ATOM     75  C   UNL A   1      32.398  27.398  25.188  1.00  0.00     0.239 C 
ATOM     76  N   UNL A   1      32.220  28.661  24.440  1.00  0.00    -0.323 N 
ATOM     77  C   UNL A   1      33.349  27.590  26.375  1.00  0.00     0.071 C 
ATOM     78  C   UNL A   1      31.665  29.703  25.318  1.00  0.00     0.262 C 
ATOM     79  H   UNL A   1      33.129  28.975  24.099  1.00  0.00     0.348 HD
ATOM     80  C   UNL A   1      32.785  28.642  27.325  1.00  0.00     0.012 C 
ATOM     81  C   UNL A   1      32.508  29.939  26.573  1.00  0.00     0.062 C 
ENDBRANCH  69  70
ENDBRANCH  67  69
ENDBRANCH  60  62
ENDBRANCH  59  60
ENDBRANCH  58  59
ENDBRANCH  57  58
ENDBRANCH   1  57
TORSDOF 16
ENDMDL
MODEL 3
REMARK VINA RESULT:     -10.8      4.490      9.570
REMARK SMILES O=C(OCCOCCOC(=O)c1ccc(C[N@H+]2CC[N@H+]3CCCC[C@@H]3C2)c(F)c1)c1ccc(-c2c3nc(c(-c4ccccc4)c4ccc([nH]4)c(-c4ccccc4)c4nc(c(-c5ccccc5)c5ccc2[nH]5)C=C4)C=C3)cc1
REMARK SMILES IDX 6 1 5 2 4 3 3 4 2 5 1 6 30 7 31 8 77 9 32 10 76 11 33 12
REMARK SMILES IDX 34 13 35 14 70 15 36 16 75 17 69 18 71 19 37 20 74 21 68 22
REMARK SMILES IDX 67 23 38 25 60 26 45 27 59 28 46 29 49 30 58 31 72 32 47 33
REMARK SMILES IDX 48 34 57 36 73 37 50 38 39 39 40 40 44 41 41 42 43 43 42 44
REMARK SMILES IDX 61 45 62 46 66 47 63 48 65 49 64 50 51 51 52 52 56 53 53 54
REMARK SMILES IDX 55 55 54 56 7 57 8 58 9 59 10 60 11 61 12 62 13 63 29 64
REMARK SMILES IDX 14 65 27 66 15 67 28 68 16 69 17 70 18 71 26 72 19 74 25 75
REMARK SMILES IDX 20 76 24 77 21 78 23 80 22 81
REMARK H PARENT 71 24 49 35 17 73 20 79
REMARK Flexibility Score: inf
ROOT
ATOM      1  O   UNL A   1      34.333  34.283  29.210  1.00  0.00    -0.374 OA
ENDROOT
BRANCH   1   2
ATOM      2  C   UNL A   1      33.593  34.796  30.316  1.00  0.00     0.202 C 
BRANCH   2   3
ATOM      3  C   UNL A   1      34.196  34.513  31.692  1.00  0.00     0.261 C 
BRANCH   3   4
ATOM      4  O   UNL A   1      34.566  33.128  31.800  1.00  0.00    -0.460 OA
BRANCH   4   5
ATOM      5  C   UNL A   1      35.612  32.612  32.489  1.00  0.00     0.338 C 
ATOM      6  O   UNL A   1      35.575  32.604  33.716  1.00  0.00    -0.246 OA
BRANCH   5   7
ATOM      7  C   UNL A   1      36.823  32.056  31.820  1.00  0.00     0.060 A 
ATOM      8  C   UNL A   1      37.724  31.182  32.434  1.00  0.00     0.016 A 
ATOM      9  C   UNL A   1      37.005  32.347  30.459  1.00  0.00     0.016 A 
ATOM     10  C   UNL A   1      38.819  30.674  31.750  1.00  0.00     0.010 A 
ATOM     11  C   UNL A   1      38.071  31.791  29.745  1.00  0.00     0.010 A 
ATOM     12  C   UNL A   1      38.989  30.961  30.397  1.00  0.00    -0.014 A 
BRANCH  12  13
ATOM     13  C   UNL A   1      40.168  30.404  29.712  1.00  0.00     0.031 A 
ATOM     14  C   UNL A   1      41.434  31.202  29.684  1.00  0.00     0.074 A 
ATOM     15  C   UNL A   1      40.118  29.149  29.229  1.00  0.00     0.049 A 
ATOM     16  N   UNL A   1      42.579  30.913  29.126  1.00  0.00    -0.248 NA
ATOM     17  C   UNL A   1      41.413  32.491  30.395  1.00  0.00     0.031 C 
ATOM     18  C   UNL A   1      38.959  28.256  29.317  1.00  0.00     0.029 A 
ATOM     19  N   UNL A   1      41.073  28.391  28.607  1.00  0.00    -0.354 N 
ATOM     20  C   UNL A   1      43.405  31.994  29.395  1.00  0.00     0.074 A 
ATOM     21  C   UNL A   1      42.634  32.946  30.163  1.00  0.00     0.031 C 
ATOM     22  C   UNL A   1      39.285  27.062  28.800  1.00  0.00     0.029 A 
ATOM     23  C   UNL A   1      40.645  27.127  28.284  1.00  0.00     0.049 A 
ATOM     24  H   UNL A   1      41.980  28.722  28.409  1.00  0.00     0.167 HD
ATOM     25  C   UNL A   1      44.694  32.176  29.021  1.00  0.00     0.031 A 
ATOM     26  C   UNL A   1      41.280  26.145  27.619  1.00  0.00     0.031 A 
ATOM     27  C   UNL A   1      45.431  31.223  28.239  1.00  0.00     0.049 A 
ATOM     28  C   UNL A   1      42.677  26.412  27.130  1.00  0.00     0.074 A 
ATOM     29  C   UNL A   1      46.714  31.324  27.731  1.00  0.00     0.029 A 
ATOM     30  N   UNL A   1      44.940  29.984  27.853  1.00  0.00    -0.354 N 
ATOM     31  N   UNL A   1      43.431  27.467  27.326  1.00  0.00    -0.248 NA
ATOM     32  C   UNL A   1      43.303  25.364  26.314  1.00  0.00     0.031 C 
ATOM     33  C   UNL A   1      46.981  30.160  27.002  1.00  0.00     0.029 A 
ATOM     34  C   UNL A   1      45.885  29.314  27.098  1.00  0.00     0.049 A 
ATOM     35  H   UNL A   1      44.049  29.632  28.084  1.00  0.00     0.167 HD
ATOM     36  C   UNL A   1      44.623  27.210  26.666  1.00  0.00     0.074 A 
ATOM     37  C   UNL A   1      44.500  25.886  26.086  1.00  0.00     0.031 C 
ATOM     38  C   UNL A   1      45.721  27.997  26.539  1.00  0.00     0.031 A 
BRANCH  25  39
ATOM     39  C   UNL A   1      45.327  33.486  29.390  1.00  0.00    -0.014 A 
ATOM     40  C   UNL A   1      45.246  34.605  28.545  1.00  0.00     0.009 A 
ATOM     41  C   UNL A   1      46.055  33.589  30.584  1.00  0.00     0.009 A 
ATOM     42  C   UNL A   1      45.918  35.786  28.871  1.00  0.00     0.001 A 
ATOM     43  C   UNL A   1      46.707  34.776  30.919  1.00  0.00     0.001 A 
ATOM     44  C   UNL A   1      46.648  35.870  30.056  1.00  0.00     0.000 A 
ENDBRANCH  25  39
BRANCH  26  45
ATOM     45  C   UNL A   1      40.589  24.860  27.329  1.00  0.00    -0.014 A 
ATOM     46  C   UNL A   1      39.458  24.817  26.500  1.00  0.00     0.009 A 
ATOM     47  C   UNL A   1      41.057  23.660  27.892  1.00  0.00     0.009 A 
ATOM     48  C   UNL A   1      38.802  23.607  26.257  1.00  0.00     0.001 A 
ATOM     49  C   UNL A   1      40.418  22.448  27.623  1.00  0.00     0.001 A 
ATOM     50  C   UNL A   1      39.285  22.423  26.813  1.00  0.00     0.000 A 
ENDBRANCH  26  45
BRANCH  38  51
ATOM     51  C   UNL A   1      46.872  27.426  25.766  1.00  0.00    -0.014 A 
ATOM     52  C   UNL A   1      47.831  26.614  26.389  1.00  0.00     0.009 A 
ATOM     53  C   UNL A   1      46.967  27.668  24.387  1.00  0.00     0.009 A 
ATOM     54  C   UNL A   1      48.884  26.078  25.649  1.00  0.00     0.001 A 
ATOM     55  C   UNL A   1      48.006  27.107  23.645  1.00  0.00     0.001 A 
ATOM     56  C   UNL A   1      48.968  26.320  24.278  1.00  0.00     0.000 A 
ENDBRANCH  38  51
ENDBRANCH  12  13
ENDBRANCH   5   7
ENDBRANCH   4   5
ENDBRANCH   3   4
ENDBRANCH   2   3
ENDBRANCH   1   2
BRANCH   1  57
ATOM     57  C   UNL A   1      33.652  33.320  28.395  1.00  0.00     0.202 C 
BRANCH  57  58
ATOM     58  C   UNL A   1      34.418  31.991  28.429  1.00  0.00     0.261 C 
BRANCH  58  59
ATOM     59  O   UNL A   1      33.971  31.162  27.342  1.00  0.00    -0.460 OA
BRANCH  59  60
ATOM     60  C   UNL A   1      34.509  29.915  27.296  1.00  0.00     0.338 C 
ATOM     61  O   UNL A   1      35.553  29.522  27.786  1.00  0.00    -0.246 OA
BRANCH  60  62
ATOM     62  C   UNL A   1      33.456  29.044  26.752  1.00  0.00     0.063 A 
ATOM     63  C   UNL A   1      32.255  28.863  27.435  1.00  0.00     0.016 A 
ATOM     64  C   UNL A   1      33.768  28.266  25.636  1.00  0.00     0.055 A 
ATOM     65  C   UNL A   1      31.408  27.820  27.056  1.00  0.00     0.013 A 
ATOM     66  C   UNL A   1      32.955  27.186  25.319  1.00  0.00     0.132 A 
ATOM     67  C   UNL A   1      31.804  26.905  26.059  1.00  0.00     0.042 A 
ATOM     68  F   UNL A   1      33.341  26.360  24.335  1.00  0.00    -0.206 F 
BRANCH  67  69
ATOM     69  C   UNL A   1      31.052  25.610  25.862  1.00  0.00     0.302 C 
BRANCH  69  70
ATOM     70  N   UNL A   1      31.305  24.512  26.810  1.00  0.00    -0.322 N 
ATOM     71  C   UNL A   1      30.335  23.409  26.807  1.00  0.00     0.324 C 
ATOM     72  C   UNL A   1      32.677  23.985  26.873  1.00  0.00     0.328 C 
ATOM     73  H   UNL A   1      31.161  25.033  27.675  1.00  0.00     0.348 HD
ATOM     74  C   UNL A   1      30.655  22.201  25.890  1.00  0.00     0.324 C 
ATOM     75  C   UNL A   1      32.978  22.861  25.845  1.00  0.00     0.239 C 
ATOM     76  N   UNL A   1      32.052  21.717  25.970  1.00  0.00    -0.323 N 
ATOM     77  C   UNL A   1      34.438  22.402  25.946  1.00  0.00     0.071 C 
ATOM     78  C   UNL A   1      32.306  20.732  24.905  1.00  0.00     0.262 C 
ATOM     79  H   UNL A   1      32.203  21.264  26.872  1.00  0.00     0.348 HD
ATOM     80  C   UNL A   1      34.745  21.405  24.833  1.00  0.00     0.012 C 
ATOM     81  C   UNL A   1      33.756  20.246  24.875  1.00  0.00     0.062 C 
ENDBRANCH  69  70
ENDBRANCH  67  69
ENDBRANCH  60  62
ENDBRANCH  59  60
ENDBRANCH  58  59
ENDBRANCH  57  58
ENDBRANCH   1  57
TORSDOF 16
ENDMDL
