MODEL 1
REMARK VINA RESULT:     -10.4      0.000      0.000
REMARK SMILES O=C(OCCOCCOC(=O)c1ccc(S(=O)(=O)N[C@@H]2CC[N@H+]3CCC[C@H]23)cc1)c1ccc(-c2c3nc(c(-c4ccccc4)c4ccc([nH]4)c(-c4ccccc4)c4nc(c(-c5ccccc5)c5ccc2[nH]5)C=C4)C=C3)cc1
REMARK SMILES IDX 7 1 6 2 5 3 4 4 3 5 2 6 1 7 30 8 31 9 77 10 32 11 76 12
REMARK SMILES IDX 33 13 34 14 35 15 70 16 36 17 75 18 69 19 71 20 37 21 74 22
REMARK SMILES IDX 68 23 67 24 38 26 60 27 45 28 59 29 46 30 49 31 58 32 72 33
REMARK SMILES IDX 47 34 48 35 57 37 73 38 50 39 39 40 40 41 44 42 41 43 43 44
REMARK SMILES IDX 42 45 61 46 62 47 66 48 63 49 65 50 64 51 51 52 52 53 56 54
REMARK SMILES IDX 53 55 55 56 54 57 8 58 9 59 10 60 11 61 12 62 13 63 29 64
REMARK SMILES IDX 14 65 28 66 15 67 16 68 17 69 18 70 19 71 20 73 21 74 27 75
REMARK SMILES IDX 22 76 23 77 26 78 24 79 25 81
REMARK H PARENT 71 25 49 36 19 72 23 80
REMARK Flexibility Score: inf
ROOT
ATOM      1  C   UNL A   1      40.468  20.390  26.480  1.00  0.00     0.202 C 
ENDROOT
BRANCH   1   2
ATOM      2  O   UNL A   1      41.762  20.097  25.933  1.00  0.00    -0.374 OA
BRANCH   2   3
ATOM      3  C   UNL A   1      42.513  19.097  26.627  1.00  0.00     0.202 C 
BRANCH   3   4
ATOM      4  C   UNL A   1      43.425  18.272  25.717  1.00  0.00     0.261 C 
BRANCH   4   5
ATOM      5  O   UNL A   1      43.759  19.030  24.540  1.00  0.00    -0.460 OA
BRANCH   5   6
ATOM      6  C   UNL A   1      44.842  19.805  24.306  1.00  0.00     0.338 C 
ATOM      7  O   UNL A   1      45.797  19.310  23.710  1.00  0.00    -0.246 OA
BRANCH   6   8
ATOM      8  C   UNL A   1      44.943  21.243  24.700  1.00  0.00     0.060 A 
ATOM      9  C   UNL A   1      44.629  22.331  23.883  1.00  0.00     0.016 A 
ATOM     10  C   UNL A   1      45.304  21.506  26.033  1.00  0.00     0.016 A 
ATOM     11  C   UNL A   1      44.754  23.639  24.338  1.00  0.00     0.010 A 
ATOM     12  C   UNL A   1      45.391  22.817  26.513  1.00  0.00     0.010 A 
ATOM     13  C   UNL A   1      45.145  23.889  25.651  1.00  0.00    -0.014 A 
BRANCH  13  14
ATOM     14  C   UNL A   1      45.387  25.287  26.048  1.00  0.00     0.031 A 
ATOM     15  C   UNL A   1      44.268  26.056  26.682  1.00  0.00     0.074 A 
ATOM     16  C   UNL A   1      46.628  25.798  25.968  1.00  0.00     0.049 A 
ATOM     17  N   UNL A   1      44.273  27.266  27.176  1.00  0.00    -0.248 NA
ATOM     18  C   UNL A   1      42.973  25.362  26.794  1.00  0.00     0.031 C 
ATOM     19  C   UNL A   1      47.801  25.087  25.455  1.00  0.00     0.029 A 
ATOM     20  N   UNL A   1      47.118  27.014  26.363  1.00  0.00    -0.354 N 
ATOM     21  C   UNL A   1      42.983  27.483  27.640  1.00  0.00     0.074 A 
ATOM     22  C   UNL A   1      42.218  26.287  27.365  1.00  0.00     0.031 C 
ATOM     23  C   UNL A   1      48.885  25.864  25.614  1.00  0.00     0.029 A 
ATOM     24  C   UNL A   1      48.474  27.139  26.192  1.00  0.00     0.049 A 
ATOM     25  H   UNL A   1      46.551  27.729  26.736  1.00  0.00     0.167 HD
ATOM     26  C   UNL A   1      42.480  28.587  28.239  1.00  0.00     0.031 A 
ATOM     27  C   UNL A   1      49.288  28.173  26.475  1.00  0.00     0.031 A 
ATOM     28  C   UNL A   1      43.244  29.775  28.493  1.00  0.00     0.049 A 
ATOM     29  C   UNL A   1      48.689  29.414  27.075  1.00  0.00     0.074 A 
ATOM     30  C   UNL A   1      42.825  30.980  29.025  1.00  0.00     0.029 A 
ATOM     31  N   UNL A   1      44.601  29.899  28.228  1.00  0.00    -0.354 N 
ATOM     32  N   UNL A   1      47.453  29.630  27.460  1.00  0.00    -0.248 NA
ATOM     33  C   UNL A   1      49.592  30.556  27.270  1.00  0.00     0.031 C 
ATOM     34  C   UNL A   1      43.925  31.847  29.052  1.00  0.00     0.029 A 
ATOM     35  C   UNL A   1      45.034  31.166  28.574  1.00  0.00     0.049 A 
ATOM     36  H   UNL A   1      45.171  29.190  27.851  1.00  0.00     0.167 HD
ATOM     37  C   UNL A   1      47.431  30.927  27.950  1.00  0.00     0.074 A 
ATOM     38  C   UNL A   1      48.782  31.440  27.836  1.00  0.00     0.031 C 
ATOM     39  C   UNL A   1      46.388  31.638  28.444  1.00  0.00     0.031 A 
BRANCH  26  40
ATOM     40  C   UNL A   1      41.021  28.557  28.583  1.00  0.00    -0.014 A 
ATOM     41  C   UNL A   1      40.051  29.054  27.699  1.00  0.00     0.009 A 
ATOM     42  C   UNL A   1      40.617  28.068  29.835  1.00  0.00     0.009 A 
ATOM     43  C   UNL A   1      38.707  29.095  28.078  1.00  0.00     0.001 A 
ATOM     44  C   UNL A   1      39.272  28.093  30.203  1.00  0.00     0.001 A 
ATOM     45  C   UNL A   1      38.319  28.616  29.330  1.00  0.00     0.000 A 
ENDBRANCH  26  40
BRANCH  27  46
ATOM     46  C   UNL A   1      50.741  28.087  26.177  1.00  0.00    -0.014 A 
ATOM     47  C   UNL A   1      51.238  28.452  24.917  1.00  0.00     0.009 A 
ATOM     48  C   UNL A   1      51.642  27.637  27.156  1.00  0.00     0.009 A 
ATOM     49  C   UNL A   1      52.604  28.350  24.638  1.00  0.00     0.001 A 
ATOM     50  C   UNL A   1      53.010  27.560  26.883  1.00  0.00     0.001 A 
ATOM     51  C   UNL A   1      53.489  27.910  25.621  1.00  0.00     0.000 A 
ENDBRANCH  27  46
BRANCH  39  52
ATOM     52  C   UNL A   1      46.683  33.033  28.908  1.00  0.00    -0.014 A 
ATOM     53  C   UNL A   1      46.606  34.117  28.023  1.00  0.00     0.009 A 
ATOM     54  C   UNL A   1      47.004  33.265  30.254  1.00  0.00     0.009 A 
ATOM     55  C   UNL A   1      46.874  35.411  28.472  1.00  0.00     0.001 A 
ATOM     56  C   UNL A   1      47.251  34.561  30.705  1.00  0.00     0.001 A 
ATOM     57  C   UNL A   1      47.193  35.632  29.812  1.00  0.00     0.000 A 
ENDBRANCH  39  52
ENDBRANCH  13  14
ENDBRANCH   6   8
ENDBRANCH   5   6
ENDBRANCH   4   5
ENDBRANCH   3   4
ENDBRANCH   2   3
ENDBRANCH   1   2
BRANCH   1  58
ATOM     58  C   UNL A   1      40.139  21.868  26.257  1.00  0.00     0.261 C 
BRANCH  58  59
ATOM     59  O   UNL A   1      38.792  21.942  25.772  1.00  0.00    -0.460 OA
BRANCH  59  60
ATOM     60  C   UNL A   1      38.177  23.120  26.039  1.00  0.00     0.338 C 
ATOM     61  O   UNL A   1      38.576  24.000  26.784  1.00  0.00    -0.246 OA
BRANCH  60  62
ATOM     62  C   UNL A   1      37.005  23.265  25.142  1.00  0.00     0.060 A 
ATOM     63  C   UNL A   1      35.910  24.012  25.601  1.00  0.00     0.017 A 
ATOM     64  C   UNL A   1      36.994  22.723  23.848  1.00  0.00     0.017 A 
ATOM     65  C   UNL A   1      34.770  24.138  24.810  1.00  0.00     0.022 A 
ATOM     66  C   UNL A   1      35.861  22.855  23.052  1.00  0.00     0.022 A 
ATOM     67  C   UNL A   1      34.737  23.506  23.565  1.00  0.00     0.082 A 
BRANCH  67  68
ATOM     68  S   UNL A   1      33.188  23.295  22.730  1.00  0.00     0.241 S 
ATOM     69  O   UNL A   1      32.159  24.028  23.442  1.00  0.00    -0.207 OA
ATOM     70  O   UNL A   1      33.434  23.506  21.325  1.00  0.00    -0.207 OA
BRANCH  68  71
ATOM     71  N   UNL A   1      32.884  21.671  22.918  1.00  0.00    -0.202 NA
ATOM     72  H   UNL A   1      33.806  21.232  22.899  1.00  0.00     0.141 HD
BRANCH  71  73
ATOM     73  C   UNL A   1      32.175  21.000  24.025  1.00  0.00     0.133 C 
ATOM     74  C   UNL A   1      32.755  21.145  25.455  1.00  0.00     0.087 C 
ATOM     75  C   UNL A   1      32.197  19.476  23.862  1.00  0.00     0.202 C 
ATOM     76  C   UNL A   1      33.353  19.775  25.842  1.00  0.00     0.264 C 
ATOM     77  N   UNL A   1      33.433  19.122  24.557  1.00  0.00    -0.331 N 
ATOM     78  C   UNL A   1      32.413  18.744  22.555  1.00  0.00     0.072 C 
ATOM     79  C   UNL A   1      33.556  17.686  24.460  1.00  0.00     0.262 C 
ATOM     80  H   UNL A   1      34.322  19.448  24.179  1.00  0.00     0.348 HD
ATOM     81  C   UNL A   1      33.173  17.471  22.989  1.00  0.00     0.068 C 
ENDBRANCH  71  73
ENDBRANCH  68  71
ENDBRANCH  67  68
ENDBRANCH  60  62
ENDBRANCH  59  60
ENDBRANCH  58  59
ENDBRANCH   1  58
TORSDOF 17
ENDMDL
MODEL 2
REMARK VINA RESULT:     -10.3      2.920      7.526
REMARK SMILES O=C(OCCOCCOC(=O)c1ccc(S(=O)(=O)N[C@@H]2CC[N@H+]3CCC[C@H]23)cc1)c1ccc(-c2c3nc(c(-c4ccccc4)c4ccc([nH]4)c(-c4ccccc4)c4nc(c(-c5ccccc5)c5ccc2[nH]5)C=C4)C=C3)cc1
REMARK SMILES IDX 7 1 6 2 5 3 4 4 3 5 2 6 1 7 30 8 31 9 77 10 32 11 76 12
REMARK SMILES IDX 33 13 34 14 35 15 70 16 36 17 75 18 69 19 71 20 37 21 74 22
REMARK SMILES IDX 68 23 67 24 38 26 60 27 45 28 59 29 46 30 49 31 58 32 72 33
REMARK SMILES IDX 47 34 48 35 57 37 73 38 50 39 39 40 40 41 44 42 41 43 43 44
REMARK SMILES IDX 42 45 61 46 62 47 66 48 63 49 65 50 64 51 51 52 52 53 56 54
REMARK SMILES IDX 53 55 55 56 54 57 8 58 9 59 10 60 11 61 12 62 13 63 29 64
REMARK SMILES IDX 14 65 28 66 15 67 16 68 17 69 18 70 19 71 20 73 21 74 27 75
REMARK SMILES IDX 22 76 23 77 26 78 24 79 25 81
REMARK H PARENT 71 25 49 36 19 72 23 80
REMARK Flexibility Score: inf
ROOT
ATOM      1  C   UNL A   1      35.757  21.425  25.589  1.00  0.00     0.202 C 
ENDROOT
BRANCH   1   2
ATOM      2  O   UNL A   1      36.935  21.603  24.789  1.00  0.00    -0.374 OA
BRANCH   2   3
ATOM      3  C   UNL A   1      38.157  21.154  25.382  1.00  0.00     0.202 C 
BRANCH   3   4
ATOM      4  C   UNL A   1      38.633  19.799  24.855  1.00  0.00     0.261 C 
BRANCH   4   5
ATOM      5  O   UNL A   1      39.576  19.219  25.774  1.00  0.00    -0.460 OA
BRANCH   5   6
ATOM      6  C   UNL A   1      40.870  19.547  25.985  1.00  0.00     0.338 C 
ATOM      7  O   UNL A   1      41.741  18.756  25.626  1.00  0.00    -0.246 OA
BRANCH   6   8
ATOM      8  C   UNL A   1      41.317  20.833  26.604  1.00  0.00     0.060 A 
ATOM      9  C   UNL A   1      41.363  21.101  27.972  1.00  0.00     0.016 A 
ATOM     10  C   UNL A   1      41.809  21.815  25.726  1.00  0.00     0.016 A 
ATOM     11  C   UNL A   1      41.794  22.330  28.456  1.00  0.00     0.010 A 
ATOM     12  C   UNL A   1      42.286  23.039  26.205  1.00  0.00     0.010 A 
ATOM     13  C   UNL A   1      42.249  23.309  27.576  1.00  0.00    -0.014 A 
BRANCH  13  14
ATOM     14  C   UNL A   1      42.574  24.638  28.124  1.00  0.00     0.031 A 
ATOM     15  C   UNL A   1      44.016  25.014  28.282  1.00  0.00     0.074 A 
ATOM     16  C   UNL A   1      41.591  25.530  28.336  1.00  0.00     0.049 A 
ATOM     17  N   UNL A   1      44.535  26.149  28.670  1.00  0.00    -0.248 NA
ATOM     18  C   UNL A   1      45.007  23.981  27.937  1.00  0.00     0.031 C 
ATOM     19  C   UNL A   1      40.165  25.283  28.115  1.00  0.00     0.029 A 
ATOM     20  N   UNL A   1      41.648  26.838  28.735  1.00  0.00    -0.354 N 
ATOM     21  C   UNL A   1      45.909  25.960  28.632  1.00  0.00     0.074 A 
ATOM     22  C   UNL A   1      46.147  24.604  28.192  1.00  0.00     0.031 C 
ATOM     23  C   UNL A   1      39.486  26.421  28.335  1.00  0.00     0.029 A 
ATOM     24  C   UNL A   1      40.422  27.458  28.757  1.00  0.00     0.049 A 
ATOM     25  H   UNL A   1      42.487  27.292  28.982  1.00  0.00     0.167 HD
ATOM     26  C   UNL A   1      46.888  26.842  28.943  1.00  0.00     0.031 A 
ATOM     27  C   UNL A   1      40.100  28.723  29.083  1.00  0.00     0.031 A 
ATOM     28  C   UNL A   1      46.640  28.181  29.395  1.00  0.00     0.049 A 
ATOM     29  C   UNL A   1      41.201  29.660  29.493  1.00  0.00     0.074 A 
ATOM     30  C   UNL A   1      47.547  29.139  29.809  1.00  0.00     0.029 A 
ATOM     31  N   UNL A   1      45.379  28.751  29.487  1.00  0.00    -0.354 N 
ATOM     32  N   UNL A   1      42.497  29.455  29.507  1.00  0.00    -0.248 NA
ATOM     33  C   UNL A   1      40.795  30.999  29.941  1.00  0.00     0.031 C 
ATOM     34  C   UNL A   1      46.828  30.282  30.184  1.00  0.00     0.029 A 
ATOM     35  C   UNL A   1      45.479  30.045  29.964  1.00  0.00     0.049 A 
ATOM     36  H   UNL A   1      44.536  28.301  29.248  1.00  0.00     0.167 HD
ATOM     37  C   UNL A   1      43.063  30.638  29.957  1.00  0.00     0.074 A 
ATOM     38  C   UNL A   1      41.970  31.565  30.181  1.00  0.00     0.031 C 
ATOM     39  C   UNL A   1      44.368  30.935  30.174  1.00  0.00     0.031 A 
BRANCH  26  40
ATOM     40  C   UNL A   1      48.297  26.335  28.864  1.00  0.00    -0.014 A 
ATOM     41  C   UNL A   1      48.926  25.748  29.973  1.00  0.00     0.009 A 
ATOM     42  C   UNL A   1      49.022  26.494  27.673  1.00  0.00     0.009 A 
ATOM     43  C   UNL A   1      50.267  25.364  29.901  1.00  0.00     0.001 A 
ATOM     44  C   UNL A   1      50.355  26.091  27.598  1.00  0.00     0.001 A 
ATOM     45  C   UNL A   1      50.980  25.537  28.714  1.00  0.00     0.000 A 
ENDBRANCH  26  40
BRANCH  27  46
ATOM     46  C   UNL A   1      38.683  29.167  29.054  1.00  0.00    -0.014 A 
ATOM     47  C   UNL A   1      38.132  29.732  27.894  1.00  0.00     0.009 A 
ATOM     48  C   UNL A   1      37.871  29.030  30.192  1.00  0.00     0.009 A 
ATOM     49  C   UNL A   1      36.803  30.167  27.881  1.00  0.00     0.001 A 
ATOM     50  C   UNL A   1      36.537  29.442  30.168  1.00  0.00     0.001 A 
ATOM     51  C   UNL A   1      36.006  30.017  29.015  1.00  0.00     0.000 A 
ENDBRANCH  27  46
BRANCH  39  52
ATOM     52  C   UNL A   1      44.671  32.320  30.662  1.00  0.00    -0.014 A 
ATOM     53  C   UNL A   1      44.744  32.600  32.034  1.00  0.00     0.009 A 
ATOM     54  C   UNL A   1      44.923  33.343  29.735  1.00  0.00     0.009 A 
ATOM     55  C   UNL A   1      45.038  33.892  32.471  1.00  0.00     0.001 A 
ATOM     56  C   UNL A   1      45.236  34.629  30.176  1.00  0.00     0.001 A 
ATOM     57  C   UNL A   1      45.286  34.904  31.543  1.00  0.00     0.000 A 
ENDBRANCH  39  52
ENDBRANCH  13  14
ENDBRANCH   6   8
ENDBRANCH   5   6
ENDBRANCH   4   5
ENDBRANCH   3   4
ENDBRANCH   2   3
ENDBRANCH   1   2
BRANCH   1  58
ATOM     58  C   UNL A   1      34.878  20.335  24.971  1.00  0.00     0.261 C 
BRANCH  58  59
ATOM     59  O   UNL A   1      33.886  20.985  24.167  1.00  0.00    -0.460 OA
BRANCH  59  60
ATOM     60  C   UNL A   1      32.613  20.745  24.566  1.00  0.00     0.338 C 
ATOM     61  O   UNL A   1      32.156  19.681  24.951  1.00  0.00    -0.246 OA
BRANCH  60  62
ATOM     62  C   UNL A   1      31.879  22.031  24.631  1.00  0.00     0.060 A 
ATOM     63  C   UNL A   1      31.577  22.682  23.426  1.00  0.00     0.017 A 
ATOM     64  C   UNL A   1      31.444  22.573  25.851  1.00  0.00     0.017 A 
ATOM     65  C   UNL A   1      30.926  23.914  23.442  1.00  0.00     0.022 A 
ATOM     66  C   UNL A   1      30.786  23.798  25.869  1.00  0.00     0.022 A 
ATOM     67  C   UNL A   1      30.592  24.488  24.670  1.00  0.00     0.082 A 
BRANCH  67  68
ATOM     68  S   UNL A   1      30.154  26.203  24.747  1.00  0.00     0.241 S 
ATOM     69  O   UNL A   1      28.831  26.383  24.182  1.00  0.00    -0.207 OA
ATOM     70  O   UNL A   1      30.480  26.663  26.074  1.00  0.00    -0.207 OA
BRANCH  68  71
ATOM     71  N   UNL A   1      31.252  26.911  23.718  1.00  0.00    -0.202 NA
ATOM     72  H   UNL A   1      30.877  27.845  23.543  1.00  0.00     0.141 HD
BRANCH  71  73
ATOM     73  C   UNL A   1      32.696  27.125  23.936  1.00  0.00     0.133 C 
ATOM     74  C   UNL A   1      33.453  26.121  24.842  1.00  0.00     0.087 C 
ATOM     75  C   UNL A   1      32.961  28.438  24.682  1.00  0.00     0.202 C 
ATOM     76  C   UNL A   1      33.783  26.859  26.157  1.00  0.00     0.264 C 
ATOM     77  N   UNL A   1      32.906  28.002  26.076  1.00  0.00    -0.331 N 
ATOM     78  C   UNL A   1      32.010  29.614  24.738  1.00  0.00     0.072 C 
ATOM     79  C   UNL A   1      33.142  29.179  26.879  1.00  0.00     0.262 C 
ATOM     80  H   UNL A   1      32.024  27.651  26.448  1.00  0.00     0.348 HD
ATOM     81  C   UNL A   1      32.262  30.200  26.145  1.00  0.00     0.068 C 
ENDBRANCH  71  73
ENDBRANCH  68  71
ENDBRANCH  67  68
ENDBRANCH  60  62
ENDBRANCH  59  60
ENDBRANCH  58  59
ENDBRANCH   1  58
TORSDOF 17
ENDMDL
MODEL 3
REMARK VINA RESULT:     -10.3      3.253      7.544
REMARK SMILES O=C(OCCOCCOC(=O)c1ccc(S(=O)(=O)N[C@@H]2CC[N@H+]3CCC[C@H]23)cc1)c1ccc(-c2c3nc(c(-c4ccccc4)c4ccc([nH]4)c(-c4ccccc4)c4nc(c(-c5ccccc5)c5ccc2[nH]5)C=C4)C=C3)cc1
REMARK SMILES IDX 7 1 6 2 5 3 4 4 3 5 2 6 1 7 30 8 31 9 77 10 32 11 76 12
REMARK SMILES IDX 33 13 34 14 35 15 70 16 36 17 75 18 69 19 71 20 37 21 74 22
REMARK SMILES IDX 68 23 67 24 38 26 60 27 45 28 59 29 46 30 49 31 58 32 72 33
REMARK SMILES IDX 47 34 48 35 57 37 73 38 50 39 39 40 40 41 44 42 41 43 43 44
REMARK SMILES IDX 42 45 61 46 62 47 66 48 63 49 65 50 64 51 51 52 52 53 56 54
REMARK SMILES IDX 53 55 55 56 54 57 8 58 9 59 10 60 11 61 12 62 13 63 29 64
REMARK SMILES IDX 14 65 28 66 15 67 16 68 17 69 18 70 19 71 20 73 21 74 27 75
REMARK SMILES IDX 22 76 23 77 26 78 24 79 25 81
REMARK H PARENT 71 25 49 36 19 72 23 80
REMARK Flexibility Score: inf
ROOT
ATOM      1  C   UNL A   1      35.878  21.979  26.106  1.00  0.00     0.202 C 
ENDROOT
BRANCH   1   2
ATOM      2  O   UNL A   1      36.524  21.201  25.086  1.00  0.00    -0.374 OA
BRANCH   2   3
ATOM      3  C   UNL A   1      37.948  21.110  25.190  1.00  0.00     0.202 C 
BRANCH   3   4
ATOM      4  C   UNL A   1      38.498  19.718  24.876  1.00  0.00     0.261 C 
BRANCH   4   5
ATOM      5  O   UNL A   1      39.440  19.322  25.889  1.00  0.00    -0.460 OA
BRANCH   5   6
ATOM      6  C   UNL A   1      40.746  19.650  26.011  1.00  0.00     0.338 C 
ATOM      7  O   UNL A   1      41.590  18.858  25.595  1.00  0.00    -0.246 OA
BRANCH   6   8
ATOM      8  C   UNL A   1      41.234  20.936  26.597  1.00  0.00     0.060 A 
ATOM      9  C   UNL A   1      41.390  21.200  27.958  1.00  0.00     0.016 A 
ATOM     10  C   UNL A   1      41.648  21.925  25.686  1.00  0.00     0.016 A 
ATOM     11  C   UNL A   1      41.852  22.430  28.411  1.00  0.00     0.010 A 
ATOM     12  C   UNL A   1      42.155  23.150  26.130  1.00  0.00     0.010 A 
ATOM     13  C   UNL A   1      42.228  23.414  27.500  1.00  0.00    -0.014 A 
BRANCH  13  14
ATOM     14  C   UNL A   1      42.589  24.743  28.025  1.00  0.00     0.031 A 
ATOM     15  C   UNL A   1      44.038  25.122  28.079  1.00  0.00     0.074 A 
ATOM     16  C   UNL A   1      41.622  25.634  28.309  1.00  0.00     0.049 A 
ATOM     17  N   UNL A   1      44.581  26.258  28.431  1.00  0.00    -0.248 NA
ATOM     18  C   UNL A   1      45.004  24.092  27.663  1.00  0.00     0.031 C 
ATOM     19  C   UNL A   1      40.184  25.383  28.190  1.00  0.00     0.029 A 
ATOM     20  N   UNL A   1      41.705  26.941  28.705  1.00  0.00    -0.354 N 
ATOM     21  C   UNL A   1      45.950  26.072  28.294  1.00  0.00     0.074 A 
ATOM     22  C   UNL A   1      46.158  24.717  27.836  1.00  0.00     0.031 C 
ATOM     23  C   UNL A   1      39.521  26.520  28.460  1.00  0.00     0.029 A 
ATOM     24  C   UNL A   1      40.483  27.558  28.815  1.00  0.00     0.049 A 
ATOM     25  H   UNL A   1      42.559  27.396  28.891  1.00  0.00     0.167 HD
ATOM     26  C   UNL A   1      46.946  26.955  28.535  1.00  0.00     0.031 A 
ATOM     27  C   UNL A   1      40.182  28.822  29.165  1.00  0.00     0.031 A 
ATOM     28  C   UNL A   1      46.729  28.294  29.005  1.00  0.00     0.049 A 
ATOM     29  C   UNL A   1      41.307  29.761  29.496  1.00  0.00     0.074 A 
ATOM     30  C   UNL A   1      47.661  29.253  29.355  1.00  0.00     0.029 A 
ATOM     31  N   UNL A   1      45.476  28.860  29.189  1.00  0.00    -0.354 N 
ATOM     32  N   UNL A   1      42.602  29.558  29.417  1.00  0.00    -0.248 NA
ATOM     33  C   UNL A   1      40.933  31.098  29.974  1.00  0.00     0.031 C 
ATOM     34  C   UNL A   1      46.969  30.393  29.782  1.00  0.00     0.029 A 
ATOM     35  C   UNL A   1      45.608  30.154  29.660  1.00  0.00     0.049 A 
ATOM     36  H   UNL A   1      44.619  28.409  29.010  1.00  0.00     0.167 HD
ATOM     37  C   UNL A   1      43.197  30.742  29.826  1.00  0.00     0.074 A 
ATOM     38  C   UNL A   1      42.121  31.666  30.130  1.00  0.00     0.031 C 
ATOM     39  C   UNL A   1      44.513  31.042  29.950  1.00  0.00     0.031 A 
BRANCH  26  40
ATOM     40  C   UNL A   1      48.347  26.452  28.355  1.00  0.00    -0.014 A 
ATOM     41  C   UNL A   1      49.009  26.559  27.122  1.00  0.00     0.009 A 
ATOM     42  C   UNL A   1      48.995  25.815  29.424  1.00  0.00     0.009 A 
ATOM     43  C   UNL A   1      50.280  26.004  26.954  1.00  0.00     0.001 A 
ATOM     44  C   UNL A   1      50.272  25.280  29.259  1.00  0.00     0.001 A 
ATOM     45  C   UNL A   1      50.910  25.364  28.022  1.00  0.00     0.000 A 
ENDBRANCH  26  40
BRANCH  27  46
ATOM     46  C   UNL A   1      38.766  29.263  29.239  1.00  0.00    -0.014 A 
ATOM     47  C   UNL A   1      37.994  29.009  30.382  1.00  0.00     0.009 A 
ATOM     48  C   UNL A   1      38.175  29.942  28.160  1.00  0.00     0.009 A 
ATOM     49  C   UNL A   1      36.655  29.411  30.436  1.00  0.00     0.001 A 
ATOM     50  C   UNL A   1      36.845  30.364  28.227  1.00  0.00     0.001 A 
ATOM     51  C   UNL A   1      36.084  30.091  29.362  1.00  0.00     0.000 A 
ENDBRANCH  27  46
BRANCH  39  52
ATOM     52  C   UNL A   1      44.848  32.426  30.417  1.00  0.00    -0.014 A 
ATOM     53  C   UNL A   1      45.016  32.706  31.780  1.00  0.00     0.009 A 
ATOM     54  C   UNL A   1      45.033  33.451  29.476  1.00  0.00     0.009 A 
ATOM     55  C   UNL A   1      45.337  33.998  32.197  1.00  0.00     0.001 A 
ATOM     56  C   UNL A   1      45.374  34.737  29.895  1.00  0.00     0.001 A 
ATOM     57  C   UNL A   1      45.519  35.010  31.255  1.00  0.00     0.000 A 
ENDBRANCH  39  52
ENDBRANCH  13  14
ENDBRANCH   6   8
ENDBRANCH   5   6
ENDBRANCH   4   5
ENDBRANCH   3   4
ENDBRANCH   2   3
ENDBRANCH   1   2
BRANCH   1  58
ATOM     58  C   UNL A   1      34.473  21.427  26.359  1.00  0.00     0.261 C 
BRANCH  58  59
ATOM     59  O   UNL A   1      34.119  20.614  25.233  1.00  0.00    -0.460 OA
BRANCH  59  60
ATOM     60  C   UNL A   1      32.841  20.785  24.813  1.00  0.00     0.338 C 
ATOM     61  O   UNL A   1      31.898  20.041  25.025  1.00  0.00    -0.246 OA
BRANCH  60  62
ATOM     62  C   UNL A   1      32.714  22.124  24.189  1.00  0.00     0.060 A 
ATOM     63  C   UNL A   1      32.906  22.228  22.804  1.00  0.00     0.017 A 
ATOM     64  C   UNL A   1      32.362  23.257  24.937  1.00  0.00     0.017 A 
ATOM     65  C   UNL A   1      32.839  23.473  22.181  1.00  0.00     0.022 A 
ATOM     66  C   UNL A   1      32.285  24.500  24.318  1.00  0.00     0.022 A 
ATOM     67  C   UNL A   1      32.587  24.606  22.958  1.00  0.00     0.082 A 
BRANCH  67  68
ATOM     68  S   UNL A   1      32.903  26.216  22.289  1.00  0.00     0.241 S 
ATOM     69  O   UNL A   1      33.752  26.955  23.204  1.00  0.00    -0.207 OA
ATOM     70  O   UNL A   1      33.259  26.035  20.904  1.00  0.00    -0.207 OA
BRANCH  68  71
ATOM     71  N   UNL A   1      31.397  26.923  22.302  1.00  0.00    -0.202 NA
ATOM     72  H   UNL A   1      30.782  26.227  21.880  1.00  0.00     0.141 HD
BRANCH  71  73
ATOM     73  C   UNL A   1      30.642  27.434  23.462  1.00  0.00     0.133 C 
ATOM     74  C   UNL A   1      29.404  26.632  23.936  1.00  0.00     0.087 C 
ATOM     75  C   UNL A   1      30.002  28.794  23.158  1.00  0.00     0.202 C 
ATOM     76  C   UNL A   1      28.157  27.458  23.555  1.00  0.00     0.264 C 
ATOM     77  N   UNL A   1      28.709  28.394  22.605  1.00  0.00    -0.331 N 
ATOM     78  C   UNL A   1      30.462  29.751  22.079  1.00  0.00     0.072 C 
ATOM     79  C   UNL A   1      28.013  29.616  22.276  1.00  0.00     0.262 C 
ATOM     80  H   UNL A   1      28.687  27.880  21.724  1.00  0.00     0.348 HD
ATOM     81  C   UNL A   1      29.147  30.414  21.616  1.00  0.00     0.068 C 
ENDBRANCH  71  73
ENDBRANCH  68  71
ENDBRANCH  67  68
ENDBRANCH  60  62
ENDBRANCH  59  60
ENDBRANCH  58  59
ENDBRANCH   1  58
TORSDOF 17
ENDMDL
