MODEL 1
REMARK VINA RESULT:     -12.5      0.000      0.000
REMARK SMILES O=C(OCCOCCOC(=O)c1ccc(-c2c3nc(c(-c4ccccc4)c4ccc([nH]4)c(-c4ccccc4)c4nc(c(-c5ccccc5)c5ccc2[nH]5)C=C4)C=C3)cc1)C1=Cc2c(ccc(Cl)c2-c2ccccc2)O[C@H]1C(F)(F)F
REMARK SMILES IDX 7 1 6 2 5 3 4 4 3 5 2 6 1 7 60 8 61 9 76 10 62 11 75 12
REMARK SMILES IDX 63 13 68 14 64 15 66 16 65 17 67 18 77 19 78 20 79 21 80 22
REMARK SMILES IDX 69 23 70 24 74 25 71 26 73 27 72 28 8 29 9 30 10 31 11 32
REMARK SMILES IDX 12 33 13 34 59 35 14 36 58 37 15 38 16 39 17 40 52 41 18 42
REMARK SMILES IDX 57 43 51 44 53 45 19 46 56 47 50 48 49 49 20 51 42 52 27 53
REMARK SMILES IDX 41 54 28 55 31 56 40 57 54 58 29 59 30 60 39 62 55 63 32 64
REMARK SMILES IDX 21 65 22 66 26 67 23 68 25 69 24 70 43 71 44 72 48 73 45 74
REMARK SMILES IDX 47 75 46 76 33 77 34 78 38 79 35 80 37 81 36 82
REMARK H PARENT 53 50 31 61
REMARK Flexibility Score: inf
ROOT
ATOM      1  C   UNL A   1      32.017  30.148  26.206  1.00  0.00     0.202 C 
ENDROOT
BRANCH   1   2
ATOM      2  O   UNL A   1      33.156  29.945  25.375  1.00  0.00    -0.374 OA
BRANCH   2   3
ATOM      3  C   UNL A   1      33.703  28.650  25.235  1.00  0.00     0.202 C 
BRANCH   3   4
ATOM      4  C   UNL A   1      34.075  28.138  23.832  1.00  0.00     0.261 C 
BRANCH   4   5
ATOM      5  O   UNL A   1      33.123  27.183  23.340  1.00  0.00    -0.460 OA
BRANCH   5   6
ATOM      6  C   UNL A   1      33.284  25.846  23.434  1.00  0.00     0.338 C 
ATOM      7  O   UNL A   1      33.696  25.213  22.465  1.00  0.00    -0.246 OA
BRANCH   6   8
ATOM      8  C   UNL A   1      32.856  25.105  24.646  1.00  0.00     0.087 C 
ATOM      9  C   UNL A   1      33.602  24.409  25.523  1.00  0.00     0.028 C 
ATOM     10  C   UNL A   1      31.361  25.015  24.817  1.00  0.00     0.316 C 
ATOM     11  C   UNL A   1      33.308  22.973  25.421  1.00  0.00     0.027 A 
ATOM     12  O   UNL A   1      30.964  23.735  25.412  1.00  0.00    -0.475 OA
ATOM     13  C   UNL A   1      31.905  22.723  25.313  1.00  0.00     0.128 A 
ATOM     14  C   UNL A   1      34.312  21.963  25.329  1.00  0.00     0.011 A 
ATOM     15  C   UNL A   1      31.439  21.446  25.104  1.00  0.00     0.049 A 
ATOM     16  C   UNL A   1      33.775  20.706  24.968  1.00  0.00     0.049 A 
ATOM     17  C   UNL A   1      32.380  20.448  24.896  1.00  0.00     0.025 A 
ATOM     18  Cl  UNL A   1      34.730  19.370  24.459  1.00  0.00    -0.084 Cl
BRANCH  10  19
ATOM     19  C   UNL A   1      30.912  26.229  25.658  1.00  0.00     0.430 C 
ATOM     20  F   UNL A   1      31.843  26.576  26.586  1.00  0.00    -0.167 F 
ATOM     21  F   UNL A   1      30.690  27.323  24.898  1.00  0.00    -0.167 F 
ATOM     22  F   UNL A   1      29.775  25.965  26.348  1.00  0.00    -0.167 F 
ENDBRANCH  10  19
BRANCH  14  23
ATOM     23  C   UNL A   1      35.814  22.213  25.590  1.00  0.00    -0.016 A 
ATOM     24  C   UNL A   1      37.049  20.903  25.363  1.00  0.00     0.009 A 
ATOM     25  C   UNL A   1      36.399  23.828  26.171  1.00  0.00     0.009 A 
ATOM     26  C   UNL A   1      38.797  21.145  25.790  1.00  0.00     0.001 A 
ATOM     27  C   UNL A   1      38.151  24.113  26.580  1.00  0.00     0.001 A 
ATOM     28  C   UNL A   1      39.357  22.760  26.382  1.00  0.00     0.000 A 
ENDBRANCH  14  23
ENDBRANCH   6   8
ENDBRANCH   5   6
ENDBRANCH   4   5
ENDBRANCH   3   4
ENDBRANCH   2   3
ENDBRANCH   1   2
BRANCH   1  29
ATOM     29  C   UNL A   1      31.432  31.649  26.505  1.00  0.00     0.261 C 
BRANCH  29  30
ATOM     30  O   UNL A   1      32.184  33.261  27.471  1.00  0.00    -0.460 OA
BRANCH  30  31
ATOM     31  C   UNL A   1      33.056  34.137  28.137  1.00  0.00     0.338 C 
ATOM     32  O   UNL A   1      32.944  35.339  28.374  1.00  0.00    -0.246 OA
BRANCH  31  33
ATOM     33  C   UNL A   1      34.262  33.434  28.563  1.00  0.00     0.060 A 
ATOM     34  C   UNL A   1      34.147  32.097  28.944  1.00  0.00     0.016 A 
ATOM     35  C   UNL A   1      35.480  34.121  28.622  1.00  0.00     0.016 A 
ATOM     36  C   UNL A   1      35.284  31.426  29.363  1.00  0.00     0.010 A 
ATOM     37  C   UNL A   1      36.625  33.439  28.975  1.00  0.00     0.010 A 
ATOM     38  C   UNL A   1      36.512  32.105  29.387  1.00  0.00    -0.014 A 
BRANCH  38  39
ATOM     39  C   UNL A   1      37.615  31.554  30.175  1.00  0.00     0.031 A 
ATOM     40  C   UNL A   1      38.526  30.614  29.450  1.00  0.00     0.074 A 
ATOM     41  C   UNL A   1      37.749  31.854  31.474  1.00  0.00     0.049 A 
ATOM     42  N   UNL A   1      39.562  29.959  29.893  1.00  0.00    -0.248 NA
ATOM     43  C   UNL A   1      38.216  30.365  28.026  1.00  0.00     0.031 C 
ATOM     44  C   UNL A   1      36.886  32.758  32.232  1.00  0.00     0.029 A 
ATOM     45  N   UNL A   1      38.667  31.419  32.386  1.00  0.00    -0.354 N 
ATOM     46  C   UNL A   1      40.019  29.225  28.807  1.00  0.00     0.074 A 
ATOM     47  C   UNL A   1      39.135  29.477  27.697  1.00  0.00     0.031 C 
ATOM     48  C   UNL A   1      37.328  32.826  33.499  1.00  0.00     0.029 A 
ATOM     49  C   UNL A   1      38.475  31.937  33.642  1.00  0.00     0.049 A 
ATOM     50  H   UNL A   1      39.395  30.795  32.165  1.00  0.00     0.167 HD
ATOM     51  C   UNL A   1      41.094  28.410  28.750  1.00  0.00     0.031 A 
ATOM     52  C   UNL A   1      39.159  31.695  34.772  1.00  0.00     0.031 A 
ATOM     53  C   UNL A   1      41.917  28.138  29.891  1.00  0.00     0.049 A 
ATOM     54  C   UNL A   1      40.315  30.734  34.696  1.00  0.00     0.074 A 
ATOM     55  C   UNL A   1      43.029  27.327  29.984  1.00  0.00     0.029 A 
ATOM     56  N   UNL A   1      41.688  28.667  31.156  1.00  0.00    -0.354 N 
ATOM     57  N   UNL A   1      40.780  30.082  33.656  1.00  0.00    -0.248 NA
ATOM     58  C   UNL A   1      41.043  30.485  35.944  1.00  0.00     0.031 C 
ATOM     59  C   UNL A   1      43.441  27.324  31.321  1.00  0.00     0.029 A 
ATOM     60  C   UNL A   1      42.625  28.184  32.044  1.00  0.00     0.049 A 
ATOM     61  H   UNL A   1      40.964  29.296  31.383  1.00  0.00     0.167 HD
ATOM     62  C   UNL A   1      41.878  29.368  34.114  1.00  0.00     0.074 A 
ATOM     63  C   UNL A   1      42.012  29.683  35.526  1.00  0.00     0.031 C 
ATOM     64  C   UNL A   1      42.708  28.532  33.441  1.00  0.00     0.031 A 
BRANCH  51  65
ATOM     65  C   UNL A   1      41.363  27.737  27.436  1.00  0.00    -0.014 A 
ATOM     66  C   UNL A   1      40.878  26.446  27.163  1.00  0.00     0.009 A 
ATOM     67  C   UNL A   1      42.162  28.379  26.478  1.00  0.00     0.009 A 
ATOM     68  C   UNL A   1      41.224  25.797  25.975  1.00  0.00     0.001 A 
ATOM     69  C   UNL A   1      42.480  27.738  25.279  1.00  0.00     0.001 A 
ATOM     70  C   UNL A   1      42.021  26.445  25.033  1.00  0.00     0.000 A 
ENDBRANCH  51  65
BRANCH  52  71
ATOM     71  C   UNL A   1      38.785  32.370  36.041  1.00  0.00    -0.014 A 
ATOM     72  C   UNL A   1      39.276  33.650  36.339  1.00  0.00     0.009 A 
ATOM     73  C   UNL A   1      37.929  31.745  36.963  1.00  0.00     0.009 A 
ATOM     74  C   UNL A   1      38.944  34.277  37.543  1.00  0.00     0.001 A 
ATOM     75  C   UNL A   1      37.576  32.385  38.154  1.00  0.00     0.001 A 
ATOM     76  C   UNL A   1      38.093  33.646  38.448  1.00  0.00     0.000 A 
ENDBRANCH  52  71
BRANCH  64  77
ATOM     77  C   UNL A   1      43.850  27.950  34.220  1.00  0.00    -0.014 A 
ATOM     78  C   UNL A   1      45.073  28.627  34.343  1.00  0.00     0.009 A 
ATOM     79  C   UNL A   1      43.676  26.720  34.873  1.00  0.00     0.009 A 
ATOM     80  C   UNL A   1      46.116  28.059  35.073  1.00  0.00     0.001 A 
ATOM     81  C   UNL A   1      44.709  26.173  35.632  1.00  0.00     0.001 A 
ATOM     82  C   UNL A   1      45.931  26.837  35.721  1.00  0.00     0.000 A 
ENDBRANCH  64  77
ENDBRANCH  38  39
ENDBRANCH  31  33
ENDBRANCH  30  31
ENDBRANCH  29  30
ENDBRANCH   1  29
TORSDOF 16
ENDMDL
MODEL 2
REMARK VINA RESULT:     -12.2      3.971      9.249
REMARK SMILES O=C(OCCOCCOC(=O)c1ccc(-c2c3nc(c(-c4ccccc4)c4ccc([nH]4)c(-c4ccccc4)c4nc(c(-c5ccccc5)c5ccc2[nH]5)C=C4)C=C3)cc1)C1=Cc2c(ccc(Cl)c2-c2ccccc2)O[C@H]1C(F)(F)F
REMARK SMILES IDX 7 1 6 2 5 3 4 4 3 5 2 6 1 7 60 8 61 9 76 10 62 11 75 12
REMARK SMILES IDX 63 13 68 14 64 15 66 16 65 17 67 18 77 19 78 20 79 21 80 22
REMARK SMILES IDX 69 23 70 24 74 25 71 26 73 27 72 28 8 29 9 30 10 31 11 32
REMARK SMILES IDX 12 33 13 34 59 35 14 36 58 37 15 38 16 39 17 40 52 41 18 42
REMARK SMILES IDX 57 43 51 44 53 45 19 46 56 47 50 48 49 49 20 51 42 52 27 53
REMARK SMILES IDX 41 54 28 55 31 56 40 57 54 58 29 59 30 60 39 62 55 63 32 64
REMARK SMILES IDX 21 65 22 66 26 67 23 68 25 69 24 70 43 71 44 72 48 73 45 74
REMARK SMILES IDX 47 75 46 76 33 77 34 78 38 79 35 80 37 81 36 82
REMARK H PARENT 53 50 31 61
REMARK Flexibility Score: inf
ROOT
ATOM      1  C   UNL A   1      34.673  20.319  25.107  1.00  0.00     0.202 C 
ENDROOT
BRANCH   1   2
ATOM      2  O   UNL A   1      33.760  20.949  26.000  1.00  0.00    -0.374 OA
BRANCH   2   3
ATOM      3  C   UNL A   1      34.222  21.936  26.899  1.00  0.00     0.202 C 
BRANCH   3   4
ATOM      4  C   UNL A   1      33.224  22.954  27.477  1.00  0.00     0.261 C 
BRANCH   4   5
ATOM      5  O   UNL A   1      32.144  23.222  26.570  1.00  0.00    -0.460 OA
BRANCH   5   6
ATOM      6  C   UNL A   1      31.745  24.465  26.224  1.00  0.00     0.338 C 
ATOM      7  O   UNL A   1      30.885  25.034  26.890  1.00  0.00    -0.246 OA
BRANCH   6   8
ATOM      8  C   UNL A   1      32.236  25.110  24.982  1.00  0.00     0.087 C 
ATOM      9  C   UNL A   1      32.916  26.262  24.835  1.00  0.00     0.028 C 
ATOM     10  C   UNL A   1      31.773  24.438  23.713  1.00  0.00     0.316 C 
ATOM     11  C   UNL A   1      32.079  27.271  24.170  1.00  0.00     0.027 A 
ATOM     12  O   UNL A   1      31.533  25.413  22.645  1.00  0.00    -0.475 OA
ATOM     13  C   UNL A   1      31.352  26.720  23.070  1.00  0.00     0.128 A 
ATOM     14  C   UNL A   1      31.929  28.610  24.640  1.00  0.00     0.011 A 
ATOM     15  C   UNL A   1      30.435  27.484  22.388  1.00  0.00     0.049 A 
ATOM     16  C   UNL A   1      30.871  29.289  23.993  1.00  0.00     0.049 A 
ATOM     17  C   UNL A   1      30.173  28.756  22.877  1.00  0.00     0.025 A 
ATOM     18  Cl  UNL A   1      30.218  30.782  24.541  1.00  0.00    -0.084 Cl
BRANCH  10  19
ATOM     19  C   UNL A   1      32.830  23.381  23.331  1.00  0.00     0.430 C 
ATOM     20  F   UNL A   1      33.111  23.402  22.001  1.00  0.00    -0.167 F 
ATOM     21  F   UNL A   1      33.999  23.567  23.980  1.00  0.00    -0.167 F 
ATOM     22  F   UNL A   1      32.399  22.124  23.603  1.00  0.00    -0.167 F 
ENDBRANCH  10  19
BRANCH  14  23
ATOM     23  C   UNL A   1      32.816  29.245  25.733  1.00  0.00    -0.016 A 
ATOM     24  C   UNL A   1      32.306  30.744  26.621  1.00  0.00     0.009 A 
ATOM     25  C   UNL A   1      34.432  28.533  26.147  1.00  0.00     0.009 A 
ATOM     26  C   UNL A   1      33.394  31.573  27.813  1.00  0.00     0.001 A 
ATOM     27  C   UNL A   1      35.536  29.325  27.361  1.00  0.00     0.001 A 
ATOM     28  C   UNL A   1      35.008  30.854  28.202  1.00  0.00     0.000 A 
ENDBRANCH  14  23
ENDBRANCH   6   8
ENDBRANCH   5   6
ENDBRANCH   4   5
ENDBRANCH   3   4
ENDBRANCH   2   3
ENDBRANCH   1   2
BRANCH   1  29
ATOM     29  C   UNL A   1      36.086  21.031  24.683  1.00  0.00     0.261 C 
BRANCH  29  30
ATOM     30  O   UNL A   1      37.837  21.320  25.656  1.00  0.00    -0.460 OA
BRANCH  30  31
ATOM     31  C   UNL A   1      39.166  21.187  26.089  1.00  0.00     0.338 C 
ATOM     32  O   UNL A   1      39.900  20.200  26.103  1.00  0.00    -0.246 OA
BRANCH  31  33
ATOM     33  C   UNL A   1      39.668  22.458  26.602  1.00  0.00     0.060 A 
ATOM     34  C   UNL A   1      39.067  23.633  26.155  1.00  0.00     0.016 A 
ATOM     35  C   UNL A   1      40.755  22.467  27.483  1.00  0.00     0.016 A 
ATOM     36  C   UNL A   1      39.546  24.845  26.625  1.00  0.00     0.010 A 
ATOM     37  C   UNL A   1      41.192  23.667  28.005  1.00  0.00     0.010 A 
ATOM     38  C   UNL A   1      40.612  24.854  27.537  1.00  0.00    -0.014 A 
BRANCH  38  39
ATOM     39  C   UNL A   1      41.369  26.090  27.736  1.00  0.00     0.031 A 
ATOM     40  C   UNL A   1      40.710  27.126  28.592  1.00  0.00     0.074 A 
ATOM     41  C   UNL A   1      42.556  26.273  27.140  1.00  0.00     0.049 A 
ATOM     42  N   UNL A   1      41.126  28.316  28.918  1.00  0.00    -0.248 NA
ATOM     43  C   UNL A   1      39.385  26.774  29.145  1.00  0.00     0.031 C 
ATOM     44  C   UNL A   1      43.240  25.301  26.291  1.00  0.00     0.029 A 
ATOM     45  N   UNL A   1      43.390  27.353  27.159  1.00  0.00    -0.354 N 
ATOM     46  C   UNL A   1      40.118  28.850  29.708  1.00  0.00     0.074 A 
ATOM     47  C   UNL A   1      39.053  27.881  29.783  1.00  0.00     0.031 C 
ATOM     48  C   UNL A   1      44.407  25.823  25.880  1.00  0.00     0.029 A 
ATOM     49  C   UNL A   1      44.523  27.179  26.406  1.00  0.00     0.049 A 
ATOM     50  H   UNL A   1      43.198  28.176  27.662  1.00  0.00     0.167 HD
ATOM     51  C   UNL A   1      40.091  30.053  30.320  1.00  0.00     0.031 A 
ATOM     52  C   UNL A   1      45.526  28.041  26.171  1.00  0.00     0.031 A 
ATOM     53  C   UNL A   1      41.143  31.015  30.175  1.00  0.00     0.049 A 
ATOM     54  C   UNL A   1      45.443  29.399  26.814  1.00  0.00     0.074 A 
ATOM     55  C   UNL A   1      41.248  32.275  30.726  1.00  0.00     0.029 A 
ATOM     56  N   UNL A   1      42.274  30.814  29.392  1.00  0.00    -0.354 N 
ATOM     57  N   UNL A   1      44.514  29.884  27.605  1.00  0.00    -0.248 NA
ATOM     58  C   UNL A   1      46.549  30.322  26.540  1.00  0.00     0.031 C 
ATOM     59  C   UNL A   1      42.418  32.859  30.231  1.00  0.00     0.029 A 
ATOM     60  C   UNL A   1      43.074  31.938  29.425  1.00  0.00     0.049 A 
ATOM     61  H   UNL A   1      42.474  29.991  28.889  1.00  0.00     0.167 HD
ATOM     62  C   UNL A   1      44.937  31.159  27.953  1.00  0.00     0.074 A 
ATOM     63  C   UNL A   1      46.215  31.361  27.294  1.00  0.00     0.031 C 
ATOM     64  C   UNL A   1      44.338  32.082  28.746  1.00  0.00     0.031 A 
BRANCH  51  65
ATOM     65  C   UNL A   1      38.866  30.377  31.123  1.00  0.00    -0.014 A 
ATOM     66  C   UNL A   1      37.830  31.165  30.591  1.00  0.00     0.009 A 
ATOM     67  C   UNL A   1      38.769  29.937  32.451  1.00  0.00     0.009 A 
ATOM     68  C   UNL A   1      36.745  31.540  31.387  1.00  0.00     0.001 A 
ATOM     69  C   UNL A   1      37.668  30.288  33.235  1.00  0.00     0.001 A 
ATOM     70  C   UNL A   1      36.664  31.098  32.707  1.00  0.00     0.000 A 
ENDBRANCH  51  65
BRANCH  52  71
ATOM     71  C   UNL A   1      46.677  27.648  25.317  1.00  0.00    -0.014 A 
ATOM     72  C   UNL A   1      47.758  26.938  25.861  1.00  0.00     0.009 A 
ATOM     73  C   UNL A   1      46.702  27.973  23.951  1.00  0.00     0.009 A 
ATOM     74  C   UNL A   1      48.851  26.589  25.064  1.00  0.00     0.001 A 
ATOM     75  C   UNL A   1      47.783  27.599  23.150  1.00  0.00     0.001 A 
ATOM     76  C   UNL A   1      48.863  26.917  23.710  1.00  0.00     0.000 A 
ENDBRANCH  52  71
BRANCH  64  77
ATOM     77  C   UNL A   1      45.088  33.362  28.971  1.00  0.00    -0.014 A 
ATOM     78  C   UNL A   1      44.894  34.478  28.144  1.00  0.00     0.009 A 
ATOM     79  C   UNL A   1      45.973  33.454  30.055  1.00  0.00     0.009 A 
ATOM     80  C   UNL A   1      45.607  35.654  28.378  1.00  0.00     0.001 A 
ATOM     81  C   UNL A   1      46.657  34.642  30.308  1.00  0.00     0.001 A 
ATOM     82  C   UNL A   1      46.482  35.736  29.462  1.00  0.00     0.000 A 
ENDBRANCH  64  77
ENDBRANCH  38  39
ENDBRANCH  31  33
ENDBRANCH  30  31
ENDBRANCH  29  30
ENDBRANCH   1  29
TORSDOF 16
ENDMDL
MODEL 3
REMARK VINA RESULT:     -12.1      0.874      5.898
REMARK SMILES O=C(OCCOCCOC(=O)c1ccc(-c2c3nc(c(-c4ccccc4)c4ccc([nH]4)c(-c4ccccc4)c4nc(c(-c5ccccc5)c5ccc2[nH]5)C=C4)C=C3)cc1)C1=Cc2c(ccc(Cl)c2-c2ccccc2)O[C@H]1C(F)(F)F
REMARK SMILES IDX 7 1 6 2 5 3 4 4 3 5 2 6 1 7 60 8 61 9 76 10 62 11 75 12
REMARK SMILES IDX 63 13 68 14 64 15 66 16 65 17 67 18 77 19 78 20 79 21 80 22
REMARK SMILES IDX 69 23 70 24 74 25 71 26 73 27 72 28 8 29 9 30 10 31 11 32
REMARK SMILES IDX 12 33 13 34 59 35 14 36 58 37 15 38 16 39 17 40 52 41 18 42
REMARK SMILES IDX 57 43 51 44 53 45 19 46 56 47 50 48 49 49 20 51 42 52 27 53
REMARK SMILES IDX 41 54 28 55 31 56 40 57 54 58 29 59 30 60 39 62 55 63 32 64
REMARK SMILES IDX 21 65 22 66 26 67 23 68 25 69 24 70 43 71 44 72 48 73 45 74
REMARK SMILES IDX 47 75 46 76 33 77 34 78 38 79 35 80 37 81 36 82
REMARK H PARENT 53 50 31 61
REMARK Flexibility Score: inf
ROOT
ATOM      1  C   UNL A   1      32.245  29.861  26.160  1.00  0.00     0.202 C 
ENDROOT
BRANCH   1   2
ATOM      2  O   UNL A   1      33.429  29.742  25.378  1.00  0.00    -0.374 OA
BRANCH   2   3
ATOM      3  C   UNL A   1      33.825  28.478  24.888  1.00  0.00     0.202 C 
BRANCH   3   4
ATOM      4  C   UNL A   1      33.714  28.186  23.381  1.00  0.00     0.261 C 
BRANCH   4   5
ATOM      5  O   UNL A   1      32.932  27.012  23.117  1.00  0.00    -0.460 OA
BRANCH   5   6
ATOM      6  C   UNL A   1      33.344  25.758  23.399  1.00  0.00     0.338 C 
ATOM      7  O   UNL A   1      34.023  25.142  22.582  1.00  0.00    -0.246 OA
BRANCH   6   8
ATOM      8  C   UNL A   1      32.889  25.058  24.626  1.00  0.00     0.087 C 
ATOM      9  C   UNL A   1      33.612  24.376  25.532  1.00  0.00     0.028 C 
ATOM     10  C   UNL A   1      31.390  24.995  24.780  1.00  0.00     0.316 C 
ATOM     11  C   UNL A   1      33.296  22.942  25.467  1.00  0.00     0.027 A 
ATOM     12  O   UNL A   1      30.965  23.739  25.405  1.00  0.00    -0.475 OA
ATOM     13  C   UNL A   1      31.891  22.710  25.347  1.00  0.00     0.128 A 
ATOM     14  C   UNL A   1      34.286  21.914  25.417  1.00  0.00     0.011 A 
ATOM     15  C   UNL A   1      31.408  21.436  25.167  1.00  0.00     0.049 A 
ATOM     16  C   UNL A   1      33.733  20.656  25.084  1.00  0.00     0.049 A 
ATOM     17  C   UNL A   1      32.336  20.418  25.000  1.00  0.00     0.025 A 
ATOM     18  Cl  UNL A   1      34.674  19.292  24.625  1.00  0.00    -0.084 Cl
BRANCH  10  19
ATOM     19  C   UNL A   1      30.949  26.240  25.579  1.00  0.00     0.430 C 
ATOM     20  F   UNL A   1      29.813  26.010  26.290  1.00  0.00    -0.167 F 
ATOM     21  F   UNL A   1      31.888  26.641  26.462  1.00  0.00    -0.167 F 
ATOM     22  F   UNL A   1      30.674  27.286  24.762  1.00  0.00    -0.167 F 
ENDBRANCH  10  19
BRANCH  14  23
ATOM     23  C   UNL A   1      35.787  22.149  25.690  1.00  0.00    -0.016 A 
ATOM     24  C   UNL A   1      36.405  23.744  26.297  1.00  0.00     0.009 A 
ATOM     25  C   UNL A   1      37.004  20.840  25.380  1.00  0.00     0.009 A 
ATOM     26  C   UNL A   1      38.179  24.075  26.499  1.00  0.00     0.001 A 
ATOM     27  C   UNL A   1      38.789  21.130  25.601  1.00  0.00     0.001 A 
ATOM     28  C   UNL A   1      39.377  22.759  26.170  1.00  0.00     0.000 A 
ENDBRANCH  14  23
ENDBRANCH   6   8
ENDBRANCH   5   6
ENDBRANCH   4   5
ENDBRANCH   3   4
ENDBRANCH   2   3
ENDBRANCH   1   2
BRANCH   1  29
ATOM     29  C   UNL A   1      31.843  31.267  26.899  1.00  0.00     0.261 C 
BRANCH  29  30
ATOM     30  O   UNL A   1      32.928  32.840  27.565  1.00  0.00    -0.460 OA
BRANCH  30  31
ATOM     31  C   UNL A   1      33.992  33.639  28.015  1.00  0.00     0.338 C 
ATOM     32  O   UNL A   1      34.064  34.860  28.148  1.00  0.00    -0.246 OA
BRANCH  31  33
ATOM     33  C   UNL A   1      35.153  32.815  28.334  1.00  0.00     0.060 A 
ATOM     34  C   UNL A   1      34.962  31.445  28.508  1.00  0.00     0.016 A 
ATOM     35  C   UNL A   1      36.405  33.418  28.500  1.00  0.00     0.016 A 
ATOM     36  C   UNL A   1      36.057  30.657  28.825  1.00  0.00     0.010 A 
ATOM     37  C   UNL A   1      37.508  32.629  28.751  1.00  0.00     0.010 A 
ATOM     38  C   UNL A   1      37.319  31.256  28.956  1.00  0.00    -0.014 A 
BRANCH  38  39
ATOM     39  C   UNL A   1      38.381  30.533  29.656  1.00  0.00     0.031 A 
ATOM     40  C   UNL A   1      38.540  30.856  31.109  1.00  0.00     0.074 A 
ATOM     41  C   UNL A   1      39.177  29.676  29.001  1.00  0.00     0.049 A 
ATOM     42  N   UNL A   1      39.404  30.396  31.969  1.00  0.00    -0.248 NA
ATOM     43  C   UNL A   1      37.599  31.850  31.667  1.00  0.00     0.031 C 
ATOM     44  C   UNL A   1      39.072  29.331  27.585  1.00  0.00     0.029 A 
ATOM     45  N   UNL A   1      40.238  28.945  29.449  1.00  0.00    -0.354 N 
ATOM     46  C   UNL A   1      39.110  31.044  33.160  1.00  0.00     0.074 A 
ATOM     47  C   UNL A   1      38.022  31.957  32.913  1.00  0.00     0.031 C 
ATOM     48  C   UNL A   1      40.025  28.435  27.280  1.00  0.00     0.029 A 
ATOM     49  C   UNL A   1      40.827  28.183  28.472  1.00  0.00     0.049 A 
ATOM     50  H   UNL A   1      40.552  28.963  30.382  1.00  0.00     0.167 HD
ATOM     51  C   UNL A   1      39.706  30.884  34.361  1.00  0.00     0.031 A 
ATOM     52  C   UNL A   1      41.904  27.384  28.553  1.00  0.00     0.031 A 
ATOM     53  C   UNL A   1      40.825  30.010  34.556  1.00  0.00     0.049 A 
ATOM     54  C   UNL A   1      42.588  27.270  29.888  1.00  0.00     0.074 A 
ATOM     55  C   UNL A   1      41.535  29.754  35.711  1.00  0.00     0.029 A 
ATOM     56  N   UNL A   1      41.409  29.260  33.541  1.00  0.00    -0.354 N 
ATOM     57  N   UNL A   1      42.278  27.843  31.028  1.00  0.00    -0.248 NA
ATOM     58  C   UNL A   1      43.763  26.395  29.950  1.00  0.00     0.031 C 
ATOM     59  C   UNL A   1      42.584  28.890  35.381  1.00  0.00     0.029 A 
ATOM     60  C   UNL A   1      42.487  28.557  34.037  1.00  0.00     0.049 A 
ATOM     61  H   UNL A   1      41.097  29.235  32.607  1.00  0.00     0.167 HD
ATOM     62  C   UNL A   1      43.198  27.373  31.955  1.00  0.00     0.074 A 
ATOM     63  C   UNL A   1      44.068  26.456  31.239  1.00  0.00     0.031 C 
ATOM     64  C   UNL A   1      43.319  27.659  33.275  1.00  0.00     0.031 A 
BRANCH  51  65
ATOM     65  C   UNL A   1      39.183  31.718  35.493  1.00  0.00    -0.014 A 
ATOM     66  C   UNL A   1      38.150  31.254  36.327  1.00  0.00     0.009 A 
ATOM     67  C   UNL A   1      39.689  33.011  35.694  1.00  0.00     0.009 A 
ATOM     68  C   UNL A   1      37.608  32.085  37.310  1.00  0.00     0.001 A 
ATOM     69  C   UNL A   1      39.165  33.827  36.698  1.00  0.00     0.001 A 
ATOM     70  C   UNL A   1      38.119  33.369  37.498  1.00  0.00     0.000 A 
ENDBRANCH  51  65
BRANCH  52  71
ATOM     71  C   UNL A   1      42.382  26.636  27.362  1.00  0.00    -0.014 A 
ATOM     72  C   UNL A   1      41.885  25.354  27.080  1.00  0.00     0.009 A 
ATOM     73  C   UNL A   1      43.332  27.197  26.493  1.00  0.00     0.009 A 
ATOM     74  C   UNL A   1      42.351  24.639  25.974  1.00  0.00     0.001 A 
ATOM     75  C   UNL A   1      43.776  26.492  25.372  1.00  0.00     0.001 A 
ATOM     76  C   UNL A   1      43.293  25.209  25.119  1.00  0.00     0.000 A 
ENDBRANCH  52  71
BRANCH  64  77
ATOM     77  C   UNL A   1      44.400  26.935  34.022  1.00  0.00    -0.014 A 
ATOM     78  C   UNL A   1      45.663  27.509  34.221  1.00  0.00     0.009 A 
ATOM     79  C   UNL A   1      44.125  25.671  34.567  1.00  0.00     0.009 A 
ATOM     80  C   UNL A   1      46.647  26.811  34.919  1.00  0.00     0.001 A 
ATOM     81  C   UNL A   1      45.099  24.991  35.295  1.00  0.00     0.001 A 
ATOM     82  C   UNL A   1      46.363  25.556  35.459  1.00  0.00     0.000 A 
ENDBRANCH  64  77
ENDBRANCH  38  39
ENDBRANCH  31  33
ENDBRANCH  30  31
ENDBRANCH  29  30
ENDBRANCH   1  29
TORSDOF 16
ENDMDL
