MODEL 1
REMARK VINA RESULT:      -8.6      0.000      0.000
REMARK SMILES Cc1ccc([C@H](C)Nc2ccc(C(=O)OCCOCCOC(=O)c3ccc(-c4c5nc(c(-c6ccccc6)c6ccc([nH]6)c(-c6ccccc6)c6nc(c(-c7ccccc7)c7ccc4[nH]7)C=C6)C=C5)cc3)cc2Cl)cc1F
REMARK SMILES IDX 17 1 16 2 15 3 13 4 14 5 12 6 9 7 10 8 73 9 11 10 72 11
REMARK SMILES IDX 74 12 8 13 6 15 7 16 5 17 1 18 2 19 3 20 76 21 4 22 75 23
REMARK SMILES IDX 77 24 18 25 19 26 20 27 21 28 22 29 23 30 24 31 25 32 71 33
REMARK SMILES IDX 26 34 70 35 27 36 28 37 29 38 64 39 30 40 69 41 63 42 65 43
REMARK SMILES IDX 31 44 68 45 62 46 61 47 32 49 54 50 39 51 53 52 40 53 43 54
REMARK SMILES IDX 52 55 66 56 41 57 42 58 51 60 67 61 44 62 33 63 34 64 38 65
REMARK SMILES IDX 35 66 37 67 36 68 55 69 56 70 60 71 57 72 59 73 58 74 45 75
REMARK SMILES IDX 46 76 50 77 47 78 49 79 48 80
REMARK H PARENT 8 14 65 48 43 59
REMARK Flexibility Score: inf
ROOT
ATOM      1  C   UNL A   1      34.362  34.806  32.581  1.00  0.00     0.202 C 
ENDROOT
BRANCH   1   2
ATOM      2  C   UNL A   1      34.495  34.256  34.004  1.00  0.00     0.261 C 
BRANCH   2   3
ATOM      3  O   UNL A   1      35.528  33.265  34.096  1.00  0.00    -0.460 OA
BRANCH   3   4
ATOM      4  C   UNL A   1      36.743  33.736  34.460  1.00  0.00     0.338 C 
ATOM      5  O   UNL A   1      37.062  34.904  34.626  1.00  0.00    -0.246 OA
BRANCH   4   6
ATOM      6  C   UNL A   1      37.633  32.607  34.797  1.00  0.00     0.061 A 
ATOM      7  C   UNL A   1      39.380  30.505  35.519  1.00  0.00     0.053 A 
ATOM      8  C   UNL A   1      39.100  31.561  36.405  1.00  0.00     0.028 A 
ATOM      9  C   UNL A   1      38.735  30.523  34.261  1.00  0.00     0.065 A 
ATOM     10  C   UNL A   1      38.248  32.606  36.049  1.00  0.00     0.018 A 
ATOM     11  C   UNL A   1      37.854  31.554  33.913  1.00  0.00     0.038 A 
ATOM     12  Cl  UNL A   1      38.893  29.261  33.088  1.00  0.00    -0.082 Cl
BRANCH   7  13
ATOM     13  N   UNL A   1      40.308  29.566  35.946  1.00  0.00    -0.377 N 
ATOM     14  H   UNL A   1      39.982  28.795  36.464  1.00  0.00     0.161 HD
BRANCH  13  15
ATOM     15  C   UNL A   1      41.743  29.655  35.675  1.00  0.00     0.106 C 
ATOM     16  C   UNL A   1      42.361  30.564  36.751  1.00  0.00     0.036 C 
BRANCH  15  17
ATOM     17  C   UNL A   1      42.300  28.239  35.550  1.00  0.00    -0.023 A 
ATOM     18  C   UNL A   1      43.600  24.103  35.752  1.00  0.00     0.047 C 
ATOM     19  C   UNL A   1      43.176  25.533  35.638  1.00  0.00    -0.015 A 
ATOM     20  C   UNL A   1      42.293  25.967  34.645  1.00  0.00     0.007 A 
ATOM     21  C   UNL A   1      43.633  26.461  36.566  1.00  0.00     0.126 A 
ATOM     22  C   UNL A   1      41.858  27.302  34.602  1.00  0.00     0.006 A 
ATOM     23  C   UNL A   1      43.215  27.786  36.520  1.00  0.00     0.045 A 
ATOM     24  F   UNL A   1      44.468  26.079  37.543  1.00  0.00    -0.207 F 
ENDBRANCH  15  17
ENDBRANCH  13  15
ENDBRANCH   7  13
ENDBRANCH   4   6
ENDBRANCH   3   4
ENDBRANCH   2   3
ENDBRANCH   1   2
BRANCH   1  25
ATOM     25  O   UNL A   1      33.251  35.659  32.313  1.00  0.00    -0.374 OA
BRANCH  25  26
ATOM     26  C   UNL A   1      33.364  36.569  31.221  1.00  0.00     0.202 C 
BRANCH  26  27
ATOM     27  C   UNL A   1      32.624  36.210  29.925  1.00  0.00     0.261 C 
BRANCH  27  28
ATOM     28  O   UNL A   1      33.510  35.734  28.897  1.00  0.00    -0.460 OA
BRANCH  28  29
ATOM     29  C   UNL A   1      33.323  34.438  28.550  1.00  0.00     0.338 C 
ATOM     30  O   UNL A   1      32.349  33.948  28.003  1.00  0.00    -0.246 OA
BRANCH  29  31
ATOM     31  C   UNL A   1      34.569  33.682  28.766  1.00  0.00     0.060 A 
ATOM     32  C   UNL A   1      34.613  32.802  29.855  1.00  0.00     0.016 A 
ATOM     33  C   UNL A   1      35.697  33.887  27.971  1.00  0.00     0.016 A 
ATOM     34  C   UNL A   1      35.803  32.159  30.184  1.00  0.00     0.010 A 
ATOM     35  C   UNL A   1      36.893  33.245  28.306  1.00  0.00     0.010 A 
ATOM     36  C   UNL A   1      36.960  32.408  29.436  1.00  0.00    -0.014 A 
BRANCH  36  37
ATOM     37  C   UNL A   1      38.267  31.898  29.914  1.00  0.00     0.031 A 
ATOM     38  C   UNL A   1      38.764  30.569  29.413  1.00  0.00     0.074 A 
ATOM     39  C   UNL A   1      39.013  32.619  30.769  1.00  0.00     0.049 A 
ATOM     40  N   UNL A   1      39.856  29.920  29.729  1.00  0.00    -0.248 NA
ATOM     41  C   UNL A   1      37.914  29.880  28.430  1.00  0.00     0.031 C 
ATOM     42  C   UNL A   1      38.659  33.935  31.298  1.00  0.00     0.029 A 
ATOM     43  N   UNL A   1      40.223  32.333  31.350  1.00  0.00    -0.354 N 
ATOM     44  C   UNL A   1      39.816  28.741  28.995  1.00  0.00     0.074 A 
ATOM     45  C   UNL A   1      38.579  28.750  28.245  1.00  0.00     0.031 C 
ATOM     46  C   UNL A   1      39.626  34.339  32.138  1.00  0.00     0.029 A 
ATOM     47  C   UNL A   1      40.645  33.296  32.233  1.00  0.00     0.049 A 
ATOM     48  H   UNL A   1      40.738  31.518  31.154  1.00  0.00     0.167 HD
ATOM     49  C   UNL A   1      40.731  27.743  28.944  1.00  0.00     0.031 A 
ATOM     50  C   UNL A   1      41.717  33.320  33.049  1.00  0.00     0.031 A 
ATOM     51  C   UNL A   1      41.953  27.727  29.707  1.00  0.00     0.049 A 
ATOM     52  C   UNL A   1      42.682  32.166  33.034  1.00  0.00     0.074 A 
ATOM     53  C   UNL A   1      42.955  26.772  29.711  1.00  0.00     0.029 A 
ATOM     54  N   UNL A   1      42.330  28.707  30.612  1.00  0.00    -0.354 N 
ATOM     55  N   UNL A   1      42.655  31.073  32.309  1.00  0.00    -0.248 NA
ATOM     56  C   UNL A   1      43.833  32.255  33.943  1.00  0.00     0.031 C 
ATOM     57  C   UNL A   1      43.905  27.141  30.669  1.00  0.00     0.029 A 
ATOM     58  C   UNL A   1      43.533  28.362  31.207  1.00  0.00     0.049 A 
ATOM     59  H   UNL A   1      41.820  29.527  30.804  1.00  0.00     0.167 HD
ATOM     60  C   UNL A   1      43.796  30.359  32.654  1.00  0.00     0.074 A 
ATOM     61  C   UNL A   1      44.501  31.150  33.641  1.00  0.00     0.031 C 
ATOM     62  C   UNL A   1      44.222  29.156  32.194  1.00  0.00     0.031 A 
BRANCH  49  63
ATOM     63  C   UNL A   1      40.417  26.563  28.064  1.00  0.00    -0.014 A 
ATOM     64  C   UNL A   1      40.972  26.434  26.781  1.00  0.00     0.009 A 
ATOM     65  C   UNL A   1      39.561  25.555  28.534  1.00  0.00     0.009 A 
ATOM     66  C   UNL A   1      40.640  25.345  25.971  1.00  0.00     0.001 A 
ATOM     67  C   UNL A   1      39.256  24.451  27.736  1.00  0.00     0.001 A 
ATOM     68  C   UNL A   1      39.785  24.354  26.450  1.00  0.00     0.000 A 
ENDBRANCH  49  63
BRANCH  50  69
ATOM     69  C   UNL A   1      41.917  34.469  33.970  1.00  0.00    -0.014 A 
ATOM     70  C   UNL A   1      41.403  34.445  35.275  1.00  0.00     0.009 A 
ATOM     71  C   UNL A   1      42.628  35.602  33.544  1.00  0.00     0.009 A 
ATOM     72  C   UNL A   1      41.578  35.541  36.124  1.00  0.00     0.001 A 
ATOM     73  C   UNL A   1      42.830  36.682  34.405  1.00  0.00     0.001 A 
ATOM     74  C   UNL A   1      42.295  36.654  35.691  1.00  0.00     0.000 A 
ENDBRANCH  50  69
BRANCH  62  75
ATOM     75  C   UNL A   1      45.532  28.638  32.724  1.00  0.00    -0.014 A 
ATOM     76  C   UNL A   1      46.757  29.025  32.160  1.00  0.00     0.009 A 
ATOM     77  C   UNL A   1      45.538  27.777  33.833  1.00  0.00     0.009 A 
ATOM     78  C   UNL A   1      47.959  28.532  32.675  1.00  0.00     0.001 A 
ATOM     79  C   UNL A   1      46.742  27.314  34.367  1.00  0.00     0.001 A 
ATOM     80  C   UNL A   1      47.950  27.683  33.780  1.00  0.00     0.000 A 
ENDBRANCH  62  75
ENDBRANCH  36  37
ENDBRANCH  29  31
ENDBRANCH  28  29
ENDBRANCH  27  28
ENDBRANCH  26  27
ENDBRANCH  25  26
ENDBRANCH   1  25
TORSDOF 17
ENDMDL
MODEL 2
REMARK VINA RESULT:      -8.4      4.985      9.697
REMARK SMILES Cc1ccc([C@H](C)Nc2ccc(C(=O)OCCOCCOC(=O)c3ccc(-c4c5nc(c(-c6ccccc6)c6ccc([nH]6)c(-c6ccccc6)c6nc(c(-c7ccccc7)c7ccc4[nH]7)C=C6)C=C5)cc3)cc2Cl)cc1F
REMARK SMILES IDX 17 1 16 2 15 3 13 4 14 5 12 6 9 7 10 8 73 9 11 10 72 11
REMARK SMILES IDX 74 12 8 13 6 15 7 16 5 17 1 18 2 19 3 20 76 21 4 22 75 23
REMARK SMILES IDX 77 24 18 25 19 26 20 27 21 28 22 29 23 30 24 31 25 32 71 33
REMARK SMILES IDX 26 34 70 35 27 36 28 37 29 38 64 39 30 40 69 41 63 42 65 43
REMARK SMILES IDX 31 44 68 45 62 46 61 47 32 49 54 50 39 51 53 52 40 53 43 54
REMARK SMILES IDX 52 55 66 56 41 57 42 58 51 60 67 61 44 62 33 63 34 64 38 65
REMARK SMILES IDX 35 66 37 67 36 68 55 69 56 70 60 71 57 72 59 73 58 74 45 75
REMARK SMILES IDX 46 76 50 77 47 78 49 79 48 80
REMARK H PARENT 8 14 65 48 43 59
REMARK Flexibility Score: inf
ROOT
ATOM      1  C   UNL A   1      34.401  33.091  29.598  1.00  0.00     0.202 C 
ENDROOT
BRANCH   1   2
ATOM      2  C   UNL A   1      33.988  32.983  28.127  1.00  0.00     0.261 C 
BRANCH   2   3
ATOM      3  O   UNL A   1      33.474  31.682  27.813  1.00  0.00    -0.460 OA
BRANCH   3   4
ATOM      4  C   UNL A   1      34.395  30.793  27.372  1.00  0.00     0.338 C 
ATOM      5  O   UNL A   1      35.609  30.871  27.486  1.00  0.00    -0.246 OA
BRANCH   4   6
ATOM      6  C   UNL A   1      33.715  29.591  26.852  1.00  0.00     0.061 A 
ATOM      7  C   UNL A   1      32.383  27.263  25.954  1.00  0.00     0.053 A 
ATOM      8  C   UNL A   1      32.086  27.842  27.202  1.00  0.00     0.028 A 
ATOM      9  C   UNL A   1      33.357  27.905  25.156  1.00  0.00     0.065 A 
ATOM     10  C   UNL A   1      32.749  28.983  27.654  1.00  0.00     0.018 A 
ATOM     11  C   UNL A   1      34.001  29.069  25.593  1.00  0.00     0.038 A 
ATOM     12  Cl  UNL A   1      33.779  27.385  23.560  1.00  0.00    -0.082 Cl
BRANCH   7  13
ATOM     13  N   UNL A   1      31.724  26.082  25.646  1.00  0.00    -0.377 N 
ATOM     14  H   UNL A   1      31.057  26.099  24.923  1.00  0.00     0.161 HD
BRANCH  13  15
ATOM     15  C   UNL A   1      31.962  24.812  26.333  1.00  0.00     0.106 C 
ATOM     16  C   UNL A   1      30.624  24.056  26.380  1.00  0.00     0.036 C 
BRANCH  15  17
ATOM     17  C   UNL A   1      33.140  24.111  25.660  1.00  0.00    -0.023 A 
ATOM     18  C   UNL A   1      36.564  22.663  23.419  1.00  0.00     0.047 C 
ATOM     19  C   UNL A   1      35.381  23.117  24.215  1.00  0.00    -0.015 A 
ATOM     20  C   UNL A   1      35.442  23.288  25.601  1.00  0.00     0.007 A 
ATOM     21  C   UNL A   1      34.192  23.423  23.565  1.00  0.00     0.126 A 
ATOM     22  C   UNL A   1      34.337  23.781  26.314  1.00  0.00     0.006 A 
ATOM     23  C   UNL A   1      33.092  23.899  24.268  1.00  0.00     0.045 A 
ATOM     24  F   UNL A   1      34.099  23.286  22.233  1.00  0.00    -0.207 F 
ENDBRANCH  15  17
ENDBRANCH  13  15
ENDBRANCH   7  13
ENDBRANCH   4   6
ENDBRANCH   3   4
ENDBRANCH   2   3
ENDBRANCH   1   2
BRANCH   1  25
ATOM     25  O   UNL A   1      33.763  34.097  30.381  1.00  0.00    -0.374 OA
BRANCH  25  26
ATOM     26  C   UNL A   1      34.386  34.474  31.608  1.00  0.00     0.202 C 
BRANCH  26  27
ATOM     27  C   UNL A   1      34.126  33.586  32.832  1.00  0.00     0.261 C 
BRANCH  27  28
ATOM     28  O   UNL A   1      34.831  32.334  32.767  1.00  0.00    -0.460 OA
BRANCH  28  29
ATOM     29  C   UNL A   1      36.075  32.361  33.302  1.00  0.00     0.338 C 
ATOM     30  O   UNL A   1      36.404  32.785  34.397  1.00  0.00    -0.246 OA
BRANCH  29  31
ATOM     31  C   UNL A   1      37.006  31.623  32.431  1.00  0.00     0.060 A 
ATOM     32  C   UNL A   1      37.966  30.811  33.048  1.00  0.00     0.016 A 
ATOM     33  C   UNL A   1      36.994  31.782  31.044  1.00  0.00     0.016 A 
ATOM     34  C   UNL A   1      38.951  30.192  32.284  1.00  0.00     0.010 A 
ATOM     35  C   UNL A   1      37.987  31.165  30.279  1.00  0.00     0.010 A 
ATOM     36  C   UNL A   1      38.992  30.398  30.899  1.00  0.00    -0.014 A 
BRANCH  36  37
ATOM     37  C   UNL A   1      40.159  29.921  30.120  1.00  0.00     0.031 A 
ATOM     38  C   UNL A   1      41.328  30.845  29.910  1.00  0.00     0.074 A 
ATOM     39  C   UNL A   1      40.186  28.674  29.620  1.00  0.00     0.049 A 
ATOM     40  N   UNL A   1      42.429  30.646  29.231  1.00  0.00    -0.248 NA
ATOM     41  C   UNL A   1      41.240  32.168  30.546  1.00  0.00     0.031 C 
ATOM     42  C   UNL A   1      39.133  27.674  29.786  1.00  0.00     0.029 A 
ATOM     43  N   UNL A   1      41.138  28.042  28.861  1.00  0.00    -0.354 N 
ATOM     44  C   UNL A   1      43.158  31.824  29.347  1.00  0.00     0.074 A 
ATOM     45  C   UNL A   1      42.360  32.740  30.132  1.00  0.00     0.031 C 
ATOM     46  C   UNL A   1      39.491  26.555  29.136  1.00  0.00     0.029 A 
ATOM     47  C   UNL A   1      40.778  26.774  28.479  1.00  0.00     0.049 A 
ATOM     48  H   UNL A   1      41.996  28.457  28.614  1.00  0.00     0.167 HD
ATOM     49  C   UNL A   1      44.385  32.114  28.849  1.00  0.00     0.031 A 
ATOM     50  C   UNL A   1      41.402  25.899  27.666  1.00  0.00     0.031 A 
ATOM     51  C   UNL A   1      45.168  31.207  28.051  1.00  0.00     0.049 A 
ATOM     52  C   UNL A   1      42.729  26.270  27.061  1.00  0.00     0.074 A 
ATOM     53  C   UNL A   1      46.430  31.398  27.517  1.00  0.00     0.029 A 
ATOM     54  N   UNL A   1      44.756  29.942  27.661  1.00  0.00    -0.354 N 
ATOM     55  N   UNL A   1      43.427  27.371  27.207  1.00  0.00    -0.248 NA
ATOM     56  C   UNL A   1      43.360  25.271  26.188  1.00  0.00     0.031 C 
ATOM     57  C   UNL A   1      46.753  30.275  26.747  1.00  0.00     0.029 A 
ATOM     58  C   UNL A   1      45.724  29.355  26.863  1.00  0.00     0.049 A 
ATOM     59  H   UNL A   1      43.902  29.522  27.913  1.00  0.00     0.167 HD
ATOM     60  C   UNL A   1      44.588  27.186  26.468  1.00  0.00     0.074 A 
ATOM     61  C   UNL A   1      44.509  25.861  25.888  1.00  0.00     0.031 C 
ATOM     62  C   UNL A   1      45.629  28.037  26.286  1.00  0.00     0.031 A 
BRANCH  49  63
ATOM     63  C   UNL A   1      44.931  33.490  29.120  1.00  0.00    -0.014 A 
ATOM     64  C   UNL A   1      44.670  34.567  28.258  1.00  0.00     0.009 A 
ATOM     65  C   UNL A   1      45.712  33.714  30.265  1.00  0.00     0.009 A 
ATOM     66  C   UNL A   1      45.217  35.828  28.514  1.00  0.00     0.001 A 
ATOM     67  C   UNL A   1      46.228  34.982  30.536  1.00  0.00     0.001 A 
ATOM     68  C   UNL A   1      45.992  36.035  29.654  1.00  0.00     0.000 A 
ENDBRANCH  49  63
BRANCH  50  69
ATOM     69  C   UNL A   1      40.761  24.594  27.355  1.00  0.00    -0.014 A 
ATOM     70  C   UNL A   1      39.648  24.522  26.504  1.00  0.00     0.009 A 
ATOM     71  C   UNL A   1      41.264  23.408  27.914  1.00  0.00     0.009 A 
ATOM     72  C   UNL A   1      39.040  23.293  26.238  1.00  0.00     0.001 A 
ATOM     73  C   UNL A   1      40.675  22.177  27.620  1.00  0.00     0.001 A 
ATOM     74  C   UNL A   1      39.557  22.122  26.791  1.00  0.00     0.000 A 
ENDBRANCH  50  69
BRANCH  62  75
ATOM     75  C   UNL A   1      46.786  27.547  25.456  1.00  0.00    -0.014 A 
ATOM     76  C   UNL A   1      46.894  27.855  24.092  1.00  0.00     0.009 A 
ATOM     77  C   UNL A   1      47.805  26.797  26.064  1.00  0.00     0.009 A 
ATOM     78  C   UNL A   1      47.981  27.392  23.346  1.00  0.00     0.001 A 
ATOM     79  C   UNL A   1      48.907  26.364  25.325  1.00  0.00     0.001 A 
ATOM     80  C   UNL A   1      48.988  26.652  23.964  1.00  0.00     0.000 A 
ENDBRANCH  62  75
ENDBRANCH  36  37
ENDBRANCH  29  31
ENDBRANCH  28  29
ENDBRANCH  27  28
ENDBRANCH  26  27
ENDBRANCH  25  26
ENDBRANCH   1  25
TORSDOF 17
ENDMDL
MODEL 3
REMARK VINA RESULT:      -8.2      6.149     11.618
REMARK SMILES Cc1ccc([C@H](C)Nc2ccc(C(=O)OCCOCCOC(=O)c3ccc(-c4c5nc(c(-c6ccccc6)c6ccc([nH]6)c(-c6ccccc6)c6nc(c(-c7ccccc7)c7ccc4[nH]7)C=C6)C=C5)cc3)cc2Cl)cc1F
REMARK SMILES IDX 17 1 16 2 15 3 13 4 14 5 12 6 9 7 10 8 73 9 11 10 72 11
REMARK SMILES IDX 74 12 8 13 6 15 7 16 5 17 1 18 2 19 3 20 76 21 4 22 75 23
REMARK SMILES IDX 77 24 18 25 19 26 20 27 21 28 22 29 23 30 24 31 25 32 71 33
REMARK SMILES IDX 26 34 70 35 27 36 28 37 29 38 64 39 30 40 69 41 63 42 65 43
REMARK SMILES IDX 31 44 68 45 62 46 61 47 32 49 54 50 39 51 53 52 40 53 43 54
REMARK SMILES IDX 52 55 66 56 41 57 42 58 51 60 67 61 44 62 33 63 34 64 38 65
REMARK SMILES IDX 35 66 37 67 36 68 55 69 56 70 60 71 57 72 59 73 58 74 45 75
REMARK SMILES IDX 46 76 50 77 47 78 49 79 48 80
REMARK H PARENT 8 14 65 48 43 59
REMARK Flexibility Score: inf
ROOT
ATOM      1  C   UNL A   1      41.942  21.053  26.757  1.00  0.00     0.202 C 
ENDROOT
BRANCH   1   2
ATOM      2  C   UNL A   1      40.417  21.021  26.887  1.00  0.00     0.261 C 
BRANCH   2   3
ATOM      3  O   UNL A   1      39.778  21.760  25.836  1.00  0.00    -0.460 OA
BRANCH   3   4
ATOM      4  C   UNL A   1      39.071  22.840  26.243  1.00  0.00     0.338 C 
ATOM      5  O   UNL A   1      39.485  23.793  26.886  1.00  0.00    -0.246 OA
BRANCH   4   6
ATOM      6  C   UNL A   1      37.717  22.796  25.657  1.00  0.00     0.061 A 
ATOM      7  C   UNL A   1      35.153  22.628  24.478  1.00  0.00     0.053 A 
ATOM      8  C   UNL A   1      36.023  21.522  24.501  1.00  0.00     0.028 A 
ATOM      9  C   UNL A   1      35.602  23.820  25.089  1.00  0.00     0.065 A 
ATOM     10  C   UNL A   1      37.293  21.604  25.070  1.00  0.00     0.018 A 
ATOM     11  C   UNL A   1      36.864  23.896  25.690  1.00  0.00     0.038 A 
ATOM     12  Cl  UNL A   1      34.631  25.245  25.233  1.00  0.00    -0.082 Cl
BRANCH   7  13
ATOM     13  N   UNL A   1      33.950  22.456  23.809  1.00  0.00    -0.377 N 
ATOM     14  H   UNL A   1      33.938  22.596  22.835  1.00  0.00     0.161 HD
BRANCH  13  15
ATOM     15  C   UNL A   1      32.696  22.082  24.465  1.00  0.00     0.106 C 
ATOM     16  C   UNL A   1      31.557  22.808  23.731  1.00  0.00     0.036 C 
BRANCH  15  17
ATOM     17  C   UNL A   1      32.626  20.558  24.538  1.00  0.00    -0.023 A 
ATOM     18  C   UNL A   1      32.959  16.233  24.398  1.00  0.00     0.047 C 
ATOM     19  C   UNL A   1      32.802  17.718  24.474  1.00  0.00    -0.015 A 
ATOM     20  C   UNL A   1      32.915  18.415  25.680  1.00  0.00     0.007 A 
ATOM     21  C   UNL A   1      32.578  18.446  23.311  1.00  0.00     0.126 A 
ATOM     22  C   UNL A   1      32.831  19.817  25.712  1.00  0.00     0.006 A 
ATOM     23  C   UNL A   1      32.481  19.832  23.339  1.00  0.00     0.045 A 
ATOM     24  F   UNL A   1      32.479  17.814  22.132  1.00  0.00    -0.207 F 
ENDBRANCH  15  17
ENDBRANCH  13  15
ENDBRANCH   7  13
ENDBRANCH   4   6
ENDBRANCH   3   4
ENDBRANCH   2   3
ENDBRANCH   1   2
BRANCH   1  25
ATOM     25  O   UNL A   1      42.480  21.414  25.487  1.00  0.00    -0.374 OA
BRANCH  25  26
ATOM     26  C   UNL A   1      43.798  20.964  25.175  1.00  0.00     0.202 C 
BRANCH  26  27
ATOM     27  C   UNL A   1      44.926  22.003  25.217  1.00  0.00     0.261 C 
BRANCH  27  28
ATOM     28  O   UNL A   1      44.718  23.003  26.229  1.00  0.00    -0.460 OA
BRANCH  28  29
ATOM     29  C   UNL A   1      44.610  24.268  25.755  1.00  0.00     0.338 C 
ATOM     30  O   UNL A   1      44.979  24.690  24.673  1.00  0.00    -0.246 OA
BRANCH  29  31
ATOM     31  C   UNL A   1      43.797  25.076  26.681  1.00  0.00     0.060 A 
ATOM     32  C   UNL A   1      44.055  26.452  26.739  1.00  0.00     0.016 A 
ATOM     33  C   UNL A   1      42.858  24.492  27.532  1.00  0.00     0.016 A 
ATOM     34  C   UNL A   1      43.410  27.243  27.684  1.00  0.00     0.010 A 
ATOM     35  C   UNL A   1      42.215  25.287  28.485  1.00  0.00     0.010 A 
ATOM     36  C   UNL A   1      42.515  26.658  28.590  1.00  0.00    -0.014 A 
BRANCH  36  37
ATOM     37  C   UNL A   1      41.997  27.454  29.728  1.00  0.00     0.031 A 
ATOM     38  C   UNL A   1      40.715  28.223  29.563  1.00  0.00     0.074 A 
ATOM     39  C   UNL A   1      42.652  27.477  30.902  1.00  0.00     0.049 A 
ATOM     40  N   UNL A   1      40.106  29.010  30.412  1.00  0.00    -0.248 NA
ATOM     41  C   UNL A   1      40.033  28.088  28.266  1.00  0.00     0.031 C 
ATOM     42  C   UNL A   1      43.883  26.747  31.198  1.00  0.00     0.029 A 
ATOM     43  N   UNL A   1      42.370  28.154  32.062  1.00  0.00    -0.354 N 
ATOM     44  C   UNL A   1      38.977  29.475  29.748  1.00  0.00     0.074 A 
ATOM     45  C   UNL A   1      39.005  28.909  28.417  1.00  0.00     0.031 C 
ATOM     46  C   UNL A   1      44.259  27.025  32.457  1.00  0.00     0.029 A 
ATOM     47  C   UNL A   1      43.318  27.979  33.039  1.00  0.00     0.049 A 
ATOM     48  H   UNL A   1      41.567  28.710  32.182  1.00  0.00     0.167 HD
ATOM     49  C   UNL A   1      38.001  30.296  30.207  1.00  0.00     0.031 A 
ATOM     50  C   UNL A   1      43.430  28.547  34.256  1.00  0.00     0.031 A 
ATOM     51  C   UNL A   1      37.987  30.875  31.526  1.00  0.00     0.049 A 
ATOM     52  C   UNL A   1      42.376  29.516  34.718  1.00  0.00     0.074 A 
ATOM     53  C   UNL A   1      37.033  31.702  32.094  1.00  0.00     0.029 A 
ATOM     54  N   UNL A   1      38.980  30.697  32.476  1.00  0.00    -0.354 N 
ATOM     55  N   UNL A   1      41.293  29.921  34.097  1.00  0.00    -0.248 NA
ATOM     56  C   UNL A   1      42.553  30.098  36.055  1.00  0.00     0.031 C 
ATOM     57  C   UNL A   1      37.484  32.080  33.363  1.00  0.00     0.029 A 
ATOM     58  C   UNL A   1      38.681  31.428  33.614  1.00  0.00     0.049 A 
ATOM     59  H   UNL A   1      39.780  30.135  32.360  1.00  0.00     0.167 HD
ATOM     60  C   UNL A   1      40.649  30.781  34.977  1.00  0.00     0.074 A 
ATOM     61  C   UNL A   1      41.453  30.827  36.181  1.00  0.00     0.031 C 
ATOM     62  C   UNL A   1      39.493  31.471  34.804  1.00  0.00     0.031 A 
BRANCH  49  63
ATOM     63  C   UNL A   1      36.892  30.651  29.253  1.00  0.00    -0.014 A 
ATOM     64  C   UNL A   1      36.758  31.948  28.731  1.00  0.00     0.009 A 
ATOM     65  C   UNL A   1      35.973  29.666  28.860  1.00  0.00     0.009 A 
ATOM     66  C   UNL A   1      35.701  32.261  27.873  1.00  0.00     0.001 A 
ATOM     67  C   UNL A   1      34.937  29.972  27.976  1.00  0.00     0.001 A 
ATOM     68  C   UNL A   1      34.794  31.273  27.494  1.00  0.00     0.000 A 
ENDBRANCH  49  63
BRANCH  50  69
ATOM     69  C   UNL A   1      44.605  28.234  35.111  1.00  0.00    -0.014 A 
ATOM     70  C   UNL A   1      45.785  28.987  35.020  1.00  0.00     0.009 A 
ATOM     71  C   UNL A   1      44.548  27.172  36.028  1.00  0.00     0.009 A 
ATOM     72  C   UNL A   1      46.890  28.667  35.813  1.00  0.00     0.001 A 
ATOM     73  C   UNL A   1      45.642  26.876  36.843  1.00  0.00     0.001 A 
ATOM     74  C   UNL A   1      46.816  27.618  36.727  1.00  0.00     0.000 A 
ENDBRANCH  50  69
BRANCH  62  75
ATOM     75  C   UNL A   1      39.007  32.305  35.958  1.00  0.00    -0.014 A 
ATOM     76  C   UNL A   1      38.148  31.780  36.935  1.00  0.00     0.009 A 
ATOM     77  C   UNL A   1      39.452  33.631  36.090  1.00  0.00     0.009 A 
ATOM     78  C   UNL A   1      37.716  32.575  37.999  1.00  0.00     0.001 A 
ATOM     79  C   UNL A   1      39.046  34.413  37.173  1.00  0.00     0.001 A 
ATOM     80  C   UNL A   1      38.169  33.888  38.120  1.00  0.00     0.000 A 
ENDBRANCH  62  75
ENDBRANCH  36  37
ENDBRANCH  29  31
ENDBRANCH  28  29
ENDBRANCH  27  28
ENDBRANCH  26  27
ENDBRANCH  25  26
ENDBRANCH   1  25
TORSDOF 17
ENDMDL
