MODEL 1
REMARK VINA RESULT:     -10.8      0.000      0.000
REMARK SMILES Cc1nc2ccccc2n1CCC(=O)N1CC[C@H](O)C[C@@H]1C(=O)OCCOCCOC(=O)c1ccc(-c2c3nc(c(-c4ccccc4)c4ccc([nH]4)c(-c4ccccc4)c4nc(c(-c5ccccc5)c5ccc2[nH]5)C=C4)C=C3)cc1
REMARK SMILES IDX 26 1 25 2 24 3 22 4 23 5 21 6 15 7 16 8 17 9 20 10 18 11
REMARK SMILES IDX 13 12 14 13 12 14 11 15 10 16 1 17 2 18 3 19 4 20 9 21 5 22
REMARK SMILES IDX 8 23 6 24 7 25 19 26 27 28 28 29 29 30 30 31 31 32 32 33
REMARK SMILES IDX 33 34 34 35 80 36 35 37 79 38 36 39 37 40 38 41 73 42 39 43
REMARK SMILES IDX 78 44 72 45 74 46 40 47 77 48 71 49 70 50 41 52 63 53 48 54
REMARK SMILES IDX 62 55 49 56 52 57 61 58 75 59 50 60 51 61 60 63 76 64 53 65
REMARK SMILES IDX 42 66 43 67 47 68 44 69 46 70 45 71 64 72 65 73 69 74 66 75
REMARK SMILES IDX 68 76 67 77 54 78 55 79 59 80 56 81 58 82 57 83
REMARK H PARENT 19 27 74 51 52 62
REMARK Flexibility Score: inf
ROOT
ATOM      1  C   UNL A   1      33.481  28.875  27.221  1.00  0.00     0.202 C 
ENDROOT
BRANCH   1   2
ATOM      2  C   UNL A   1      31.973  28.605  27.330  1.00  0.00     0.261 C 
BRANCH   2   3
ATOM      3  O   UNL A   1      31.399  27.866  26.233  1.00  0.00    -0.462 OA
BRANCH   3   4
ATOM      4  C   UNL A   1      31.191  28.611  25.107  1.00  0.00     0.329 C 
ATOM      5  O   UNL A   1      31.081  29.837  25.114  1.00  0.00    -0.250 OA
BRANCH   4   6
ATOM      6  C   UNL A   1      31.149  27.803  23.775  1.00  0.00     0.197 C 
ATOM      7  N   UNL A   1      31.878  26.514  23.723  1.00  0.00    -0.329 N 
ATOM      8  C   UNL A   1      33.309  26.638  23.771  1.00  0.00     0.123 C 
ATOM      9  C   UNL A   1      33.873  27.578  22.714  1.00  0.00     0.053 C 
ATOM     10  C   UNL A   1      31.648  28.735  22.652  1.00  0.00     0.069 C 
ATOM     11  C   UNL A   1      33.165  28.926  22.708  1.00  0.00     0.118 C 
BRANCH   7  12
ATOM     12  C   UNL A   1      31.223  25.296  23.697  1.00  0.00     0.225 C 
ATOM     13  O   UNL A   1      30.246  25.078  24.416  1.00  0.00    -0.275 OA
BRANCH  12  14
ATOM     14  C   UNL A   1      31.808  24.155  22.845  1.00  0.00     0.122 C 
BRANCH  14  15
ATOM     15  C   UNL A   1      32.089  22.792  23.501  1.00  0.00     0.134 C 
BRANCH  15  16
ATOM     16  N   UNL A   1      33.110  22.803  24.544  1.00  0.00    -0.328 N 
ATOM     17  C   UNL A   1      31.539  22.646  26.522  1.00  0.00     0.088 C 
ATOM     18  C   UNL A   1      32.885  22.627  25.896  1.00  0.00     0.106 A 
ATOM     19  N   UNL A   1      33.998  22.266  26.506  1.00  0.00    -0.234 NA
ATOM     20  C   UNL A   1      34.991  22.355  25.564  1.00  0.00     0.089 A 
ATOM     21  C   UNL A   1      34.478  22.789  24.343  1.00  0.00     0.068 A 
ATOM     22  C   UNL A   1      36.356  22.048  25.678  1.00  0.00     0.030 A 
ATOM     23  C   UNL A   1      35.300  23.041  23.236  1.00  0.00     0.028 A 
ATOM     24  C   UNL A   1      37.187  22.260  24.573  1.00  0.00     0.002 A 
ATOM     25  C   UNL A   1      36.669  22.783  23.387  1.00  0.00     0.002 A 
ENDBRANCH  15  16
ENDBRANCH  14  15
ENDBRANCH  12  14
ENDBRANCH   7  12
BRANCH  11  26
ATOM     26  O   UNL A   1      33.551  29.648  23.871  1.00  0.00    -0.393 OA
ATOM     27  H   UNL A   1      33.911  29.032  24.529  1.00  0.00     0.210 HD
ENDBRANCH  11  26
ENDBRANCH   4   6
ENDBRANCH   3   4
ENDBRANCH   2   3
ENDBRANCH   1   2
BRANCH   1  28
ATOM     28  O   UNL A   1      34.011  30.126  26.805  1.00  0.00    -0.374 OA
BRANCH  28  29
ATOM     29  C   UNL A   1      33.462  31.276  27.433  1.00  0.00     0.202 C 
BRANCH  29  30
ATOM     30  C   UNL A   1      34.414  32.371  27.988  1.00  0.00     0.261 C 
BRANCH  30  31
ATOM     31  O   UNL A   1      35.807  32.122  27.746  1.00  0.00    -0.460 OA
BRANCH  31  32
ATOM     32  C   UNL A   1      36.661  32.687  28.645  1.00  0.00     0.338 C 
ATOM     33  O   UNL A   1      36.569  33.770  29.201  1.00  0.00    -0.246 OA
BRANCH  32  34
ATOM     34  C   UNL A   1      37.453  31.563  29.175  1.00  0.00     0.060 A 
ATOM     35  C   UNL A   1      38.728  31.785  29.701  1.00  0.00     0.016 A 
ATOM     36  C   UNL A   1      37.055  30.292  28.721  1.00  0.00     0.016 A 
ATOM     37  C   UNL A   1      39.650  30.748  29.639  1.00  0.00     0.010 A 
ATOM     38  C   UNL A   1      37.987  29.265  28.645  1.00  0.00     0.010 A 
ATOM     39  C   UNL A   1      39.298  29.508  29.055  1.00  0.00    -0.014 A 
BRANCH  39  40
ATOM     40  C   UNL A   1      40.269  28.420  29.172  1.00  0.00     0.031 A 
ATOM     41  C   UNL A   1      40.639  28.226  30.596  1.00  0.00     0.074 A 
ATOM     42  C   UNL A   1      40.741  27.580  28.228  1.00  0.00     0.049 A 
ATOM     43  N   UNL A   1      41.776  28.482  31.149  1.00  0.00    -0.248 NA
ATOM     44  C   UNL A   1      39.550  27.921  31.538  1.00  0.00     0.031 C 
ATOM     45  C   UNL A   1      40.302  27.394  26.847  1.00  0.00     0.029 A 
ATOM     46  N   UNL A   1      41.706  26.618  28.366  1.00  0.00    -0.354 N 
ATOM     47  C   UNL A   1      41.594  28.220  32.500  1.00  0.00     0.074 A 
ATOM     48  C   UNL A   1      40.177  28.063  32.702  1.00  0.00     0.031 C 
ATOM     49  C   UNL A   1      40.831  26.248  26.353  1.00  0.00     0.029 A 
ATOM     50  C   UNL A   1      41.747  25.688  27.334  1.00  0.00     0.049 A 
ATOM     51  H   UNL A   1      42.320  26.587  29.135  1.00  0.00     0.167 HD
ATOM     52  C   UNL A   1      42.639  27.918  33.312  1.00  0.00     0.031 A 
ATOM     53  C   UNL A   1      42.434  24.517  27.322  1.00  0.00     0.031 A 
ATOM     54  C   UNL A   1      43.896  28.313  32.733  1.00  0.00     0.049 A 
ATOM     55  C   UNL A   1      43.501  24.607  28.342  1.00  0.00     0.074 A 
ATOM     56  C   UNL A   1      44.447  29.516  32.341  1.00  0.00     0.029 A 
ATOM     57  N   UNL A   1      44.638  27.332  32.121  1.00  0.00    -0.354 N 
ATOM     58  N   UNL A   1      44.545  25.373  28.236  1.00  0.00    -0.248 NA
ATOM     59  C   UNL A   1      43.209  24.120  29.680  1.00  0.00     0.031 C 
ATOM     60  C   UNL A   1      45.195  29.215  31.167  1.00  0.00     0.029 A 
ATOM     61  C   UNL A   1      45.119  27.839  30.943  1.00  0.00     0.049 A 
ATOM     62  H   UNL A   1      44.796  26.424  32.468  1.00  0.00     0.167 HD
ATOM     63  C   UNL A   1      44.769  25.830  29.525  1.00  0.00     0.074 A 
ATOM     64  C   UNL A   1      43.992  24.941  30.384  1.00  0.00     0.031 C 
ATOM     65  C   UNL A   1      45.335  27.053  29.746  1.00  0.00     0.031 A 
BRANCH  52  66
ATOM     66  C   UNL A   1      42.531  26.905  34.422  1.00  0.00    -0.014 A 
ATOM     67  C   UNL A   1      43.034  25.591  34.327  1.00  0.00     0.009 A 
ATOM     68  C   UNL A   1      42.155  27.342  35.703  1.00  0.00     0.009 A 
ATOM     69  C   UNL A   1      43.172  24.762  35.442  1.00  0.00     0.001 A 
ATOM     70  C   UNL A   1      42.335  26.530  36.830  1.00  0.00     0.001 A 
ATOM     71  C   UNL A   1      42.847  25.243  36.699  1.00  0.00     0.000 A 
ENDBRANCH  52  66
BRANCH  53  72
ATOM     72  C   UNL A   1      42.040  23.200  26.765  1.00  0.00    -0.014 A 
ATOM     73  C   UNL A   1      40.756  22.685  27.017  1.00  0.00     0.009 A 
ATOM     74  C   UNL A   1      43.019  22.309  26.287  1.00  0.00     0.009 A 
ATOM     75  C   UNL A   1      40.478  21.322  26.859  1.00  0.00     0.001 A 
ATOM     76  C   UNL A   1      42.740  20.943  26.133  1.00  0.00     0.001 A 
ATOM     77  C   UNL A   1      41.477  20.447  26.439  1.00  0.00     0.000 A 
ENDBRANCH  53  72
BRANCH  65  78
ATOM     78  C   UNL A   1      46.007  27.764  28.593  1.00  0.00    -0.014 A 
ATOM     79  C   UNL A   1      45.186  28.472  27.701  1.00  0.00     0.009 A 
ATOM     80  C   UNL A   1      47.367  27.620  28.269  1.00  0.00     0.009 A 
ATOM     81  C   UNL A   1      45.695  28.999  26.513  1.00  0.00     0.001 A 
ATOM     82  C   UNL A   1      47.885  28.175  27.092  1.00  0.00     0.001 A 
ATOM     83  C   UNL A   1      47.046  28.852  26.209  1.00  0.00     0.000 A 
ENDBRANCH  65  78
ENDBRANCH  39  40
ENDBRANCH  32  34
ENDBRANCH  31  32
ENDBRANCH  30  31
ENDBRANCH  29  30
ENDBRANCH  28  29
ENDBRANCH   1  28
TORSDOF 19
ENDMDL
MODEL 2
REMARK VINA RESULT:     -10.6      3.294      8.275
REMARK SMILES Cc1nc2ccccc2n1CCC(=O)N1CC[C@H](O)C[C@@H]1C(=O)OCCOCCOC(=O)c1ccc(-c2c3nc(c(-c4ccccc4)c4ccc([nH]4)c(-c4ccccc4)c4nc(c(-c5ccccc5)c5ccc2[nH]5)C=C4)C=C3)cc1
REMARK SMILES IDX 26 1 25 2 24 3 22 4 23 5 21 6 15 7 16 8 17 9 20 10 18 11
REMARK SMILES IDX 13 12 14 13 12 14 11 15 10 16 1 17 2 18 3 19 4 20 9 21 5 22
REMARK SMILES IDX 8 23 6 24 7 25 19 26 27 28 28 29 29 30 30 31 31 32 32 33
REMARK SMILES IDX 33 34 34 35 80 36 35 37 79 38 36 39 37 40 38 41 73 42 39 43
REMARK SMILES IDX 78 44 72 45 74 46 40 47 77 48 71 49 70 50 41 52 63 53 48 54
REMARK SMILES IDX 62 55 49 56 52 57 61 58 75 59 50 60 51 61 60 63 76 64 53 65
REMARK SMILES IDX 42 66 43 67 47 68 44 69 46 70 45 71 64 72 65 73 69 74 66 75
REMARK SMILES IDX 68 76 67 77 54 78 55 79 59 80 56 81 58 82 57 83
REMARK H PARENT 19 27 74 51 52 62
REMARK Flexibility Score: inf
ROOT
ATOM      1  C   UNL A   1      37.442  22.291  25.616  1.00  0.00     0.202 C 
ENDROOT
BRANCH   1   2
ATOM      2  C   UNL A   1      36.238  21.421  25.225  1.00  0.00     0.261 C 
BRANCH   2   3
ATOM      3  O   UNL A   1      35.045  21.634  26.007  1.00  0.00    -0.462 OA
BRANCH   3   4
ATOM      4  C   UNL A   1      33.894  21.238  25.387  1.00  0.00     0.329 C 
ATOM      5  O   UNL A   1      33.514  20.068  25.343  1.00  0.00    -0.250 OA
BRANCH   4   6
ATOM      6  C   UNL A   1      33.045  22.388  24.766  1.00  0.00     0.197 C 
ATOM      7  N   UNL A   1      33.617  23.755  24.779  1.00  0.00    -0.329 N 
ATOM      8  C   UNL A   1      33.721  24.343  26.086  1.00  0.00     0.123 C 
ATOM      9  C   UNL A   1      32.411  24.338  26.861  1.00  0.00     0.053 C 
ATOM     10  C   UNL A   1      31.674  22.384  25.471  1.00  0.00     0.069 C 
ATOM     11  C   UNL A   1      31.764  22.960  26.885  1.00  0.00     0.118 C 
BRANCH   7  12
ATOM     12  C   UNL A   1      34.068  24.378  23.628  1.00  0.00     0.225 C 
ATOM     13  O   UNL A   1      34.942  23.869  22.925  1.00  0.00    -0.275 OA
BRANCH  12  14
ATOM     14  C   UNL A   1      33.555  25.791  23.298  1.00  0.00     0.122 C 
BRANCH  14  15
ATOM     15  C   UNL A   1      32.167  26.227  23.800  1.00  0.00     0.134 C 
BRANCH  15  16
ATOM     16  N   UNL A   1      32.036  27.648  24.106  1.00  0.00    -0.328 N 
ATOM     17  C   UNL A   1      30.274  28.179  22.369  1.00  0.00     0.088 C 
ATOM     18  C   UNL A   1      31.112  28.512  23.547  1.00  0.00     0.106 A 
ATOM     19  N   UNL A   1      30.959  29.578  24.310  1.00  0.00    -0.234 NA
ATOM     20  C   UNL A   1      31.905  29.476  25.298  1.00  0.00     0.089 A 
ATOM     21  C   UNL A   1      32.667  28.320  25.137  1.00  0.00     0.068 A 
ATOM     22  C   UNL A   1      32.148  30.326  26.388  1.00  0.00     0.030 A 
ATOM     23  C   UNL A   1      33.755  28.023  25.968  1.00  0.00     0.028 A 
ATOM     24  C   UNL A   1      33.209  30.028  27.249  1.00  0.00     0.002 A 
ATOM     25  C   UNL A   1      34.017  28.914  27.017  1.00  0.00     0.002 A 
ENDBRANCH  15  16
ENDBRANCH  14  15
ENDBRANCH  12  14
ENDBRANCH   7  12
BRANCH  11  26
ATOM     26  O   UNL A   1      32.526  22.114  27.738  1.00  0.00    -0.393 OA
ATOM     27  H   UNL A   1      32.649  22.549  28.598  1.00  0.00     0.210 HD
ENDBRANCH  11  26
ENDBRANCH   4   6
ENDBRANCH   3   4
ENDBRANCH   2   3
ENDBRANCH   1   2
BRANCH   1  28
ATOM     28  O   UNL A   1      38.786  21.898  25.379  1.00  0.00    -0.374 OA
BRANCH  28  29
ATOM     29  C   UNL A   1      39.656  21.938  26.502  1.00  0.00     0.202 C 
BRANCH  29  30
ATOM     30  C   UNL A   1      41.148  21.546  26.326  1.00  0.00     0.261 C 
BRANCH  30  31
ATOM     31  O   UNL A   1      42.079  22.542  26.775  1.00  0.00    -0.460 OA
BRANCH  31  32
ATOM     32  C   UNL A   1      42.740  23.206  25.785  1.00  0.00     0.338 C 
ATOM     33  O   UNL A   1      42.970  22.833  24.646  1.00  0.00    -0.246 OA
BRANCH  32  34
ATOM     34  C   UNL A   1      42.706  24.623  26.189  1.00  0.00     0.060 A 
ATOM     35  C   UNL A   1      43.319  25.033  27.376  1.00  0.00     0.016 A 
ATOM     36  C   UNL A   1      41.692  25.387  25.583  1.00  0.00     0.016 A 
ATOM     37  C   UNL A   1      42.809  26.151  28.023  1.00  0.00     0.010 A 
ATOM     38  C   UNL A   1      41.175  26.493  26.245  1.00  0.00     0.010 A 
ATOM     39  C   UNL A   1      41.697  26.844  27.489  1.00  0.00    -0.014 A 
BRANCH  39  40
ATOM     40  C   UNL A   1      41.322  28.099  28.141  1.00  0.00     0.031 A 
ATOM     41  C   UNL A   1      42.367  29.125  27.898  1.00  0.00     0.074 A 
ATOM     42  C   UNL A   1      40.187  28.428  28.791  1.00  0.00     0.049 A 
ATOM     43  N   UNL A   1      43.182  29.629  28.761  1.00  0.00    -0.248 NA
ATOM     44  C   UNL A   1      42.670  29.454  26.496  1.00  0.00     0.031 C 
ATOM     45  C   UNL A   1      38.928  27.692  28.891  1.00  0.00     0.029 A 
ATOM     46  N   UNL A   1      39.904  29.594  29.451  1.00  0.00    -0.354 N 
ATOM     47  C   UNL A   1      44.013  30.469  28.032  1.00  0.00     0.074 A 
ATOM     48  C   UNL A   1      43.776  30.180  26.642  1.00  0.00     0.031 C 
ATOM     49  C   UNL A   1      37.960  28.513  29.367  1.00  0.00     0.029 A 
ATOM     50  C   UNL A   1      38.556  29.789  29.727  1.00  0.00     0.049 A 
ATOM     51  H   UNL A   1      40.599  30.242  29.708  1.00  0.00     0.167 HD
ATOM     52  C   UNL A   1      44.666  31.506  28.618  1.00  0.00     0.031 A 
ATOM     53  C   UNL A   1      37.972  30.938  30.158  1.00  0.00     0.031 A 
ATOM     54  C   UNL A   1      44.728  31.357  30.048  1.00  0.00     0.049 A 
ATOM     55  C   UNL A   1      39.028  31.788  30.749  1.00  0.00     0.074 A 
ATOM     56  C   UNL A   1      45.281  30.424  30.902  1.00  0.00     0.029 A 
ATOM     57  N   UNL A   1      43.816  32.066  30.791  1.00  0.00    -0.354 N 
ATOM     58  N   UNL A   1      39.634  31.522  31.867  1.00  0.00    -0.248 NA
ATOM     59  C   UNL A   1      39.689  32.755  29.888  1.00  0.00     0.031 C 
ATOM     60  C   UNL A   1      44.358  30.318  31.982  1.00  0.00     0.029 A 
ATOM     61  C   UNL A   1      43.328  31.237  31.766  1.00  0.00     0.049 A 
ATOM     62  H   UNL A   1      43.557  33.005  30.647  1.00  0.00     0.167 HD
ATOM     63  C   UNL A   1      40.943  31.921  31.653  1.00  0.00     0.074 A 
ATOM     64  C   UNL A   1      40.892  32.772  30.467  1.00  0.00     0.031 C 
ATOM     65  C   UNL A   1      41.979  31.299  32.288  1.00  0.00     0.031 A 
BRANCH  52  66
ATOM     66  C   UNL A   1      44.869  32.827  27.923  1.00  0.00    -0.014 A 
ATOM     67  C   UNL A   1      46.007  33.132  27.149  1.00  0.00     0.009 A 
ATOM     68  C   UNL A   1      43.779  33.706  27.810  1.00  0.00     0.009 A 
ATOM     69  C   UNL A   1      46.057  34.237  26.298  1.00  0.00     0.001 A 
ATOM     70  C   UNL A   1      43.808  34.789  26.923  1.00  0.00     0.001 A 
ATOM     71  C   UNL A   1      44.945  35.051  26.165  1.00  0.00     0.000 A 
ENDBRANCH  52  66
BRANCH  53  72
ATOM     72  C   UNL A   1      36.659  31.521  29.791  1.00  0.00    -0.014 A 
ATOM     73  C   UNL A   1      36.399  31.889  28.460  1.00  0.00     0.009 A 
ATOM     74  C   UNL A   1      35.804  32.028  30.787  1.00  0.00     0.009 A 
ATOM     75  C   UNL A   1      35.366  32.778  28.142  1.00  0.00     0.001 A 
ATOM     76  C   UNL A   1      34.772  32.922  30.468  1.00  0.00     0.001 A 
ATOM     77  C   UNL A   1      34.567  33.313  29.149  1.00  0.00     0.000 A 
ENDBRANCH  53  72
BRANCH  65  78
ATOM     78  C   UNL A   1      41.676  30.394  33.461  1.00  0.00    -0.014 A 
ATOM     79  C   UNL A   1      41.834  30.928  34.750  1.00  0.00     0.009 A 
ATOM     80  C   UNL A   1      41.412  29.018  33.343  1.00  0.00     0.009 A 
ATOM     81  C   UNL A   1      41.756  30.117  35.884  1.00  0.00     0.001 A 
ATOM     82  C   UNL A   1      41.304  28.210  34.481  1.00  0.00     0.001 A 
ATOM     83  C   UNL A   1      41.489  28.757  35.749  1.00  0.00     0.000 A 
ENDBRANCH  65  78
ENDBRANCH  39  40
ENDBRANCH  32  34
ENDBRANCH  31  32
ENDBRANCH  30  31
ENDBRANCH  29  30
ENDBRANCH  28  29
ENDBRANCH   1  28
TORSDOF 19
ENDMDL
MODEL 3
REMARK VINA RESULT:     -10.2      3.553      8.453
REMARK SMILES Cc1nc2ccccc2n1CCC(=O)N1CC[C@H](O)C[C@@H]1C(=O)OCCOCCOC(=O)c1ccc(-c2c3nc(c(-c4ccccc4)c4ccc([nH]4)c(-c4ccccc4)c4nc(c(-c5ccccc5)c5ccc2[nH]5)C=C4)C=C3)cc1
REMARK SMILES IDX 26 1 25 2 24 3 22 4 23 5 21 6 15 7 16 8 17 9 20 10 18 11
REMARK SMILES IDX 13 12 14 13 12 14 11 15 10 16 1 17 2 18 3 19 4 20 9 21 5 22
REMARK SMILES IDX 8 23 6 24 7 25 19 26 27 28 28 29 29 30 30 31 31 32 32 33
REMARK SMILES IDX 33 34 34 35 80 36 35 37 79 38 36 39 37 40 38 41 73 42 39 43
REMARK SMILES IDX 78 44 72 45 74 46 40 47 77 48 71 49 70 50 41 52 63 53 48 54
REMARK SMILES IDX 62 55 49 56 52 57 61 58 75 59 50 60 51 61 60 63 76 64 53 65
REMARK SMILES IDX 42 66 43 67 47 68 44 69 46 70 45 71 64 72 65 73 69 74 66 75
REMARK SMILES IDX 68 76 67 77 54 78 55 79 59 80 56 81 58 82 57 83
REMARK H PARENT 19 27 74 51 52 62
REMARK Flexibility Score: inf
ROOT
ATOM      1  C   UNL A   1      38.323  21.779  26.086  1.00  0.00     0.202 C 
ENDROOT
BRANCH   1   2
ATOM      2  C   UNL A   1      37.411  22.591  25.154  1.00  0.00     0.261 C 
BRANCH   2   3
ATOM      3  O   UNL A   1      36.384  23.360  25.814  1.00  0.00    -0.462 OA
BRANCH   3   4
ATOM      4  C   UNL A   1      35.113  22.943  25.540  1.00  0.00     0.329 C 
ATOM      5  O   UNL A   1      34.817  21.772  25.304  1.00  0.00    -0.250 OA
BRANCH   4   6
ATOM      6  C   UNL A   1      34.024  24.057  25.594  1.00  0.00     0.197 C 
ATOM      7  N   UNL A   1      32.607  23.647  25.455  1.00  0.00    -0.329 N 
ATOM      8  C   UNL A   1      32.253  23.163  24.150  1.00  0.00     0.123 C 
ATOM      9  C   UNL A   1      32.609  24.126  23.027  1.00  0.00     0.053 C 
ATOM     10  C   UNL A   1      34.377  25.102  24.516  1.00  0.00     0.069 C 
ATOM     11  C   UNL A   1      34.056  24.594  23.109  1.00  0.00     0.118 C 
BRANCH   7  12
ATOM     12  C   UNL A   1      31.723  23.673  26.520  1.00  0.00     0.225 C 
ATOM     13  O   UNL A   1      32.039  23.229  27.626  1.00  0.00    -0.275 OA
BRANCH  12  14
ATOM     14  C   UNL A   1      30.279  24.148  26.278  1.00  0.00     0.122 C 
BRANCH  14  15
ATOM     15  C   UNL A   1      29.942  25.642  26.424  1.00  0.00     0.134 C 
BRANCH  15  16
ATOM     16  N   UNL A   1      30.646  26.531  25.507  1.00  0.00    -0.328 N 
ATOM     17  C   UNL A   1      29.050  26.297  23.557  1.00  0.00     0.088 C 
ATOM     18  C   UNL A   1      30.200  26.920  24.258  1.00  0.00     0.106 A 
ATOM     19  N   UNL A   1      30.816  28.021  23.871  1.00  0.00    -0.234 NA
ATOM     20  C   UNL A   1      31.783  28.265  24.814  1.00  0.00     0.089 A 
ATOM     21  C   UNL A   1      31.767  27.285  25.804  1.00  0.00     0.068 A 
ATOM     22  C   UNL A   1      32.693  29.331  24.900  1.00  0.00     0.030 A 
ATOM     23  C   UNL A   1      32.709  27.258  26.841  1.00  0.00     0.028 A 
ATOM     24  C   UNL A   1      33.619  29.340  25.948  1.00  0.00     0.002 A 
ATOM     25  C   UNL A   1      33.646  28.300  26.878  1.00  0.00     0.002 A 
ENDBRANCH  15  16
ENDBRANCH  14  15
ENDBRANCH  12  14
ENDBRANCH   7  12
BRANCH  11  26
ATOM     26  O   UNL A   1      34.905  23.512  22.747  1.00  0.00    -0.393 OA
ATOM     27  H   UNL A   1      34.888  23.397  21.783  1.00  0.00     0.210 HD
ENDBRANCH  11  26
ENDBRANCH   4   6
ENDBRANCH   3   4
ENDBRANCH   2   3
ENDBRANCH   1   2
BRANCH   1  28
ATOM     28  O   UNL A   1      39.704  21.572  25.823  1.00  0.00    -0.374 OA
BRANCH  28  29
ATOM     29  C   UNL A   1      40.443  20.922  26.848  1.00  0.00     0.202 C 
BRANCH  29  30
ATOM     30  C   UNL A   1      41.870  21.427  27.197  1.00  0.00     0.261 C 
BRANCH  30  31
ATOM     31  O   UNL A   1      41.908  22.744  27.768  1.00  0.00    -0.460 OA
BRANCH  31  32
ATOM     32  C   UNL A   1      42.126  23.754  26.880  1.00  0.00     0.338 C 
ATOM     33  O   UNL A   1      42.507  23.676  25.722  1.00  0.00    -0.246 OA
BRANCH  32  34
ATOM     34  C   UNL A   1      41.372  24.901  27.416  1.00  0.00     0.060 A 
ATOM     35  C   UNL A   1      40.608  25.702  26.563  1.00  0.00     0.016 A 
ATOM     36  C   UNL A   1      41.816  25.370  28.666  1.00  0.00     0.016 A 
ATOM     37  C   UNL A   1      40.409  27.030  26.919  1.00  0.00     0.010 A 
ATOM     38  C   UNL A   1      41.629  26.704  29.006  1.00  0.00     0.010 A 
ATOM     39  C   UNL A   1      40.973  27.546  28.110  1.00  0.00    -0.014 A 
BRANCH  39  40
ATOM     40  C   UNL A   1      40.586  28.904  28.492  1.00  0.00     0.031 A 
ATOM     41  C   UNL A   1      41.744  29.821  28.335  1.00  0.00     0.074 A 
ATOM     42  C   UNL A   1      39.377  29.393  28.839  1.00  0.00     0.049 A 
ATOM     43  N   UNL A   1      42.412  30.402  29.272  1.00  0.00    -0.248 NA
ATOM     44  C   UNL A   1      42.347  29.916  26.996  1.00  0.00     0.031 C 
ATOM     45  C   UNL A   1      38.065  28.754  28.773  1.00  0.00     0.029 A 
ATOM     46  N   UNL A   1      39.072  30.660  29.260  1.00  0.00    -0.354 N 
ATOM     47  C   UNL A   1      43.441  31.073  28.626  1.00  0.00     0.074 A 
ATOM     48  C   UNL A   1      43.461  30.591  27.270  1.00  0.00     0.031 C 
ATOM     49  C   UNL A   1      37.097  29.692  28.920  1.00  0.00     0.029 A 
ATOM     50  C   UNL A   1      37.718  30.971  29.219  1.00  0.00     0.049 A 
ATOM     51  H   UNL A   1      39.756  31.298  29.567  1.00  0.00     0.167 HD
ATOM     52  C   UNL A   1      44.053  32.147  29.189  1.00  0.00     0.031 A 
ATOM     53  C   UNL A   1      37.163  32.203  29.358  1.00  0.00     0.031 A 
ATOM     54  C   UNL A   1      43.817  32.213  30.607  1.00  0.00     0.049 A 
ATOM     55  C   UNL A   1      38.151  33.071  30.035  1.00  0.00     0.074 A 
ATOM     56  C   UNL A   1      44.105  31.390  31.677  1.00  0.00     0.029 A 
ATOM     57  N   UNL A   1      42.840  33.077  31.039  1.00  0.00    -0.354 N 
ATOM     58  N   UNL A   1      38.497  32.943  31.281  1.00  0.00    -0.248 NA
ATOM     59  C   UNL A   1      39.051  33.857  29.208  1.00  0.00     0.031 C 
ATOM     60  C   UNL A   1      42.981  31.501  32.544  1.00  0.00     0.029 A 
ATOM     61  C   UNL A   1      42.098  32.434  31.994  1.00  0.00     0.049 A 
ATOM     62  H   UNL A   1      42.698  33.997  30.718  1.00  0.00     0.167 HD
ATOM     63  C   UNL A   1      39.852  33.229  31.293  1.00  0.00     0.074 A 
ATOM     64  C   UNL A   1      40.112  33.892  30.018  1.00  0.00     0.031 C 
ATOM     65  C   UNL A   1      40.683  32.651  32.209  1.00  0.00     0.031 A 
BRANCH  52  66
ATOM     66  C   UNL A   1      44.504  33.334  28.378  1.00  0.00    -0.014 A 
ATOM     67  C   UNL A   1      45.850  33.576  28.035  1.00  0.00     0.009 A 
ATOM     68  C   UNL A   1      43.538  34.100  27.706  1.00  0.00     0.009 A 
ATOM     69  C   UNL A   1      46.217  34.511  27.067  1.00  0.00     0.001 A 
ATOM     70  C   UNL A   1      43.899  35.007  26.703  1.00  0.00     0.001 A 
ATOM     71  C   UNL A   1      45.238  35.209  26.381  1.00  0.00     0.000 A 
ENDBRANCH  52  66
BRANCH  53  72
ATOM     72  C   UNL A   1      36.005  32.798  28.649  1.00  0.00    -0.014 A 
ATOM     73  C   UNL A   1      35.695  34.158  28.824  1.00  0.00     0.009 A 
ATOM     74  C   UNL A   1      35.016  31.970  28.084  1.00  0.00     0.009 A 
ATOM     75  C   UNL A   1      34.426  34.659  28.507  1.00  0.00     0.001 A 
ATOM     76  C   UNL A   1      33.745  32.472  27.771  1.00  0.00     0.001 A 
ATOM     77  C   UNL A   1      33.444  33.811  28.002  1.00  0.00     0.000 A 
ENDBRANCH  53  72
BRANCH  65  78
ATOM     78  C   UNL A   1      40.075  31.953  33.405  1.00  0.00    -0.014 A 
ATOM     79  C   UNL A   1      39.412  30.737  33.178  1.00  0.00     0.009 A 
ATOM     80  C   UNL A   1      39.988  32.525  34.687  1.00  0.00     0.009 A 
ATOM     81  C   UNL A   1      38.666  30.121  34.185  1.00  0.00     0.001 A 
ATOM     82  C   UNL A   1      39.266  31.892  35.705  1.00  0.00     0.001 A 
ATOM     83  C   UNL A   1      38.594  30.698  35.449  1.00  0.00     0.000 A 
ENDBRANCH  65  78
ENDBRANCH  39  40
ENDBRANCH  32  34
ENDBRANCH  31  32
ENDBRANCH  30  31
ENDBRANCH  29  30
ENDBRANCH  28  29
ENDBRANCH   1  28
TORSDOF 19
ENDMDL
