MODEL 1
REMARK VINA RESULT:     -10.6      0.000      0.000
REMARK SMILES CCc1cc(OC(F)(F)F)cc2c1O[C@H](C(F)(F)F)C(C(=O)OCCOCCOC(=O)c1ccc(-c3c4nc(c(-c5ccccc5)c5ccc([nH]5)c(-c5ccccc5)c5nc(c(-c6ccccc6)c6ccc3[nH]6)C=C5)C=C4)cc1)=C2
REMARK SMILES IDX 26 1 25 2 24 3 23 4 21 5 22 6 20 7 3 8 4 9 13 10 5 11 12 12
REMARK SMILES IDX 14 13 11 14 80 15 15 16 2 17 1 18 6 19 7 20 8 21 9 22 10 23
REMARK SMILES IDX 16 24 17 25 18 26 19 27 27 28 28 29 29 30 30 31 31 32 32 33
REMARK SMILES IDX 33 34 79 35 34 36 78 37 35 38 36 39 37 40 72 41 38 42 77 43
REMARK SMILES IDX 71 44 73 45 39 46 76 47 70 48 69 49 40 51 62 52 47 53 61 54
REMARK SMILES IDX 48 55 51 56 60 57 74 58 49 59 50 60 59 62 75 63 52 64 41 65
REMARK SMILES IDX 42 66 46 67 43 68 45 69 44 70 63 71 64 72 68 73 65 74 67 75
REMARK SMILES IDX 66 76 53 77 54 78 58 79 55 80 57 81 56 82
REMARK H PARENT 73 50 51 61
REMARK Flexibility Score: inf
ROOT
ATOM      1  O   UNL A   1      34.956  21.516  26.267  1.00  0.00    -0.374 OA
ENDROOT
BRANCH   1   2
ATOM      2  C   UNL A   1      33.535  21.406  26.194  1.00  0.00     0.202 C 
BRANCH   2   3
ATOM      3  C   UNL A   1      32.874  21.983  24.939  1.00  0.00     0.261 C 
BRANCH   3   4
ATOM      4  O   UNL A   1      31.475  22.253  25.151  1.00  0.00    -0.460 OA
BRANCH   4   5
ATOM      5  C   UNL A   1      31.211  23.144  26.135  1.00  0.00     0.338 C 
ATOM      6  O   UNL A   1      31.017  22.881  27.312  1.00  0.00    -0.246 OA
BRANCH   5   7
ATOM      7  C   UNL A   1      31.300  24.540  25.659  1.00  0.00     0.087 C 
ATOM      8  C   UNL A   1      31.261  28.693  25.364  1.00  0.00    -0.002 A 
ATOM      9  C   UNL A   1      30.697  29.306  24.238  1.00  0.00     0.054 A 
ATOM     10  C   UNL A   1      31.251  27.297  25.443  1.00  0.00     0.131 A 
ATOM     11  C   UNL A   1      30.125  28.537  23.220  1.00  0.00     0.130 A 
ATOM     12  C   UNL A   1      30.664  26.505  24.446  1.00  0.00     0.021 A 
ATOM     13  O   UNL A   1      31.791  26.749  26.576  1.00  0.00    -0.475 OA
ATOM     14  C   UNL A   1      30.113  27.136  23.328  1.00  0.00     0.058 A 
ATOM     15  C   UNL A   1      30.557  25.056  24.666  1.00  0.00     0.027 C 
ATOM     16  C   UNL A   1      32.276  25.401  26.427  1.00  0.00     0.316 C 
BRANCH   8  17
ATOM     17  C   UNL A   1      31.838  29.526  26.485  1.00  0.00     0.036 C 
ATOM     18  C   UNL A   1      33.125  30.230  26.068  1.00  0.00     0.009 C 
ENDBRANCH   8  17
BRANCH  11  19
ATOM     19  O   UNL A   1      29.538  29.028  22.085  1.00  0.00    -0.406 OA
BRANCH  19  20
ATOM     20  C   UNL A   1      28.231  29.571  22.206  1.00  0.00     0.573 C 
ATOM     21  F   UNL A   1      27.348  28.634  22.615  1.00  0.00    -0.132 F 
ATOM     22  F   UNL A   1      28.215  30.612  23.064  1.00  0.00    -0.132 F 
ATOM     23  F   UNL A   1      27.833  30.019  20.994  1.00  0.00    -0.132 F 
ENDBRANCH  19  20
ENDBRANCH  11  19
BRANCH  16  24
ATOM     24  C   UNL A   1      33.691  25.384  25.819  1.00  0.00     0.430 C 
ATOM     25  F   UNL A   1      34.481  24.479  26.443  1.00  0.00    -0.167 F 
ATOM     26  F   UNL A   1      33.693  25.060  24.503  1.00  0.00    -0.167 F 
ATOM     27  F   UNL A   1      34.306  26.584  25.936  1.00  0.00    -0.167 F 
ENDBRANCH  16  24
ENDBRANCH   5   7
ENDBRANCH   4   5
ENDBRANCH   3   4
ENDBRANCH   2   3
ENDBRANCH   1   2
BRANCH   1  28
ATOM     28  C   UNL A   1      35.672  21.528  25.034  1.00  0.00     0.202 C 
BRANCH  28  29
ATOM     29  C   UNL A   1      36.566  22.742  24.765  1.00  0.00     0.261 C 
BRANCH  29  30
ATOM     30  O   UNL A   1      37.150  23.253  25.973  1.00  0.00    -0.460 OA
BRANCH  30  31
ATOM     31  C   UNL A   1      38.469  22.989  26.111  1.00  0.00     0.338 C 
ATOM     32  O   UNL A   1      39.086  22.029  25.670  1.00  0.00    -0.246 OA
BRANCH  31  33
ATOM     33  C   UNL A   1      39.147  24.136  26.741  1.00  0.00     0.060 A 
ATOM     34  C   UNL A   1      38.926  24.338  28.109  1.00  0.00     0.016 A 
ATOM     35  C   UNL A   1      39.931  25.029  26.007  1.00  0.00     0.016 A 
ATOM     36  C   UNL A   1      39.444  25.465  28.739  1.00  0.00     0.010 A 
ATOM     37  C   UNL A   1      40.444  26.166  26.640  1.00  0.00     0.010 A 
ATOM     38  C   UNL A   1      40.171  26.406  27.998  1.00  0.00    -0.014 A 
BRANCH  38  39
ATOM     39  C   UNL A   1      40.523  27.703  28.620  1.00  0.00     0.031 A 
ATOM     40  C   UNL A   1      41.925  27.916  29.122  1.00  0.00     0.074 A 
ATOM     41  C   UNL A   1      39.617  28.694  28.701  1.00  0.00     0.049 A 
ATOM     42  N   UNL A   1      42.447  28.969  29.697  1.00  0.00    -0.248 NA
ATOM     43  C   UNL A   1      42.863  26.794  28.953  1.00  0.00     0.031 C 
ATOM     44  C   UNL A   1      38.241  28.626  28.212  1.00  0.00     0.029 A 
ATOM     45  N   UNL A   1      39.727  29.957  29.226  1.00  0.00    -0.354 N 
ATOM     46  C   UNL A   1      43.770  28.635  29.963  1.00  0.00     0.074 A 
ATOM     47  C   UNL A   1      43.964  27.275  29.511  1.00  0.00     0.031 C 
ATOM     48  C   UNL A   1      37.632  29.796  28.464  1.00  0.00     0.029 A 
ATOM     49  C   UNL A   1      38.564  30.683  29.156  1.00  0.00     0.049 A 
ATOM     50  H   UNL A   1      40.560  30.307  29.616  1.00  0.00     0.167 HD
ATOM     51  C   UNL A   1      44.738  29.397  30.525  1.00  0.00     0.031 A 
ATOM     52  C   UNL A   1      38.281  31.917  29.615  1.00  0.00     0.031 A 
ATOM     53  C   UNL A   1      44.546  30.747  30.981  1.00  0.00     0.049 A 
ATOM     54  C   UNL A   1      39.356  32.714  30.303  1.00  0.00     0.074 A 
ATOM     55  C   UNL A   1      45.472  31.605  31.548  1.00  0.00     0.029 A 
ATOM     56  N   UNL A   1      43.343  31.431  30.931  1.00  0.00    -0.354 N 
ATOM     57  N   UNL A   1      40.611  32.399  30.519  1.00  0.00    -0.248 NA
ATOM     58  C   UNL A   1      38.976  34.042  30.807  1.00  0.00     0.031 C 
ATOM     59  C   UNL A   1      44.815  32.792  31.888  1.00  0.00     0.029 A 
ATOM     60  C   UNL A   1      43.494  32.691  31.482  1.00  0.00     0.049 A 
ATOM     61  H   UNL A   1      42.504  31.074  30.558  1.00  0.00     0.167 HD
ATOM     62  C   UNL A   1      41.174  33.498  31.154  1.00  0.00     0.074 A 
ATOM     63  C   UNL A   1      40.130  34.494  31.277  1.00  0.00     0.031 C 
ATOM     64  C   UNL A   1      42.445  33.670  31.595  1.00  0.00     0.031 A 
BRANCH  51  65
ATOM     65  C   UNL A   1      46.092  28.772  30.707  1.00  0.00    -0.014 A 
ATOM     66  C   UNL A   1      47.158  29.077  29.847  1.00  0.00     0.009 A 
ATOM     67  C   UNL A   1      46.316  27.900  31.784  1.00  0.00     0.009 A 
ATOM     68  C   UNL A   1      48.415  28.502  30.047  1.00  0.00     0.001 A 
ATOM     69  C   UNL A   1      47.579  27.345  31.996  1.00  0.00     0.001 A 
ATOM     70  C   UNL A   1      48.625  27.640  31.123  1.00  0.00     0.000 A 
ENDBRANCH  51  65
BRANCH  52  71
ATOM     71  C   UNL A   1      36.913  32.477  29.459  1.00  0.00    -0.014 A 
ATOM     72  C   UNL A   1      36.567  33.216  28.318  1.00  0.00     0.009 A 
ATOM     73  C   UNL A   1      35.956  32.300  30.470  1.00  0.00     0.009 A 
ATOM     74  C   UNL A   1      35.298  33.790  28.206  1.00  0.00     0.001 A 
ATOM     75  C   UNL A   1      34.680  32.852  30.344  1.00  0.00     0.001 A 
ATOM     76  C   UNL A   1      34.356  33.606  29.217  1.00  0.00     0.000 A 
ENDBRANCH  52  71
BRANCH  64  77
ATOM     77  C   UNL A   1      42.784  34.995  32.217  1.00  0.00    -0.014 A 
ATOM     78  C   UNL A   1      42.493  35.266  33.562  1.00  0.00     0.009 A 
ATOM     79  C   UNL A   1      43.442  35.973  31.453  1.00  0.00     0.009 A 
ATOM     80  C   UNL A   1      42.823  36.502  34.121  1.00  0.00     0.001 A 
ATOM     81  C   UNL A   1      43.798  37.195  32.021  1.00  0.00     0.001 A 
ATOM     82  C   UNL A   1      43.480  37.463  33.352  1.00  0.00     0.000 A 
ENDBRANCH  64  77
ENDBRANCH  38  39
ENDBRANCH  31  33
ENDBRANCH  30  31
ENDBRANCH  29  30
ENDBRANCH  28  29
ENDBRANCH   1  28
TORSDOF 18
ENDMDL
MODEL 2
REMARK VINA RESULT:     -10.4      2.418      3.207
REMARK SMILES CCc1cc(OC(F)(F)F)cc2c1O[C@H](C(F)(F)F)C(C(=O)OCCOCCOC(=O)c1ccc(-c3c4nc(c(-c5ccccc5)c5ccc([nH]5)c(-c5ccccc5)c5nc(c(-c6ccccc6)c6ccc3[nH]6)C=C5)C=C4)cc1)=C2
REMARK SMILES IDX 26 1 25 2 24 3 23 4 21 5 22 6 20 7 3 8 4 9 13 10 5 11 12 12
REMARK SMILES IDX 14 13 11 14 80 15 15 16 2 17 1 18 6 19 7 20 8 21 9 22 10 23
REMARK SMILES IDX 16 24 17 25 18 26 19 27 27 28 28 29 29 30 30 31 31 32 32 33
REMARK SMILES IDX 33 34 79 35 34 36 78 37 35 38 36 39 37 40 72 41 38 42 77 43
REMARK SMILES IDX 71 44 73 45 39 46 76 47 70 48 69 49 40 51 62 52 47 53 61 54
REMARK SMILES IDX 48 55 51 56 60 57 74 58 49 59 50 60 59 62 75 63 52 64 41 65
REMARK SMILES IDX 42 66 46 67 43 68 45 69 44 70 63 71 64 72 68 73 65 74 67 75
REMARK SMILES IDX 66 76 53 77 54 78 58 79 55 80 57 81 56 82
REMARK H PARENT 73 50 51 61
REMARK Flexibility Score: inf
ROOT
ATOM      1  O   UNL A   1      34.487  20.247  25.324  1.00  0.00    -0.374 OA
ENDROOT
BRANCH   1   2
ATOM      2  C   UNL A   1      33.702  21.434  25.218  1.00  0.00     0.202 C 
BRANCH   2   3
ATOM      3  C   UNL A   1      32.188  21.259  25.368  1.00  0.00     0.261 C 
BRANCH   3   4
ATOM      4  O   UNL A   1      31.483  22.492  25.124  1.00  0.00    -0.460 OA
BRANCH   4   5
ATOM      5  C   UNL A   1      31.668  23.015  23.889  1.00  0.00     0.338 C 
ATOM      6  O   UNL A   1      31.726  22.388  22.842  1.00  0.00    -0.246 OA
BRANCH   5   7
ATOM      7  C   UNL A   1      31.675  24.492  23.907  1.00  0.00     0.087 C 
ATOM      8  C   UNL A   1      31.330  28.497  24.991  1.00  0.00    -0.002 A 
ATOM      9  C   UNL A   1      30.788  29.420  24.086  1.00  0.00     0.054 A 
ATOM     10  C   UNL A   1      31.425  27.156  24.605  1.00  0.00     0.131 A 
ATOM     11  C   UNL A   1      30.337  29.004  22.829  1.00  0.00     0.130 A 
ATOM     12  C   UNL A   1      30.960  26.712  23.359  1.00  0.00     0.021 A 
ATOM     13  O   UNL A   1      31.939  26.292  25.535  1.00  0.00    -0.475 OA
ATOM     14  C   UNL A   1      30.429  27.649  22.470  1.00  0.00     0.058 A 
ATOM     15  C   UNL A   1      30.954  25.269  23.082  1.00  0.00     0.027 C 
ATOM     16  C   UNL A   1      32.535  25.099  24.991  1.00  0.00     0.316 C 
BRANCH   8  17
ATOM     17  C   UNL A   1      31.775  28.940  26.366  1.00  0.00     0.036 C 
ATOM     18  C   UNL A   1      31.936  30.453  26.454  1.00  0.00     0.009 C 
ENDBRANCH   8  17
BRANCH  11  19
ATOM     19  O   UNL A   1      29.781  29.812  21.875  1.00  0.00    -0.406 OA
BRANCH  19  20
ATOM     20  C   UNL A   1      28.419  30.179  22.040  1.00  0.00     0.573 C 
ATOM     21  F   UNL A   1      27.740  30.073  20.877  1.00  0.00    -0.132 F 
ATOM     22  F   UNL A   1      27.822  29.422  22.983  1.00  0.00    -0.132 F 
ATOM     23  F   UNL A   1      28.362  31.469  22.440  1.00  0.00    -0.132 F 
ENDBRANCH  19  20
ENDBRANCH  11  19
BRANCH  16  24
ATOM     24  C   UNL A   1      33.979  25.362  24.528  1.00  0.00     0.430 C 
ATOM     25  F   UNL A   1      34.796  24.336  24.864  1.00  0.00    -0.167 F 
ATOM     26  F   UNL A   1      34.081  25.516  23.186  1.00  0.00    -0.167 F 
ATOM     27  F   UNL A   1      34.499  26.475  25.097  1.00  0.00    -0.167 F 
ENDBRANCH  16  24
ENDBRANCH   5   7
ENDBRANCH   4   5
ENDBRANCH   3   4
ENDBRANCH   2   3
ENDBRANCH   1   2
BRANCH   1  28
ATOM     28  C   UNL A   1      35.867  20.346  24.978  1.00  0.00     0.202 C 
BRANCH  28  29
ATOM     29  C   UNL A   1      36.701  21.374  25.748  1.00  0.00     0.261 C 
BRANCH  29  30
ATOM     30  O   UNL A   1      37.994  21.567  25.151  1.00  0.00    -0.460 OA
BRANCH  30  31
ATOM     31  C   UNL A   1      39.033  21.320  25.979  1.00  0.00     0.338 C 
ATOM     32  O   UNL A   1      39.632  20.263  26.127  1.00  0.00    -0.246 OA
BRANCH  31  33
ATOM     33  C   UNL A   1      39.498  22.578  26.590  1.00  0.00     0.060 A 
ATOM     34  C   UNL A   1      38.925  23.766  26.124  1.00  0.00     0.016 A 
ATOM     35  C   UNL A   1      40.509  22.605  27.554  1.00  0.00     0.016 A 
ATOM     36  C   UNL A   1      39.399  24.994  26.578  1.00  0.00     0.010 A 
ATOM     37  C   UNL A   1      40.991  23.839  28.003  1.00  0.00     0.010 A 
ATOM     38  C   UNL A   1      40.462  25.037  27.489  1.00  0.00    -0.014 A 
BRANCH  38  39
ATOM     39  C   UNL A   1      41.105  26.336  27.792  1.00  0.00     0.031 A 
ATOM     40  C   UNL A   1      42.469  26.626  27.226  1.00  0.00     0.074 A 
ATOM     41  C   UNL A   1      40.467  27.262  28.529  1.00  0.00     0.049 A 
ATOM     42  N   UNL A   1      43.211  27.694  27.363  1.00  0.00    -0.248 NA
ATOM     43  C   UNL A   1      43.074  25.573  26.395  1.00  0.00     0.031 C 
ATOM     44  C   UNL A   1      39.127  27.118  29.096  1.00  0.00     0.029 A 
ATOM     45  N   UNL A   1      40.867  28.514  28.923  1.00  0.00    -0.354 N 
ATOM     46  C   UNL A   1      44.372  27.440  26.642  1.00  0.00     0.074 A 
ATOM     47  C   UNL A   1      44.247  26.108  26.091  1.00  0.00     0.031 C 
ATOM     48  C   UNL A   1      38.817  28.238  29.770  1.00  0.00     0.029 A 
ATOM     49  C   UNL A   1      39.946  29.164  29.705  1.00  0.00     0.049 A 
ATOM     50  H   UNL A   1      41.733  28.907  28.668  1.00  0.00     0.167 HD
ATOM     51  C   UNL A   1      45.442  28.247  26.450  1.00  0.00     0.031 A 
ATOM     52  C   UNL A   1      40.014  30.364  30.313  1.00  0.00     0.031 A 
ATOM     53  C   UNL A   1      45.572  29.568  27.003  1.00  0.00     0.049 A 
ATOM     54  C   UNL A   1      41.247  31.210  30.143  1.00  0.00     0.074 A 
ATOM     55  C   UNL A   1      46.611  30.469  26.848  1.00  0.00     0.029 A 
ATOM     56  N   UNL A   1      44.635  30.173  27.824  1.00  0.00    -0.354 N 
ATOM     57  N   UNL A   1      42.323  30.971  29.432  1.00  0.00    -0.248 NA
ATOM     58  C   UNL A   1      41.271  32.495  30.857  1.00  0.00     0.031 C 
ATOM     59  C   UNL A   1      46.326  31.600  27.620  1.00  0.00     0.029 A 
ATOM     60  C   UNL A   1      45.084  31.424  28.208  1.00  0.00     0.049 A 
ATOM     61  H   UNL A   1      43.777  29.772  28.094  1.00  0.00     0.167 HD
ATOM     62  C   UNL A   1      43.135  32.086  29.589  1.00  0.00     0.074 A 
ATOM     63  C   UNL A   1      42.424  33.008  30.451  1.00  0.00     0.031 C 
ATOM     64  C   UNL A   1      44.362  32.329  29.064  1.00  0.00     0.031 A 
BRANCH  51  65
ATOM     65  C   UNL A   1      46.577  27.707  25.627  1.00  0.00    -0.014 A 
ATOM     66  C   UNL A   1      47.575  26.903  26.200  1.00  0.00     0.009 A 
ATOM     67  C   UNL A   1      46.623  27.970  24.249  1.00  0.00     0.009 A 
ATOM     68  C   UNL A   1      48.610  26.393  25.413  1.00  0.00     0.001 A 
ATOM     69  C   UNL A   1      47.645  27.439  23.461  1.00  0.00     0.001 A 
ATOM     70  C   UNL A   1      48.641  26.658  24.044  1.00  0.00     0.000 A 
ENDBRANCH  51  65
BRANCH  52  71
ATOM     71  C   UNL A   1      38.888  30.837  31.161  1.00  0.00    -0.014 A 
ATOM     72  C   UNL A   1      38.835  30.517  32.526  1.00  0.00     0.009 A 
ATOM     73  C   UNL A   1      37.843  31.585  30.598  1.00  0.00     0.009 A 
ATOM     74  C   UNL A   1      37.745  30.913  33.304  1.00  0.00     0.001 A 
ATOM     75  C   UNL A   1      36.767  32.004  31.384  1.00  0.00     0.001 A 
ATOM     76  C   UNL A   1      36.714  31.658  32.732  1.00  0.00     0.000 A 
ENDBRANCH  52  71
BRANCH  64  77
ATOM     77  C   UNL A   1      44.995  33.655  29.378  1.00  0.00    -0.014 A 
ATOM     78  C   UNL A   1      45.989  33.775  30.361  1.00  0.00     0.009 A 
ATOM     79  C   UNL A   1      44.617  34.794  28.649  1.00  0.00     0.009 A 
ATOM     80  C   UNL A   1      46.568  35.017  30.630  1.00  0.00     0.001 A 
ATOM     81  C   UNL A   1      45.218  36.028  28.900  1.00  0.00     0.001 A 
ATOM     82  C   UNL A   1      46.185  36.140  29.897  1.00  0.00     0.000 A 
ENDBRANCH  64  77
ENDBRANCH  38  39
ENDBRANCH  31  33
ENDBRANCH  30  31
ENDBRANCH  29  30
ENDBRANCH  28  29
ENDBRANCH   1  28
TORSDOF 18
ENDMDL
MODEL 3
REMARK VINA RESULT:     -10.3      2.607      8.009
REMARK SMILES CCc1cc(OC(F)(F)F)cc2c1O[C@H](C(F)(F)F)C(C(=O)OCCOCCOC(=O)c1ccc(-c3c4nc(c(-c5ccccc5)c5ccc([nH]5)c(-c5ccccc5)c5nc(c(-c6ccccc6)c6ccc3[nH]6)C=C5)C=C4)cc1)=C2
REMARK SMILES IDX 26 1 25 2 24 3 23 4 21 5 22 6 20 7 3 8 4 9 13 10 5 11 12 12
REMARK SMILES IDX 14 13 11 14 80 15 15 16 2 17 1 18 6 19 7 20 8 21 9 22 10 23
REMARK SMILES IDX 16 24 17 25 18 26 19 27 27 28 28 29 29 30 30 31 31 32 32 33
REMARK SMILES IDX 33 34 79 35 34 36 78 37 35 38 36 39 37 40 72 41 38 42 77 43
REMARK SMILES IDX 71 44 73 45 39 46 76 47 70 48 69 49 40 51 62 52 47 53 61 54
REMARK SMILES IDX 48 55 51 56 60 57 74 58 49 59 50 60 59 62 75 63 52 64 41 65
REMARK SMILES IDX 42 66 46 67 43 68 45 69 44 70 63 71 64 72 68 73 65 74 67 75
REMARK SMILES IDX 66 76 53 77 54 78 58 79 55 80 57 81 56 82
REMARK H PARENT 73 50 51 61
REMARK Flexibility Score: inf
ROOT
ATOM      1  O   UNL A   1      32.914  30.633  26.389  1.00  0.00    -0.374 OA
ENDROOT
BRANCH   1   2
ATOM      2  C   UNL A   1      33.005  29.247  26.715  1.00  0.00     0.202 C 
BRANCH   2   3
ATOM      3  C   UNL A   1      33.032  28.274  25.533  1.00  0.00     0.261 C 
BRANCH   3   4
ATOM      4  O   UNL A   1      31.733  27.704  25.282  1.00  0.00    -0.460 OA
BRANCH   4   5
ATOM      5  C   UNL A   1      31.458  26.586  25.992  1.00  0.00     0.338 C 
ATOM      6  O   UNL A   1      30.624  26.482  26.879  1.00  0.00    -0.246 OA
BRANCH   5   7
ATOM      7  C   UNL A   1      32.208  25.414  25.496  1.00  0.00     0.087 C 
ATOM      8  C   UNL A   1      33.349  21.609  24.249  1.00  0.00    -0.002 A 
ATOM      9  C   UNL A   1      34.585  21.085  24.652  1.00  0.00     0.054 A 
ATOM     10  C   UNL A   1      32.986  22.885  24.691  1.00  0.00     0.131 A 
ATOM     11  C   UNL A   1      35.431  21.818  25.490  1.00  0.00     0.130 A 
ATOM     12  C   UNL A   1      33.807  23.631  25.549  1.00  0.00     0.021 A 
ATOM     13  O   UNL A   1      31.759  23.340  24.290  1.00  0.00    -0.475 OA
ATOM     14  C   UNL A   1      35.038  23.093  25.934  1.00  0.00     0.058 A 
ATOM     15  C   UNL A   1      33.296  24.897  26.092  1.00  0.00     0.027 C 
ATOM     16  C   UNL A   1      31.622  24.773  24.260  1.00  0.00     0.316 C 
BRANCH   8  17
ATOM     17  C   UNL A   1      32.416  20.797  23.381  1.00  0.00     0.036 C 
ATOM     18  C   UNL A   1      32.528  19.303  23.663  1.00  0.00     0.009 C 
ENDBRANCH   8  17
BRANCH  11  19
ATOM     19  O   UNL A   1      36.649  21.402  25.954  1.00  0.00    -0.406 OA
BRANCH  19  20
ATOM     20  C   UNL A   1      37.692  21.240  25.004  1.00  0.00     0.573 C 
ATOM     21  F   UNL A   1      37.470  21.990  23.902  1.00  0.00    -0.132 F 
ATOM     22  F   UNL A   1      38.889  21.562  25.536  1.00  0.00    -0.132 F 
ATOM     23  F   UNL A   1      37.736  19.944  24.624  1.00  0.00    -0.132 F 
ENDBRANCH  19  20
ENDBRANCH  11  19
BRANCH  16  24
ATOM     24  C   UNL A   1      32.195  25.358  22.957  1.00  0.00     0.430 C 
ATOM     25  F   UNL A   1      31.404  26.344  22.472  1.00  0.00    -0.167 F 
ATOM     26  F   UNL A   1      33.429  25.895  23.120  1.00  0.00    -0.167 F 
ATOM     27  F   UNL A   1      32.293  24.424  21.982  1.00  0.00    -0.167 F 
ENDBRANCH  16  24
ENDBRANCH   5   7
ENDBRANCH   4   5
ENDBRANCH   3   4
ENDBRANCH   2   3
ENDBRANCH   1   2
BRANCH   1  28
ATOM     28  C   UNL A   1      31.696  31.300  26.714  1.00  0.00     0.202 C 
BRANCH  28  29
ATOM     29  C   UNL A   1      31.793  32.788  27.064  1.00  0.00     0.261 C 
BRANCH  29  30
ATOM     30  O   UNL A   1      33.151  33.192  27.301  1.00  0.00    -0.460 OA
BRANCH  30  31
ATOM     31  C   UNL A   1      33.302  34.076  28.313  1.00  0.00     0.338 C 
ATOM     32  O   UNL A   1      32.526  34.960  28.651  1.00  0.00    -0.246 OA
BRANCH  31  33
ATOM     33  C   UNL A   1      34.490  33.726  29.112  1.00  0.00     0.060 A 
ATOM     34  C   UNL A   1      35.734  34.138  28.623  1.00  0.00     0.016 A 
ATOM     35  C   UNL A   1      34.400  32.963  30.279  1.00  0.00     0.016 A 
ATOM     36  C   UNL A   1      36.902  33.743  29.268  1.00  0.00     0.010 A 
ATOM     37  C   UNL A   1      35.574  32.559  30.922  1.00  0.00     0.010 A 
ATOM     38  C   UNL A   1      36.830  32.917  30.398  1.00  0.00    -0.014 A 
BRANCH  38  39
ATOM     39  C   UNL A   1      38.072  32.321  30.941  1.00  0.00     0.031 A 
ATOM     40  C   UNL A   1      38.621  31.073  30.307  1.00  0.00     0.074 A 
ATOM     41  C   UNL A   1      38.725  32.906  31.961  1.00  0.00     0.049 A 
ATOM     42  N   UNL A   1      39.690  30.387  30.620  1.00  0.00    -0.248 NA
ATOM     43  C   UNL A   1      37.866  30.526  29.167  1.00  0.00     0.031 C 
ATOM     44  C   UNL A   1      38.318  34.140  32.632  1.00  0.00     0.029 A 
ATOM     45  N   UNL A   1      39.876  32.533  32.609  1.00  0.00    -0.354 N 
ATOM     46  C   UNL A   1      39.733  29.327  29.723  1.00  0.00     0.074 A 
ATOM     47  C   UNL A   1      38.570  29.444  28.869  1.00  0.00     0.031 C 
ATOM     48  C   UNL A   1      39.205  34.421  33.601  1.00  0.00     0.029 A 
ATOM     49  C   UNL A   1      40.223  33.373  33.637  1.00  0.00     0.049 A 
ATOM     50  H   UNL A   1      40.400  31.739  32.360  1.00  0.00     0.167 HD
ATOM     51  C   UNL A   1      40.662  28.348  29.613  1.00  0.00     0.031 A 
ATOM     52  C   UNL A   1      41.239  33.296  34.517  1.00  0.00     0.031 A 
ATOM     53  C   UNL A   1      41.815  28.224  30.464  1.00  0.00     0.049 A 
ATOM     54  C   UNL A   1      42.216  32.155  34.420  1.00  0.00     0.074 A 
ATOM     55  C   UNL A   1      42.821  27.276  30.419  1.00  0.00     0.029 A 
ATOM     56  N   UNL A   1      42.107  29.071  31.520  1.00  0.00    -0.354 N 
ATOM     57  N   UNL A   1      42.263  31.178  33.546  1.00  0.00    -0.248 NA
ATOM     58  C   UNL A   1      43.284  32.111  35.429  1.00  0.00     0.031 C 
ATOM     59  C   UNL A   1      43.698  27.520  31.481  1.00  0.00     0.029 A 
ATOM     60  C   UNL A   1      43.265  28.653  32.152  1.00  0.00     0.049 A 
ATOM     61  H   UNL A   1      41.572  29.856  31.781  1.00  0.00     0.167 HD
ATOM     62  C   UNL A   1      43.379  30.423  33.882  1.00  0.00     0.074 A 
ATOM     63  C   UNL A   1      43.990  31.062  35.029  1.00  0.00     0.031 C 
ATOM     64  C   UNL A   1      43.860  29.301  33.291  1.00  0.00     0.031 A 
BRANCH  51  65
ATOM     65  C   UNL A   1      40.451  27.309  28.548  1.00  0.00    -0.014 A 
ATOM     66  C   UNL A   1      39.680  26.162  28.792  1.00  0.00     0.009 A 
ATOM     67  C   UNL A   1      40.994  27.505  27.269  1.00  0.00     0.009 A 
ATOM     68  C   UNL A   1      39.479  25.218  27.782  1.00  0.00     0.001 A 
ATOM     69  C   UNL A   1      40.770  26.573  26.255  1.00  0.00     0.001 A 
ATOM     70  C   UNL A   1      40.020  25.427  26.513  1.00  0.00     0.000 A 
ENDBRANCH  51  65
BRANCH  52  71
ATOM     71  C   UNL A   1      41.380  34.317  35.588  1.00  0.00    -0.014 A 
ATOM     72  C   UNL A   1      42.218  35.429  35.412  1.00  0.00     0.009 A 
ATOM     73  C   UNL A   1      40.699  34.167  36.806  1.00  0.00     0.009 A 
ATOM     74  C   UNL A   1      42.394  36.353  36.445  1.00  0.00     0.001 A 
ATOM     75  C   UNL A   1      40.855  35.106  37.827  1.00  0.00     0.001 A 
ATOM     76  C   UNL A   1      41.710  36.192  37.650  1.00  0.00     0.000 A 
ENDBRANCH  52  71
BRANCH  64  77
ATOM     77  C   UNL A   1      45.124  28.715  33.853  1.00  0.00    -0.014 A 
ATOM     78  C   UNL A   1      45.091  27.728  34.849  1.00  0.00     0.009 A 
ATOM     79  C   UNL A   1      46.366  29.131  33.347  1.00  0.00     0.009 A 
ATOM     80  C   UNL A   1      46.280  27.192  35.351  1.00  0.00     0.001 A 
ATOM     81  C   UNL A   1      47.550  28.573  33.829  1.00  0.00     0.001 A 
ATOM     82  C   UNL A   1      47.507  27.612  34.837  1.00  0.00     0.000 A 
ENDBRANCH  64  77
ENDBRANCH  38  39
ENDBRANCH  31  33
ENDBRANCH  30  31
ENDBRANCH  29  30
ENDBRANCH  28  29
ENDBRANCH   1  28
TORSDOF 18
ENDMDL
