MODEL 1
REMARK VINA RESULT:     -11.1      0.000      0.000
REMARK SMILES O=C1C[C@@H](C(=O)OCCOCCOC(=O)c2ccc(-c3c4nc(c(-c5ccccc5)c5ccc([nH]5)c(-c5ccccc5)c5nc(c(-c6ccccc6)c6ccc3[nH]6)C=C5)C=C4)cc2)C2(CC[NH+](Cc3c[nH]nc3-c3ccc(Cl)cc3)CC2)N1
REMARK SMILES IDX 9 1 8 2 7 3 5 4 6 5 4 6 1 7 2 8 3 9 83 10 64 11 65 13 82 14
REMARK SMILES IDX 66 15 81 16 67 17 68 19 69 20 70 21 73 22 71 23 72 24 74 26
REMARK SMILES IDX 75 27 80 28 76 29 79 30 77 31 78 32 10 33 11 34 12 35 13 36
REMARK SMILES IDX 14 37 15 38 16 39 17 40 63 41 18 42 62 43 19 44 20 45 21 46
REMARK SMILES IDX 56 47 22 48 61 49 55 50 57 51 23 52 60 53 54 54 53 55 24 57
REMARK SMILES IDX 46 58 31 59 45 60 32 61 35 62 44 63 58 64 33 65 34 66 43 68
REMARK SMILES IDX 59 69 36 70 25 71 26 72 30 73 27 74 29 75 28 76 47 77 48 78
REMARK SMILES IDX 52 79 49 80 51 81 50 82 37 83 38 84 42 85 39 86 41 87 40 88
REMARK H PARENT 83 12 67 18 71 25 57 56 35 67
REMARK Flexibility Score: inf
ROOT
ATOM      1  C   UNL A   1      37.716  23.714  26.004  1.00  0.00     0.202 C 
ENDROOT
BRANCH   1   2
ATOM      2  C   UNL A   1      36.189  23.620  26.113  1.00  0.00     0.261 C 
BRANCH   2   3
ATOM      3  O   UNL A   1      35.677  22.295  26.358  1.00  0.00    -0.463 OA
BRANCH   3   4
ATOM      4  C   UNL A   1      34.982  21.739  25.334  1.00  0.00     0.311 C 
ATOM      5  O   UNL A   1      35.471  21.434  24.252  1.00  0.00    -0.252 OA
BRANCH   4   6
ATOM      6  C   UNL A   1      33.487  21.632  25.569  1.00  0.00     0.134 C 
ATOM      7  O   UNL A   1      32.154  19.367  23.153  1.00  0.00    -0.275 OA
ATOM      8  C   UNL A   1      32.443  20.285  23.896  1.00  0.00     0.221 C 
ATOM      9  C   UNL A   1      33.098  20.175  25.247  1.00  0.00     0.117 C 
ATOM     10  N   UNL A   1      32.167  21.609  23.658  1.00  0.00    -0.349 N 
ATOM     11  C   UNL A   1      32.460  22.479  24.785  1.00  0.00     0.064 C 
ATOM     12  H   UNL A   1      31.803  21.938  22.804  1.00  0.00     0.164 HD
ATOM     13  C   UNL A   1      32.900  23.850  24.261  1.00  0.00     0.091 C 
ATOM     14  C   UNL A   1      31.157  22.612  25.630  1.00  0.00     0.091 C 
ATOM     15  C   UNL A   1      32.847  24.949  25.314  1.00  0.00     0.264 C 
ATOM     16  C   UNL A   1      31.076  23.852  26.528  1.00  0.00     0.264 C 
ATOM     17  N   UNL A   1      31.536  25.089  25.917  1.00  0.00    -0.331 N 
ATOM     18  H   UNL A   1      31.669  25.715  26.710  1.00  0.00     0.348 HD
BRANCH  17  19
ATOM     19  C   UNL A   1      30.557  25.945  25.231  1.00  0.00     0.303 C 
BRANCH  19  20
ATOM     20  C   UNL A   1      31.074  26.725  24.063  1.00  0.00     0.052 A 
ATOM     21  C   UNL A   1      30.712  26.545  22.738  1.00  0.00     0.115 A 
ATOM     22  C   UNL A   1      31.897  27.905  24.026  1.00  0.00     0.101 A 
ATOM     23  N   UNL A   1      31.426  27.438  22.007  1.00  0.00    -0.285 N 
ATOM     24  N   UNL A   1      32.143  28.276  22.757  1.00  0.00    -0.175 NA
ATOM     25  H   UNL A   1      31.415  27.464  21.023  1.00  0.00     0.189 HD
BRANCH  22  26
ATOM     26  C   UNL A   1      32.424  28.743  25.106  1.00  0.00     0.003 A 
ATOM     27  C   UNL A   1      31.699  29.884  25.489  1.00  0.00     0.012 A 
ATOM     28  C   UNL A   1      33.644  28.485  25.736  1.00  0.00     0.012 A 
ATOM     29  C   UNL A   1      32.183  30.746  26.478  1.00  0.00     0.021 A 
ATOM     30  C   UNL A   1      34.127  29.342  26.734  1.00  0.00     0.021 A 
ATOM     31  C   UNL A   1      33.399  30.472  27.093  1.00  0.00     0.041 A 
ATOM     32  Cl  UNL A   1      34.016  31.545  28.287  1.00  0.00    -0.084 Cl
ENDBRANCH  22  26
ENDBRANCH  19  20
ENDBRANCH  17  19
ENDBRANCH   4   6
ENDBRANCH   3   4
ENDBRANCH   2   3
ENDBRANCH   1   2
BRANCH   1  33
ATOM     33  O   UNL A   1      38.386  22.599  25.422  1.00  0.00    -0.374 OA
BRANCH  33  34
ATOM     34  C   UNL A   1      39.241  21.829  26.266  1.00  0.00     0.202 C 
BRANCH  34  35
ATOM     35  C   UNL A   1      39.570  20.425  25.751  1.00  0.00     0.261 C 
BRANCH  35  36
ATOM     36  O   UNL A   1      40.527  19.792  26.618  1.00  0.00    -0.460 OA
BRANCH  36  37
ATOM     37  C   UNL A   1      41.787  19.808  26.129  1.00  0.00     0.338 C 
ATOM     38  O   UNL A   1      42.278  19.021  25.341  1.00  0.00    -0.246 OA
BRANCH  37  39
ATOM     39  C   UNL A   1      42.457  21.049  26.549  1.00  0.00     0.060 A 
ATOM     40  C   UNL A   1      42.506  21.322  27.920  1.00  0.00     0.016 A 
ATOM     41  C   UNL A   1      42.907  21.983  25.616  1.00  0.00     0.016 A 
ATOM     42  C   UNL A   1      42.947  22.568  28.360  1.00  0.00     0.010 A 
ATOM     43  C   UNL A   1      43.351  23.233  26.063  1.00  0.00     0.010 A 
ATOM     44  C   UNL A   1      43.329  23.546  27.432  1.00  0.00    -0.014 A 
BRANCH  44  45
ATOM     45  C   UNL A   1      43.563  24.934  27.901  1.00  0.00     0.031 A 
ATOM     46  C   UNL A   1      44.974  25.442  28.021  1.00  0.00     0.074 A 
ATOM     47  C   UNL A   1      42.530  25.750  28.169  1.00  0.00     0.049 A 
ATOM     48  N   UNL A   1      45.397  26.643  28.326  1.00  0.00    -0.248 NA
ATOM     49  C   UNL A   1      46.050  24.472  27.762  1.00  0.00     0.031 C 
ATOM     50  C   UNL A   1      41.118  25.382  28.084  1.00  0.00     0.029 A 
ATOM     51  N   UNL A   1      42.515  27.063  28.566  1.00  0.00    -0.354 N 
ATOM     52  C   UNL A   1      46.784  26.574  28.291  1.00  0.00     0.074 A 
ATOM     53  C   UNL A   1      47.133  25.207  27.969  1.00  0.00     0.031 C 
ATOM     54  C   UNL A   1      40.371  26.448  28.420  1.00  0.00     0.029 A 
ATOM     55  C   UNL A   1      41.251  27.565  28.756  1.00  0.00     0.049 A 
ATOM     56  H   UNL A   1      43.332  27.595  28.702  1.00  0.00     0.167 HD
ATOM     57  C   UNL A   1      47.690  27.560  28.500  1.00  0.00     0.031 A 
ATOM     58  C   UNL A   1      40.849  28.785  29.160  1.00  0.00     0.031 A 
ATOM     59  C   UNL A   1      47.350  28.916  28.840  1.00  0.00     0.049 A 
ATOM     60  C   UNL A   1      41.873  29.853  29.431  1.00  0.00     0.074 A 
ATOM     61  C   UNL A   1      48.195  29.995  29.033  1.00  0.00     0.029 A 
ATOM     62  N   UNL A   1      46.060  29.375  29.052  1.00  0.00    -0.354 N 
ATOM     63  N   UNL A   1      43.179  29.792  29.325  1.00  0.00    -0.248 NA
ATOM     64  C   UNL A   1      41.365  31.163  29.865  1.00  0.00     0.031 C 
ATOM     65  C   UNL A   1      47.420  31.095  29.415  1.00  0.00     0.029 A 
ATOM     66  C   UNL A   1      46.088  30.713  29.408  1.00  0.00     0.049 A 
ATOM     67  H   UNL A   1      45.245  28.830  28.963  1.00  0.00     0.167 HD
ATOM     68  C   UNL A   1      43.647  31.056  29.658  1.00  0.00     0.074 A 
ATOM     69  C   UNL A   1      42.484  31.868  29.955  1.00  0.00     0.031 C 
ATOM     70  C   UNL A   1      44.924  31.504  29.711  1.00  0.00     0.031 A 
BRANCH  57  71
ATOM     71  C   UNL A   1      49.143  27.195  28.394  1.00  0.00    -0.014 A 
ATOM     72  C   UNL A   1      49.817  27.245  27.164  1.00  0.00     0.009 A 
ATOM     73  C   UNL A   1      49.854  26.822  29.545  1.00  0.00     0.009 A 
ATOM     74  C   UNL A   1      51.167  26.895  27.084  1.00  0.00     0.001 A 
ATOM     75  C   UNL A   1      51.209  26.496  29.466  1.00  0.00     0.001 A 
ATOM     76  C   UNL A   1      51.861  26.525  28.235  1.00  0.00     0.000 A 
ENDBRANCH  57  71
BRANCH  58  77
ATOM     77  C   UNL A   1      39.400  29.062  29.333  1.00  0.00    -0.014 A 
ATOM     78  C   UNL A   1      38.766  28.826  30.562  1.00  0.00     0.009 A 
ATOM     79  C   UNL A   1      38.647  29.570  28.264  1.00  0.00     0.009 A 
ATOM     80  C   UNL A   1      37.400  29.081  30.709  1.00  0.00     0.001 A 
ATOM     81  C   UNL A   1      37.288  29.844  28.422  1.00  0.00     0.001 A 
ATOM     82  C   UNL A   1      36.663  29.594  29.642  1.00  0.00     0.000 A 
ENDBRANCH  58  77
BRANCH  70  83
ATOM     83  C   UNL A   1      45.133  32.943  30.092  1.00  0.00    -0.014 A 
ATOM     84  C   UNL A   1      45.342  33.318  31.427  1.00  0.00     0.009 A 
ATOM     85  C   UNL A   1      45.163  33.931  29.093  1.00  0.00     0.009 A 
ATOM     86  C   UNL A   1      45.547  34.658  31.760  1.00  0.00     0.001 A 
ATOM     87  C   UNL A   1      45.393  35.266  29.427  1.00  0.00     0.001 A 
ATOM     88  C   UNL A   1      45.577  35.630  30.761  1.00  0.00     0.000 A 
ENDBRANCH  70  83
ENDBRANCH  44  45
ENDBRANCH  37  39
ENDBRANCH  36  37
ENDBRANCH  35  36
ENDBRANCH  34  35
ENDBRANCH  33  34
ENDBRANCH   1  33
TORSDOF 17
ENDMDL
MODEL 2
REMARK VINA RESULT:     -11.0      0.669      5.640
REMARK SMILES O=C1C[C@@H](C(=O)OCCOCCOC(=O)c2ccc(-c3c4nc(c(-c5ccccc5)c5ccc([nH]5)c(-c5ccccc5)c5nc(c(-c6ccccc6)c6ccc3[nH]6)C=C5)C=C4)cc2)C2(CC[NH+](Cc3c[nH]nc3-c3ccc(Cl)cc3)CC2)N1
REMARK SMILES IDX 9 1 8 2 7 3 5 4 6 5 4 6 1 7 2 8 3 9 83 10 64 11 65 13 82 14
REMARK SMILES IDX 66 15 81 16 67 17 68 19 69 20 70 21 73 22 71 23 72 24 74 26
REMARK SMILES IDX 75 27 80 28 76 29 79 30 77 31 78 32 10 33 11 34 12 35 13 36
REMARK SMILES IDX 14 37 15 38 16 39 17 40 63 41 18 42 62 43 19 44 20 45 21 46
REMARK SMILES IDX 56 47 22 48 61 49 55 50 57 51 23 52 60 53 54 54 53 55 24 57
REMARK SMILES IDX 46 58 31 59 45 60 32 61 35 62 44 63 58 64 33 65 34 66 43 68
REMARK SMILES IDX 59 69 36 70 25 71 26 72 30 73 27 74 29 75 28 76 47 77 48 78
REMARK SMILES IDX 52 79 49 80 51 81 50 82 37 83 38 84 42 85 39 86 41 87 40 88
REMARK H PARENT 83 12 67 18 71 25 57 56 35 67
REMARK Flexibility Score: inf
ROOT
ATOM      1  C   UNL A   1      37.379  23.621  26.017  1.00  0.00     0.202 C 
ENDROOT
BRANCH   1   2
ATOM      2  C   UNL A   1      35.858  23.481  26.150  1.00  0.00     0.261 C 
BRANCH   2   3
ATOM      3  O   UNL A   1      35.334  22.182  25.807  1.00  0.00    -0.463 OA
BRANCH   3   4
ATOM      4  C   UNL A   1      34.656  22.119  24.634  1.00  0.00     0.311 C 
ATOM      5  O   UNL A   1      35.168  22.274  23.530  1.00  0.00    -0.252 OA
BRANCH   4   6
ATOM      6  C   UNL A   1      33.154  21.966  24.779  1.00  0.00     0.134 C 
ATOM      7  O   UNL A   1      31.854  20.846  21.647  1.00  0.00    -0.275 OA
ATOM      8  C   UNL A   1      32.136  21.398  22.694  1.00  0.00     0.221 C 
ATOM      9  C   UNL A   1      32.751  20.757  23.910  1.00  0.00     0.117 C 
ATOM     10  N   UNL A   1      31.887  22.717  22.982  1.00  0.00    -0.349 N 
ATOM     11  C   UNL A   1      32.161  23.075  24.363  1.00  0.00     0.064 C 
ATOM     12  H   UNL A   1      31.552  23.360  22.315  1.00  0.00     0.164 HD
ATOM     13  C   UNL A   1      32.637  24.532  24.421  1.00  0.00     0.091 C 
ATOM     14  C   UNL A   1      30.838  22.903  25.169  1.00  0.00     0.091 C 
ATOM     15  C   UNL A   1      32.571  25.138  25.816  1.00  0.00     0.264 C 
ATOM     16  C   UNL A   1      30.751  23.702  26.474  1.00  0.00     0.264 C 
ATOM     17  N   UNL A   1      31.246  25.066  26.400  1.00  0.00    -0.331 N 
ATOM     18  H   UNL A   1      31.367  25.333  27.376  1.00  0.00     0.348 HD
BRANCH  17  19
ATOM     19  C   UNL A   1      30.300  26.146  26.080  1.00  0.00     0.303 C 
BRANCH  19  20
ATOM     20  C   UNL A   1      30.573  26.903  24.818  1.00  0.00     0.052 A 
ATOM     21  C   UNL A   1      29.956  26.701  23.595  1.00  0.00     0.115 A 
ATOM     22  C   UNL A   1      31.370  28.081  24.598  1.00  0.00     0.101 A 
ATOM     23  N   UNL A   1      30.509  27.579  22.722  1.00  0.00    -0.285 N 
ATOM     24  N   UNL A   1      31.359  28.430  23.299  1.00  0.00    -0.175 NA
ATOM     25  H   UNL A   1      30.303  27.588  21.759  1.00  0.00     0.189 HD
BRANCH  22  26
ATOM     26  C   UNL A   1      32.100  28.937  25.537  1.00  0.00     0.003 A 
ATOM     27  C   UNL A   1      31.556  30.189  25.871  1.00  0.00     0.012 A 
ATOM     28  C   UNL A   1      33.340  28.584  26.074  1.00  0.00     0.012 A 
ATOM     29  C   UNL A   1      32.236  31.067  26.721  1.00  0.00     0.021 A 
ATOM     30  C   UNL A   1      34.020  29.457  26.934  1.00  0.00     0.021 A 
ATOM     31  C   UNL A   1      33.469  30.697  27.246  1.00  0.00     0.041 A 
ATOM     32  Cl  UNL A   1      34.327  31.783  28.266  1.00  0.00    -0.084 Cl
ENDBRANCH  22  26
ENDBRANCH  19  20
ENDBRANCH  17  19
ENDBRANCH   4   6
ENDBRANCH   3   4
ENDBRANCH   2   3
ENDBRANCH   1   2
BRANCH   1  33
ATOM     33  O   UNL A   1      38.073  22.528  25.421  1.00  0.00    -0.374 OA
BRANCH  33  34
ATOM     34  C   UNL A   1      39.142  21.942  26.163  1.00  0.00     0.202 C 
BRANCH  34  35
ATOM     35  C   UNL A   1      39.535  20.528  25.728  1.00  0.00     0.261 C 
BRANCH  35  36
ATOM     36  O   UNL A   1      40.456  19.957  26.674  1.00  0.00    -0.460 OA
BRANCH  36  37
ATOM     37  C   UNL A   1      41.715  19.843  26.195  1.00  0.00     0.338 C 
ATOM     38  O   UNL A   1      42.135  18.989  25.435  1.00  0.00    -0.246 OA
BRANCH  37  39
ATOM     39  C   UNL A   1      42.494  21.029  26.581  1.00  0.00     0.060 A 
ATOM     40  C   UNL A   1      42.492  21.389  27.933  1.00  0.00     0.016 A 
ATOM     41  C   UNL A   1      43.102  21.842  25.624  1.00  0.00     0.016 A 
ATOM     42  C   UNL A   1      43.044  22.607  28.323  1.00  0.00     0.010 A 
ATOM     43  C   UNL A   1      43.657  23.064  26.022  1.00  0.00     0.010 A 
ATOM     44  C   UNL A   1      43.588  23.472  27.364  1.00  0.00    -0.014 A 
BRANCH  44  45
ATOM     45  C   UNL A   1      43.950  24.855  27.760  1.00  0.00     0.031 A 
ATOM     46  C   UNL A   1      42.857  25.850  28.044  1.00  0.00     0.074 A 
ATOM     47  C   UNL A   1      45.237  25.209  27.914  1.00  0.00     0.049 A 
ATOM     48  N   UNL A   1      42.952  27.078  28.486  1.00  0.00    -0.248 NA
ATOM     49  C   UNL A   1      41.477  25.401  27.800  1.00  0.00     0.031 C 
ATOM     50  C   UNL A   1      46.387  24.337  27.678  1.00  0.00     0.029 A 
ATOM     51  N   UNL A   1      45.789  26.401  28.309  1.00  0.00    -0.354 N 
ATOM     52  C   UNL A   1      41.647  27.547  28.576  1.00  0.00     0.074 A 
ATOM     53  C   UNL A   1      40.782  26.485  28.113  1.00  0.00     0.031 C 
ATOM     54  C   UNL A   1      47.512  25.027  27.935  1.00  0.00     0.029 A 
ATOM     55  C   UNL A   1      47.162  26.387  28.337  1.00  0.00     0.049 A 
ATOM     56  H   UNL A   1      45.253  27.191  28.550  1.00  0.00     0.167 HD
ATOM     57  C   UNL A   1      41.206  28.751  29.014  1.00  0.00     0.031 A 
ATOM     58  C   UNL A   1      48.037  27.362  28.648  1.00  0.00     0.031 A 
ATOM     59  C   UNL A   1      42.062  29.818  29.458  1.00  0.00     0.049 A 
ATOM     60  C   UNL A   1      47.526  28.707  29.088  1.00  0.00     0.074 A 
ATOM     61  C   UNL A   1      41.708  31.060  29.955  1.00  0.00     0.029 A 
ATOM     62  N   UNL A   1      43.447  29.775  29.442  1.00  0.00    -0.354 N 
ATOM     63  N   UNL A   1      46.288  29.112  29.237  1.00  0.00    -0.248 NA
ATOM     64  C   UNL A   1      48.536  29.725  29.415  1.00  0.00     0.031 C 
ATOM     65  C   UNL A   1      42.879  31.788  30.190  1.00  0.00     0.029 A 
ATOM     66  C   UNL A   1      43.963  30.979  29.888  1.00  0.00     0.049 A 
ATOM     67  H   UNL A   1      43.985  29.001  29.155  1.00  0.00     0.167 HD
ATOM     68  C   UNL A   1      46.369  30.421  29.693  1.00  0.00     0.074 A 
ATOM     69  C   UNL A   1      47.778  30.738  29.812  1.00  0.00     0.031 C 
ATOM     70  C   UNL A   1      45.367  31.283  29.990  1.00  0.00     0.031 A 
BRANCH  57  71
ATOM     71  C   UNL A   1      39.722  28.986  29.006  1.00  0.00    -0.014 A 
ATOM     72  C   UNL A   1      39.068  29.465  27.860  1.00  0.00     0.009 A 
ATOM     73  C   UNL A   1      38.965  28.698  30.151  1.00  0.00     0.009 A 
ATOM     74  C   UNL A   1      37.689  29.683  27.873  1.00  0.00     0.001 A 
ATOM     75  C   UNL A   1      37.582  28.894  30.154  1.00  0.00     0.001 A 
ATOM     76  C   UNL A   1      36.948  29.394  29.018  1.00  0.00     0.000 A 
ENDBRANCH  57  71
BRANCH  58  77
ATOM     77  C   UNL A   1      49.496  27.099  28.552  1.00  0.00    -0.014 A 
ATOM     78  C   UNL A   1      50.189  27.326  27.354  1.00  0.00     0.009 A 
ATOM     79  C   UNL A   1      50.201  26.623  29.668  1.00  0.00     0.009 A 
ATOM     80  C   UNL A   1      51.560  27.064  27.273  1.00  0.00     0.001 A 
ATOM     81  C   UNL A   1      51.574  26.384  29.590  1.00  0.00     0.001 A 
ATOM     82  C   UNL A   1      52.251  26.600  28.391  1.00  0.00     0.000 A 
ENDBRANCH  58  77
BRANCH  70  83
ATOM     83  C   UNL A   1      45.756  32.647  30.485  1.00  0.00    -0.014 A 
ATOM     84  C   UNL A   1      45.940  32.898  31.852  1.00  0.00     0.009 A 
ATOM     85  C   UNL A   1      45.984  33.684  29.564  1.00  0.00     0.009 A 
ATOM     86  C   UNL A   1      46.316  34.169  32.292  1.00  0.00     0.001 A 
ATOM     87  C   UNL A   1      46.383  34.946  30.005  1.00  0.00     0.001 A 
ATOM     88  C   UNL A   1      46.540  35.190  31.370  1.00  0.00     0.000 A 
ENDBRANCH  70  83
ENDBRANCH  44  45
ENDBRANCH  37  39
ENDBRANCH  36  37
ENDBRANCH  35  36
ENDBRANCH  34  35
ENDBRANCH  33  34
ENDBRANCH   1  33
TORSDOF 17
ENDMDL
MODEL 3
REMARK VINA RESULT:     -10.9      1.882      2.528
REMARK SMILES O=C1C[C@@H](C(=O)OCCOCCOC(=O)c2ccc(-c3c4nc(c(-c5ccccc5)c5ccc([nH]5)c(-c5ccccc5)c5nc(c(-c6ccccc6)c6ccc3[nH]6)C=C5)C=C4)cc2)C2(CC[NH+](Cc3c[nH]nc3-c3ccc(Cl)cc3)CC2)N1
REMARK SMILES IDX 9 1 8 2 7 3 5 4 6 5 4 6 1 7 2 8 3 9 83 10 64 11 65 13 82 14
REMARK SMILES IDX 66 15 81 16 67 17 68 19 69 20 70 21 73 22 71 23 72 24 74 26
REMARK SMILES IDX 75 27 80 28 76 29 79 30 77 31 78 32 10 33 11 34 12 35 13 36
REMARK SMILES IDX 14 37 15 38 16 39 17 40 63 41 18 42 62 43 19 44 20 45 21 46
REMARK SMILES IDX 56 47 22 48 61 49 55 50 57 51 23 52 60 53 54 54 53 55 24 57
REMARK SMILES IDX 46 58 31 59 45 60 32 61 35 62 44 63 58 64 33 65 34 66 43 68
REMARK SMILES IDX 59 69 36 70 25 71 26 72 30 73 27 74 29 75 28 76 47 77 48 78
REMARK SMILES IDX 52 79 49 80 51 81 50 82 37 83 38 84 42 85 39 86 41 87 40 88
REMARK H PARENT 83 12 67 18 71 25 57 56 35 67
REMARK Flexibility Score: inf
ROOT
ATOM      1  C   UNL A   1      37.459  22.467  25.412  1.00  0.00     0.202 C 
ENDROOT
BRANCH   1   2
ATOM      2  C   UNL A   1      36.326  23.498  25.353  1.00  0.00     0.261 C 
BRANCH   2   3
ATOM      3  O   UNL A   1      35.075  23.001  24.838  1.00  0.00    -0.463 OA
BRANCH   3   4
ATOM      4  C   UNL A   1      34.761  23.402  23.581  1.00  0.00     0.311 C 
ATOM      5  O   UNL A   1      35.581  23.580  22.686  1.00  0.00    -0.252 OA
BRANCH   4   6
ATOM      6  C   UNL A   1      33.300  23.754  23.376  1.00  0.00     0.134 C 
ATOM      7  O   UNL A   1      32.977  25.290  20.169  1.00  0.00    -0.275 OA
ATOM      8  C   UNL A   1      32.977  24.959  21.339  1.00  0.00     0.221 C 
ATOM      9  C   UNL A   1      33.008  23.552  21.875  1.00  0.00     0.117 C 
ATOM     10  N   UNL A   1      32.888  25.823  22.404  1.00  0.00    -0.349 N 
ATOM     11  C   UNL A   1      32.731  25.157  23.685  1.00  0.00     0.064 C 
ATOM     12  H   UNL A   1      32.927  26.802  22.306  1.00  0.00     0.164 HD
ATOM     13  C   UNL A   1      33.415  25.992  24.774  1.00  0.00     0.091 C 
ATOM     14  C   UNL A   1      31.203  25.037  23.971  1.00  0.00     0.091 C 
ATOM     15  C   UNL A   1      32.984  25.620  26.186  1.00  0.00     0.264 C 
ATOM     16  C   UNL A   1      30.820  24.862  25.445  1.00  0.00     0.264 C 
ATOM     17  N   UNL A   1      31.550  25.703  26.379  1.00  0.00    -0.331 N 
ATOM     18  H   UNL A   1      31.373  25.269  27.284  1.00  0.00     0.348 HD
BRANCH  17  19
ATOM     19  C   UNL A   1      30.985  27.012  26.743  1.00  0.00     0.303 C 
BRANCH  19  20
ATOM     20  C   UNL A   1      31.905  28.184  26.602  1.00  0.00     0.052 A 
ATOM     21  C   UNL A   1      33.092  28.376  27.289  1.00  0.00     0.115 A 
ATOM     22  C   UNL A   1      31.892  29.265  25.652  1.00  0.00     0.101 A 
ATOM     23  N   UNL A   1      33.597  29.568  26.881  1.00  0.00    -0.285 N 
ATOM     24  N   UNL A   1      32.900  30.122  25.889  1.00  0.00    -0.175 NA
ATOM     25  H   UNL A   1      34.399  29.979  27.278  1.00  0.00     0.189 HD
BRANCH  22  26
ATOM     26  C   UNL A   1      31.025  29.518  24.497  1.00  0.00     0.003 A 
ATOM     27  C   UNL A   1      30.159  30.624  24.535  1.00  0.00     0.012 A 
ATOM     28  C   UNL A   1      30.985  28.677  23.383  1.00  0.00     0.012 A 
ATOM     29  C   UNL A   1      29.274  30.882  23.484  1.00  0.00     0.021 A 
ATOM     30  C   UNL A   1      30.106  28.938  22.323  1.00  0.00     0.021 A 
ATOM     31  C   UNL A   1      29.249  30.034  22.383  1.00  0.00     0.041 A 
ATOM     32  Cl  UNL A   1      28.141  30.326  21.101  1.00  0.00    -0.084 Cl
ENDBRANCH  22  26
ENDBRANCH  19  20
ENDBRANCH  17  19
ENDBRANCH   4   6
ENDBRANCH   3   4
ENDBRANCH   2   3
ENDBRANCH   1   2
BRANCH   1  33
ATOM     33  O   UNL A   1      37.389  21.386  24.486  1.00  0.00    -0.374 OA
BRANCH  33  34
ATOM     34  C   UNL A   1      37.550  20.064  25.000  1.00  0.00     0.202 C 
BRANCH  34  35
ATOM     35  C   UNL A   1      38.991  19.549  25.027  1.00  0.00     0.261 C 
BRANCH  35  36
ATOM     36  O   UNL A   1      39.671  20.041  26.196  1.00  0.00    -0.460 OA
BRANCH  36  37
ATOM     37  C   UNL A   1      41.004  19.816  26.175  1.00  0.00     0.338 C 
ATOM     38  O   UNL A   1      41.576  18.841  25.724  1.00  0.00    -0.246 OA
BRANCH  37  39
ATOM     39  C   UNL A   1      41.709  21.027  26.623  1.00  0.00     0.060 A 
ATOM     40  C   UNL A   1      41.809  21.241  28.002  1.00  0.00     0.016 A 
ATOM     41  C   UNL A   1      42.146  21.992  25.715  1.00  0.00     0.016 A 
ATOM     42  C   UNL A   1      42.287  22.460  28.478  1.00  0.00     0.010 A 
ATOM     43  C   UNL A   1      42.627  23.214  26.198  1.00  0.00     0.010 A 
ATOM     44  C   UNL A   1      42.655  23.470  27.579  1.00  0.00    -0.014 A 
BRANCH  44  45
ATOM     45  C   UNL A   1      42.931  24.832  28.097  1.00  0.00     0.031 A 
ATOM     46  C   UNL A   1      44.354  25.251  28.349  1.00  0.00     0.074 A 
ATOM     47  C   UNL A   1      41.928  25.706  28.294  1.00  0.00     0.049 A 
ATOM     48  N   UNL A   1      44.819  26.419  28.715  1.00  0.00    -0.248 NA
ATOM     49  C   UNL A   1      45.388  24.221  28.161  1.00  0.00     0.031 C 
ATOM     50  C   UNL A   1      40.509  25.426  28.079  1.00  0.00     0.029 A 
ATOM     51  N   UNL A   1      41.957  27.010  28.717  1.00  0.00    -0.354 N 
ATOM     52  C   UNL A   1      46.197  26.265  28.798  1.00  0.00     0.074 A 
ATOM     53  C   UNL A   1      46.490  24.886  28.477  1.00  0.00     0.031 C 
ATOM     54  C   UNL A   1      39.801  26.530  28.373  1.00  0.00     0.029 A 
ATOM     55  C   UNL A   1      40.713  27.585  28.809  1.00  0.00     0.049 A 
ATOM     56  H   UNL A   1      42.789  27.489  28.934  1.00  0.00     0.167 HD
ATOM     57  C   UNL A   1      47.138  27.191  29.106  1.00  0.00     0.031 A 
ATOM     58  C   UNL A   1      40.351  28.820  29.203  1.00  0.00     0.031 A 
ATOM     59  C   UNL A   1      46.852  28.559  29.445  1.00  0.00     0.049 A 
ATOM     60  C   UNL A   1      41.409  29.819  29.585  1.00  0.00     0.074 A 
ATOM     61  C   UNL A   1      47.739  29.580  29.734  1.00  0.00     0.029 A 
ATOM     62  N   UNL A   1      45.577  29.092  29.556  1.00  0.00    -0.354 N 
ATOM     63  N   UNL A   1      42.713  29.680  29.590  1.00  0.00    -0.248 NA
ATOM     64  C   UNL A   1      40.945  31.150  30.003  1.00  0.00     0.031 C 
ATOM     65  C   UNL A   1      47.001  30.719  30.072  1.00  0.00     0.029 A 
ATOM     66  C   UNL A   1      45.654  30.419  29.942  1.00  0.00     0.049 A 
ATOM     67  H   UNL A   1      44.742  28.600  29.385  1.00  0.00     0.167 HD
ATOM     68  C   UNL A   1      43.225  30.907  29.990  1.00  0.00     0.074 A 
ATOM     69  C   UNL A   1      42.091  31.784  30.204  1.00  0.00     0.031 C 
ATOM     70  C   UNL A   1      44.517  31.276  30.162  1.00  0.00     0.031 A 
BRANCH  57  71
ATOM     71  C   UNL A   1      48.571  26.739  29.117  1.00  0.00    -0.014 A 
ATOM     72  C   UNL A   1      49.362  26.804  27.959  1.00  0.00     0.009 A 
ATOM     73  C   UNL A   1      49.144  26.267  30.308  1.00  0.00     0.009 A 
ATOM     74  C   UNL A   1      50.691  26.373  27.987  1.00  0.00     0.001 A 
ATOM     75  C   UNL A   1      50.479  25.860  30.339  1.00  0.00     0.001 A 
ATOM     76  C   UNL A   1      51.248  25.906  29.177  1.00  0.00     0.000 A 
ENDBRANCH  57  71
BRANCH  58  77
ATOM     77  C   UNL A   1      38.911  29.182  29.258  1.00  0.00    -0.014 A 
ATOM     78  C   UNL A   1      38.171  29.009  30.437  1.00  0.00     0.009 A 
ATOM     79  C   UNL A   1      38.274  29.710  28.124  1.00  0.00     0.009 A 
ATOM     80  C   UNL A   1      36.815  29.343  30.472  1.00  0.00     0.001 A 
ATOM     81  C   UNL A   1      36.925  30.064  28.171  1.00  0.00     0.001 A 
ATOM     82  C   UNL A   1      36.195  29.875  29.343  1.00  0.00     0.000 A 
ENDBRANCH  58  77
BRANCH  70  83
ATOM     83  C   UNL A   1      44.777  32.692  30.591  1.00  0.00    -0.014 A 
ATOM     84  C   UNL A   1      44.916  33.722  29.649  1.00  0.00     0.009 A 
ATOM     85  C   UNL A   1      44.841  33.006  31.959  1.00  0.00     0.009 A 
ATOM     86  C   UNL A   1      45.144  35.035  30.067  1.00  0.00     0.001 A 
ATOM     87  C   UNL A   1      45.044  34.323  32.373  1.00  0.00     0.001 A 
ATOM     88  C   UNL A   1      45.204  35.335  31.427  1.00  0.00     0.000 A 
ENDBRANCH  70  83
ENDBRANCH  44  45
ENDBRANCH  37  39
ENDBRANCH  36  37
ENDBRANCH  35  36
ENDBRANCH  34  35
ENDBRANCH  33  34
ENDBRANCH   1  33
TORSDOF 17
ENDMDL
