MODEL 1
REMARK VINA RESULT:      -8.2      0.000      0.000
REMARK SMILES O=C(OCCOCCOC(=O)c1ccc(CNc2ccccc2)nc1)c1ccc(-c2c3nc(c(-c4ccccc4)c4ccc([nH]4)c(-c4ccccc4)c4nc(c(-c5ccccc5)c5ccc2[nH]5)C=C4)C=C3)cc1
REMARK SMILES IDX 7 1 6 2 5 3 4 4 3 5 2 6 1 7 26 8 27 9 73 10 28 11 72 12
REMARK SMILES IDX 29 13 30 14 31 15 66 16 32 17 71 18 65 19 67 20 33 21 70 22
REMARK SMILES IDX 64 23 63 24 34 26 56 27 41 28 55 29 42 30 45 31 54 32 68 33
REMARK SMILES IDX 43 34 44 35 53 37 69 38 46 39 35 40 36 41 40 42 37 43 39 44
REMARK SMILES IDX 38 45 57 46 58 47 62 48 59 49 61 50 60 51 47 52 48 53 52 54
REMARK SMILES IDX 49 55 51 56 50 57 8 58 9 59 10 60 11 61 12 62 13 63 25 64
REMARK SMILES IDX 14 65 24 66 15 67 16 68 17 69 18 71 19 72 23 73 20 74 22 75
REMARK SMILES IDX 21 76
REMARK H PARENT 67 25 45 36 17 70
REMARK Flexibility Score: inf
ROOT
ATOM      1  C   UNL A   1      45.034  20.972  24.121  1.00  0.00     0.202 C 
ENDROOT
BRANCH   1   2
ATOM      2  O   UNL A   1      45.108  19.707  24.794  1.00  0.00    -0.374 OA
BRANCH   2   3
ATOM      3  C   UNL A   1      43.906  18.931  24.778  1.00  0.00     0.202 C 
BRANCH   3   4
ATOM      4  C   UNL A   1      43.459  18.416  26.151  1.00  0.00     0.261 C 
BRANCH   4   5
ATOM      5  O   UNL A   1      42.029  18.514  26.283  1.00  0.00    -0.460 OA
BRANCH   5   6
ATOM      6  C   UNL A   1      41.239  19.604  26.142  1.00  0.00     0.338 C 
ATOM      7  O   UNL A   1      40.149  19.475  25.589  1.00  0.00    -0.246 OA
BRANCH   6   8
ATOM      8  C   UNL A   1      41.619  20.967  26.622  1.00  0.00     0.060 A 
ATOM      9  C   UNL A   1      41.915  22.047  25.790  1.00  0.00     0.016 A 
ATOM     10  C   UNL A   1      41.576  21.194  28.008  1.00  0.00     0.016 A 
ATOM     11  C   UNL A   1      42.242  23.292  26.307  1.00  0.00     0.010 A 
ATOM     12  C   UNL A   1      41.850  22.460  28.538  1.00  0.00     0.010 A 
ATOM     13  C   UNL A   1      42.203  23.507  27.682  1.00  0.00    -0.014 A 
BRANCH  13  14
ATOM     14  C   UNL A   1      42.614  24.831  28.180  1.00  0.00     0.031 A 
ATOM     15  C   UNL A   1      41.565  25.875  28.395  1.00  0.00     0.074 A 
ATOM     16  C   UNL A   1      43.889  25.021  28.566  1.00  0.00     0.049 A 
ATOM     17  N   UNL A   1      41.693  27.096  28.840  1.00  0.00    -0.248 NA
ATOM     18  C   UNL A   1      40.178  25.488  28.081  1.00  0.00     0.031 C 
ATOM     19  C   UNL A   1      44.949  24.010  28.503  1.00  0.00     0.029 A 
ATOM     20  N   UNL A   1      44.499  26.110  29.126  1.00  0.00    -0.354 N 
ATOM     21  C   UNL A   1      40.411  27.629  28.839  1.00  0.00     0.074 A 
ATOM     22  C   UNL A   1      39.519  26.605  28.344  1.00  0.00     0.031 C 
ATOM     23  C   UNL A   1      46.069  24.517  29.042  1.00  0.00     0.029 A 
ATOM     24  C   UNL A   1      45.824  25.904  29.422  1.00  0.00     0.049 A 
ATOM     25  H   UNL A   1      44.033  26.960  29.301  1.00  0.00     0.167 HD
ATOM     26  C   UNL A   1      40.022  28.870  29.211  1.00  0.00     0.031 A 
ATOM     27  C   UNL A   1      46.739  26.755  29.921  1.00  0.00     0.031 A 
ATOM     28  C   UNL A   1      40.934  29.876  29.680  1.00  0.00     0.049 A 
ATOM     29  C   UNL A   1      46.299  28.158  30.230  1.00  0.00     0.074 A 
ATOM     30  C   UNL A   1      40.678  31.192  30.015  1.00  0.00     0.029 A 
ATOM     31  N   UNL A   1      42.291  29.663  29.880  1.00  0.00    -0.354 N 
ATOM     32  N   UNL A   1      45.096  28.680  30.160  1.00  0.00    -0.248 NA
ATOM     33  C   UNL A   1      47.339  29.095  30.671  1.00  0.00     0.031 C 
ATOM     34  C   UNL A   1      41.892  31.789  30.374  1.00  0.00     0.029 A 
ATOM     35  C   UNL A   1      42.893  30.829  30.316  1.00  0.00     0.049 A 
ATOM     36  H   UNL A   1      42.757  28.808  29.734  1.00  0.00     0.167 HD
ATOM     37  C   UNL A   1      45.231  30.000  30.559  1.00  0.00     0.074 A 
ATOM     38  C   UNL A   1      46.630  30.193  30.892  1.00  0.00     0.031 C 
ATOM     39  C   UNL A   1      44.290  30.975  30.636  1.00  0.00     0.031 A 
BRANCH  26  40
ATOM     40  C   UNL A   1      38.570  29.205  29.033  1.00  0.00    -0.014 A 
ATOM     41  C   UNL A   1      38.066  29.673  27.807  1.00  0.00     0.009 A 
ATOM     42  C   UNL A   1      37.698  29.095  30.127  1.00  0.00     0.009 A 
ATOM     43  C   UNL A   1      36.729  30.063  27.696  1.00  0.00     0.001 A 
ATOM     44  C   UNL A   1      36.356  29.461  30.005  1.00  0.00     0.001 A 
ATOM     45  C   UNL A   1      35.876  29.956  28.795  1.00  0.00     0.000 A 
ENDBRANCH  26  40
BRANCH  27  46
ATOM     46  C   UNL A   1      48.152  26.325  30.099  1.00  0.00    -0.014 A 
ATOM     47  C   UNL A   1      49.085  26.452  29.059  1.00  0.00     0.009 A 
ATOM     48  C   UNL A   1      48.576  25.770  31.319  1.00  0.00     0.009 A 
ATOM     49  C   UNL A   1      50.402  26.015  29.230  1.00  0.00     0.001 A 
ATOM     50  C   UNL A   1      49.900  25.364  31.499  1.00  0.00     0.001 A 
ATOM     51  C   UNL A   1      50.810  25.476  30.450  1.00  0.00     0.000 A 
ENDBRANCH  27  46
BRANCH  39  52
ATOM     52  C   UNL A   1      44.750  32.316  31.125  1.00  0.00    -0.014 A 
ATOM     53  C   UNL A   1      44.869  32.587  32.496  1.00  0.00     0.009 A 
ATOM     54  C   UNL A   1      45.110  33.304  30.196  1.00  0.00     0.009 A 
ATOM     55  C   UNL A   1      45.312  33.837  32.928  1.00  0.00     0.001 A 
ATOM     56  C   UNL A   1      45.579  34.543  30.631  1.00  0.00     0.001 A 
ATOM     57  C   UNL A   1      45.672  34.811  31.996  1.00  0.00     0.000 A 
ENDBRANCH  39  52
ENDBRANCH  13  14
ENDBRANCH   6   8
ENDBRANCH   5   6
ENDBRANCH   4   5
ENDBRANCH   3   4
ENDBRANCH   2   3
ENDBRANCH   1   2
BRANCH   1  58
ATOM     58  C   UNL A   1      45.745  22.044  24.954  1.00  0.00     0.261 C 
BRANCH  58  59
ATOM     59  O   UNL A   1      45.189  23.321  24.604  1.00  0.00    -0.460 OA
BRANCH  59  60
ATOM     60  C   UNL A   1      46.069  24.349  24.686  1.00  0.00     0.339 C 
ATOM     61  O   UNL A   1      47.206  24.390  24.244  1.00  0.00    -0.246 OA
BRANCH  60  62
ATOM     62  C   UNL A   1      45.346  25.524  25.187  1.00  0.00     0.078 A 
ATOM     63  C   UNL A   1      43.987  25.754  24.965  1.00  0.00     0.019 A 
ATOM     64  C   UNL A   1      46.085  26.495  25.837  1.00  0.00     0.127 A 
ATOM     65  C   UNL A   1      43.416  26.948  25.409  1.00  0.00     0.026 A 
ATOM     66  N   UNL A   1      45.559  27.661  26.266  1.00  0.00    -0.259 NA
ATOM     67  C   UNL A   1      44.226  27.875  26.060  1.00  0.00     0.059 A 
BRANCH  67  68
ATOM     68  C   UNL A   1      43.666  29.180  26.605  1.00  0.00     0.169 C 
BRANCH  68  69
ATOM     69  N   UNL A   1      44.746  29.874  27.292  1.00  0.00    -0.379 N 
ATOM     70  H   UNL A   1      45.270  29.380  27.964  1.00  0.00     0.160 HD
BRANCH  69  71
ATOM     71  C   UNL A   1      45.069  31.194  27.042  1.00  0.00     0.034 A 
ATOM     72  C   UNL A   1      46.421  31.566  27.073  1.00  0.00     0.025 A 
ATOM     73  C   UNL A   1      44.119  32.183  26.783  1.00  0.00     0.025 A 
ATOM     74  C   UNL A   1      46.819  32.876  26.808  1.00  0.00     0.002 A 
ATOM     75  C   UNL A   1      44.512  33.501  26.526  1.00  0.00     0.002 A 
ATOM     76  C   UNL A   1      45.862  33.845  26.530  1.00  0.00     0.000 A 
ENDBRANCH  69  71
ENDBRANCH  68  69
ENDBRANCH  67  68
ENDBRANCH  60  62
ENDBRANCH  59  60
ENDBRANCH  58  59
ENDBRANCH   1  58
TORSDOF 17
ENDMDL
MODEL 2
REMARK VINA RESULT:      -7.6      3.931      8.870
REMARK SMILES O=C(OCCOCCOC(=O)c1ccc(CNc2ccccc2)nc1)c1ccc(-c2c3nc(c(-c4ccccc4)c4ccc([nH]4)c(-c4ccccc4)c4nc(c(-c5ccccc5)c5ccc2[nH]5)C=C4)C=C3)cc1
REMARK SMILES IDX 7 1 6 2 5 3 4 4 3 5 2 6 1 7 26 8 27 9 73 10 28 11 72 12
REMARK SMILES IDX 29 13 30 14 31 15 66 16 32 17 71 18 65 19 67 20 33 21 70 22
REMARK SMILES IDX 64 23 63 24 34 26 56 27 41 28 55 29 42 30 45 31 54 32 68 33
REMARK SMILES IDX 43 34 44 35 53 37 69 38 46 39 35 40 36 41 40 42 37 43 39 44
REMARK SMILES IDX 38 45 57 46 58 47 62 48 59 49 61 50 60 51 47 52 48 53 52 54
REMARK SMILES IDX 49 55 51 56 50 57 8 58 9 59 10 60 11 61 12 62 13 63 25 64
REMARK SMILES IDX 14 65 24 66 15 67 16 68 17 69 18 71 19 72 23 73 20 74 22 75
REMARK SMILES IDX 21 76
REMARK H PARENT 67 25 45 36 17 70
REMARK Flexibility Score: inf
ROOT
ATOM      1  C   UNL A   1      46.295  19.574  25.256  1.00  0.00     0.202 C 
ENDROOT
BRANCH   1   2
ATOM      2  O   UNL A   1      45.637  20.397  24.282  1.00  0.00    -0.374 OA
BRANCH   2   3
ATOM      3  C   UNL A   1      45.882  21.802  24.397  1.00  0.00     0.202 C 
BRANCH   3   4
ATOM      4  C   UNL A   1      44.807  22.692  23.763  1.00  0.00     0.261 C 
BRANCH   4   5
ATOM      5  O   UNL A   1      44.246  23.581  24.747  1.00  0.00    -0.460 OA
BRANCH   5   6
ATOM      6  C   UNL A   1      44.714  24.778  25.170  1.00  0.00     0.338 C 
ATOM      7  O   UNL A   1      45.707  25.252  24.621  1.00  0.00    -0.246 OA
BRANCH   6   8
ATOM      8  C   UNL A   1      44.091  25.565  26.278  1.00  0.00     0.060 A 
ATOM      9  C   UNL A   1      44.281  26.931  26.485  1.00  0.00     0.016 A 
ATOM     10  C   UNL A   1      43.174  24.893  27.104  1.00  0.00     0.016 A 
ATOM     11  C   UNL A   1      43.654  27.600  27.526  1.00  0.00     0.010 A 
ATOM     12  C   UNL A   1      42.493  25.570  28.122  1.00  0.00     0.010 A 
ATOM     13  C   UNL A   1      42.751  26.926  28.344  1.00  0.00    -0.014 A 
BRANCH  13  14
ATOM     14  C   UNL A   1      42.157  27.669  29.467  1.00  0.00     0.031 A 
ATOM     15  C   UNL A   1      42.913  27.750  30.756  1.00  0.00     0.074 A 
ATOM     16  C   UNL A   1      41.029  28.375  29.266  1.00  0.00     0.049 A 
ATOM     17  N   UNL A   1      42.594  28.360  31.864  1.00  0.00    -0.248 NA
ATOM     18  C   UNL A   1      44.216  27.062  30.796  1.00  0.00     0.031 C 
ATOM     19  C   UNL A   1      40.295  28.448  27.999  1.00  0.00     0.029 A 
ATOM     20  N   UNL A   1      40.328  29.198  30.105  1.00  0.00    -0.354 N 
ATOM     21  C   UNL A   1      43.642  28.114  32.740  1.00  0.00     0.074 A 
ATOM     22  C   UNL A   1      44.604  27.292  32.041  1.00  0.00     0.031 C 
ATOM     23  C   UNL A   1      39.269  29.302  28.137  1.00  0.00     0.029 A 
ATOM     24  C   UNL A   1      39.234  29.780  29.514  1.00  0.00     0.049 A 
ATOM     25  H   UNL A   1      40.584  29.357  31.043  1.00  0.00     0.167 HD
ATOM     26  C   UNL A   1      43.778  28.530  34.020  1.00  0.00     0.031 A 
ATOM     27  C   UNL A   1      38.297  30.588  30.042  1.00  0.00     0.031 A 
ATOM     28  C   UNL A   1      42.794  29.329  34.698  1.00  0.00     0.049 A 
ATOM     29  C   UNL A   1      38.420  30.952  31.495  1.00  0.00     0.074 A 
ATOM     30  C   UNL A   1      42.776  29.751  36.014  1.00  0.00     0.029 A 
ATOM     31  N   UNL A   1      41.646  29.826  34.097  1.00  0.00    -0.354 N 
ATOM     32  N   UNL A   1      39.380  30.656  32.341  1.00  0.00    -0.248 NA
ATOM     33  C   UNL A   1      37.328  31.746  32.072  1.00  0.00     0.031 C 
ATOM     34  C   UNL A   1      41.591  30.466  36.220  1.00  0.00     0.029 A 
ATOM     35  C   UNL A   1      40.900  30.536  35.020  1.00  0.00     0.049 A 
ATOM     36  H   UNL A   1      41.399  29.693  33.154  1.00  0.00     0.167 HD
ATOM     37  C   UNL A   1      39.015  31.236  33.546  1.00  0.00     0.074 A 
ATOM     38  C   UNL A   1      37.757  31.922  33.314  1.00  0.00     0.031 C 
ATOM     39  C   UNL A   1      39.652  31.202  34.744  1.00  0.00     0.031 A 
BRANCH  26  40
ATOM     40  C   UNL A   1      44.987  28.046  34.765  1.00  0.00    -0.014 A 
ATOM     41  C   UNL A   1      46.257  28.610  34.556  1.00  0.00     0.009 A 
ATOM     42  C   UNL A   1      44.860  26.973  35.660  1.00  0.00     0.009 A 
ATOM     43  C   UNL A   1      47.379  28.079  35.197  1.00  0.00     0.001 A 
ATOM     44  C   UNL A   1      45.980  26.461  36.319  1.00  0.00     0.001 A 
ATOM     45  C   UNL A   1      47.239  27.006  36.078  1.00  0.00     0.000 A 
ENDBRANCH  26  40
BRANCH  27  46
ATOM     46  C   UNL A   1      37.147  31.051  29.218  1.00  0.00    -0.014 A 
ATOM     47  C   UNL A   1      37.090  32.362  28.725  1.00  0.00     0.009 A 
ATOM     48  C   UNL A   1      36.086  30.176  28.929  1.00  0.00     0.009 A 
ATOM     49  C   UNL A   1      35.988  32.792  27.980  1.00  0.00     0.001 A 
ATOM     50  C   UNL A   1      35.001  30.597  28.158  1.00  0.00     0.001 A 
ATOM     51  C   UNL A   1      34.947  31.909  27.693  1.00  0.00     0.000 A 
ENDBRANCH  27  46
BRANCH  39  52
ATOM     52  C   UNL A   1      39.006  31.951  35.871  1.00  0.00    -0.014 A 
ATOM     53  C   UNL A   1      39.172  33.337  36.011  1.00  0.00     0.009 A 
ATOM     54  C   UNL A   1      38.184  31.262  36.776  1.00  0.00     0.009 A 
ATOM     55  C   UNL A   1      38.549  34.014  37.059  1.00  0.00     0.001 A 
ATOM     56  C   UNL A   1      37.542  31.948  37.806  1.00  0.00     0.001 A 
ATOM     57  C   UNL A   1      37.731  33.321  37.952  1.00  0.00     0.000 A 
ENDBRANCH  39  52
ENDBRANCH  13  14
ENDBRANCH   6   8
ENDBRANCH   5   6
ENDBRANCH   4   5
ENDBRANCH   3   4
ENDBRANCH   2   3
ENDBRANCH   1   2
BRANCH   1  58
ATOM     58  C   UNL A   1      45.517  18.267  25.439  1.00  0.00     0.261 C 
BRANCH  58  59
ATOM     59  O   UNL A   1      44.143  18.517  25.106  1.00  0.00    -0.460 OA
BRANCH  59  60
ATOM     60  C   UNL A   1      43.281  18.334  26.137  1.00  0.00     0.339 C 
ATOM     61  O   UNL A   1      43.340  17.486  27.012  1.00  0.00    -0.246 OA
BRANCH  60  62
ATOM     62  C   UNL A   1      42.378  19.490  26.181  1.00  0.00     0.078 A 
ATOM     63  C   UNL A   1      42.801  20.800  26.414  1.00  0.00     0.019 A 
ATOM     64  C   UNL A   1      41.022  19.241  26.077  1.00  0.00     0.127 A 
ATOM     65  C   UNL A   1      41.850  21.815  26.526  1.00  0.00     0.026 A 
ATOM     66  N   UNL A   1      40.082  20.203  26.192  1.00  0.00    -0.259 NA
ATOM     67  C   UNL A   1      40.503  21.485  26.404  1.00  0.00     0.059 A 
BRANCH  67  68
ATOM     68  C   UNL A   1      39.412  22.544  26.476  1.00  0.00     0.169 C 
BRANCH  68  69
ATOM     69  N   UNL A   1      38.515  22.334  25.348  1.00  0.00    -0.379 N 
ATOM     70  H   UNL A   1      38.906  22.133  24.467  1.00  0.00     0.160 HD
BRANCH  69  71
ATOM     71  C   UNL A   1      37.139  22.403  25.460  1.00  0.00     0.034 A 
ATOM     72  C   UNL A   1      36.551  23.659  25.667  1.00  0.00     0.025 A 
ATOM     73  C   UNL A   1      36.306  21.285  25.401  1.00  0.00     0.025 A 
ATOM     74  C   UNL A   1      35.168  23.804  25.766  1.00  0.00     0.002 A 
ATOM     75  C   UNL A   1      34.918  21.424  25.510  1.00  0.00     0.002 A 
ATOM     76  C   UNL A   1      34.348  22.684  25.684  1.00  0.00     0.000 A 
ENDBRANCH  69  71
ENDBRANCH  68  69
ENDBRANCH  67  68
ENDBRANCH  60  62
ENDBRANCH  59  60
ENDBRANCH  58  59
ENDBRANCH   1  58
TORSDOF 17
ENDMDL
MODEL 3
REMARK VINA RESULT:      -7.4      7.184     12.457
REMARK SMILES O=C(OCCOCCOC(=O)c1ccc(CNc2ccccc2)nc1)c1ccc(-c2c3nc(c(-c4ccccc4)c4ccc([nH]4)c(-c4ccccc4)c4nc(c(-c5ccccc5)c5ccc2[nH]5)C=C4)C=C3)cc1
REMARK SMILES IDX 7 1 6 2 5 3 4 4 3 5 2 6 1 7 26 8 27 9 73 10 28 11 72 12
REMARK SMILES IDX 29 13 30 14 31 15 66 16 32 17 71 18 65 19 67 20 33 21 70 22
REMARK SMILES IDX 64 23 63 24 34 26 56 27 41 28 55 29 42 30 45 31 54 32 68 33
REMARK SMILES IDX 43 34 44 35 53 37 69 38 46 39 35 40 36 41 40 42 37 43 39 44
REMARK SMILES IDX 38 45 57 46 58 47 62 48 59 49 61 50 60 51 47 52 48 53 52 54
REMARK SMILES IDX 49 55 51 56 50 57 8 58 9 59 10 60 11 61 12 62 13 63 25 64
REMARK SMILES IDX 14 65 24 66 15 67 16 68 17 69 18 71 19 72 23 73 20 74 22 75
REMARK SMILES IDX 21 76
REMARK H PARENT 67 25 45 36 17 70
REMARK Flexibility Score: inf
ROOT
ATOM      1  C   UNL A   1      35.096  33.994  28.009  1.00  0.00     0.202 C 
ENDROOT
BRANCH   1   2
ATOM      2  O   UNL A   1      34.402  35.222  28.271  1.00  0.00    -0.374 OA
BRANCH   2   3
ATOM      3  C   UNL A   1      33.382  35.151  29.272  1.00  0.00     0.202 C 
BRANCH   3   4
ATOM      4  C   UNL A   1      32.905  36.510  29.796  1.00  0.00     0.261 C 
BRANCH   4   5
ATOM      5  O   UNL A   1      32.839  36.498  31.234  1.00  0.00    -0.460 OA
BRANCH   5   6
ATOM      6  C   UNL A   1      32.880  35.437  32.074  1.00  0.00     0.338 C 
ATOM      7  O   UNL A   1      31.823  35.006  32.533  1.00  0.00    -0.246 OA
BRANCH   6   8
ATOM      8  C   UNL A   1      34.145  34.755  32.483  1.00  0.00     0.060 A 
ATOM      9  C   UNL A   1      35.415  35.324  32.400  1.00  0.00     0.016 A 
ATOM     10  C   UNL A   1      34.026  33.490  33.084  1.00  0.00     0.016 A 
ATOM     11  C   UNL A   1      36.546  34.637  32.817  1.00  0.00     0.010 A 
ATOM     12  C   UNL A   1      35.154  32.811  33.559  1.00  0.00     0.010 A 
ATOM     13  C   UNL A   1      36.421  33.382  33.405  1.00  0.00    -0.014 A 
BRANCH  13  14
ATOM     14  C   UNL A   1      37.656  32.672  33.778  1.00  0.00     0.031 A 
ATOM     15  C   UNL A   1      38.269  31.729  32.791  1.00  0.00     0.074 A 
ATOM     16  C   UNL A   1      38.280  32.996  34.926  1.00  0.00     0.049 A 
ATOM     17  N   UNL A   1      39.356  31.016  32.896  1.00  0.00    -0.248 NA
ATOM     18  C   UNL A   1      37.569  31.582  31.502  1.00  0.00     0.031 C 
ATOM     19  C   UNL A   1      37.810  33.998  35.887  1.00  0.00     0.029 A 
ATOM     20  N   UNL A   1      39.460  32.552  35.457  1.00  0.00    -0.354 N 
ATOM     21  C   UNL A   1      39.461  30.319  31.700  1.00  0.00     0.074 A 
ATOM     22  C   UNL A   1      38.325  30.687  30.885  1.00  0.00     0.031 C 
ATOM     23  C   UNL A   1      38.715  34.118  36.871  1.00  0.00     0.029 A 
ATOM     24  C   UNL A   1      39.788  33.157  36.645  1.00  0.00     0.049 A 
ATOM     25  H   UNL A   1      40.021  31.865  35.028  1.00  0.00     0.167 HD
ATOM     26  C   UNL A   1      40.420  29.441  31.325  1.00  0.00     0.031 A 
ATOM     27  C   UNL A   1      40.829  32.934  37.467  1.00  0.00     0.031 A 
ATOM     28  C   UNL A   1      41.528  29.076  32.164  1.00  0.00     0.049 A 
ATOM     29  C   UNL A   1      41.824  31.879  37.072  1.00  0.00     0.074 A 
ATOM     30  C   UNL A   1      42.522  28.144  31.933  1.00  0.00     0.029 A 
ATOM     31  N   UNL A   1      41.781  29.639  33.408  1.00  0.00    -0.354 N 
ATOM     32  N   UNL A   1      41.880  31.170  35.968  1.00  0.00    -0.248 NA
ATOM     33  C   UNL A   1      42.890  31.581  38.037  1.00  0.00     0.031 C 
ATOM     34  C   UNL A   1      43.351  28.112  33.060  1.00  0.00     0.029 A 
ATOM     35  C   UNL A   1      42.906  29.062  33.967  1.00  0.00     0.049 A 
ATOM     36  H   UNL A   1      41.240  30.346  33.828  1.00  0.00     0.167 HD
ATOM     37  C   UNL A   1      42.991  30.351  36.100  1.00  0.00     0.074 A 
ATOM     38  C   UNL A   1      43.593  30.670  37.380  1.00  0.00     0.031 C 
ATOM     39  C   UNL A   1      43.470  29.411  35.246  1.00  0.00     0.031 A 
BRANCH  26  40
ATOM     40  C   UNL A   1      40.240  28.770  29.995  1.00  0.00    -0.014 A 
ATOM     41  C   UNL A   1      40.746  29.332  28.811  1.00  0.00     0.009 A 
ATOM     42  C   UNL A   1      39.510  27.574  29.920  1.00  0.00     0.009 A 
ATOM     43  C   UNL A   1      40.486  28.731  27.577  1.00  0.00     0.001 A 
ATOM     44  C   UNL A   1      39.274  26.961  28.687  1.00  0.00     0.001 A 
ATOM     45  C   UNL A   1      39.751  27.547  27.517  1.00  0.00     0.000 A 
ENDBRANCH  26  40
BRANCH  27  46
ATOM     46  C   UNL A   1      40.947  33.672  38.754  1.00  0.00    -0.014 A 
ATOM     47  C   UNL A   1      41.670  34.872  38.838  1.00  0.00     0.009 A 
ATOM     48  C   UNL A   1      40.341  33.169  39.918  1.00  0.00     0.009 A 
ATOM     49  C   UNL A   1      41.799  35.538  40.061  1.00  0.00     0.001 A 
ATOM     50  C   UNL A   1      40.445  33.852  41.131  1.00  0.00     0.001 A 
ATOM     51  C   UNL A   1      41.183  35.030  41.205  1.00  0.00     0.000 A 
ENDBRANCH  27  46
BRANCH  39  52
ATOM     52  C   UNL A   1      44.717  28.693  35.669  1.00  0.00    -0.014 A 
ATOM     53  C   UNL A   1      45.987  29.198  35.356  1.00  0.00     0.009 A 
ATOM     54  C   UNL A   1      44.613  27.518  36.430  1.00  0.00     0.009 A 
ATOM     55  C   UNL A   1      47.133  28.520  35.772  1.00  0.00     0.001 A 
ATOM     56  C   UNL A   1      45.761  26.859  36.867  1.00  0.00     0.001 A 
ATOM     57  C   UNL A   1      47.019  27.355  36.531  1.00  0.00     0.000 A 
ENDBRANCH  39  52
ENDBRANCH  13  14
ENDBRANCH   6   8
ENDBRANCH   5   6
ENDBRANCH   4   5
ENDBRANCH   3   4
ENDBRANCH   2   3
ENDBRANCH   1   2
BRANCH   1  58
ATOM     58  C   UNL A   1      34.943  33.047  29.204  1.00  0.00     0.261 C 
BRANCH  58  59
ATOM     59  O   UNL A   1      34.272  31.862  28.749  1.00  0.00    -0.460 OA
BRANCH  59  60
ATOM     60  C   UNL A   1      35.062  31.014  28.047  1.00  0.00     0.339 C 
ATOM     61  O   UNL A   1      36.268  30.863  28.153  1.00  0.00    -0.246 OA
BRANCH  60  62
ATOM     62  C   UNL A   1      34.191  30.108  27.288  1.00  0.00     0.078 A 
ATOM     63  C   UNL A   1      34.629  28.923  26.694  1.00  0.00     0.019 A 
ATOM     64  C   UNL A   1      32.886  30.511  27.077  1.00  0.00     0.127 A 
ATOM     65  C   UNL A   1      33.740  28.179  25.917  1.00  0.00     0.026 A 
ATOM     66  N   UNL A   1      32.009  29.816  26.322  1.00  0.00    -0.259 NA
ATOM     67  C   UNL A   1      32.439  28.649  25.757  1.00  0.00     0.059 A 
BRANCH  67  68
ATOM     68  C   UNL A   1      31.403  27.872  24.957  1.00  0.00     0.169 C 
BRANCH  68  69
ATOM     69  N   UNL A   1      31.130  28.623  23.739  1.00  0.00    -0.379 N 
ATOM     70  H   UNL A   1      31.826  28.663  23.044  1.00  0.00     0.160 HD
BRANCH  69  71
ATOM     71  C   UNL A   1      29.936  29.283  23.516  1.00  0.00     0.034 A 
ATOM     72  C   UNL A   1      28.858  28.551  22.998  1.00  0.00     0.025 A 
ATOM     73  C   UNL A   1      29.753  30.645  23.758  1.00  0.00     0.025 A 
ATOM     74  C   UNL A   1      27.619  29.149  22.771  1.00  0.00     0.002 A 
ATOM     75  C   UNL A   1      28.515  31.252  23.522  1.00  0.00     0.002 A 
ATOM     76  C   UNL A   1      27.446  30.502  23.036  1.00  0.00     0.000 A 
ENDBRANCH  69  71
ENDBRANCH  68  69
ENDBRANCH  67  68
ENDBRANCH  60  62
ENDBRANCH  59  60
ENDBRANCH  58  59
ENDBRANCH   1  58
TORSDOF 17
ENDMDL
