MODEL 1
REMARK VINA RESULT:     -11.3      0.000      0.000
REMARK SMILES O=C1C[C@H](c2cn[nH]c2C(=O)OCCOCCOC(=O)c2ccc(-c3c4nc(c(-c5ccccc5)c5ccc([nH]5)c(-c5ccccc5)c5nc(c(-c6ccccc6)c6ccc3[nH]6)C=C5)C=C4)cc2)c2c(-c3cccs3)n[nH]c2N1
REMARK SMILES IDX 15 1 14 2 13 3 12 4 10 5 11 6 9 7 5 8 6 9 7 10 8 11 4 13
REMARK SMILES IDX 1 14 2 15 3 16 79 17 78 18 69 20 77 21 70 22 76 23 71 25
REMARK SMILES IDX 72 26 75 27 73 28 74 29 16 30 17 31 18 32 19 33 20 34 21 35
REMARK SMILES IDX 22 36 68 37 23 38 67 39 24 40 25 41 26 42 61 43 27 44 66 45
REMARK SMILES IDX 60 46 62 47 28 48 65 49 59 50 58 51 29 53 51 54 36 55 50 56
REMARK SMILES IDX 37 57 40 58 49 59 63 60 38 61 39 62 48 64 64 65 41 66 30 67
REMARK SMILES IDX 31 68 35 69 32 70 34 71 33 72 52 73 53 74 57 75 54 76 56 77
REMARK SMILES IDX 55 78 42 79 43 80 47 81 44 82 46 83 45 84
REMARK H PARENT 8 12 79 19 77 24 62 52 40 63
REMARK Flexibility Score: inf
ROOT
ATOM      1  O   UNL A   1      33.023  28.502  27.304  1.00  0.00    -0.374 OA
ENDROOT
BRANCH   1   2
ATOM      2  C   UNL A   1      33.516  27.973  26.069  1.00  0.00     0.202 C 
BRANCH   2   3
ATOM      3  C   UNL A   1      33.579  26.453  25.973  1.00  0.00     0.261 C 
BRANCH   3   4
ATOM      4  O   UNL A   1      34.690  26.028  25.154  1.00  0.00    -0.459 OA
BRANCH   4   5
ATOM      5  C   UNL A   1      34.482  24.887  24.450  1.00  0.00     0.356 C 
ATOM      6  O   UNL A   1      34.801  23.769  24.830  1.00  0.00    -0.244 OA
BRANCH   5   7
ATOM      7  C   UNL A   1      33.656  25.097  23.287  1.00  0.00     0.147 A 
ATOM      8  C   UNL A   1      32.395  24.732  22.808  1.00  0.00     0.013 A 
ATOM      9  C   UNL A   1      32.296  25.469  21.586  1.00  0.00     0.140 A 
ATOM     10  N   UNL A   1      33.388  26.162  21.287  1.00  0.00    -0.183 NA
ATOM     11  N   UNL A   1      34.176  25.948  22.339  1.00  0.00    -0.271 N 
ATOM     12  H   UNL A   1      35.062  26.367  22.431  1.00  0.00     0.190 HD
BRANCH   8  13
ATOM     13  C   UNL A   1      31.214  23.932  23.341  1.00  0.00     0.069 C 
ATOM     14  O   UNL A   1      32.530  20.716  24.667  1.00  0.00    -0.275 OA
ATOM     15  C   UNL A   1      31.900  21.774  24.645  1.00  0.00     0.226 C 
ATOM     16  C   UNL A   1      31.479  22.405  23.328  1.00  0.00     0.114 C 
ATOM     17  N   UNL A   1      31.454  22.341  25.815  1.00  0.00    -0.311 N 
ATOM     18  C   UNL A   1      30.866  23.569  25.784  1.00  0.00     0.132 A 
ATOM     19  H   UNL A   1      31.557  21.863  26.669  1.00  0.00     0.171 HD
ATOM     20  C   UNL A   1      30.689  24.335  24.666  1.00  0.00     0.031 A 
ATOM     21  N   UNL A   1      30.406  24.288  26.842  1.00  0.00    -0.262 N 
ATOM     22  C   UNL A   1      29.996  25.475  25.133  1.00  0.00     0.108 A 
ATOM     23  N   UNL A   1      29.900  25.483  26.473  1.00  0.00    -0.173 NA
ATOM     24  H   UNL A   1      30.439  23.972  27.774  1.00  0.00     0.192 HD
BRANCH  22  25
ATOM     25  C   UNL A   1      29.568  26.615  24.273  1.00  0.00     0.055 A 
ATOM     26  C   UNL A   1      28.289  26.770  23.789  1.00  0.00     0.022 A 
ATOM     27  S   UNL A   1      30.577  27.930  23.869  1.00  0.00    -0.142 S 
ATOM     28  C   UNL A   1      28.110  28.050  23.186  1.00  0.00     0.012 A 
ATOM     29  C   UNL A   1      29.289  28.756  23.113  1.00  0.00     0.065 A 
ENDBRANCH  22  25
ENDBRANCH   8  13
ENDBRANCH   5   7
ENDBRANCH   4   5
ENDBRANCH   3   4
ENDBRANCH   2   3
ENDBRANCH   1   2
BRANCH   1  30
ATOM     30  C   UNL A   1      31.809  29.244  27.300  1.00  0.00     0.202 C 
BRANCH  30  31
ATOM     31  C   UNL A   1      31.893  30.671  26.799  1.00  0.00     0.261 C 
BRANCH  31  32
ATOM     32  O   UNL A   1      33.066  31.303  27.266  1.00  0.00    -0.460 OA
BRANCH  32  33
ATOM     33  C   UNL A   1      32.914  32.583  27.675  1.00  0.00     0.338 C 
ATOM     34  O   UNL A   1      32.025  33.364  27.412  1.00  0.00    -0.246 OA
BRANCH  33  35
ATOM     35  C   UNL A   1      34.149  32.918  28.385  1.00  0.00     0.060 A 
ATOM     36  C   UNL A   1      35.130  33.672  27.743  1.00  0.00     0.016 A 
ATOM     37  C   UNL A   1      34.405  32.233  29.580  1.00  0.00     0.016 A 
ATOM     38  C   UNL A   1      36.430  33.535  28.185  1.00  0.00     0.010 A 
ATOM     39  C   UNL A   1      35.665  32.185  30.077  1.00  0.00     0.010 A 
ATOM     40  C   UNL A   1      36.667  32.689  29.274  1.00  0.00    -0.014 A 
BRANCH  40  41
ATOM     41  C   UNL A   1      37.984  32.200  29.576  1.00  0.00     0.031 A 
ATOM     42  C   UNL A   1      38.137  30.769  29.289  1.00  0.00     0.074 A 
ATOM     43  C   UNL A   1      38.990  33.055  29.856  1.00  0.00     0.049 A 
ATOM     44  N   UNL A   1      38.128  29.808  30.146  1.00  0.00    -0.248 NA
ATOM     45  C   UNL A   1      38.042  30.337  27.885  1.00  0.00     0.031 C 
ATOM     46  C   UNL A   1      39.015  34.523  29.792  1.00  0.00     0.029 A 
ATOM     47  N   UNL A   1      40.273  32.754  30.152  1.00  0.00    -0.354 N 
ATOM     48  C   UNL A   1      38.277  28.654  29.394  1.00  0.00     0.074 A 
ATOM     49  C   UNL A   1      37.954  29.015  28.038  1.00  0.00     0.031 C 
ATOM     50  C   UNL A   1      40.301  34.952  29.806  1.00  0.00     0.029 A 
ATOM     51  C   UNL A   1      41.165  33.809  30.043  1.00  0.00     0.049 A 
ATOM     52  H   UNL A   1      40.554  31.851  30.425  1.00  0.00     0.167 HD
ATOM     53  C   UNL A   1      38.952  27.584  29.892  1.00  0.00     0.031 A 
ATOM     54  C   UNL A   1      42.516  33.705  30.091  1.00  0.00     0.031 A 
ATOM     55  C   UNL A   1      39.199  27.736  31.306  1.00  0.00     0.049 A 
ATOM     56  C   UNL A   1      42.826  32.384  30.700  1.00  0.00     0.074 A 
ATOM     57  C   UNL A   1      38.395  27.867  32.420  1.00  0.00     0.029 A 
ATOM     58  N   UNL A   1      40.436  28.226  31.666  1.00  0.00    -0.354 N 
ATOM     59  N   UNL A   1      42.539  32.085  31.936  1.00  0.00    -0.248 NA
ATOM     60  C   UNL A   1      42.972  31.242  29.806  1.00  0.00     0.031 C 
ATOM     61  C   UNL A   1      39.044  28.846  33.229  1.00  0.00     0.029 A 
ATOM     62  C   UNL A   1      40.249  29.200  32.615  1.00  0.00     0.049 A 
ATOM     63  H   UNL A   1      41.303  27.930  31.306  1.00  0.00     0.167 HD
ATOM     64  C   UNL A   1      42.044  30.786  31.888  1.00  0.00     0.074 A 
ATOM     65  C   UNL A   1      42.420  30.288  30.564  1.00  0.00     0.031 C 
ATOM     66  C   UNL A   1      41.116  30.349  32.792  1.00  0.00     0.031 A 
BRANCH  53  67
ATOM     67  C   UNL A   1      39.758  26.640  29.041  1.00  0.00    -0.014 A 
ATOM     68  C   UNL A   1      41.006  27.077  28.568  1.00  0.00     0.009 A 
ATOM     69  C   UNL A   1      39.244  25.460  28.471  1.00  0.00     0.009 A 
ATOM     70  C   UNL A   1      41.662  26.414  27.525  1.00  0.00     0.001 A 
ATOM     71  C   UNL A   1      39.913  24.770  27.459  1.00  0.00     0.001 A 
ATOM     72  C   UNL A   1      41.109  25.266  26.965  1.00  0.00     0.000 A 
ENDBRANCH  53  67
BRANCH  54  73
ATOM     73  C   UNL A   1      43.524  34.504  29.358  1.00  0.00    -0.014 A 
ATOM     74  C   UNL A   1      43.669  34.394  27.967  1.00  0.00     0.009 A 
ATOM     75  C   UNL A   1      44.170  35.580  29.997  1.00  0.00     0.009 A 
ATOM     76  C   UNL A   1      44.407  35.341  27.240  1.00  0.00     0.001 A 
ATOM     77  C   UNL A   1      44.905  36.526  29.273  1.00  0.00     0.001 A 
ATOM     78  C   UNL A   1      45.013  36.414  27.891  1.00  0.00     0.000 A 
ENDBRANCH  54  73
BRANCH  66  79
ATOM     79  C   UNL A   1      40.784  31.250  33.961  1.00  0.00    -0.014 A 
ATOM     80  C   UNL A   1      41.431  31.168  35.208  1.00  0.00     0.009 A 
ATOM     81  C   UNL A   1      39.925  32.334  33.732  1.00  0.00     0.009 A 
ATOM     82  C   UNL A   1      41.211  32.135  36.197  1.00  0.00     0.001 A 
ATOM     83  C   UNL A   1      39.722  33.310  34.711  1.00  0.00     0.001 A 
ATOM     84  C   UNL A   1      40.362  33.209  35.944  1.00  0.00     0.000 A 
ENDBRANCH  66  79
ENDBRANCH  40  41
ENDBRANCH  33  35
ENDBRANCH  32  33
ENDBRANCH  31  32
ENDBRANCH  30  31
ENDBRANCH   1  30
TORSDOF 16
ENDMDL
MODEL 2
REMARK VINA RESULT:     -11.2      2.277      6.430
REMARK SMILES O=C1C[C@H](c2cn[nH]c2C(=O)OCCOCCOC(=O)c2ccc(-c3c4nc(c(-c5ccccc5)c5ccc([nH]5)c(-c5ccccc5)c5nc(c(-c6ccccc6)c6ccc3[nH]6)C=C5)C=C4)cc2)c2c(-c3cccs3)n[nH]c2N1
REMARK SMILES IDX 15 1 14 2 13 3 12 4 10 5 11 6 9 7 5 8 6 9 7 10 8 11 4 13
REMARK SMILES IDX 1 14 2 15 3 16 79 17 78 18 69 20 77 21 70 22 76 23 71 25
REMARK SMILES IDX 72 26 75 27 73 28 74 29 16 30 17 31 18 32 19 33 20 34 21 35
REMARK SMILES IDX 22 36 68 37 23 38 67 39 24 40 25 41 26 42 61 43 27 44 66 45
REMARK SMILES IDX 60 46 62 47 28 48 65 49 59 50 58 51 29 53 51 54 36 55 50 56
REMARK SMILES IDX 37 57 40 58 49 59 63 60 38 61 39 62 48 64 64 65 41 66 30 67
REMARK SMILES IDX 31 68 35 69 32 70 34 71 33 72 52 73 53 74 57 75 54 76 56 77
REMARK SMILES IDX 55 78 42 79 43 80 47 81 44 82 46 83 45 84
REMARK H PARENT 8 12 79 19 77 24 62 52 40 63
REMARK Flexibility Score: inf
ROOT
ATOM      1  O   UNL A   1      34.390  32.767  28.403  1.00  0.00    -0.374 OA
ENDROOT
BRANCH   1   2
ATOM      2  C   UNL A   1      33.420  32.042  27.639  1.00  0.00     0.202 C 
BRANCH   2   3
ATOM      3  C   UNL A   1      33.655  30.541  27.516  1.00  0.00     0.261 C 
BRANCH   3   4
ATOM      4  O   UNL A   1      32.406  29.828  27.378  1.00  0.00    -0.459 OA
BRANCH   4   5
ATOM      5  C   UNL A   1      32.095  29.453  26.112  1.00  0.00     0.356 C 
ATOM      6  O   UNL A   1      32.417  30.071  25.106  1.00  0.00    -0.244 OA
BRANCH   5   7
ATOM      7  C   UNL A   1      31.517  28.135  26.052  1.00  0.00     0.147 A 
ATOM      8  C   UNL A   1      30.997  27.252  25.101  1.00  0.00     0.013 A 
ATOM      9  C   UNL A   1      30.726  26.079  25.874  1.00  0.00     0.140 A 
ATOM     10  N   UNL A   1      30.973  26.221  27.170  1.00  0.00    -0.183 NA
ATOM     11  N   UNL A   1      31.477  27.451  27.246  1.00  0.00    -0.271 N 
ATOM     12  H   UNL A   1      31.798  27.842  28.091  1.00  0.00     0.190 HD
BRANCH   8  13
ATOM     13  C   UNL A   1      30.833  27.251  23.587  1.00  0.00     0.069 C 
ATOM     14  O   UNL A   1      29.420  30.546  22.598  1.00  0.00    -0.275 OA
ATOM     15  C   UNL A   1      30.180  29.577  22.592  1.00  0.00     0.226 C 
ATOM     16  C   UNL A   1      29.724  28.223  23.112  1.00  0.00     0.114 C 
ATOM     17  N   UNL A   1      31.416  29.667  21.997  1.00  0.00    -0.311 N 
ATOM     18  C   UNL A   1      32.290  28.628  22.105  1.00  0.00     0.132 A 
ATOM     19  H   UNL A   1      31.668  30.476  21.496  1.00  0.00     0.171 HD
ATOM     20  C   UNL A   1      32.062  27.468  22.790  1.00  0.00     0.031 A 
ATOM     21  N   UNL A   1      33.557  28.565  21.616  1.00  0.00    -0.262 N 
ATOM     22  C   UNL A   1      33.224  26.696  22.562  1.00  0.00     0.108 A 
ATOM     23  N   UNL A   1      34.168  27.400  21.916  1.00  0.00    -0.173 NA
ATOM     24  H   UNL A   1      33.981  29.288  21.100  1.00  0.00     0.192 HD
BRANCH  22  25
ATOM     25  C   UNL A   1      33.451  25.329  23.110  1.00  0.00     0.055 A 
ATOM     26  C   UNL A   1      33.204  24.172  22.406  1.00  0.00     0.022 A 
ATOM     27  S   UNL A   1      34.148  25.022  24.636  1.00  0.00    -0.142 S 
ATOM     28  C   UNL A   1      33.715  23.027  23.086  1.00  0.00     0.012 A 
ATOM     29  C   UNL A   1      34.201  23.342  24.334  1.00  0.00     0.065 A 
ENDBRANCH  22  25
ENDBRANCH   8  13
ENDBRANCH   5   7
ENDBRANCH   4   5
ENDBRANCH   3   4
ENDBRANCH   2   3
ENDBRANCH   1   2
BRANCH   1  30
ATOM     30  C   UNL A   1      34.527  34.167  28.191  1.00  0.00     0.202 C 
BRANCH  30  31
ATOM     31  C   UNL A   1      33.638  35.066  29.025  1.00  0.00     0.261 C 
BRANCH  31  32
ATOM     32  O   UNL A   1      33.170  34.389  30.174  1.00  0.00    -0.460 OA
BRANCH  32  33
ATOM     33  C   UNL A   1      33.340  35.046  31.344  1.00  0.00     0.338 C 
ATOM     34  O   UNL A   1      32.792  36.053  31.737  1.00  0.00    -0.246 OA
BRANCH  33  35
ATOM     35  C   UNL A   1      34.470  34.388  32.003  1.00  0.00     0.060 A 
ATOM     36  C   UNL A   1      35.535  35.155  32.474  1.00  0.00     0.016 A 
ATOM     37  C   UNL A   1      34.555  32.996  31.884  1.00  0.00     0.016 A 
ATOM     38  C   UNL A   1      36.761  34.535  32.595  1.00  0.00     0.010 A 
ATOM     39  C   UNL A   1      35.736  32.367  32.108  1.00  0.00     0.010 A 
ATOM     40  C   UNL A   1      36.841  33.173  32.286  1.00  0.00    -0.014 A 
BRANCH  40  41
ATOM     41  C   UNL A   1      38.101  32.531  32.031  1.00  0.00     0.031 A 
ATOM     42  C   UNL A   1      38.904  32.355  33.247  1.00  0.00     0.074 A 
ATOM     43  C   UNL A   1      38.355  31.958  30.836  1.00  0.00     0.049 A 
ATOM     44  N   UNL A   1      39.911  33.069  33.613  1.00  0.00    -0.248 NA
ATOM     45  C   UNL A   1      38.386  31.451  34.288  1.00  0.00     0.031 C 
ATOM     46  C   UNL A   1      37.460  31.755  29.688  1.00  0.00     0.029 A 
ATOM     47  N   UNL A   1      39.478  31.317  30.448  1.00  0.00    -0.354 N 
ATOM     48  C   UNL A   1      40.309  32.535  34.829  1.00  0.00     0.074 A 
ATOM     49  C   UNL A   1      39.200  31.747  35.302  1.00  0.00     0.031 C 
ATOM     50  C   UNL A   1      38.005  30.840  28.849  1.00  0.00     0.029 A 
ATOM     51  C   UNL A   1      39.342  30.524  29.319  1.00  0.00     0.049 A 
ATOM     52  H   UNL A   1      40.331  31.406  30.931  1.00  0.00     0.167 HD
ATOM     53  C   UNL A   1      41.620  32.530  35.189  1.00  0.00     0.031 A 
ATOM     54  C   UNL A   1      40.263  29.638  28.864  1.00  0.00     0.031 A 
ATOM     55  C   UNL A   1      42.405  33.364  34.309  1.00  0.00     0.049 A 
ATOM     56  C   UNL A   1      41.556  29.989  29.511  1.00  0.00     0.074 A 
ATOM     57  C   UNL A   1      42.400  34.706  33.988  1.00  0.00     0.029 A 
ATOM     58  N   UNL A   1      43.059  32.725  33.278  1.00  0.00    -0.354 N 
ATOM     59  N   UNL A   1      42.190  31.105  29.278  1.00  0.00    -0.248 NA
ATOM     60  C   UNL A   1      41.871  29.355  30.785  1.00  0.00     0.031 C 
ATOM     61  C   UNL A   1      42.629  34.748  32.581  1.00  0.00     0.029 A 
ATOM     62  C   UNL A   1      42.848  33.443  32.128  1.00  0.00     0.049 A 
ATOM     63  H   UNL A   1      43.587  31.897  33.353  1.00  0.00     0.167 HD
ATOM     64  C   UNL A   1      42.636  31.534  30.523  1.00  0.00     0.074 A 
ATOM     65  C   UNL A   1      42.488  30.370  31.398  1.00  0.00     0.031 C 
ATOM     66  C   UNL A   1      42.787  32.864  30.800  1.00  0.00     0.031 A 
BRANCH  53  67
ATOM     67  C   UNL A   1      42.246  31.454  36.033  1.00  0.00    -0.014 A 
ATOM     68  C   UNL A   1      43.233  31.829  36.959  1.00  0.00     0.009 A 
ATOM     69  C   UNL A   1      42.106  30.075  35.782  1.00  0.00     0.009 A 
ATOM     70  C   UNL A   1      44.085  30.882  37.537  1.00  0.00     0.001 A 
ATOM     71  C   UNL A   1      42.927  29.122  36.387  1.00  0.00     0.001 A 
ATOM     72  C   UNL A   1      43.937  29.530  37.243  1.00  0.00     0.000 A 
ENDBRANCH  53  67
BRANCH  54  73
ATOM     73  C   UNL A   1      40.033  28.342  28.188  1.00  0.00    -0.014 A 
ATOM     74  C   UNL A   1      40.687  28.020  26.990  1.00  0.00     0.009 A 
ATOM     75  C   UNL A   1      39.367  27.303  28.868  1.00  0.00     0.009 A 
ATOM     76  C   UNL A   1      40.697  26.702  26.505  1.00  0.00     0.001 A 
ATOM     77  C   UNL A   1      39.379  25.988  28.386  1.00  0.00     0.001 A 
ATOM     78  C   UNL A   1      40.057  25.686  27.209  1.00  0.00     0.000 A 
ENDBRANCH  54  73
BRANCH  66  79
ATOM     79  C   UNL A   1      42.641  33.848  29.659  1.00  0.00    -0.014 A 
ATOM     80  C   UNL A   1      41.460  34.574  29.412  1.00  0.00     0.009 A 
ATOM     81  C   UNL A   1      43.789  34.187  28.931  1.00  0.00     0.009 A 
ATOM     82  C   UNL A   1      41.432  35.597  28.455  1.00  0.00     0.001 A 
ATOM     83  C   UNL A   1      43.767  35.220  27.991  1.00  0.00     0.001 A 
ATOM     84  C   UNL A   1      42.589  35.923  27.751  1.00  0.00     0.000 A 
ENDBRANCH  66  79
ENDBRANCH  40  41
ENDBRANCH  33  35
ENDBRANCH  32  33
ENDBRANCH  31  32
ENDBRANCH  30  31
ENDBRANCH   1  30
TORSDOF 16
ENDMDL
MODEL 3
REMARK VINA RESULT:     -11.1      2.335      5.989
REMARK SMILES O=C1C[C@H](c2cn[nH]c2C(=O)OCCOCCOC(=O)c2ccc(-c3c4nc(c(-c5ccccc5)c5ccc([nH]5)c(-c5ccccc5)c5nc(c(-c6ccccc6)c6ccc3[nH]6)C=C5)C=C4)cc2)c2c(-c3cccs3)n[nH]c2N1
REMARK SMILES IDX 15 1 14 2 13 3 12 4 10 5 11 6 9 7 5 8 6 9 7 10 8 11 4 13
REMARK SMILES IDX 1 14 2 15 3 16 79 17 78 18 69 20 77 21 70 22 76 23 71 25
REMARK SMILES IDX 72 26 75 27 73 28 74 29 16 30 17 31 18 32 19 33 20 34 21 35
REMARK SMILES IDX 22 36 68 37 23 38 67 39 24 40 25 41 26 42 61 43 27 44 66 45
REMARK SMILES IDX 60 46 62 47 28 48 65 49 59 50 58 51 29 53 51 54 36 55 50 56
REMARK SMILES IDX 37 57 40 58 49 59 63 60 38 61 39 62 48 64 64 65 41 66 30 67
REMARK SMILES IDX 31 68 35 69 32 70 34 71 33 72 52 73 53 74 57 75 54 76 56 77
REMARK SMILES IDX 55 78 42 79 43 80 47 81 44 82 46 83 45 84
REMARK H PARENT 8 12 79 19 77 24 62 52 40 63
REMARK Flexibility Score: inf
ROOT
ATOM      1  O   UNL A   1      34.323  33.090  27.638  1.00  0.00    -0.374 OA
ENDROOT
BRANCH   1   2
ATOM      2  C   UNL A   1      34.445  31.670  27.760  1.00  0.00     0.202 C 
BRANCH   2   3
ATOM      3  C   UNL A   1      33.244  30.855  27.292  1.00  0.00     0.261 C 
BRANCH   3   4
ATOM      4  O   UNL A   1      33.514  30.207  26.029  1.00  0.00    -0.459 OA
BRANCH   4   5
ATOM      5  C   UNL A   1      33.811  28.886  26.113  1.00  0.00     0.356 C 
ATOM      6  O   UNL A   1      34.015  28.285  27.159  1.00  0.00    -0.244 OA
BRANCH   5   7
ATOM      7  C   UNL A   1      33.662  28.205  24.852  1.00  0.00     0.147 A 
ATOM      8  C   UNL A   1      33.105  27.026  24.348  1.00  0.00     0.013 A 
ATOM      9  C   UNL A   1      33.301  27.162  22.937  1.00  0.00     0.140 A 
ATOM     10  N   UNL A   1      33.965  28.257  22.591  1.00  0.00    -0.183 NA
ATOM     11  N   UNL A   1      34.142  28.881  23.754  1.00  0.00    -0.271 N 
ATOM     12  H   UNL A   1      34.581  29.760  23.823  1.00  0.00     0.190 HD
BRANCH   8  13
ATOM     13  C   UNL A   1      32.306  25.863  24.923  1.00  0.00     0.069 C 
ATOM     14  O   UNL A   1      28.715  26.473  24.172  1.00  0.00    -0.275 OA
ATOM     15  C   UNL A   1      29.786  25.867  24.234  1.00  0.00     0.226 C 
ATOM     16  C   UNL A   1      30.844  26.255  25.254  1.00  0.00     0.114 C 
ATOM     17  N   UNL A   1      29.996  24.745  23.468  1.00  0.00    -0.311 N 
ATOM     18  C   UNL A   1      31.225  24.159  23.458  1.00  0.00     0.132 A 
ATOM     19  H   UNL A   1      29.262  24.367  22.931  1.00  0.00     0.171 HD
ATOM     20  C   UNL A   1      32.321  24.604  24.142  1.00  0.00     0.031 A 
ATOM     21  N   UNL A   1      31.614  23.077  22.734  1.00  0.00    -0.262 N 
ATOM     22  C   UNL A   1      33.320  23.646  23.859  1.00  0.00     0.108 A 
ATOM     23  N   UNL A   1      32.911  22.762  22.933  1.00  0.00    -0.173 NA
ATOM     24  H   UNL A   1      31.017  22.578  22.131  1.00  0.00     0.192 HD
BRANCH  22  25
ATOM     25  C   UNL A   1      34.712  23.695  24.387  1.00  0.00     0.055 A 
ATOM     26  C   UNL A   1      35.028  24.043  25.681  1.00  0.00     0.022 A 
ATOM     27  S   UNL A   1      36.084  23.220  23.492  1.00  0.00    -0.142 S 
ATOM     28  C   UNL A   1      36.402  23.793  25.970  1.00  0.00     0.012 A 
ATOM     29  C   UNL A   1      37.101  23.398  24.851  1.00  0.00     0.065 A 
ENDBRANCH  22  25
ENDBRANCH   8  13
ENDBRANCH   5   7
ENDBRANCH   4   5
ENDBRANCH   3   4
ENDBRANCH   2   3
ENDBRANCH   1   2
BRANCH   1  30
ATOM     30  C   UNL A   1      33.113  33.715  28.052  1.00  0.00     0.202 C 
BRANCH  30  31
ATOM     31  C   UNL A   1      33.252  35.010  28.824  1.00  0.00     0.261 C 
BRANCH  31  32
ATOM     32  O   UNL A   1      34.239  34.897  29.829  1.00  0.00    -0.460 OA
BRANCH  32  33
ATOM     33  C   UNL A   1      33.773  34.648  31.075  1.00  0.00     0.338 C 
ATOM     34  O   UNL A   1      32.786  35.092  31.619  1.00  0.00    -0.246 OA
BRANCH  33  35
ATOM     35  C   UNL A   1      34.810  33.846  31.727  1.00  0.00     0.060 A 
ATOM     36  C   UNL A   1      35.884  34.481  32.349  1.00  0.00     0.016 A 
ATOM     37  C   UNL A   1      34.816  32.472  31.459  1.00  0.00     0.016 A 
ATOM     38  C   UNL A   1      37.057  33.768  32.479  1.00  0.00     0.010 A 
ATOM     39  C   UNL A   1      35.936  31.742  31.688  1.00  0.00     0.010 A 
ATOM     40  C   UNL A   1      37.074  32.445  32.026  1.00  0.00    -0.014 A 
BRANCH  40  41
ATOM     41  C   UNL A   1      38.307  31.747  31.783  1.00  0.00     0.031 A 
ATOM     42  C   UNL A   1      39.021  31.410  33.021  1.00  0.00     0.074 A 
ATOM     43  C   UNL A   1      38.599  31.269  30.556  1.00  0.00     0.049 A 
ATOM     44  N   UNL A   1      40.044  32.021  33.507  1.00  0.00    -0.248 NA
ATOM     45  C   UNL A   1      38.386  30.452  33.941  1.00  0.00     0.031 C 
ATOM     46  C   UNL A   1      37.766  31.229  29.345  1.00  0.00     0.029 A 
ATOM     47  N   UNL A   1      39.703  30.593  30.172  1.00  0.00    -0.354 N 
ATOM     48  C   UNL A   1      40.333  31.355  34.688  1.00  0.00     0.074 A 
ATOM     49  C   UNL A   1      39.152  30.602  35.022  1.00  0.00     0.031 C 
ATOM     50  C   UNL A   1      38.306  30.359  28.457  1.00  0.00     0.029 A 
ATOM     51  C   UNL A   1      39.590  29.915  28.969  1.00  0.00     0.049 A 
ATOM     52  H   UNL A   1      40.528  30.582  30.709  1.00  0.00     0.167 HD
ATOM     53  C   UNL A   1      41.616  31.232  35.119  1.00  0.00     0.031 A 
ATOM     54  C   UNL A   1      40.483  29.016  28.485  1.00  0.00     0.031 A 
ATOM     55  C   UNL A   1      42.503  32.088  34.367  1.00  0.00     0.049 A 
ATOM     56  C   UNL A   1      41.752  29.222  29.234  1.00  0.00     0.074 A 
ATOM     57  C   UNL A   1      42.598  33.451  34.173  1.00  0.00     0.029 A 
ATOM     58  N   UNL A   1      43.181  31.503  33.318  1.00  0.00    -0.354 N 
ATOM     59  N   UNL A   1      42.464  30.310  29.142  1.00  0.00    -0.248 NA
ATOM     60  C   UNL A   1      41.948  28.456  30.458  1.00  0.00     0.031 C 
ATOM     61  C   UNL A   1      42.916  33.605  32.791  1.00  0.00     0.029 A 
ATOM     62  C   UNL A   1      43.084  32.334  32.231  1.00  0.00     0.049 A 
ATOM     63  H   UNL A   1      43.652  30.639  33.345  1.00  0.00     0.167 HD
ATOM     64  C   UNL A   1      42.857  30.595  30.444  1.00  0.00     0.074 A 
ATOM     65  C   UNL A   1      42.587  29.370  31.198  1.00  0.00     0.031 C 
ATOM     66  C   UNL A   1      43.071  31.882  30.853  1.00  0.00     0.031 A 
BRANCH  53  67
ATOM     67  C   UNL A   1      42.124  30.045  35.893  1.00  0.00    -0.014 A 
ATOM     68  C   UNL A   1      43.317  30.190  36.619  1.00  0.00     0.009 A 
ATOM     69  C   UNL A   1      41.637  28.734  35.731  1.00  0.00     0.009 A 
ATOM     70  C   UNL A   1      44.023  29.076  37.087  1.00  0.00     0.001 A 
ATOM     71  C   UNL A   1      42.316  27.622  36.231  1.00  0.00     0.001 A 
ATOM     72  C   UNL A   1      43.526  27.793  36.883  1.00  0.00     0.000 A 
ENDBRANCH  53  67
BRANCH  54  73
ATOM     73  C   UNL A   1      40.217  27.803  27.680  1.00  0.00    -0.014 A 
ATOM     74  C   UNL A   1      40.966  27.516  26.528  1.00  0.00     0.009 A 
ATOM     75  C   UNL A   1      39.397  26.781  28.196  1.00  0.00     0.009 A 
ATOM     76  C   UNL A   1      40.917  26.245  25.934  1.00  0.00     0.001 A 
ATOM     77  C   UNL A   1      39.349  25.513  27.604  1.00  0.00     0.001 A 
ATOM     78  C   UNL A   1      40.121  25.241  26.479  1.00  0.00     0.000 A 
ENDBRANCH  54  73
BRANCH  66  79
ATOM     79  C   UNL A   1      43.055  32.972  29.803  1.00  0.00    -0.014 A 
ATOM     80  C   UNL A   1      41.980  33.865  29.633  1.00  0.00     0.009 A 
ATOM     81  C   UNL A   1      44.237  33.219  29.093  1.00  0.00     0.009 A 
ATOM     82  C   UNL A   1      42.086  34.962  28.768  1.00  0.00     0.001 A 
ATOM     83  C   UNL A   1      44.350  34.324  28.245  1.00  0.00     0.001 A 
ATOM     84  C   UNL A   1      43.275  35.194  28.081  1.00  0.00     0.000 A 
ENDBRANCH  66  79
ENDBRANCH  40  41
ENDBRANCH  33  35
ENDBRANCH  32  33
ENDBRANCH  31  32
ENDBRANCH  30  31
ENDBRANCH   1  30
TORSDOF 16
ENDMDL
