MODEL 1
REMARK VINA RESULT:     -11.6      0.000      0.000
REMARK SMILES O=C(OCCOCCOC(=O)[C@]1(NC(=O)C2CCN(C(=O)C3CC3)CC2)CCCc2ccccc21)c1ccc(-c2c3nc(c(-c4ccccc4)c4ccc([nH]4)c(-c4ccccc4)c4nc(c(-c5ccccc5)c5ccc2[nH]5)C=C4)C=C3)cc1
REMARK SMILES IDX 7 1 6 2 5 3 4 4 3 5 2 6 1 7 36 8 37 9 83 10 38 11 82 12
REMARK SMILES IDX 39 13 40 14 41 15 76 16 42 17 81 18 75 19 77 20 43 21 80 22
REMARK SMILES IDX 74 23 73 24 44 26 66 27 51 28 65 29 52 30 55 31 64 32 78 33
REMARK SMILES IDX 53 34 54 35 63 37 79 38 56 39 45 40 46 41 50 42 47 43 49 44
REMARK SMILES IDX 48 45 67 46 68 47 72 48 69 49 71 50 70 51 57 52 58 53 62 54
REMARK SMILES IDX 59 55 61 56 60 57 8 58 9 59 10 60 11 61 12 62 27 63 35 64
REMARK SMILES IDX 28 65 30 66 34 67 29 68 31 69 33 70 32 71 13 72 14 73 15 75
REMARK SMILES IDX 16 76 17 77 26 78 18 79 25 80 19 81 20 82 21 83 22 84 23 85
REMARK SMILES IDX 24 86
REMARK H PARENT 77 25 55 36 13 74
REMARK Flexibility Score: inf
ROOT
ATOM      1  C   UNL A   1      37.639  23.547  25.792  1.00  0.00     0.202 C 
ENDROOT
BRANCH   1   2
ATOM      2  O   UNL A   1      38.266  22.265  25.793  1.00  0.00    -0.374 OA
BRANCH   2   3
ATOM      3  C   UNL A   1      37.606  21.220  25.085  1.00  0.00     0.202 C 
BRANCH   3   4
ATOM      4  C   UNL A   1      38.348  19.879  25.004  1.00  0.00     0.261 C 
BRANCH   4   5
ATOM      5  O   UNL A   1      39.229  19.689  26.130  1.00  0.00    -0.460 OA
BRANCH   5   6
ATOM      6  C   UNL A   1      40.584  19.773  26.147  1.00  0.00     0.338 C 
ATOM      7  O   UNL A   1      41.254  18.824  25.749  1.00  0.00    -0.246 OA
BRANCH   6   8
ATOM      8  C   UNL A   1      41.298  20.990  26.625  1.00  0.00     0.060 A 
ATOM      9  C   UNL A   1      41.534  21.259  27.969  1.00  0.00     0.016 A 
ATOM     10  C   UNL A   1      41.796  21.897  25.678  1.00  0.00     0.016 A 
ATOM     11  C   UNL A   1      42.103  22.430  28.394  1.00  0.00     0.010 A 
ATOM     12  C   UNL A   1      42.415  23.083  26.093  1.00  0.00     0.010 A 
ATOM     13  C   UNL A   1      42.520  23.361  27.459  1.00  0.00    -0.014 A 
BRANCH  13  14
ATOM     14  C   UNL A   1      42.806  24.686  28.021  1.00  0.00     0.031 A 
ATOM     15  C   UNL A   1      44.235  25.134  28.011  1.00  0.00     0.074 A 
ATOM     16  C   UNL A   1      41.790  25.550  28.193  1.00  0.00     0.049 A 
ATOM     17  N   UNL A   1      44.749  26.265  28.403  1.00  0.00    -0.248 NA
ATOM     18  C   UNL A   1      45.218  24.190  27.442  1.00  0.00     0.031 C 
ATOM     19  C   UNL A   1      40.374  25.247  27.947  1.00  0.00     0.029 A 
ATOM     20  N   UNL A   1      41.795  26.879  28.507  1.00  0.00    -0.354 N 
ATOM     21  C   UNL A   1      46.115  26.142  28.192  1.00  0.00     0.074 A 
ATOM     22  C   UNL A   1      46.354  24.848  27.600  1.00  0.00     0.031 C 
ATOM     23  C   UNL A   1      39.658  26.377  28.055  1.00  0.00     0.029 A 
ATOM     24  C   UNL A   1      40.545  27.451  28.481  1.00  0.00     0.049 A 
ATOM     25  H   UNL A   1      42.612  27.378  28.731  1.00  0.00     0.167 HD
ATOM     26  C   UNL A   1      47.084  27.029  28.509  1.00  0.00     0.031 A 
ATOM     27  C   UNL A   1      40.174  28.699  28.812  1.00  0.00     0.031 A 
ATOM     28  C   UNL A   1      46.793  28.304  29.098  1.00  0.00     0.049 A 
ATOM     29  C   UNL A   1      41.255  29.624  29.296  1.00  0.00     0.074 A 
ATOM     30  C   UNL A   1      47.657  29.248  29.616  1.00  0.00     0.029 A 
ATOM     31  N   UNL A   1      45.506  28.811  29.234  1.00  0.00    -0.354 N 
ATOM     32  N   UNL A   1      42.557  29.444  29.285  1.00  0.00    -0.248 NA
ATOM     33  C   UNL A   1      40.822  30.896  29.880  1.00  0.00     0.031 C 
ATOM     34  C   UNL A   1      46.885  30.310  30.104  1.00  0.00     0.029 A 
ATOM     35  C   UNL A   1      45.546  30.047  29.843  1.00  0.00     0.049 A 
ATOM     36  H   UNL A   1      44.685  28.354  28.938  1.00  0.00     0.167 HD
ATOM     37  C   UNL A   1      43.101  30.577  29.867  1.00  0.00     0.074 A 
ATOM     38  C   UNL A   1      41.986  31.451  30.187  1.00  0.00     0.031 C 
ATOM     39  C   UNL A   1      44.399  30.870  30.133  1.00  0.00     0.031 A 
BRANCH  26  40
ATOM     40  C   UNL A   1      48.499  26.557  28.355  1.00  0.00    -0.014 A 
ATOM     41  C   UNL A   1      49.172  25.866  29.375  1.00  0.00     0.009 A 
ATOM     42  C   UNL A   1      49.206  26.913  27.195  1.00  0.00     0.009 A 
ATOM     43  C   UNL A   1      50.535  25.580  29.251  1.00  0.00     0.001 A 
ATOM     44  C   UNL A   1      50.562  26.607  27.066  1.00  0.00     0.001 A 
ATOM     45  C   UNL A   1      51.228  25.952  28.098  1.00  0.00     0.000 A 
ENDBRANCH  26  40
BRANCH  27  46
ATOM     46  C   UNL A   1      38.738  29.092  28.810  1.00  0.00    -0.014 A 
ATOM     47  C   UNL A   1      37.948  28.973  29.962  1.00  0.00     0.009 A 
ATOM     48  C   UNL A   1      38.142  29.585  27.636  1.00  0.00     0.009 A 
ATOM     49  C   UNL A   1      36.594  29.328  29.933  1.00  0.00     0.001 A 
ATOM     50  C   UNL A   1      36.800  29.970  27.618  1.00  0.00     0.001 A 
ATOM     51  C   UNL A   1      36.024  29.831  28.765  1.00  0.00     0.000 A 
ENDBRANCH  27  46
BRANCH  39  52
ATOM     52  C   UNL A   1      44.659  32.198  30.772  1.00  0.00    -0.014 A 
ATOM     53  C   UNL A   1      44.863  33.346  29.992  1.00  0.00     0.009 A 
ATOM     54  C   UNL A   1      44.657  32.302  32.170  1.00  0.00     0.009 A 
ATOM     55  C   UNL A   1      45.090  34.576  30.607  1.00  0.00     0.001 A 
ATOM     56  C   UNL A   1      44.860  33.537  32.781  1.00  0.00     0.001 A 
ATOM     57  C   UNL A   1      45.084  34.670  32.000  1.00  0.00     0.000 A 
ENDBRANCH  39  52
ENDBRANCH  13  14
ENDBRANCH   6   8
ENDBRANCH   5   6
ENDBRANCH   4   5
ENDBRANCH   3   4
ENDBRANCH   2   3
ENDBRANCH   1   2
BRANCH   1  58
ATOM     58  C   UNL A   1      36.138  23.352  25.770  1.00  0.00     0.261 C 
BRANCH  58  59
ATOM     59  O   UNL A   1      35.567  24.452  25.048  1.00  0.00    -0.461 OA
BRANCH  59  60
ATOM     60  C   UNL A   1      34.845  24.107  23.939  1.00  0.00     0.336 C 
ATOM     61  O   UNL A   1      35.337  23.724  22.882  1.00  0.00    -0.249 OA
BRANCH  60  62
ATOM     62  C   UNL A   1      33.351  24.493  24.126  1.00  0.00     0.164 C 
ATOM     63  C   UNL A   1      32.507  24.404  22.828  1.00  0.00     0.046 C 
ATOM     64  C   UNL A   1      33.364  25.958  24.619  1.00  0.00    -0.008 A 
ATOM     65  C   UNL A   1      32.904  25.416  21.759  1.00  0.00     0.008 C 
ATOM     66  C   UNL A   1      33.279  27.037  23.718  1.00  0.00    -0.042 A 
ATOM     67  C   UNL A   1      33.636  26.232  25.977  1.00  0.00     0.007 A 
ATOM     68  C   UNL A   1      32.934  26.858  22.262  1.00  0.00     0.036 C 
ATOM     69  C   UNL A   1      33.483  28.348  24.192  1.00  0.00     0.004 A 
ATOM     70  C   UNL A   1      33.829  27.534  26.432  1.00  0.00     0.000 A 
ATOM     71  C   UNL A   1      33.762  28.592  25.536  1.00  0.00     0.000 A 
BRANCH  62  72
ATOM     72  N   UNL A   1      32.692  23.638  25.163  1.00  0.00    -0.336 N 
ATOM     73  C   UNL A   1      32.403  22.303  25.200  1.00  0.00     0.224 C 
ATOM     74  H   UNL A   1      32.414  24.130  25.969  1.00  0.00     0.164 HD
ATOM     75  O   UNL A   1      31.364  21.959  25.766  1.00  0.00    -0.275 OA
BRANCH  73  76
ATOM     76  C   UNL A   1      33.400  21.259  24.699  1.00  0.00     0.082 C 
ATOM     77  C   UNL A   1      33.135  20.865  23.234  1.00  0.00     0.035 C 
ATOM     78  C   UNL A   1      33.482  20.063  25.672  1.00  0.00     0.035 C 
ATOM     79  C   UNL A   1      32.152  19.706  23.076  1.00  0.00     0.120 C 
ATOM     80  C   UNL A   1      32.457  18.990  25.358  1.00  0.00     0.120 C 
ATOM     81  N   UNL A   1      32.570  18.626  23.960  1.00  0.00    -0.342 N 
ATOM     82  C   UNL A   1      33.245  17.546  23.403  1.00  0.00     0.225 C 
ATOM     83  O   UNL A   1      33.204  17.328  22.191  1.00  0.00    -0.275 OA
BRANCH  82  84
ATOM     84  C   UNL A   1      34.159  16.656  24.178  1.00  0.00     0.079 C 
ATOM     85  C   UNL A   1      34.479  16.491  25.637  1.00  0.00     0.014 C 
ATOM     86  C   UNL A   1      33.508  15.554  24.992  1.00  0.00     0.014 C 
ENDBRANCH  82  84
ENDBRANCH  73  76
ENDBRANCH  62  72
ENDBRANCH  60  62
ENDBRANCH  59  60
ENDBRANCH  58  59
ENDBRANCH   1  58
TORSDOF 17
ENDMDL
MODEL 2
REMARK VINA RESULT:     -11.4      3.912      9.334
REMARK SMILES O=C(OCCOCCOC(=O)[C@]1(NC(=O)C2CCN(C(=O)C3CC3)CC2)CCCc2ccccc21)c1ccc(-c2c3nc(c(-c4ccccc4)c4ccc([nH]4)c(-c4ccccc4)c4nc(c(-c5ccccc5)c5ccc2[nH]5)C=C4)C=C3)cc1
REMARK SMILES IDX 7 1 6 2 5 3 4 4 3 5 2 6 1 7 36 8 37 9 83 10 38 11 82 12
REMARK SMILES IDX 39 13 40 14 41 15 76 16 42 17 81 18 75 19 77 20 43 21 80 22
REMARK SMILES IDX 74 23 73 24 44 26 66 27 51 28 65 29 52 30 55 31 64 32 78 33
REMARK SMILES IDX 53 34 54 35 63 37 79 38 56 39 45 40 46 41 50 42 47 43 49 44
REMARK SMILES IDX 48 45 67 46 68 47 72 48 69 49 71 50 70 51 57 52 58 53 62 54
REMARK SMILES IDX 59 55 61 56 60 57 8 58 9 59 10 60 11 61 12 62 27 63 35 64
REMARK SMILES IDX 28 65 30 66 34 67 29 68 31 69 33 70 32 71 13 72 14 73 15 75
REMARK SMILES IDX 16 76 17 77 26 78 18 79 25 80 19 81 20 82 21 83 22 84 23 85
REMARK SMILES IDX 24 86
REMARK H PARENT 77 25 55 36 13 74
REMARK Flexibility Score: inf
ROOT
ATOM      1  C   UNL A   1      33.250  28.896  27.308  1.00  0.00     0.202 C 
ENDROOT
BRANCH   1   2
ATOM      2  O   UNL A   1      33.131  30.255  26.888  1.00  0.00    -0.374 OA
BRANCH   2   3
ATOM      3  C   UNL A   1      31.829  30.717  26.543  1.00  0.00     0.202 C 
BRANCH   3   4
ATOM      4  C   UNL A   1      31.473  32.141  26.988  1.00  0.00     0.261 C 
BRANCH   4   5
ATOM      5  O   UNL A   1      32.628  33.005  26.987  1.00  0.00    -0.460 OA
BRANCH   5   6
ATOM      6  C   UNL A   1      33.106  33.751  28.016  1.00  0.00     0.338 C 
ATOM      7  O   UNL A   1      32.445  34.697  28.435  1.00  0.00    -0.246 OA
BRANCH   6   8
ATOM      8  C   UNL A   1      34.412  33.456  28.670  1.00  0.00     0.060 A 
ATOM      9  C   UNL A   1      35.629  33.926  28.190  1.00  0.00     0.016 A 
ATOM     10  C   UNL A   1      34.420  32.702  29.852  1.00  0.00     0.016 A 
ATOM     11  C   UNL A   1      36.827  33.563  28.747  1.00  0.00     0.010 A 
ATOM     12  C   UNL A   1      35.633  32.352  30.459  1.00  0.00     0.010 A 
ATOM     13  C   UNL A   1      36.836  32.750  29.867  1.00  0.00    -0.014 A 
BRANCH  13  14
ATOM     14  C   UNL A   1      38.149  32.170  30.175  1.00  0.00     0.031 A 
ATOM     15  C   UNL A   1      38.873  32.720  31.365  1.00  0.00     0.074 A 
ATOM     16  C   UNL A   1      38.482  30.990  29.621  1.00  0.00     0.049 A 
ATOM     17  N   UNL A   1      40.016  32.362  31.875  1.00  0.00    -0.248 NA
ATOM     18  C   UNL A   1      38.194  33.802  32.107  1.00  0.00     0.031 C 
ATOM     19  C   UNL A   1      37.667  30.258  28.644  1.00  0.00     0.029 A 
ATOM     20  N   UNL A   1      39.528  30.152  29.876  1.00  0.00    -0.354 N 
ATOM     21  C   UNL A   1      40.223  33.213  32.952  1.00  0.00     0.074 A 
ATOM     22  C   UNL A   1      39.075  34.081  33.053  1.00  0.00     0.031 C 
ATOM     23  C   UNL A   1      38.213  29.049  28.436  1.00  0.00     0.029 A 
ATOM     24  C   UNL A   1      39.464  28.970  29.177  1.00  0.00     0.049 A 
ATOM     25  H   UNL A   1      40.258  30.372  30.499  1.00  0.00     0.167 HD
ATOM     26  C   UNL A   1      41.306  33.280  33.756  1.00  0.00     0.031 A 
ATOM     27  C   UNL A   1      40.354  27.965  29.122  1.00  0.00     0.031 A 
ATOM     28  C   UNL A   1      42.424  32.392  33.613  1.00  0.00     0.049 A 
ATOM     29  C   UNL A   1      41.617  28.131  29.920  1.00  0.00     0.074 A 
ATOM     30  C   UNL A   1      43.653  32.423  34.239  1.00  0.00     0.029 A 
ATOM     31  N   UNL A   1      42.424  31.289  32.766  1.00  0.00    -0.354 N 
ATOM     32  N   UNL A   1      41.912  29.052  30.809  1.00  0.00    -0.248 NA
ATOM     33  C   UNL A   1      42.684  27.157  29.675  1.00  0.00     0.031 C 
ATOM     34  C   UNL A   1      44.414  31.359  33.737  1.00  0.00     0.029 A 
ATOM     35  C   UNL A   1      43.638  30.639  32.838  1.00  0.00     0.049 A 
ATOM     36  H   UNL A   1      41.669  31.013  32.199  1.00  0.00     0.167 HD
ATOM     37  C   UNL A   1      43.204  28.773  31.228  1.00  0.00     0.074 A 
ATOM     38  C   UNL A   1      43.617  27.577  30.517  1.00  0.00     0.031 C 
ATOM     39  C   UNL A   1      43.989  29.448  32.105  1.00  0.00     0.031 A 
BRANCH  26  40
ATOM     40  C   UNL A   1      41.355  34.430  34.718  1.00  0.00    -0.014 A 
ATOM     41  C   UNL A   1      41.883  35.680  34.361  1.00  0.00     0.009 A 
ATOM     42  C   UNL A   1      40.958  34.214  36.047  1.00  0.00     0.009 A 
ATOM     43  C   UNL A   1      42.051  36.676  35.329  1.00  0.00     0.001 A 
ATOM     44  C   UNL A   1      41.107  35.217  37.006  1.00  0.00     0.001 A 
ATOM     45  C   UNL A   1      41.665  36.442  36.650  1.00  0.00     0.000 A 
ENDBRANCH  26  40
BRANCH  27  46
ATOM     46  C   UNL A   1      40.138  26.806  28.214  1.00  0.00    -0.014 A 
ATOM     47  C   UNL A   1      40.657  26.792  26.912  1.00  0.00     0.009 A 
ATOM     48  C   UNL A   1      39.391  25.696  28.649  1.00  0.00     0.009 A 
ATOM     49  C   UNL A   1      40.424  25.702  26.065  1.00  0.00     0.001 A 
ATOM     50  C   UNL A   1      39.188  24.595  27.815  1.00  0.00     0.001 A 
ATOM     51  C   UNL A   1      39.696  24.603  26.520  1.00  0.00     0.000 A 
ENDBRANCH  27  46
BRANCH  39  52
ATOM     52  C   UNL A   1      45.350  28.877  32.348  1.00  0.00    -0.014 A 
ATOM     53  C   UNL A   1      46.470  29.364  31.656  1.00  0.00     0.009 A 
ATOM     54  C   UNL A   1      45.514  27.870  33.309  1.00  0.00     0.009 A 
ATOM     55  C   UNL A   1      47.732  28.828  31.907  1.00  0.00     0.001 A 
ATOM     56  C   UNL A   1      46.780  27.354  33.575  1.00  0.00     0.001 A 
ATOM     57  C   UNL A   1      47.885  27.827  32.868  1.00  0.00     0.000 A 
ENDBRANCH  39  52
ENDBRANCH  13  14
ENDBRANCH   6   8
ENDBRANCH   5   6
ENDBRANCH   4   5
ENDBRANCH   3   4
ENDBRANCH   2   3
ENDBRANCH   1   2
BRANCH   1  58
ATOM     58  C   UNL A   1      33.731  28.068  26.135  1.00  0.00     0.261 C 
BRANCH  58  59
ATOM     59  O   UNL A   1      33.577  26.686  26.487  1.00  0.00    -0.461 OA
BRANCH  59  60
ATOM     60  C   UNL A   1      32.332  26.166  26.268  1.00  0.00     0.336 C 
ATOM     61  O   UNL A   1      31.370  26.334  27.011  1.00  0.00    -0.249 OA
BRANCH  60  62
ATOM     62  C   UNL A   1      32.369  25.150  25.093  1.00  0.00     0.164 C 
ATOM     63  C   UNL A   1      31.110  24.250  24.994  1.00  0.00     0.046 C 
ATOM     64  C   UNL A   1      33.604  24.260  25.358  1.00  0.00    -0.008 A 
ATOM     65  C   UNL A   1      30.943  23.286  26.163  1.00  0.00     0.008 C 
ATOM     66  C   UNL A   1      33.500  23.054  26.078  1.00  0.00    -0.042 A 
ATOM     67  C   UNL A   1      34.890  24.739  25.025  1.00  0.00     0.007 A 
ATOM     68  C   UNL A   1      32.176  22.427  26.430  1.00  0.00     0.036 C 
ATOM     69  C   UNL A   1      34.675  22.375  26.457  1.00  0.00     0.004 A 
ATOM     70  C   UNL A   1      36.042  24.052  25.400  1.00  0.00     0.000 A 
ATOM     71  C   UNL A   1      35.934  22.873  26.125  1.00  0.00     0.000 A 
BRANCH  62  72
ATOM     72  N   UNL A   1      32.543  25.843  23.778  1.00  0.00    -0.336 N 
ATOM     73  C   UNL A   1      31.746  26.711  23.087  1.00  0.00     0.224 C 
ATOM     74  H   UNL A   1      33.392  25.634  23.326  1.00  0.00     0.164 HD
ATOM     75  O   UNL A   1      31.749  26.636  21.857  1.00  0.00    -0.275 OA
BRANCH  73  76
ATOM     76  C   UNL A   1      30.993  27.837  23.796  1.00  0.00     0.082 C 
ATOM     77  C   UNL A   1      29.541  27.444  24.123  1.00  0.00     0.035 C 
ATOM     78  C   UNL A   1      31.132  29.166  23.023  1.00  0.00     0.035 C 
ATOM     79  C   UNL A   1      28.550  27.762  23.004  1.00  0.00     0.120 C 
ATOM     80  C   UNL A   1      30.054  29.337  21.969  1.00  0.00     0.120 C 
ATOM     81  N   UNL A   1      28.758  29.142  22.586  1.00  0.00    -0.342 N 
ATOM     82  C   UNL A   1      27.868  30.108  23.044  1.00  0.00     0.225 C 
ATOM     83  O   UNL A   1      26.766  29.792  23.496  1.00  0.00    -0.275 OA
BRANCH  82  84
ATOM     84  C   UNL A   1      28.207  31.558  23.148  1.00  0.00     0.079 C 
ATOM     85  C   UNL A   1      29.340  32.412  22.655  1.00  0.00     0.014 C 
ATOM     86  C   UNL A   1      28.058  32.384  21.885  1.00  0.00     0.014 C 
ENDBRANCH  82  84
ENDBRANCH  73  76
ENDBRANCH  62  72
ENDBRANCH  60  62
ENDBRANCH  59  60
ENDBRANCH  58  59
ENDBRANCH   1  58
TORSDOF 17
ENDMDL
MODEL 3
REMARK VINA RESULT:     -11.3      2.126      4.844
REMARK SMILES O=C(OCCOCCOC(=O)[C@]1(NC(=O)C2CCN(C(=O)C3CC3)CC2)CCCc2ccccc21)c1ccc(-c2c3nc(c(-c4ccccc4)c4ccc([nH]4)c(-c4ccccc4)c4nc(c(-c5ccccc5)c5ccc2[nH]5)C=C4)C=C3)cc1
REMARK SMILES IDX 7 1 6 2 5 3 4 4 3 5 2 6 1 7 36 8 37 9 83 10 38 11 82 12
REMARK SMILES IDX 39 13 40 14 41 15 76 16 42 17 81 18 75 19 77 20 43 21 80 22
REMARK SMILES IDX 74 23 73 24 44 26 66 27 51 28 65 29 52 30 55 31 64 32 78 33
REMARK SMILES IDX 53 34 54 35 63 37 79 38 56 39 45 40 46 41 50 42 47 43 49 44
REMARK SMILES IDX 48 45 67 46 68 47 72 48 69 49 71 50 70 51 57 52 58 53 62 54
REMARK SMILES IDX 59 55 61 56 60 57 8 58 9 59 10 60 11 61 12 62 27 63 35 64
REMARK SMILES IDX 28 65 30 66 34 67 29 68 31 69 33 70 32 71 13 72 14 73 15 75
REMARK SMILES IDX 16 76 17 77 26 78 18 79 25 80 19 81 20 82 21 83 22 84 23 85
REMARK SMILES IDX 24 86
REMARK H PARENT 77 25 55 36 13 74
REMARK Flexibility Score: inf
ROOT
ATOM      1  C   UNL A   1      35.921  21.038  24.827  1.00  0.00     0.202 C 
ENDROOT
BRANCH   1   2
ATOM      2  O   UNL A   1      37.090  21.826  24.605  1.00  0.00    -0.374 OA
BRANCH   2   3
ATOM      3  C   UNL A   1      38.272  21.443  25.300  1.00  0.00     0.202 C 
BRANCH   3   4
ATOM      4  C   UNL A   1      38.733  19.992  25.112  1.00  0.00     0.261 C 
BRANCH   4   5
ATOM      5  O   UNL A   1      39.660  19.589  26.140  1.00  0.00    -0.460 OA
BRANCH   5   6
ATOM      6  C   UNL A   1      41.016  19.649  26.105  1.00  0.00     0.338 C 
ATOM      7  O   UNL A   1      41.655  18.667  25.736  1.00  0.00    -0.246 OA
BRANCH   6   8
ATOM      8  C   UNL A   1      41.767  20.877  26.490  1.00  0.00     0.060 A 
ATOM      9  C   UNL A   1      42.071  21.204  27.807  1.00  0.00     0.016 A 
ATOM     10  C   UNL A   1      42.229  21.731  25.479  1.00  0.00     0.016 A 
ATOM     11  C   UNL A   1      42.674  22.385  28.150  1.00  0.00     0.010 A 
ATOM     12  C   UNL A   1      42.882  22.926  25.807  1.00  0.00     0.010 A 
ATOM     13  C   UNL A   1      43.056  23.266  27.153  1.00  0.00    -0.014 A 
BRANCH  13  14
ATOM     14  C   UNL A   1      43.385  24.611  27.638  1.00  0.00     0.031 A 
ATOM     15  C   UNL A   1      44.780  25.098  27.396  1.00  0.00     0.074 A 
ATOM     16  C   UNL A   1      42.381  25.451  27.950  1.00  0.00     0.049 A 
ATOM     17  N   UNL A   1      45.314  26.251  27.682  1.00  0.00    -0.248 NA
ATOM     18  C   UNL A   1      45.691  24.168  26.699  1.00  0.00     0.031 C 
ATOM     19  C   UNL A   1      40.955  25.102  27.934  1.00  0.00     0.029 A 
ATOM     20  N   UNL A   1      42.394  26.786  28.234  1.00  0.00    -0.354 N 
ATOM     21  C   UNL A   1      46.634  26.161  27.262  1.00  0.00     0.074 A 
ATOM     22  C   UNL A   1      46.817  24.861  26.665  1.00  0.00     0.031 C 
ATOM     23  C   UNL A   1      40.230  26.215  28.130  1.00  0.00     0.029 A 
ATOM     24  C   UNL A   1      41.139  27.323  28.392  1.00  0.00     0.049 A 
ATOM     25  H   UNL A   1      43.221  27.313  28.318  1.00  0.00     0.167 HD
ATOM     26  C   UNL A   1      47.612  27.082  27.406  1.00  0.00     0.031 A 
ATOM     27  C   UNL A   1      40.785  28.568  28.753  1.00  0.00     0.031 A 
ATOM     28  C   UNL A   1      47.377  28.363  28.010  1.00  0.00     0.049 A 
ATOM     29  C   UNL A   1      41.899  29.533  29.045  1.00  0.00     0.074 A 
ATOM     30  C   UNL A   1      48.281  29.342  28.368  1.00  0.00     0.029 A 
ATOM     31  N   UNL A   1      46.111  28.837  28.335  1.00  0.00    -0.354 N 
ATOM     32  N   UNL A   1      43.188  29.389  28.834  1.00  0.00    -0.248 NA
ATOM     33  C   UNL A   1      41.523  30.806  29.665  1.00  0.00     0.031 C 
ATOM     34  C   UNL A   1      47.562  30.393  28.950  1.00  0.00     0.029 A 
ATOM     35  C   UNL A   1      46.207  30.088  28.907  1.00  0.00     0.049 A 
ATOM     36  H   UNL A   1      45.270  28.350  28.180  1.00  0.00     0.167 HD
ATOM     37  C   UNL A   1      43.781  30.550  29.302  1.00  0.00     0.074 A 
ATOM     38  C   UNL A   1      42.703  31.400  29.775  1.00  0.00     0.031 C 
ATOM     39  C   UNL A   1      45.094  30.886  29.356  1.00  0.00     0.031 A 
BRANCH  26  40
ATOM     40  C   UNL A   1      49.000  26.646  27.043  1.00  0.00    -0.014 A 
ATOM     41  C   UNL A   1      49.539  26.853  25.764  1.00  0.00     0.009 A 
ATOM     42  C   UNL A   1      49.742  25.911  27.982  1.00  0.00     0.009 A 
ATOM     43  C   UNL A   1      50.775  26.296  25.422  1.00  0.00     0.001 A 
ATOM     44  C   UNL A   1      50.985  25.374  27.644  1.00  0.00     0.001 A 
ATOM     45  C   UNL A   1      51.495  25.555  26.360  1.00  0.00     0.000 A 
ENDBRANCH  26  40
BRANCH  27  46
ATOM     46  C   UNL A   1      39.355  28.920  28.968  1.00  0.00    -0.014 A 
ATOM     47  C   UNL A   1      38.719  28.673  30.192  1.00  0.00     0.009 A 
ATOM     48  C   UNL A   1      38.607  29.505  27.930  1.00  0.00     0.009 A 
ATOM     49  C   UNL A   1      37.367  28.993  30.368  1.00  0.00     0.001 A 
ATOM     50  C   UNL A   1      37.268  29.854  28.117  1.00  0.00     0.001 A 
ATOM     51  C   UNL A   1      36.646  29.588  29.333  1.00  0.00     0.000 A 
ENDBRANCH  27  46
BRANCH  39  52
ATOM     52  C   UNL A   1      45.409  32.235  29.921  1.00  0.00    -0.014 A 
ATOM     53  C   UNL A   1      45.448  33.370  29.098  1.00  0.00     0.009 A 
ATOM     54  C   UNL A   1      45.628  32.370  31.300  1.00  0.00     0.009 A 
ATOM     55  C   UNL A   1      45.731  34.620  29.647  1.00  0.00     0.001 A 
ATOM     56  C   UNL A   1      45.885  33.625  31.848  1.00  0.00     0.001 A 
ATOM     57  C   UNL A   1      45.944  34.746  31.021  1.00  0.00     0.000 A 
ENDBRANCH  39  52
ENDBRANCH  13  14
ENDBRANCH   6   8
ENDBRANCH   5   6
ENDBRANCH   4   5
ENDBRANCH   3   4
ENDBRANCH   2   3
ENDBRANCH   1   2
BRANCH   1  58
ATOM     58  C   UNL A   1      35.299  21.455  26.143  1.00  0.00     0.261 C 
BRANCH  58  59
ATOM     59  O   UNL A   1      34.934  22.838  26.032  1.00  0.00    -0.461 OA
BRANCH  59  60
ATOM     60  C   UNL A   1      33.973  23.258  26.909  1.00  0.00     0.336 C 
ATOM     61  O   UNL A   1      33.816  22.799  28.037  1.00  0.00    -0.249 OA
BRANCH  60  62
ATOM     62  C   UNL A   1      32.974  24.213  26.200  1.00  0.00     0.164 C 
ATOM     63  C   UNL A   1      31.564  24.248  26.846  1.00  0.00     0.046 C 
ATOM     64  C   UNL A   1      32.852  23.681  24.754  1.00  0.00    -0.008 A 
ATOM     65  C   UNL A   1      30.796  22.937  26.729  1.00  0.00     0.008 C 
ATOM     66  C   UNL A   1      31.851  22.757  24.393  1.00  0.00    -0.042 A 
ATOM     67  C   UNL A   1      33.859  23.987  23.814  1.00  0.00     0.007 A 
ATOM     68  C   UNL A   1      30.699  22.408  25.300  1.00  0.00     0.036 C 
ATOM     69  C   UNL A   1      31.894  22.159  23.119  1.00  0.00     0.004 A 
ATOM     70  C   UNL A   1      33.884  23.392  22.555  1.00  0.00     0.000 A 
ATOM     71  C   UNL A   1      32.905  22.469  22.211  1.00  0.00     0.000 A 
BRANCH  62  72
ATOM     72  N   UNL A   1      33.495  25.615  26.158  1.00  0.00    -0.336 N 
ATOM     73  C   UNL A   1      33.203  26.677  25.350  1.00  0.00     0.224 C 
ATOM     74  H   UNL A   1      34.177  25.809  26.842  1.00  0.00     0.164 HD
ATOM     75  O   UNL A   1      34.124  27.444  25.057  1.00  0.00    -0.275 OA
BRANCH  73  76
ATOM     76  C   UNL A   1      31.765  26.998  24.946  1.00  0.00     0.082 C 
ATOM     77  C   UNL A   1      31.540  26.834  23.432  1.00  0.00     0.035 C 
ATOM     78  C   UNL A   1      31.326  28.368  25.507  1.00  0.00     0.035 C 
ATOM     79  C   UNL A   1      31.833  28.098  22.625  1.00  0.00     0.120 C 
ATOM     80  C   UNL A   1      31.666  29.512  24.571  1.00  0.00     0.120 C 
ATOM     81  N   UNL A   1      31.140  29.215  23.254  1.00  0.00    -0.342 N 
ATOM     82  C   UNL A   1      29.953  29.657  22.680  1.00  0.00     0.225 C 
ATOM     83  O   UNL A   1      29.663  29.368  21.519  1.00  0.00    -0.275 OA
BRANCH  82  84
ATOM     84  C   UNL A   1      28.896  30.392  23.436  1.00  0.00     0.079 C 
ATOM     85  C   UNL A   1      27.826  31.377  23.060  1.00  0.00     0.014 C 
ATOM     86  C   UNL A   1      27.465  29.935  23.222  1.00  0.00     0.014 C 
ENDBRANCH  82  84
ENDBRANCH  73  76
ENDBRANCH  62  72
ENDBRANCH  60  62
ENDBRANCH  59  60
ENDBRANCH  58  59
ENDBRANCH   1  58
TORSDOF 17
ENDMDL
