MODEL 1
REMARK VINA RESULT:     -10.2      0.000      0.000
REMARK SMILES O=C(CC1(NC(=O)c2ccccc2[N+](=O)[O-])CCC1)OCCOCCOC(=O)c1ccc(-c2c3nc(c(-c4ccccc4)c4ccc([nH]4)c(-c4ccccc4)c4nc(c(-c5ccccc5)c5ccc2[nH]5)C=C4)C=C3)cc1
REMARK SMILES IDX 22 1 21 2 20 3 2 4 1 5 3 6 4 7 17 8 19 9 18 10 5 11 6 12
REMARK SMILES IDX 7 14 8 15 9 16 13 17 10 18 12 19 11 20 14 21 15 22 16 23
REMARK SMILES IDX 23 24 24 25 25 26 26 27 27 28 28 29 29 30 30 31 76 32 31 33
REMARK SMILES IDX 75 34 32 35 33 36 34 37 69 38 35 39 74 40 68 41 70 42 36 43
REMARK SMILES IDX 73 44 67 45 66 46 37 48 59 49 44 50 58 51 45 52 48 53 57 54
REMARK SMILES IDX 71 55 46 56 47 57 56 59 72 60 49 61 38 62 39 63 43 64 40 65
REMARK SMILES IDX 42 66 41 67 60 68 61 69 65 70 62 71 64 72 63 73 50 74 51 75
REMARK SMILES IDX 55 76 52 77 54 78 53 79
REMARK H PARENT 5 13 70 47 48 58
REMARK Flexibility Score: inf
ROOT
ATOM      1  C   UNL A   1      39.406  21.083  26.148  1.00  0.00     0.202 C 
ENDROOT
BRANCH   1   2
ATOM      2  C   UNL A   1      38.547  22.467  26.033  1.00  0.00     0.261 C 
BRANCH   2   3
ATOM      3  O   UNL A   1      37.428  22.981  25.016  1.00  0.00    -0.463 OA
BRANCH   3   4
ATOM      4  C   UNL A   1      36.446  23.344  24.164  1.00  0.00     0.308 C 
ATOM      5  O   UNL A   1      36.626  23.105  22.963  1.00  0.00    -0.252 OA
BRANCH   4   6
ATOM      6  C   UNL A   1      35.159  24.187  24.519  1.00  0.00     0.151 C 
BRANCH   6   7
ATOM      7  C   UNL A   1      33.811  23.725  23.959  1.00  0.00     0.051 C 
ATOM      8  C   UNL A   1      33.076  22.318  23.585  1.00  0.00     0.029 C 
ATOM      9  C   UNL A   1      32.709  23.744  25.075  1.00  0.00     0.029 C 
ATOM     10  C   UNL A   1      31.782  22.940  24.163  1.00  0.00     0.005 C 
BRANCH   7  11
ATOM     11  N   UNL A   1      33.705  24.427  22.702  1.00  0.00    -0.346 N 
ATOM     12  C   UNL A   1      33.556  25.807  22.682  1.00  0.00     0.258 C 
ATOM     13  H   UNL A   1      33.738  23.924  21.857  1.00  0.00     0.164 HD
ATOM     14  O   UNL A   1      33.858  26.334  21.618  1.00  0.00    -0.269 OA
BRANCH  12  15
ATOM     15  C   UNL A   1      33.044  26.578  23.972  1.00  0.00     0.117 A 
ATOM     16  C   UNL A   1      33.841  26.834  25.154  1.00  0.00     0.021 A 
ATOM     17  C   UNL A   1      31.702  26.866  24.146  1.00  0.00     0.282 A 
ATOM     18  C   UNL A   1      33.357  27.308  26.378  1.00  0.00     0.001 A 
ATOM     19  C   UNL A   1      31.202  27.400  25.366  1.00  0.00     0.086 A 
ATOM     20  C   UNL A   1      32.022  27.604  26.479  1.00  0.00     0.007 A 
BRANCH  17  21
ATOM     21  N   UNL A   1      30.726  26.535  23.132  1.00  0.00     0.063 N 
ATOM     22  O   UNL A   1      29.971  25.589  23.387  1.00  0.00    -0.258 OA
ATOM     23  O   UNL A   1      30.729  27.174  22.076  1.00  0.00    -0.258 OA
ENDBRANCH  17  21
ENDBRANCH  12  15
ENDBRANCH   7  11
ENDBRANCH   6   7
ENDBRANCH   4   6
ENDBRANCH   3   4
ENDBRANCH   2   3
ENDBRANCH   1   2
BRANCH   1  24
ATOM     24  O   UNL A   1      40.783  21.049  25.804  1.00  0.00    -0.374 OA
BRANCH  24  25
ATOM     25  C   UNL A   1      41.838  21.209  26.767  1.00  0.00     0.202 C 
BRANCH  25  26
ATOM     26  C   UNL A   1      43.095  21.626  25.996  1.00  0.00     0.261 C 
BRANCH  26  27
ATOM     27  O   UNL A   1      43.685  22.766  26.608  1.00  0.00    -0.460 OA
BRANCH  27  28
ATOM     28  C   UNL A   1      43.806  23.806  25.752  1.00  0.00     0.338 C 
ATOM     29  O   UNL A   1      44.189  23.779  24.597  1.00  0.00    -0.246 OA
BRANCH  28  30
ATOM     30  C   UNL A   1      43.065  24.908  26.369  1.00  0.00     0.060 A 
ATOM     31  C   UNL A   1      43.512  26.221  26.156  1.00  0.00     0.016 A 
ATOM     32  C   UNL A   1      41.879  24.638  27.062  1.00  0.00     0.016 A 
ATOM     33  C   UNL A   1      42.829  27.271  26.747  1.00  0.00     0.010 A 
ATOM     34  C   UNL A   1      41.197  25.681  27.653  1.00  0.00     0.010 A 
ATOM     35  C   UNL A   1      41.738  26.974  27.570  1.00  0.00    -0.014 A 
BRANCH  35  36
ATOM     36  C   UNL A   1      41.411  27.886  28.670  1.00  0.00     0.031 A 
ATOM     37  C   UNL A   1      42.216  27.719  29.927  1.00  0.00     0.074 A 
ATOM     38  C   UNL A   1      40.401  28.754  28.560  1.00  0.00     0.049 A 
ATOM     39  N   UNL A   1      42.033  28.246  31.105  1.00  0.00    -0.248 NA
ATOM     40  C   UNL A   1      43.369  26.799  29.851  1.00  0.00     0.031 C 
ATOM     41  C   UNL A   1      39.604  28.977  27.356  1.00  0.00     0.029 A 
ATOM     42  N   UNL A   1      39.856  29.581  29.498  1.00  0.00    -0.354 N 
ATOM     43  C   UNL A   1      43.024  27.696  31.909  1.00  0.00     0.074 A 
ATOM     44  C   UNL A   1      43.780  26.769  31.105  1.00  0.00     0.031 C 
ATOM     45  C   UNL A   1      38.642  29.871  27.640  1.00  0.00     0.029 A 
ATOM     46  C   UNL A   1      38.736  30.231  29.052  1.00  0.00     0.049 A 
ATOM     47  H   UNL A   1      40.229  29.699  30.402  1.00  0.00     0.167 HD
ATOM     48  C   UNL A   1      43.273  27.949  33.212  1.00  0.00     0.031 A 
ATOM     49  C   UNL A   1      37.867  30.993  29.740  1.00  0.00     0.031 A 
ATOM     50  C   UNL A   1      42.479  28.859  33.984  1.00  0.00     0.049 A 
ATOM     51  C   UNL A   1      38.127  31.222  31.204  1.00  0.00     0.074 A 
ATOM     52  C   UNL A   1      42.634  29.239  35.301  1.00  0.00     0.029 A 
ATOM     53  N   UNL A   1      41.359  29.522  33.496  1.00  0.00    -0.354 N 
ATOM     54  N   UNL A   1      39.090  30.742  31.958  1.00  0.00    -0.248 NA
ATOM     55  C   UNL A   1      37.191  32.103  31.910  1.00  0.00     0.031 C 
ATOM     56  C   UNL A   1      41.561  30.069  35.634  1.00  0.00     0.029 A 
ATOM     57  C   UNL A   1      40.788  30.279  34.499  1.00  0.00     0.049 A 
ATOM     58  H   UNL A   1      41.023  29.460  32.573  1.00  0.00     0.167 HD
ATOM     59  C   UNL A   1      38.897  31.289  33.220  1.00  0.00     0.074 A 
ATOM     60  C   UNL A   1      37.726  32.140  33.123  1.00  0.00     0.031 C 
ATOM     61  C   UNL A   1      39.620  31.112  34.354  1.00  0.00     0.031 A 
BRANCH  48  62
ATOM     62  C   UNL A   1      44.390  27.184  33.868  1.00  0.00    -0.014 A 
ATOM     63  C   UNL A   1      45.705  27.679  33.910  1.00  0.00     0.009 A 
ATOM     64  C   UNL A   1      44.124  25.931  34.439  1.00  0.00     0.009 A 
ATOM     65  C   UNL A   1      46.735  26.911  34.462  1.00  0.00     0.001 A 
ATOM     66  C   UNL A   1      45.147  25.182  35.025  1.00  0.00     0.001 A 
ATOM     67  C   UNL A   1      46.453  25.668  35.024  1.00  0.00     0.000 A 
ENDBRANCH  48  62
BRANCH  49  68
ATOM     68  C   UNL A   1      36.684  31.556  29.045  1.00  0.00    -0.014 A 
ATOM     69  C   UNL A   1      35.546  30.770  28.815  1.00  0.00     0.009 A 
ATOM     70  C   UNL A   1      36.665  32.906  28.657  1.00  0.00     0.009 A 
ATOM     71  C   UNL A   1      34.421  31.320  28.195  1.00  0.00     0.001 A 
ATOM     72  C   UNL A   1      35.528  33.461  28.067  1.00  0.00     0.001 A 
ATOM     73  C   UNL A   1      34.410  32.666  27.830  1.00  0.00     0.000 A 
ENDBRANCH  49  68
BRANCH  61  74
ATOM     74  C   UNL A   1      39.196  31.890  35.567  1.00  0.00    -0.014 A 
ATOM     75  C   UNL A   1      39.658  33.193  35.802  1.00  0.00     0.009 A 
ATOM     76  C   UNL A   1      38.243  31.335  36.436  1.00  0.00     0.009 A 
ATOM     77  C   UNL A   1      39.188  33.916  36.899  1.00  0.00     0.001 A 
ATOM     78  C   UNL A   1      37.747  32.073  37.508  1.00  0.00     0.001 A 
ATOM     79  C   UNL A   1      38.227  33.361  37.744  1.00  0.00     0.000 A 
ENDBRANCH  61  74
ENDBRANCH  35  36
ENDBRANCH  28  30
ENDBRANCH  27  28
ENDBRANCH  26  27
ENDBRANCH  25  26
ENDBRANCH  24  25
ENDBRANCH   1  24
TORSDOF 18
ENDMDL
MODEL 2
REMARK VINA RESULT:     -10.0      1.966      6.447
REMARK SMILES O=C(CC1(NC(=O)c2ccccc2[N+](=O)[O-])CCC1)OCCOCCOC(=O)c1ccc(-c2c3nc(c(-c4ccccc4)c4ccc([nH]4)c(-c4ccccc4)c4nc(c(-c5ccccc5)c5ccc2[nH]5)C=C4)C=C3)cc1
REMARK SMILES IDX 22 1 21 2 20 3 2 4 1 5 3 6 4 7 17 8 19 9 18 10 5 11 6 12
REMARK SMILES IDX 7 14 8 15 9 16 13 17 10 18 12 19 11 20 14 21 15 22 16 23
REMARK SMILES IDX 23 24 24 25 25 26 26 27 27 28 28 29 29 30 30 31 76 32 31 33
REMARK SMILES IDX 75 34 32 35 33 36 34 37 69 38 35 39 74 40 68 41 70 42 36 43
REMARK SMILES IDX 73 44 67 45 66 46 37 48 59 49 44 50 58 51 45 52 48 53 57 54
REMARK SMILES IDX 71 55 46 56 47 57 56 59 72 60 49 61 38 62 39 63 43 64 40 65
REMARK SMILES IDX 42 66 41 67 60 68 61 69 65 70 62 71 64 72 63 73 50 74 51 75
REMARK SMILES IDX 55 76 52 77 54 78 53 79
REMARK H PARENT 5 13 70 47 48 58
REMARK Flexibility Score: inf
ROOT
ATOM      1  C   UNL A   1      41.991  21.469  27.265  1.00  0.00     0.202 C 
ENDROOT
BRANCH   1   2
ATOM      2  C   UNL A   1      40.632  21.410  26.361  1.00  0.00     0.261 C 
BRANCH   2   3
ATOM      3  O   UNL A   1      39.376  22.384  26.204  1.00  0.00    -0.463 OA
BRANCH   3   4
ATOM      4  C   UNL A   1      38.328  23.233  26.147  1.00  0.00     0.308 C 
ATOM      5  O   UNL A   1      38.248  24.088  27.039  1.00  0.00    -0.252 OA
BRANCH   4   6
ATOM      6  C   UNL A   1      37.104  23.149  25.153  1.00  0.00     0.151 C 
BRANCH   6   7
ATOM      7  C   UNL A   1      36.073  22.037  25.364  1.00  0.00     0.051 C 
ATOM      8  C   UNL A   1      34.669  21.547  24.691  1.00  0.00     0.029 C 
ATOM      9  C   UNL A   1      36.577  20.686  24.749  1.00  0.00     0.029 C 
ATOM     10  C   UNL A   1      35.173  20.100  24.903  1.00  0.00     0.005 C 
BRANCH   7  11
ATOM     11  N   UNL A   1      35.670  22.202  26.739  1.00  0.00    -0.346 N 
ATOM     12  C   UNL A   1      34.530  22.931  27.052  1.00  0.00     0.258 C 
ATOM     13  H   UNL A   1      36.206  21.797  27.459  1.00  0.00     0.164 HD
ATOM     14  O   UNL A   1      34.067  22.696  28.162  1.00  0.00    -0.269 OA
BRANCH  12  15
ATOM     15  C   UNL A   1      33.921  23.958  26.005  1.00  0.00     0.117 A 
ATOM     16  C   UNL A   1      34.646  25.064  25.414  1.00  0.00     0.021 A 
ATOM     17  C   UNL A   1      32.562  24.000  25.754  1.00  0.00     0.282 A 
ATOM     18  C   UNL A   1      34.081  26.104  24.669  1.00  0.00     0.001 A 
ATOM     19  C   UNL A   1      31.978  25.020  24.953  1.00  0.00     0.086 A 
ATOM     20  C   UNL A   1      32.732  26.074  24.428  1.00  0.00     0.007 A 
BRANCH  17  21
ATOM     21  N   UNL A   1      31.653  23.069  26.384  1.00  0.00     0.063 N 
ATOM     22  O   UNL A   1      31.105  23.456  27.423  1.00  0.00    -0.258 OA
ATOM     23  O   UNL A   1      31.511  21.949  25.885  1.00  0.00    -0.258 OA
ENDBRANCH  17  21
ENDBRANCH  12  15
ENDBRANCH   7  11
ENDBRANCH   6   7
ENDBRANCH   4   6
ENDBRANCH   3   4
ENDBRANCH   2   3
ENDBRANCH   1   2
BRANCH   1  24
ATOM     24  O   UNL A   1      43.002  22.428  26.998  1.00  0.00    -0.374 OA
BRANCH  24  25
ATOM     25  C   UNL A   1      43.887  22.343  25.869  1.00  0.00     0.202 C 
BRANCH  25  26
ATOM     26  C   UNL A   1      43.431  23.399  24.855  1.00  0.00     0.261 C 
BRANCH  26  27
ATOM     27  O   UNL A   1      42.673  24.407  25.512  1.00  0.00    -0.460 OA
BRANCH  27  28
ATOM     28  C   UNL A   1      43.343  25.578  25.605  1.00  0.00     0.338 C 
ATOM     29  O   UNL A   1      44.259  25.970  24.904  1.00  0.00    -0.246 OA
BRANCH  28  30
ATOM     30  C   UNL A   1      42.531  26.424  26.482  1.00  0.00     0.060 A 
ATOM     31  C   UNL A   1      42.837  27.791  26.567  1.00  0.00     0.016 A 
ATOM     32  C   UNL A   1      41.414  25.878  27.124  1.00  0.00     0.016 A 
ATOM     33  C   UNL A   1      42.086  28.599  27.405  1.00  0.00     0.010 A 
ATOM     34  C   UNL A   1      40.665  26.680  27.960  1.00  0.00     0.010 A 
ATOM     35  C   UNL A   1      41.072  28.007  28.165  1.00  0.00    -0.014 A 
BRANCH  35  36
ATOM     36  C   UNL A   1      40.715  28.604  29.457  1.00  0.00     0.031 A 
ATOM     37  C   UNL A   1      39.534  29.531  29.451  1.00  0.00     0.074 A 
ATOM     38  C   UNL A   1      41.460  28.376  30.542  1.00  0.00     0.049 A 
ATOM     39  N   UNL A   1      39.105  30.333  30.385  1.00  0.00    -0.248 NA
ATOM     40  C   UNL A   1      38.748  29.587  28.202  1.00  0.00     0.031 C 
ATOM     41  C   UNL A   1      42.600  27.465  30.611  1.00  0.00     0.029 A 
ATOM     42  N   UNL A   1      41.380  28.932  31.785  1.00  0.00    -0.354 N 
ATOM     43  C   UNL A   1      38.027  31.006  29.822  1.00  0.00     0.074 A 
ATOM     44  C   UNL A   1      37.887  30.554  28.461  1.00  0.00     0.031 C 
ATOM     45  C   UNL A   1      43.138  27.547  31.839  1.00  0.00     0.029 A 
ATOM     46  C   UNL A   1      42.407  28.551  32.609  1.00  0.00     0.049 A 
ATOM     47  H   UNL A   1      40.660  29.544  32.063  1.00  0.00     0.167 HD
ATOM     48  C   UNL A   1      37.226  31.926  30.402  1.00  0.00     0.031 A 
ATOM     49  C   UNL A   1      42.731  29.011  33.830  1.00  0.00     0.031 A 
ATOM     50  C   UNL A   1      37.416  32.369  31.753  1.00  0.00     0.049 A 
ATOM     51  C   UNL A   1      41.861  30.075  34.442  1.00  0.00     0.074 A 
ATOM     52  C   UNL A   1      36.664  33.267  32.481  1.00  0.00     0.029 A 
ATOM     53  N   UNL A   1      38.456  31.946  32.571  1.00  0.00    -0.354 N 
ATOM     54  N   UNL A   1      40.812  30.680  33.932  1.00  0.00    -0.248 NA
ATOM     55  C   UNL A   1      42.210  30.513  35.798  1.00  0.00     0.031 C 
ATOM     56  C   UNL A   1      37.297  33.448  33.714  1.00  0.00     0.029 A 
ATOM     57  C   UNL A   1      38.390  32.595  33.787  1.00  0.00     0.049 A 
ATOM     58  H   UNL A   1      39.138  31.281  32.321  1.00  0.00     0.167 HD
ATOM     59  C   UNL A   1      40.355  31.546  34.916  1.00  0.00     0.074 A 
ATOM     60  C   UNL A   1      41.240  31.381  36.053  1.00  0.00     0.031 C 
ATOM     61  C   UNL A   1      39.297  32.397  34.890  1.00  0.00     0.031 A 
BRANCH  48  62
ATOM     62  C   UNL A   1      36.144  32.539  29.556  1.00  0.00    -0.014 A 
ATOM     63  C   UNL A   1      36.284  33.812  28.977  1.00  0.00     0.009 A 
ATOM     64  C   UNL A   1      34.949  31.834  29.350  1.00  0.00     0.009 A 
ATOM     65  C   UNL A   1      35.231  34.384  28.257  1.00  0.00     0.001 A 
ATOM     66  C   UNL A   1      33.913  32.390  28.597  1.00  0.00     0.001 A 
ATOM     67  C   UNL A   1      34.051  33.671  28.063  1.00  0.00     0.000 A 
ENDBRANCH  48  62
BRANCH  49  68
ATOM     68  C   UNL A   1      43.933  28.476  34.514  1.00  0.00    -0.014 A 
ATOM     69  C   UNL A   1      45.176  29.109  34.379  1.00  0.00     0.009 A 
ATOM     70  C   UNL A   1      43.830  27.356  35.357  1.00  0.00     0.009 A 
ATOM     71  C   UNL A   1      46.295  28.620  35.060  1.00  0.00     0.001 A 
ATOM     72  C   UNL A   1      44.942  26.889  36.060  1.00  0.00     0.001 A 
ATOM     73  C   UNL A   1      46.175  27.518  35.905  1.00  0.00     0.000 A 
ENDBRANCH  49  68
BRANCH  61  74
ATOM     74  C   UNL A   1      39.011  33.176  36.142  1.00  0.00    -0.014 A 
ATOM     75  C   UNL A   1      38.218  32.648  37.170  1.00  0.00     0.009 A 
ATOM     76  C   UNL A   1      39.630  34.423  36.327  1.00  0.00     0.009 A 
ATOM     77  C   UNL A   1      38.032  33.366  38.352  1.00  0.00     0.001 A 
ATOM     78  C   UNL A   1      39.474  35.121  37.522  1.00  0.00     0.001 A 
ATOM     79  C   UNL A   1      38.667  34.595  38.531  1.00  0.00     0.000 A 
ENDBRANCH  61  74
ENDBRANCH  35  36
ENDBRANCH  28  30
ENDBRANCH  27  28
ENDBRANCH  26  27
ENDBRANCH  25  26
ENDBRANCH  24  25
ENDBRANCH   1  24
TORSDOF 18
ENDMDL
MODEL 3
REMARK VINA RESULT:     -10.0      4.197      9.207
REMARK SMILES O=C(CC1(NC(=O)c2ccccc2[N+](=O)[O-])CCC1)OCCOCCOC(=O)c1ccc(-c2c3nc(c(-c4ccccc4)c4ccc([nH]4)c(-c4ccccc4)c4nc(c(-c5ccccc5)c5ccc2[nH]5)C=C4)C=C3)cc1
REMARK SMILES IDX 22 1 21 2 20 3 2 4 1 5 3 6 4 7 17 8 19 9 18 10 5 11 6 12
REMARK SMILES IDX 7 14 8 15 9 16 13 17 10 18 12 19 11 20 14 21 15 22 16 23
REMARK SMILES IDX 23 24 24 25 25 26 26 27 27 28 28 29 29 30 30 31 76 32 31 33
REMARK SMILES IDX 75 34 32 35 33 36 34 37 69 38 35 39 74 40 68 41 70 42 36 43
REMARK SMILES IDX 73 44 67 45 66 46 37 48 59 49 44 50 58 51 45 52 48 53 57 54
REMARK SMILES IDX 71 55 46 56 47 57 56 59 72 60 49 61 38 62 39 63 43 64 40 65
REMARK SMILES IDX 42 66 41 67 60 68 61 69 65 70 62 71 64 72 63 73 50 74 51 75
REMARK SMILES IDX 55 76 52 77 54 78 53 79
REMARK H PARENT 5 13 70 47 48 58
REMARK Flexibility Score: inf
ROOT
ATOM      1  C   UNL A   1      33.768  31.895  28.065  1.00  0.00     0.202 C 
ENDROOT
BRANCH   1   2
ATOM      2  C   UNL A   1      33.115  30.824  27.018  1.00  0.00     0.261 C 
BRANCH   2   3
ATOM      3  O   UNL A   1      32.422  29.396  27.200  1.00  0.00    -0.463 OA
BRANCH   3   4
ATOM      4  C   UNL A   1      31.845  28.178  27.274  1.00  0.00     0.308 C 
ATOM      5  O   UNL A   1      31.402  27.832  28.376  1.00  0.00    -0.252 OA
BRANCH   4   6
ATOM      6  C   UNL A   1      31.820  27.081  26.138  1.00  0.00     0.151 C 
BRANCH   6   7
ATOM      7  C   UNL A   1      32.244  27.489  24.725  1.00  0.00     0.051 C 
ATOM      8  C   UNL A   1      32.176  28.816  23.778  1.00  0.00     0.029 C 
ATOM      9  C   UNL A   1      33.778  27.809  24.675  1.00  0.00     0.029 C 
ATOM     10  C   UNL A   1      33.595  28.437  23.293  1.00  0.00     0.005 C 
BRANCH   7  11
ATOM     11  N   UNL A   1      31.589  26.520  23.879  1.00  0.00    -0.346 N 
ATOM     12  C   UNL A   1      31.788  25.162  24.088  1.00  0.00     0.258 C 
ATOM     13  H   UNL A   1      31.000  26.824  23.151  1.00  0.00     0.164 HD
ATOM     14  O   UNL A   1      30.924  24.443  23.599  1.00  0.00    -0.269 OA
BRANCH  12  15
ATOM     15  C   UNL A   1      33.045  24.652  24.911  1.00  0.00     0.117 A 
ATOM     16  C   UNL A   1      34.425  24.825  24.507  1.00  0.00     0.021 A 
ATOM     17  C   UNL A   1      32.895  23.789  25.983  1.00  0.00     0.282 A 
ATOM     18  C   UNL A   1      35.532  24.199  25.091  1.00  0.00     0.001 A 
ATOM     19  C   UNL A   1      34.013  23.187  26.623  1.00  0.00     0.086 A 
ATOM     20  C   UNL A   1      35.321  23.379  26.169  1.00  0.00     0.007 A 
BRANCH  17  21
ATOM     21  N   UNL A   1      31.586  23.374  26.433  1.00  0.00     0.063 N 
ATOM     22  O   UNL A   1      31.197  22.268  26.038  1.00  0.00    -0.258 OA
ATOM     23  O   UNL A   1      30.927  24.146  27.135  1.00  0.00    -0.258 OA
ENDBRANCH  17  21
ENDBRANCH  12  15
ENDBRANCH   7  11
ENDBRANCH   6   7
ENDBRANCH   4   6
ENDBRANCH   3   4
ENDBRANCH   2   3
ENDBRANCH   1   2
BRANCH   1  24
ATOM     24  O   UNL A   1      33.515  33.285  27.936  1.00  0.00    -0.374 OA
BRANCH  24  25
ATOM     25  C   UNL A   1      34.415  34.296  28.418  1.00  0.00     0.202 C 
BRANCH  25  26
ATOM     26  C   UNL A   1      34.389  34.232  29.950  1.00  0.00     0.261 C 
BRANCH  26  27
ATOM     27  O   UNL A   1      35.635  33.751  30.437  1.00  0.00    -0.460 OA
BRANCH  27  28
ATOM     28  C   UNL A   1      35.486  32.785  31.371  1.00  0.00     0.338 C 
ATOM     29  O   UNL A   1      34.566  32.644  32.156  1.00  0.00    -0.246 OA
BRANCH  28  30
ATOM     30  C   UNL A   1      36.463  31.751  31.023  1.00  0.00     0.060 A 
ATOM     31  C   UNL A   1      37.281  31.232  32.038  1.00  0.00     0.016 A 
ATOM     32  C   UNL A   1      36.486  31.235  29.723  1.00  0.00     0.016 A 
ATOM     33  C   UNL A   1      38.221  30.265  31.719  1.00  0.00     0.010 A 
ATOM     34  C   UNL A   1      37.422  30.274  29.401  1.00  0.00     0.010 A 
ATOM     35  C   UNL A   1      38.342  29.873  30.382  1.00  0.00    -0.014 A 
BRANCH  35  36
ATOM     36  C   UNL A   1      39.644  29.403  29.897  1.00  0.00     0.031 A 
ATOM     37  C   UNL A   1      40.716  30.447  29.768  1.00  0.00     0.074 A 
ATOM     38  C   UNL A   1      39.815  28.130  29.528  1.00  0.00     0.049 A 
ATOM     39  N   UNL A   1      41.887  30.367  29.202  1.00  0.00    -0.248 NA
ATOM     40  C   UNL A   1      40.406  31.779  30.324  1.00  0.00     0.031 C 
ATOM     41  C   UNL A   1      38.819  27.070  29.657  1.00  0.00     0.029 A 
ATOM     42  N   UNL A   1      40.888  27.533  28.933  1.00  0.00    -0.354 N 
ATOM     43  C   UNL A   1      42.432  31.641  29.307  1.00  0.00     0.074 A 
ATOM     44  C   UNL A   1      41.458  32.484  29.951  1.00  0.00     0.031 C 
ATOM     45  C   UNL A   1      39.322  25.944  29.123  1.00  0.00     0.029 A 
ATOM     46  C   UNL A   1      40.646  26.232  28.577  1.00  0.00     0.049 A 
ATOM     47  H   UNL A   1      41.747  27.989  28.775  1.00  0.00     0.167 HD
ATOM     48  C   UNL A   1      43.647  32.062  28.895  1.00  0.00     0.031 A 
ATOM     49  C   UNL A   1      41.406  25.398  27.846  1.00  0.00     0.031 A 
ATOM     50  C   UNL A   1      44.578  31.196  28.233  1.00  0.00     0.049 A 
ATOM     51  C   UNL A   1      42.734  25.898  27.347  1.00  0.00     0.074 A 
ATOM     52  C   UNL A   1      45.855  31.475  27.791  1.00  0.00     0.029 A 
ATOM     53  N   UNL A   1      44.311  29.872  27.904  1.00  0.00    -0.354 N 
ATOM     54  N   UNL A   1      43.273  27.088  27.485  1.00  0.00    -0.248 NA
ATOM     55  C   UNL A   1      43.561  24.943  26.602  1.00  0.00     0.031 C 
ATOM     56  C   UNL A   1      46.330  30.343  27.123  1.00  0.00     0.029 A 
ATOM     57  C   UNL A   1      45.385  29.331  27.229  1.00  0.00     0.049 A 
ATOM     58  H   UNL A   1      43.479  29.393  28.122  1.00  0.00     0.167 HD
ATOM     59  C   UNL A   1      44.518  27.016  26.874  1.00  0.00     0.074 A 
ATOM     60  C   UNL A   1      44.651  25.662  26.371  1.00  0.00     0.031 C 
ATOM     61  C   UNL A   1      45.471  27.975  26.745  1.00  0.00     0.031 A 
BRANCH  48  62
ATOM     62  C   UNL A   1      43.984  33.515  29.093  1.00  0.00    -0.014 A 
ATOM     63  C   UNL A   1      43.679  34.487  28.124  1.00  0.00     0.009 A 
ATOM     64  C   UNL A   1      44.638  33.916  30.266  1.00  0.00     0.009 A 
ATOM     65  C   UNL A   1      44.071  35.817  28.306  1.00  0.00     0.001 A 
ATOM     66  C   UNL A   1      44.993  35.252  30.464  1.00  0.00     0.001 A 
ATOM     67  C   UNL A   1      44.721  36.199  29.477  1.00  0.00     0.000 A 
ENDBRANCH  48  62
BRANCH  49  68
ATOM     68  C   UNL A   1      40.904  24.035  27.542  1.00  0.00    -0.014 A 
ATOM     69  C   UNL A   1      39.788  23.850  26.716  1.00  0.00     0.009 A 
ATOM     70  C   UNL A   1      41.579  22.905  28.034  1.00  0.00     0.009 A 
ATOM     71  C   UNL A   1      39.346  22.561  26.403  1.00  0.00     0.001 A 
ATOM     72  C   UNL A   1      41.156  21.619  27.694  1.00  0.00     0.001 A 
ATOM     73  C   UNL A   1      40.035  21.448  26.885  1.00  0.00     0.000 A 
ENDBRANCH  49  68
BRANCH  61  74
ATOM     74  C   UNL A   1      46.756  27.580  26.075  1.00  0.00    -0.014 A 
ATOM     75  C   UNL A   1      46.932  27.711  24.691  1.00  0.00     0.009 A 
ATOM     76  C   UNL A   1      47.837  27.160  26.866  1.00  0.00     0.009 A 
ATOM     77  C   UNL A   1      48.163  27.406  24.109  1.00  0.00     0.001 A 
ATOM     78  C   UNL A   1      49.076  26.891  26.288  1.00  0.00     0.001 A 
ATOM     79  C   UNL A   1      49.235  27.007  24.908  1.00  0.00     0.000 A 
ENDBRANCH  61  74
ENDBRANCH  35  36
ENDBRANCH  28  30
ENDBRANCH  27  28
ENDBRANCH  26  27
ENDBRANCH  25  26
ENDBRANCH  24  25
ENDBRANCH   1  24
TORSDOF 18
ENDMDL
