MODEL 1
REMARK VINA RESULT:      -9.8      0.000      0.000
REMARK SMILES [NH3+][C@@H](CCCCC(=O)OCCOCCOC(=O)c1ccc(-c2c3nc(c(-c4ccccc4)c4ccc([nH]4)c(-c4ccccc4)c4nc(c(-c5ccccc5)c5ccc2[nH]5)C=C4)C=C3)cc1)c1ccc2[nH]c(=O)[nH]c2c1
REMARK SMILES IDX 10 1 9 2 7 3 8 4 6 5 5 6 4 7 3 8 2 9 1 10 66 14 67 15 75 16
REMARK SMILES IDX 68 17 74 18 69 19 73 20 70 21 71 22 72 25 11 26 12 27 13 28
REMARK SMILES IDX 14 29 15 30 16 31 17 32 18 33 19 34 65 35 20 36 64 37 21 38
REMARK SMILES IDX 22 39 23 40 58 41 24 42 63 43 57 44 59 45 25 46 62 47 56 48
REMARK SMILES IDX 55 49 26 51 48 52 33 53 47 54 34 55 37 56 46 57 60 58 35 59
REMARK SMILES IDX 36 60 45 62 61 63 38 64 27 65 28 66 32 67 29 68 31 69 30 70
REMARK SMILES IDX 49 71 50 72 54 73 51 74 53 75 52 76 39 77 40 78 44 79 41 80
REMARK SMILES IDX 43 81 42 82
REMARK H PARENT 1 11 1 12 1 13 73 23 70 24 59 50 37 61
REMARK Flexibility Score: inf
ROOT
ATOM      1  C   UNL A   1      34.048  31.770  27.628  1.00  0.00     0.261 C 
ENDROOT
BRANCH   1   2
ATOM      2  O   UNL A   1      33.269  30.564  27.597  1.00  0.00    -0.463 OA
BRANCH   2   3
ATOM      3  C   UNL A   1      32.145  30.594  26.842  1.00  0.00     0.305 C 
ATOM      4  O   UNL A   1      31.520  31.605  26.547  1.00  0.00    -0.252 OA
BRANCH   3   5
ATOM      5  C   UNL A   1      31.778  29.225  26.315  1.00  0.00     0.123 C 
BRANCH   5   6
ATOM      6  C   UNL A   1      32.726  28.078  26.688  1.00  0.00     0.012 C 
BRANCH   6   7
ATOM      7  C   UNL A   1      33.627  27.499  25.596  1.00  0.00     0.007 C 
BRANCH   7   8
ATOM      8  C   UNL A   1      33.346  26.099  25.031  1.00  0.00     0.070 C 
BRANCH   8   9
ATOM      9  C   UNL A   1      32.687  25.938  23.636  1.00  0.00     0.212 C 
BRANCH   9  10
ATOM     10  N   UNL A   1      33.663  25.934  22.549  1.00  0.00    -0.351 N 
ATOM     11  H   UNL A   1      33.194  25.705  21.671  1.00  0.00     0.345 HD
ATOM     12  H   UNL A   1      34.383  25.237  22.740  1.00  0.00     0.345 HD
ATOM     13  H   UNL A   1      34.092  26.856  22.474  1.00  0.00     0.345 HD
ENDBRANCH   9  10
BRANCH   9  14
ATOM     14  C   UNL A   1      31.522  26.862  23.326  1.00  0.00     0.011 A 
ATOM     15  C   UNL A   1      30.224  26.553  23.826  1.00  0.00     0.012 A 
ATOM     16  C   UNL A   1      31.679  28.004  22.528  1.00  0.00     0.038 A 
ATOM     17  C   UNL A   1      29.116  27.385  23.597  1.00  0.00     0.029 A 
ATOM     18  C   UNL A   1      30.601  28.843  22.378  1.00  0.00     0.067 A 
ATOM     19  C   UNL A   1      29.348  28.540  22.893  1.00  0.00     0.066 A 
ATOM     20  N   UNL A   1      30.522  30.077  21.743  1.00  0.00    -0.306 N 
ATOM     21  N   UNL A   1      28.486  29.577  22.557  1.00  0.00    -0.306 N 
ATOM     22  C   UNL A   1      29.208  30.549  21.852  1.00  0.00     0.323 A 
ATOM     23  H   UNL A   1      31.264  30.542  21.292  1.00  0.00     0.171 HD
ATOM     24  H   UNL A   1      27.527  29.622  22.778  1.00  0.00     0.171 HD
ATOM     25  O   UNL A   1      28.779  31.608  21.416  1.00  0.00    -0.248 OA
ENDBRANCH   9  14
ENDBRANCH   8   9
ENDBRANCH   7   8
ENDBRANCH   6   7
ENDBRANCH   5   6
ENDBRANCH   3   5
ENDBRANCH   2   3
ENDBRANCH   1   2
BRANCH   1  26
ATOM     26  C   UNL A   1      34.636  31.957  29.029  1.00  0.00     0.202 C 
BRANCH  26  27
ATOM     27  O   UNL A   1      34.300  33.164  29.711  1.00  0.00    -0.374 OA
BRANCH  27  28
ATOM     28  C   UNL A   1      33.958  34.309  28.930  1.00  0.00     0.202 C 
BRANCH  28  29
ATOM     29  C   UNL A   1      33.200  35.442  29.643  1.00  0.00     0.261 C 
BRANCH  29  30
ATOM     30  O   UNL A   1      32.530  35.003  30.842  1.00  0.00    -0.460 OA
BRANCH  30  31
ATOM     31  C   UNL A   1      32.893  35.656  31.971  1.00  0.00     0.338 C 
ATOM     32  O   UNL A   1      32.296  36.572  32.521  1.00  0.00    -0.246 OA
BRANCH  31  33
ATOM     33  C   UNL A   1      34.041  34.986  32.607  1.00  0.00     0.060 A 
ATOM     34  C   UNL A   1      35.291  35.606  32.481  1.00  0.00     0.016 A 
ATOM     35  C   UNL A   1      33.931  33.734  33.214  1.00  0.00     0.016 A 
ATOM     36  C   UNL A   1      36.444  34.953  32.904  1.00  0.00     0.010 A 
ATOM     37  C   UNL A   1      35.095  33.072  33.630  1.00  0.00     0.010 A 
ATOM     38  C   UNL A   1      36.360  33.660  33.436  1.00  0.00    -0.014 A 
BRANCH  38  39
ATOM     39  C   UNL A   1      37.607  32.877  33.623  1.00  0.00     0.031 A 
ATOM     40  C   UNL A   1      38.408  33.065  34.884  1.00  0.00     0.074 A 
ATOM     41  C   UNL A   1      37.989  31.956  32.719  1.00  0.00     0.049 A 
ATOM     42  N   UNL A   1      39.516  32.479  35.260  1.00  0.00    -0.248 NA
ATOM     43  C   UNL A   1      37.888  34.043  35.853  1.00  0.00     0.031 C 
ATOM     44  C   UNL A   1      37.270  31.628  31.489  1.00  0.00     0.029 A 
ATOM     45  N   UNL A   1      39.078  31.120  32.707  1.00  0.00    -0.354 N 
ATOM     46  C   UNL A   1      39.831  33.023  36.499  1.00  0.00     0.074 A 
ATOM     47  C   UNL A   1      38.815  34.007  36.799  1.00  0.00     0.031 C 
ATOM     48  C   UNL A   1      37.936  30.656  30.842  1.00  0.00     0.029 A 
ATOM     49  C   UNL A   1      39.145  30.321  31.592  1.00  0.00     0.049 A 
ATOM     50  H   UNL A   1      39.747  31.096  33.428  1.00  0.00     0.167 HD
ATOM     51  C   UNL A   1      40.870  32.730  37.317  1.00  0.00     0.031 A 
ATOM     52  C   UNL A   1      40.083  29.432  31.211  1.00  0.00     0.031 A 
ATOM     53  C   UNL A   1      41.887  31.755  37.019  1.00  0.00     0.049 A 
ATOM     54  C   UNL A   1      41.277  29.189  32.098  1.00  0.00     0.074 A 
ATOM     55  C   UNL A   1      42.968  31.375  37.796  1.00  0.00     0.029 A 
ATOM     56  N   UNL A   1      41.953  31.014  35.851  1.00  0.00    -0.354 N 
ATOM     57  N   UNL A   1      41.552  29.695  33.275  1.00  0.00    -0.248 NA
ATOM     58  C   UNL A   1      42.287  28.242  31.600  1.00  0.00     0.031 C 
ATOM     59  C   UNL A   1      43.724  30.450  37.068  1.00  0.00     0.029 A 
ATOM     60  C   UNL A   1      43.076  30.205  35.868  1.00  0.00     0.049 A 
ATOM     61  H   UNL A   1      41.298  31.056  35.117  1.00  0.00     0.167 HD
ATOM     62  C   UNL A   1      42.747  29.108  33.672  1.00  0.00     0.074 A 
ATOM     63  C   UNL A   1      43.137  28.196  32.617  1.00  0.00     0.031 C 
ATOM     64  C   UNL A   1      43.456  29.302  34.812  1.00  0.00     0.031 A 
BRANCH  51  65
ATOM     65  C   UNL A   1      40.986  33.508  38.600  1.00  0.00    -0.014 A 
ATOM     66  C   UNL A   1      41.755  34.679  38.683  1.00  0.00     0.009 A 
ATOM     67  C   UNL A   1      40.279  33.078  39.734  1.00  0.00     0.009 A 
ATOM     68  C   UNL A   1      41.842  35.382  39.887  1.00  0.00     0.001 A 
ATOM     69  C   UNL A   1      40.344  33.800  40.927  1.00  0.00     0.001 A 
ATOM     70  C   UNL A   1      41.133  34.946  41.005  1.00  0.00     0.000 A 
ENDBRANCH  51  65
BRANCH  52  71
ATOM     71  C   UNL A   1      39.949  28.716  29.915  1.00  0.00    -0.014 A 
ATOM     72  C   UNL A   1      39.350  27.449  29.852  1.00  0.00     0.009 A 
ATOM     73  C   UNL A   1      40.448  29.288  28.734  1.00  0.00     0.009 A 
ATOM     74  C   UNL A   1      39.275  26.761  28.638  1.00  0.00     0.001 A 
ATOM     75  C   UNL A   1      40.344  28.612  27.517  1.00  0.00     0.001 A 
ATOM     76  C   UNL A   1      39.766  27.345  27.472  1.00  0.00     0.000 A 
ENDBRANCH  52  71
BRANCH  64  77
ATOM     77  C   UNL A   1      44.705  28.486  34.997  1.00  0.00    -0.014 A 
ATOM     78  C   UNL A   1      45.960  28.960  34.586  1.00  0.00     0.009 A 
ATOM     79  C   UNL A   1      44.628  27.237  35.635  1.00  0.00     0.009 A 
ATOM     80  C   UNL A   1      47.106  28.184  34.776  1.00  0.00     0.001 A 
ATOM     81  C   UNL A   1      45.779  26.478  35.853  1.00  0.00     0.001 A 
ATOM     82  C   UNL A   1      47.016  26.948  35.414  1.00  0.00     0.000 A 
ENDBRANCH  64  77
ENDBRANCH  38  39
ENDBRANCH  31  33
ENDBRANCH  30  31
ENDBRANCH  29  30
ENDBRANCH  28  29
ENDBRANCH  27  28
ENDBRANCH  26  27
ENDBRANCH   1  26
TORSDOF 20
ENDMDL
MODEL 2
REMARK VINA RESULT:      -9.7      0.758      6.025
REMARK SMILES [NH3+][C@@H](CCCCC(=O)OCCOCCOC(=O)c1ccc(-c2c3nc(c(-c4ccccc4)c4ccc([nH]4)c(-c4ccccc4)c4nc(c(-c5ccccc5)c5ccc2[nH]5)C=C4)C=C3)cc1)c1ccc2[nH]c(=O)[nH]c2c1
REMARK SMILES IDX 10 1 9 2 7 3 8 4 6 5 5 6 4 7 3 8 2 9 1 10 66 14 67 15 75 16
REMARK SMILES IDX 68 17 74 18 69 19 73 20 70 21 71 22 72 25 11 26 12 27 13 28
REMARK SMILES IDX 14 29 15 30 16 31 17 32 18 33 19 34 65 35 20 36 64 37 21 38
REMARK SMILES IDX 22 39 23 40 58 41 24 42 63 43 57 44 59 45 25 46 62 47 56 48
REMARK SMILES IDX 55 49 26 51 48 52 33 53 47 54 34 55 37 56 46 57 60 58 35 59
REMARK SMILES IDX 36 60 45 62 61 63 38 64 27 65 28 66 32 67 29 68 31 69 30 70
REMARK SMILES IDX 49 71 50 72 54 73 51 74 53 75 52 76 39 77 40 78 44 79 41 80
REMARK SMILES IDX 43 81 42 82
REMARK H PARENT 1 11 1 12 1 13 73 23 70 24 59 50 37 61
REMARK Flexibility Score: inf
ROOT
ATOM      1  C   UNL A   1      34.082  31.626  27.597  1.00  0.00     0.261 C 
ENDROOT
BRANCH   1   2
ATOM      2  O   UNL A   1      33.402  30.362  27.562  1.00  0.00    -0.463 OA
BRANCH   2   3
ATOM      3  C   UNL A   1      32.243  30.323  26.863  1.00  0.00     0.305 C 
ATOM      4  O   UNL A   1      31.500  31.277  26.674  1.00  0.00    -0.252 OA
BRANCH   3   5
ATOM      5  C   UNL A   1      31.995  28.962  26.251  1.00  0.00     0.123 C 
BRANCH   5   6
ATOM      6  C   UNL A   1      33.200  28.290  25.582  1.00  0.00     0.012 C 
BRANCH   6   7
ATOM      7  C   UNL A   1      32.957  27.449  24.327  1.00  0.00     0.007 C 
BRANCH   7   8
ATOM      8  C   UNL A   1      31.608  26.743  24.126  1.00  0.00     0.070 C 
BRANCH   8   9
ATOM      9  C   UNL A   1      30.822  26.925  22.801  1.00  0.00     0.212 C 
BRANCH   9  10
ATOM     10  N   UNL A   1      31.686  26.887  21.623  1.00  0.00    -0.351 N 
ATOM     11  H   UNL A   1      31.135  27.095  20.790  1.00  0.00     0.345 HD
ATOM     12  H   UNL A   1      32.100  25.959  21.534  1.00  0.00     0.345 HD
ATOM     13  H   UNL A   1      32.427  27.582  21.723  1.00  0.00     0.345 HD
ENDBRANCH   9  10
BRANCH   9  14
ATOM     14  C   UNL A   1      29.860  28.099  22.739  1.00  0.00     0.011 A 
ATOM     15  C   UNL A   1      28.504  27.921  23.140  1.00  0.00     0.012 A 
ATOM     16  C   UNL A   1      30.260  29.356  22.264  1.00  0.00     0.038 A 
ATOM     17  C   UNL A   1      27.578  28.977  23.133  1.00  0.00     0.029 A 
ATOM     18  C   UNL A   1      29.360  30.392  22.335  1.00  0.00     0.067 A 
ATOM     19  C   UNL A   1      28.049  30.208  22.752  1.00  0.00     0.066 A 
ATOM     20  N   UNL A   1      29.537  31.739  22.041  1.00  0.00    -0.306 N 
ATOM     21  N   UNL A   1      27.406  31.439  22.695  1.00  0.00    -0.306 N 
ATOM     22  C   UNL A   1      28.326  32.405  22.266  1.00  0.00     0.323 A 
ATOM     23  H   UNL A   1      30.372  32.156  21.726  1.00  0.00     0.171 HD
ATOM     24  H   UNL A   1      26.461  31.605  22.918  1.00  0.00     0.171 HD
ATOM     25  O   UNL A   1      28.117  33.601  22.119  1.00  0.00    -0.248 OA
ENDBRANCH   9  14
ENDBRANCH   8   9
ENDBRANCH   7   8
ENDBRANCH   6   7
ENDBRANCH   5   6
ENDBRANCH   3   5
ENDBRANCH   2   3
ENDBRANCH   1   2
BRANCH   1  26
ATOM     26  C   UNL A   1      34.679  31.843  28.990  1.00  0.00     0.202 C 
BRANCH  26  27
ATOM     27  O   UNL A   1      34.287  33.028  29.679  1.00  0.00    -0.374 OA
BRANCH  27  28
ATOM     28  C   UNL A   1      34.114  34.226  28.922  1.00  0.00     0.202 C 
BRANCH  28  29
ATOM     29  C   UNL A   1      33.353  35.379  29.598  1.00  0.00     0.261 C 
BRANCH  29  30
ATOM     30  O   UNL A   1      32.589  34.954  30.744  1.00  0.00    -0.460 OA
BRANCH  30  31
ATOM     31  C   UNL A   1      32.854  35.625  31.889  1.00  0.00     0.338 C 
ATOM     32  O   UNL A   1      32.209  36.546  32.373  1.00  0.00    -0.246 OA
BRANCH  31  33
ATOM     33  C   UNL A   1      33.949  34.973  32.629  1.00  0.00     0.060 A 
ATOM     34  C   UNL A   1      35.160  35.671  32.722  1.00  0.00     0.016 A 
ATOM     35  C   UNL A   1      33.843  33.671  33.122  1.00  0.00     0.016 A 
ATOM     36  C   UNL A   1      36.287  35.052  33.253  1.00  0.00     0.010 A 
ATOM     37  C   UNL A   1      34.983  33.045  33.647  1.00  0.00     0.010 A 
ATOM     38  C   UNL A   1      36.219  33.717  33.673  1.00  0.00    -0.014 A 
BRANCH  38  39
ATOM     39  C   UNL A   1      37.480  32.994  33.974  1.00  0.00     0.031 A 
ATOM     40  C   UNL A   1      38.019  32.012  32.967  1.00  0.00     0.074 A 
ATOM     41  C   UNL A   1      38.181  33.256  35.093  1.00  0.00     0.049 A 
ATOM     42  N   UNL A   1      39.105  31.283  33.016  1.00  0.00    -0.248 NA
ATOM     43  C   UNL A   1      37.229  31.830  31.738  1.00  0.00     0.031 C 
ATOM     44  C   UNL A   1      37.806  34.231  36.117  1.00  0.00     0.029 A 
ATOM     45  N   UNL A   1      39.363  32.727  35.547  1.00  0.00    -0.354 N 
ATOM     46  C   UNL A   1      39.122  30.549  31.836  1.00  0.00     0.074 A 
ATOM     47  C   UNL A   1      37.925  30.899  31.103  1.00  0.00     0.031 C 
ATOM     48  C   UNL A   1      38.745  34.232  37.079  1.00  0.00     0.029 A 
ATOM     49  C   UNL A   1      39.763  33.234  36.758  1.00  0.00     0.049 A 
ATOM     50  H   UNL A   1      39.875  32.047  35.052  1.00  0.00     0.167 HD
ATOM     51  C   UNL A   1      40.051  29.667  31.397  1.00  0.00     0.031 A 
ATOM     52  C   UNL A   1      40.823  32.919  37.529  1.00  0.00     0.031 A 
ATOM     53  C   UNL A   1      41.241  29.313  32.125  1.00  0.00     0.049 A 
ATOM     54  C   UNL A   1      41.794  31.868  37.059  1.00  0.00     0.074 A 
ATOM     55  C   UNL A   1      42.251  28.442  31.753  1.00  0.00     0.029 A 
ATOM     56  N   UNL A   1      41.576  29.802  33.378  1.00  0.00    -0.354 N 
ATOM     57  N   UNL A   1      41.809  31.198  35.933  1.00  0.00    -0.248 NA
ATOM     58  C   UNL A   1      42.901  31.538  37.970  1.00  0.00     0.031 C 
ATOM     59  C   UNL A   1      43.164  28.356  32.809  1.00  0.00     0.029 A 
ATOM     60  C   UNL A   1      42.758  29.225  33.808  1.00  0.00     0.049 A 
ATOM     61  H   UNL A   1      41.052  30.462  33.885  1.00  0.00     0.167 HD
ATOM     62  C   UNL A   1      42.940  30.391  35.986  1.00  0.00     0.074 A 
ATOM     63  C   UNL A   1      43.593  30.666  37.249  1.00  0.00     0.031 C 
ATOM     64  C   UNL A   1      43.399  29.504  35.068  1.00  0.00     0.031 A 
BRANCH  51  65
ATOM     65  C   UNL A   1      39.795  28.985  30.080  1.00  0.00    -0.014 A 
ATOM     66  C   UNL A   1      39.187  27.722  30.012  1.00  0.00     0.009 A 
ATOM     67  C   UNL A   1      40.135  29.640  28.886  1.00  0.00     0.009 A 
ATOM     68  C   UNL A   1      38.959  27.114  28.775  1.00  0.00     0.001 A 
ATOM     69  C   UNL A   1      39.877  29.043  27.651  1.00  0.00     0.001 A 
ATOM     70  C   UNL A   1      39.299  27.777  27.597  1.00  0.00     0.000 A 
ENDBRANCH  51  65
BRANCH  52  71
ATOM     71  C   UNL A   1      41.014  33.588  38.843  1.00  0.00    -0.014 A 
ATOM     72  C   UNL A   1      41.794  34.749  38.951  1.00  0.00     0.009 A 
ATOM     73  C   UNL A   1      40.437  33.050  40.005  1.00  0.00     0.009 A 
ATOM     74  C   UNL A   1      42.011  35.342  40.197  1.00  0.00     0.001 A 
ATOM     75  C   UNL A   1      40.630  33.662  41.244  1.00  0.00     0.001 A 
ATOM     76  C   UNL A   1      41.424  34.803  41.341  1.00  0.00     0.000 A 
ENDBRANCH  52  71
BRANCH  64  77
ATOM     77  C   UNL A   1      44.689  28.795  35.376  1.00  0.00    -0.014 A 
ATOM     78  C   UNL A   1      44.707  27.551  36.025  1.00  0.00     0.009 A 
ATOM     79  C   UNL A   1      45.907  29.365  34.970  1.00  0.00     0.009 A 
ATOM     80  C   UNL A   1      45.919  26.911  36.293  1.00  0.00     0.001 A 
ATOM     81  C   UNL A   1      47.114  28.708  35.209  1.00  0.00     0.001 A 
ATOM     82  C   UNL A   1      47.120  27.486  35.881  1.00  0.00     0.000 A 
ENDBRANCH  64  77
ENDBRANCH  38  39
ENDBRANCH  31  33
ENDBRANCH  30  31
ENDBRANCH  29  30
ENDBRANCH  28  29
ENDBRANCH  27  28
ENDBRANCH  26  27
ENDBRANCH   1  26
TORSDOF 20
ENDMDL
MODEL 3
REMARK VINA RESULT:      -9.5      2.731      5.211
REMARK SMILES [NH3+][C@@H](CCCCC(=O)OCCOCCOC(=O)c1ccc(-c2c3nc(c(-c4ccccc4)c4ccc([nH]4)c(-c4ccccc4)c4nc(c(-c5ccccc5)c5ccc2[nH]5)C=C4)C=C3)cc1)c1ccc2[nH]c(=O)[nH]c2c1
REMARK SMILES IDX 10 1 9 2 7 3 8 4 6 5 5 6 4 7 3 8 2 9 1 10 66 14 67 15 75 16
REMARK SMILES IDX 68 17 74 18 69 19 73 20 70 21 71 22 72 25 11 26 12 27 13 28
REMARK SMILES IDX 14 29 15 30 16 31 17 32 18 33 19 34 65 35 20 36 64 37 21 38
REMARK SMILES IDX 22 39 23 40 58 41 24 42 63 43 57 44 59 45 25 46 62 47 56 48
REMARK SMILES IDX 55 49 26 51 48 52 33 53 47 54 34 55 37 56 46 57 60 58 35 59
REMARK SMILES IDX 36 60 45 62 61 63 38 64 27 65 28 66 32 67 29 68 31 69 30 70
REMARK SMILES IDX 49 71 50 72 54 73 51 74 53 75 52 76 39 77 40 78 44 79 41 80
REMARK SMILES IDX 43 81 42 82
REMARK H PARENT 1 11 1 12 1 13 73 23 70 24 59 50 37 61
REMARK Flexibility Score: inf
ROOT
ATOM      1  C   UNL A   1      31.100  28.911  23.209  1.00  0.00     0.261 C 
ENDROOT
BRANCH   1   2
ATOM      2  O   UNL A   1      30.865  27.494  23.238  1.00  0.00    -0.463 OA
BRANCH   2   3
ATOM      3  C   UNL A   1      29.670  27.095  23.734  1.00  0.00     0.305 C 
ATOM      4  O   UNL A   1      28.593  27.624  23.492  1.00  0.00    -0.252 OA
BRANCH   3   5
ATOM      5  C   UNL A   1      29.792  25.841  24.570  1.00  0.00     0.123 C 
BRANCH   5   6
ATOM      6  C   UNL A   1      30.508  25.992  25.919  1.00  0.00     0.012 C 
BRANCH   6   7
ATOM      7  C   UNL A   1      31.882  25.341  26.087  1.00  0.00     0.007 C 
BRANCH   7   8
ATOM      8  C   UNL A   1      33.134  26.037  25.533  1.00  0.00     0.070 C 
BRANCH   8   9
ATOM      9  C   UNL A   1      33.804  25.519  24.233  1.00  0.00     0.212 C 
BRANCH   9  10
ATOM     10  N   UNL A   1      32.832  25.077  23.236  1.00  0.00    -0.351 N 
ATOM     11  H   UNL A   1      32.890  24.063  23.131  1.00  0.00     0.345 HD
ATOM     12  H   UNL A   1      33.033  25.524  22.342  1.00  0.00     0.345 HD
ATOM     13  H   UNL A   1      31.892  25.333  23.541  1.00  0.00     0.345 HD
ENDBRANCH   9  10
BRANCH   9  14
ATOM     14  C   UNL A   1      34.919  24.501  24.404  1.00  0.00     0.011 A 
ATOM     15  C   UNL A   1      35.128  23.510  23.402  1.00  0.00     0.012 A 
ATOM     16  C   UNL A   1      35.736  24.487  25.544  1.00  0.00     0.038 A 
ATOM     17  C   UNL A   1      36.161  22.564  23.491  1.00  0.00     0.029 A 
ATOM     18  C   UNL A   1      36.786  23.601  25.577  1.00  0.00     0.067 A 
ATOM     19  C   UNL A   1      36.992  22.658  24.579  1.00  0.00     0.066 A 
ATOM     20  N   UNL A   1      37.796  23.462  26.521  1.00  0.00    -0.306 N 
ATOM     21  N   UNL A   1      38.118  21.916  24.919  1.00  0.00    -0.306 N 
ATOM     22  C   UNL A   1      38.637  22.416  26.120  1.00  0.00     0.323 A 
ATOM     23  H   UNL A   1      37.902  24.004  27.336  1.00  0.00     0.171 HD
ATOM     24  H   UNL A   1      38.489  21.166  24.401  1.00  0.00     0.171 HD
ATOM     25  O   UNL A   1      39.634  22.022  26.707  1.00  0.00    -0.248 OA
ENDBRANCH   9  14
ENDBRANCH   8   9
ENDBRANCH   7   8
ENDBRANCH   6   7
ENDBRANCH   5   6
ENDBRANCH   3   5
ENDBRANCH   2   3
ENDBRANCH   1   2
BRANCH   1  26
ATOM     26  C   UNL A   1      31.804  29.335  24.500  1.00  0.00     0.202 C 
BRANCH  26  27
ATOM     27  O   UNL A   1      31.130  30.291  25.315  1.00  0.00    -0.374 OA
BRANCH  27  28
ATOM     28  C   UNL A   1      31.820  30.824  26.445  1.00  0.00     0.202 C 
BRANCH  28  29
ATOM     29  C   UNL A   1      31.459  32.257  26.874  1.00  0.00     0.261 C 
BRANCH  29  30
ATOM     30  O   UNL A   1      32.572  33.170  26.780  1.00  0.00    -0.460 OA
BRANCH  30  31
ATOM     31  C   UNL A   1      33.090  33.562  27.967  1.00  0.00     0.338 C 
ATOM     32  O   UNL A   1      32.540  34.234  28.830  1.00  0.00    -0.246 OA
BRANCH  31  33
ATOM     33  C   UNL A   1      34.386  32.903  28.208  1.00  0.00     0.060 A 
ATOM     34  C   UNL A   1      34.357  31.542  28.537  1.00  0.00     0.016 A 
ATOM     35  C   UNL A   1      35.589  33.610  28.227  1.00  0.00     0.016 A 
ATOM     36  C   UNL A   1      35.519  30.894  28.945  1.00  0.00     0.010 A 
ATOM     37  C   UNL A   1      36.758  32.959  28.649  1.00  0.00     0.010 A 
ATOM     38  C   UNL A   1      36.718  31.610  29.052  1.00  0.00    -0.014 A 
BRANCH  38  39
ATOM     39  C   UNL A   1      37.871  30.982  29.745  1.00  0.00     0.031 A 
ATOM     40  C   UNL A   1      38.116  31.304  31.196  1.00  0.00     0.074 A 
ATOM     41  C   UNL A   1      38.649  30.081  29.119  1.00  0.00     0.049 A 
ATOM     42  N   UNL A   1      39.051  30.862  31.998  1.00  0.00    -0.248 NA
ATOM     43  C   UNL A   1      37.181  32.248  31.828  1.00  0.00     0.031 C 
ATOM     44  C   UNL A   1      38.480  29.631  27.738  1.00  0.00     0.029 A 
ATOM     45  N   UNL A   1      39.735  29.375  29.574  1.00  0.00    -0.354 N 
ATOM     46  C   UNL A   1      38.824  31.481  33.221  1.00  0.00     0.074 A 
ATOM     47  C   UNL A   1      37.683  32.351  33.050  1.00  0.00     0.031 C 
ATOM     48  C   UNL A   1      39.429  28.720  27.459  1.00  0.00     0.029 A 
ATOM     49  C   UNL A   1      40.291  28.551  28.626  1.00  0.00     0.049 A 
ATOM     50  H   UNL A   1      40.083  29.452  30.491  1.00  0.00     0.167 HD
ATOM     51  C   UNL A   1      39.502  31.336  34.386  1.00  0.00     0.031 A 
ATOM     52  C   UNL A   1      41.383  27.763  28.688  1.00  0.00     0.031 A 
ATOM     53  C   UNL A   1      40.641  30.475  34.560  1.00  0.00     0.049 A 
ATOM     54  C   UNL A   1      42.172  27.689  29.969  1.00  0.00     0.074 A 
ATOM     55  C   UNL A   1      41.382  30.248  35.708  1.00  0.00     0.029 A 
ATOM     56  N   UNL A   1      41.212  29.707  33.558  1.00  0.00    -0.354 N 
ATOM     57  N   UNL A   1      41.935  28.264  31.123  1.00  0.00    -0.248 NA
ATOM     58  C   UNL A   1      43.378  26.848  29.953  1.00  0.00     0.031 C 
ATOM     59  C   UNL A   1      42.439  29.392  35.383  1.00  0.00     0.029 A 
ATOM     60  C   UNL A   1      42.316  29.033  34.050  1.00  0.00     0.049 A 
ATOM     61  H   UNL A   1      40.880  29.648  32.632  1.00  0.00     0.167 HD
ATOM     62  C   UNL A   1      42.942  27.831  31.977  1.00  0.00     0.074 A 
ATOM     63  C   UNL A   1      43.783  26.934  31.213  1.00  0.00     0.031 C 
ATOM     64  C   UNL A   1      43.148  28.144  33.281  1.00  0.00     0.031 A 
BRANCH  51  65
ATOM     65  C   UNL A   1      39.053  32.166  35.558  1.00  0.00    -0.014 A 
ATOM     66  C   UNL A   1      39.556  33.457  35.781  1.00  0.00     0.009 A 
ATOM     67  C   UNL A   1      38.079  31.656  36.432  1.00  0.00     0.009 A 
ATOM     68  C   UNL A   1      39.118  34.206  36.877  1.00  0.00     0.001 A 
ATOM     69  C   UNL A   1      37.622  32.419  37.508  1.00  0.00     0.001 A 
ATOM     70  C   UNL A   1      38.149  33.688  37.736  1.00  0.00     0.000 A 
ENDBRANCH  51  65
BRANCH  52  71
ATOM     71  C   UNL A   1      41.814  26.993  27.491  1.00  0.00    -0.014 A 
ATOM     72  C   UNL A   1      42.646  27.576  26.523  1.00  0.00     0.009 A 
ATOM     73  C   UNL A   1      41.371  25.675  27.298  1.00  0.00     0.009 A 
ATOM     74  C   UNL A   1      43.004  26.863  25.376  1.00  0.00     0.001 A 
ATOM     75  C   UNL A   1      41.756  24.954  26.166  1.00  0.00     0.001 A 
ATOM     76  C   UNL A   1      42.565  25.552  25.202  1.00  0.00     0.000 A 
ENDBRANCH  52  71
BRANCH  64  77
ATOM     77  C   UNL A   1      44.306  27.483  33.976  1.00  0.00    -0.014 A 
ATOM     78  C   UNL A   1      45.572  28.087  34.032  1.00  0.00     0.009 A 
ATOM     79  C   UNL A   1      44.114  26.252  34.624  1.00  0.00     0.009 A 
ATOM     80  C   UNL A   1      46.629  27.455  34.690  1.00  0.00     0.001 A 
ATOM     81  C   UNL A   1      45.163  25.638  35.309  1.00  0.00     0.001 A 
ATOM     82  C   UNL A   1      46.423  26.235  35.333  1.00  0.00     0.000 A 
ENDBRANCH  64  77
ENDBRANCH  38  39
ENDBRANCH  31  33
ENDBRANCH  30  31
ENDBRANCH  29  30
ENDBRANCH  28  29
ENDBRANCH  27  28
ENDBRANCH  26  27
ENDBRANCH   1  26
TORSDOF 20
ENDMDL
