MODEL 1
REMARK VINA RESULT:     -10.3      0.000      0.000
REMARK SMILES CC(C)[C@@H](NC(=O)[C@@H]1CC[C@H]2CCCC[C@@H]2[NH2+]1)C(=O)OCCOCCOC(=O)c1ccc(-c2c3nc(c(-c4ccccc4)c4ccc([nH]4)c(-c4ccccc4)c4nc(c(-c5ccccc5)c5ccc2[nH]5)C=C4)C=C3)cc1
REMARK SMILES IDX 23 1 22 2 21 3 20 4 18 5 19 6 4 7 2 8 1 9 3 10 5 11 6 12
REMARK SMILES IDX 7 14 8 15 9 16 17 17 10 18 16 19 11 22 15 23 12 24 14 25
REMARK SMILES IDX 13 26 24 27 25 28 26 29 27 30 28 31 29 32 30 33 76 34 31 35
REMARK SMILES IDX 75 36 32 37 33 38 34 39 69 40 35 41 74 42 68 43 70 44 36 45
REMARK SMILES IDX 73 46 67 47 66 48 37 50 59 51 44 52 58 53 45 54 48 55 57 56
REMARK SMILES IDX 71 57 46 58 47 59 56 61 72 62 49 63 38 64 39 65 43 66 40 67
REMARK SMILES IDX 42 68 41 69 60 70 61 71 65 72 62 73 64 74 63 75 50 76 51 77
REMARK SMILES IDX 55 78 52 79 54 80 53 81
REMARK H PARENT 5 13 17 20 17 21 70 49 48 60
REMARK Flexibility Score: inf
ROOT
ATOM      1  O   UNL A   1      31.558  29.775  26.867  1.00  0.00    -0.374 OA
ENDROOT
BRANCH   1   2
ATOM      2  C   UNL A   1      32.750  29.037  27.139  1.00  0.00     0.202 C 
BRANCH   2   3
ATOM      3  C   UNL A   1      33.838  29.200  26.078  1.00  0.00     0.261 C 
BRANCH   3   4
ATOM      4  O   UNL A   1      33.892  28.050  25.198  1.00  0.00    -0.462 OA
BRANCH   4   5
ATOM      5  C   UNL A   1      33.095  28.174  24.104  1.00  0.00     0.328 C 
ATOM      6  O   UNL A   1      33.185  29.113  23.314  1.00  0.00    -0.250 OA
BRANCH   5   7
ATOM      7  C   UNL A   1      32.012  27.088  23.949  1.00  0.00     0.195 C 
BRANCH   7   8
ATOM      8  C   UNL A   1      30.487  27.324  24.124  1.00  0.00     0.017 C 
ATOM      9  C   UNL A   1      29.911  28.061  22.895  1.00  0.00     0.010 C 
ATOM     10  C   UNL A   1      29.668  26.051  24.319  1.00  0.00     0.010 C 
ENDBRANCH   7   8
BRANCH   7  11
ATOM     11  N   UNL A   1      32.297  26.180  22.816  1.00  0.00    -0.337 N 
ATOM     12  C   UNL A   1      33.271  25.340  22.399  1.00  0.00     0.278 C 
ATOM     13  H   UNL A   1      31.553  26.191  22.170  1.00  0.00     0.164 HD
ATOM     14  O   UNL A   1      33.204  25.108  21.179  1.00  0.00    -0.268 OA
BRANCH  12  15
ATOM     15  C   UNL A   1      34.306  24.549  23.270  1.00  0.00     0.272 C 
ATOM     16  C   UNL A   1      34.590  23.072  23.074  1.00  0.00     0.076 C 
ATOM     17  N   UNL A   1      34.024  24.794  24.710  1.00  0.00    -0.333 N 
ATOM     18  C   UNL A   1      33.451  22.150  23.498  1.00  0.00     0.016 C 
ATOM     19  C   UNL A   1      33.259  23.745  25.398  1.00  0.00     0.186 C 
ATOM     20  H   UNL A   1      33.496  25.665  24.783  1.00  0.00     0.347 HD
ATOM     21  H   UNL A   1      34.934  24.823  25.171  1.00  0.00     0.347 HD
ATOM     22  C   UNL A   1      32.459  22.884  24.407  1.00  0.00     0.048 C 
ATOM     23  C   UNL A   1      32.370  24.398  26.458  1.00  0.00     0.065 C 
ATOM     24  C   UNL A   1      31.500  21.911  25.088  1.00  0.00     0.010 C 
ATOM     25  C   UNL A   1      31.435  23.388  27.120  1.00  0.00     0.006 C 
ATOM     26  C   UNL A   1      30.605  22.632  26.089  1.00  0.00     0.001 C 
ENDBRANCH  12  15
ENDBRANCH   7  11
ENDBRANCH   5   7
ENDBRANCH   4   5
ENDBRANCH   3   4
ENDBRANCH   2   3
ENDBRANCH   1   2
BRANCH   1  27
ATOM     27  C   UNL A   1      31.719  31.009  26.177  1.00  0.00     0.202 C 
BRANCH  27  28
ATOM     28  C   UNL A   1      31.445  32.256  27.022  1.00  0.00     0.261 C 
BRANCH  28  29
ATOM     29  O   UNL A   1      32.406  33.315  26.833  1.00  0.00    -0.460 OA
BRANCH  29  30
ATOM     30  C   UNL A   1      33.031  33.718  27.965  1.00  0.00     0.338 C 
ATOM     31  O   UNL A   1      32.630  34.529  28.782  1.00  0.00    -0.246 OA
BRANCH  30  32
ATOM     32  C   UNL A   1      34.314  33.010  28.154  1.00  0.00     0.060 A 
ATOM     33  C   UNL A   1      34.276  31.704  28.659  1.00  0.00     0.016 A 
ATOM     34  C   UNL A   1      35.529  33.692  28.052  1.00  0.00     0.016 A 
ATOM     35  C   UNL A   1      35.441  31.104  29.141  1.00  0.00     0.010 A 
ATOM     36  C   UNL A   1      36.695  33.090  28.544  1.00  0.00     0.010 A 
ATOM     37  C   UNL A   1      36.648  31.815  29.139  1.00  0.00    -0.014 A 
BRANCH  37  38
ATOM     38  C   UNL A   1      37.811  31.332  29.930  1.00  0.00     0.031 A 
ATOM     39  C   UNL A   1      38.744  30.323  29.309  1.00  0.00     0.074 A 
ATOM     40  C   UNL A   1      38.058  31.776  31.175  1.00  0.00     0.049 A 
ATOM     41  N   UNL A   1      39.744  29.675  29.849  1.00  0.00    -0.248 NA
ATOM     42  C   UNL A   1      38.521  30.012  27.887  1.00  0.00     0.031 C 
ATOM     43  C   UNL A   1      37.304  32.811  31.875  1.00  0.00     0.029 A 
ATOM     44  N   UNL A   1      39.019  31.389  32.078  1.00  0.00    -0.354 N 
ATOM     45  C   UNL A   1      40.261  28.870  28.840  1.00  0.00     0.074 A 
ATOM     46  C   UNL A   1      39.455  29.099  27.661  1.00  0.00     0.031 C 
ATOM     47  C   UNL A   1      37.812  32.959  33.112  1.00  0.00     0.029 A 
ATOM     48  C   UNL A   1      38.904  32.005  33.300  1.00  0.00     0.049 A 
ATOM     49  H   UNL A   1      39.722  30.731  31.870  1.00  0.00     0.167 HD
ATOM     50  C   UNL A   1      41.315  28.020  28.884  1.00  0.00     0.031 A 
ATOM     51  C   UNL A   1      39.580  31.803  34.448  1.00  0.00     0.031 A 
ATOM     52  C   UNL A   1      42.122  27.777  30.047  1.00  0.00     0.049 A 
ATOM     53  C   UNL A   1      40.672  30.768  34.508  1.00  0.00     0.074 A 
ATOM     54  C   UNL A   1      43.204  26.922  30.182  1.00  0.00     0.029 A 
ATOM     55  N   UNL A   1      41.939  28.388  31.275  1.00  0.00    -0.354 N 
ATOM     56  N   UNL A   1      41.139  30.003  33.553  1.00  0.00    -0.248 NA
ATOM     57  C   UNL A   1      41.329  30.571  35.810  1.00  0.00     0.031 C 
ATOM     58  C   UNL A   1      43.650  26.986  31.507  1.00  0.00     0.029 A 
ATOM     59  C   UNL A   1      42.874  27.915  32.180  1.00  0.00     0.049 A 
ATOM     60  H   UNL A   1      41.247  29.059  31.476  1.00  0.00     0.167 HD
ATOM     61  C   UNL A   1      42.167  29.264  34.127  1.00  0.00     0.074 A 
ATOM     62  C   UNL A   1      42.255  29.668  35.514  1.00  0.00     0.031 C 
ATOM     63  C   UNL A   1      42.969  28.336  33.552  1.00  0.00     0.031 A 
BRANCH  50  64
ATOM     64  C   UNL A   1      41.636  27.257  27.632  1.00  0.00    -0.014 A 
ATOM     65  C   UNL A   1      41.019  26.029  27.353  1.00  0.00     0.009 A 
ATOM     66  C   UNL A   1      42.537  27.796  26.701  1.00  0.00     0.009 A 
ATOM     67  C   UNL A   1      41.318  25.343  26.173  1.00  0.00     0.001 A 
ATOM     68  C   UNL A   1      42.815  27.120  25.513  1.00  0.00     0.001 A 
ATOM     69  C   UNL A   1      42.211  25.891  25.253  1.00  0.00     0.000 A 
ENDBRANCH  50  64
BRANCH  51  70
ATOM     70  C   UNL A   1      39.226  32.579  35.664  1.00  0.00    -0.014 A 
ATOM     71  C   UNL A   1      38.261  32.097  36.562  1.00  0.00     0.009 A 
ATOM     72  C   UNL A   1      39.827  33.824  35.914  1.00  0.00     0.009 A 
ATOM     73  C   UNL A   1      37.887  32.859  37.672  1.00  0.00     0.001 A 
ATOM     74  C   UNL A   1      39.467  34.570  37.037  1.00  0.00     0.001 A 
ATOM     75  C   UNL A   1      38.493  34.091  37.910  1.00  0.00     0.000 A 
ENDBRANCH  51  70
BRANCH  63  76
ATOM     76  C   UNL A   1      44.054  27.730  34.394  1.00  0.00    -0.014 A 
ATOM     77  C   UNL A   1      43.843  26.547  35.117  1.00  0.00     0.009 A 
ATOM     78  C   UNL A   1      45.329  28.319  34.407  1.00  0.00     0.009 A 
ATOM     79  C   UNL A   1      44.884  25.975  35.852  1.00  0.00     0.001 A 
ATOM     80  C   UNL A   1      46.374  27.733  35.125  1.00  0.00     0.001 A 
ATOM     81  C   UNL A   1      46.148  26.565  35.850  1.00  0.00     0.000 A 
ENDBRANCH  63  76
ENDBRANCH  37  38
ENDBRANCH  30  32
ENDBRANCH  29  30
ENDBRANCH  28  29
ENDBRANCH  27  28
ENDBRANCH   1  27
TORSDOF 17
ENDMDL
MODEL 2
REMARK VINA RESULT:     -10.3      4.174      8.337
REMARK SMILES CC(C)[C@@H](NC(=O)[C@@H]1CC[C@H]2CCCC[C@@H]2[NH2+]1)C(=O)OCCOCCOC(=O)c1ccc(-c2c3nc(c(-c4ccccc4)c4ccc([nH]4)c(-c4ccccc4)c4nc(c(-c5ccccc5)c5ccc2[nH]5)C=C4)C=C3)cc1
REMARK SMILES IDX 23 1 22 2 21 3 20 4 18 5 19 6 4 7 2 8 1 9 3 10 5 11 6 12
REMARK SMILES IDX 7 14 8 15 9 16 17 17 10 18 16 19 11 22 15 23 12 24 14 25
REMARK SMILES IDX 13 26 24 27 25 28 26 29 27 30 28 31 29 32 30 33 76 34 31 35
REMARK SMILES IDX 75 36 32 37 33 38 34 39 69 40 35 41 74 42 68 43 70 44 36 45
REMARK SMILES IDX 73 46 67 47 66 48 37 50 59 51 44 52 58 53 45 54 48 55 57 56
REMARK SMILES IDX 71 57 46 58 47 59 56 61 72 62 49 63 38 64 39 65 43 66 40 67
REMARK SMILES IDX 42 68 41 69 60 70 61 71 65 72 62 73 64 74 63 75 50 76 51 77
REMARK SMILES IDX 55 78 52 79 54 80 53 81
REMARK H PARENT 5 13 17 20 17 21 70 49 48 60
REMARK Flexibility Score: inf
ROOT
ATOM      1  O   UNL A   1      37.499  21.266  25.050  1.00  0.00    -0.374 OA
ENDROOT
BRANCH   1   2
ATOM      2  C   UNL A   1      36.944  22.107  24.038  1.00  0.00     0.202 C 
BRANCH   2   3
ATOM      3  C   UNL A   1      36.260  23.362  24.578  1.00  0.00     0.261 C 
BRANCH   3   4
ATOM      4  O   UNL A   1      34.935  23.065  25.083  1.00  0.00    -0.462 OA
BRANCH   4   5
ATOM      5  C   UNL A   1      34.001  22.947  24.102  1.00  0.00     0.328 C 
ATOM      6  O   UNL A   1      34.132  23.455  22.990  1.00  0.00    -0.250 OA
BRANCH   5   7
ATOM      7  C   UNL A   1      32.721  22.183  24.497  1.00  0.00     0.195 C 
BRANCH   7   8
ATOM      8  C   UNL A   1      32.482  20.667  24.256  1.00  0.00     0.017 C 
ATOM      9  C   UNL A   1      32.153  20.404  22.770  1.00  0.00     0.010 C 
ATOM     10  C   UNL A   1      33.663  19.774  24.628  1.00  0.00     0.010 C 
ENDBRANCH   7   8
BRANCH   7  11
ATOM     11  N   UNL A   1      32.203  22.616  25.813  1.00  0.00    -0.337 N 
ATOM     12  C   UNL A   1      31.566  23.674  26.364  1.00  0.00     0.278 C 
ATOM     13  H   UNL A   1      32.373  21.925  26.494  1.00  0.00     0.164 HD
ATOM     14  O   UNL A   1      31.703  23.717  27.599  1.00  0.00    -0.268 OA
BRANCH  12  15
ATOM     15  C   UNL A   1      30.597  24.690  25.668  1.00  0.00     0.272 C 
ATOM     16  C   UNL A   1      30.738  25.098  24.213  1.00  0.00     0.076 C 
ATOM     17  N   UNL A   1      30.494  25.918  26.500  1.00  0.00    -0.333 N 
ATOM     18  C   UNL A   1      31.952  25.974  23.919  1.00  0.00     0.016 C 
ATOM     19  C   UNL A   1      31.329  27.050  26.075  1.00  0.00     0.186 C 
ATOM     20  H   UNL A   1      30.761  25.673  27.455  1.00  0.00     0.347 HD
ATOM     21  H   UNL A   1      29.528  26.236  26.409  1.00  0.00     0.347 HD
ATOM     22  C   UNL A   1      32.511  26.588  25.208  1.00  0.00     0.048 C 
ATOM     23  C   UNL A   1      31.780  27.823  27.316  1.00  0.00     0.065 C 
ATOM     24  C   UNL A   1      33.513  27.700  24.907  1.00  0.00     0.010 C 
ATOM     25  C   UNL A   1      32.771  28.932  26.969  1.00  0.00     0.006 C 
ATOM     26  C   UNL A   1      33.965  28.393  26.188  1.00  0.00     0.001 C 
ENDBRANCH  12  15
ENDBRANCH   7  11
ENDBRANCH   5   7
ENDBRANCH   4   5
ENDBRANCH   3   4
ENDBRANCH   2   3
ENDBRANCH   1   2
BRANCH   1  27
ATOM     27  C   UNL A   1      37.657  19.892  24.716  1.00  0.00     0.202 C 
BRANCH  27  28
ATOM     28  C   UNL A   1      38.858  19.207  25.376  1.00  0.00     0.261 C 
BRANCH  28  29
ATOM     29  O   UNL A   1      39.678  20.095  26.165  1.00  0.00    -0.460 OA
BRANCH  29  30
ATOM     30  C   UNL A   1      41.004  19.819  26.127  1.00  0.00     0.338 C 
ATOM     31  O   UNL A   1      41.534  18.789  25.750  1.00  0.00    -0.246 OA
BRANCH  30  32
ATOM     32  C   UNL A   1      41.808  20.974  26.580  1.00  0.00     0.060 A 
ATOM     33  C   UNL A   1      41.795  21.288  27.944  1.00  0.00     0.016 A 
ATOM     34  C   UNL A   1      42.373  21.856  25.657  1.00  0.00     0.016 A 
ATOM     35  C   UNL A   1      42.275  22.524  28.384  1.00  0.00     0.010 A 
ATOM     36  C   UNL A   1      42.847  23.099  26.100  1.00  0.00     0.010 A 
ATOM     37  C   UNL A   1      42.751  23.461  27.458  1.00  0.00    -0.014 A 
BRANCH  37  38
ATOM     38  C   UNL A   1      42.959  24.878  27.855  1.00  0.00     0.031 A 
ATOM     39  C   UNL A   1      44.357  25.348  28.169  1.00  0.00     0.074 A 
ATOM     40  C   UNL A   1      41.939  25.752  27.932  1.00  0.00     0.049 A 
ATOM     41  N   UNL A   1      44.758  26.498  28.650  1.00  0.00    -0.248 NA
ATOM     42  C   UNL A   1      45.446  24.396  27.896  1.00  0.00     0.031 C 
ATOM     43  C   UNL A   1      40.551  25.474  27.575  1.00  0.00     0.029 A 
ATOM     44  N   UNL A   1      41.923  27.059  28.357  1.00  0.00    -0.354 N 
ATOM     45  C   UNL A   1      46.141  26.403  28.749  1.00  0.00     0.074 A 
ATOM     46  C   UNL A   1      46.508  25.079  28.296  1.00  0.00     0.031 C 
ATOM     47  C   UNL A   1      39.810  26.569  27.823  1.00  0.00     0.029 A 
ATOM     48  C   UNL A   1      40.667  27.611  28.387  1.00  0.00     0.049 A 
ATOM     49  H   UNL A   1      42.736  27.551  28.616  1.00  0.00     0.167 HD
ATOM     50  C   UNL A   1      47.030  27.332  29.175  1.00  0.00     0.031 A 
ATOM     51  C   UNL A   1      40.249  28.808  28.843  1.00  0.00     0.031 A 
ATOM     52  C   UNL A   1      46.682  28.648  29.634  1.00  0.00     0.049 A 
ATOM     53  C   UNL A   1      41.240  29.783  29.422  1.00  0.00     0.074 A 
ATOM     54  C   UNL A   1      47.521  29.650  30.093  1.00  0.00     0.029 A 
ATOM     55  N   UNL A   1      45.393  29.147  29.691  1.00  0.00    -0.354 N 
ATOM     56  N   UNL A   1      42.542  29.674  29.526  1.00  0.00    -0.248 NA
ATOM     57  C   UNL A   1      40.700  31.048  29.946  1.00  0.00     0.031 C 
ATOM     58  C   UNL A   1      46.732  30.743  30.468  1.00  0.00     0.029 A 
ATOM     59  C   UNL A   1      45.409  30.436  30.197  1.00  0.00     0.049 A 
ATOM     60  H   UNL A   1      44.584  28.658  29.414  1.00  0.00     0.167 HD
ATOM     61  C   UNL A   1      42.978  30.868  30.090  1.00  0.00     0.074 A 
ATOM     62  C   UNL A   1      41.804  31.686  30.310  1.00  0.00     0.031 C 
ATOM     63  C   UNL A   1      44.241  31.251  30.394  1.00  0.00     0.031 A 
BRANCH  50  64
ATOM     64  C   UNL A   1      48.479  26.940  29.196  1.00  0.00    -0.014 A 
ATOM     65  C   UNL A   1      49.019  26.216  30.268  1.00  0.00     0.009 A 
ATOM     66  C   UNL A   1      49.302  27.262  28.106  1.00  0.00     0.009 A 
ATOM     67  C   UNL A   1      50.366  25.843  30.259  1.00  0.00     0.001 A 
ATOM     68  C   UNL A   1      50.640  26.870  28.090  1.00  0.00     0.001 A 
ATOM     69  C   UNL A   1      51.174  26.167  29.169  1.00  0.00     0.000 A 
ENDBRANCH  50  64
BRANCH  51  70
ATOM     70  C   UNL A   1      38.804  29.153  28.807  1.00  0.00    -0.014 A 
ATOM     71  C   UNL A   1      38.231  29.701  27.649  1.00  0.00     0.009 A 
ATOM     72  C   UNL A   1      38.001  28.969  29.943  1.00  0.00     0.009 A 
ATOM     73  C   UNL A   1      36.887  30.081  27.639  1.00  0.00     0.001 A 
ATOM     74  C   UNL A   1      36.652  29.328  29.921  1.00  0.00     0.001 A 
ATOM     75  C   UNL A   1      36.099  29.891  28.773  1.00  0.00     0.000 A 
ENDBRANCH  51  70
BRANCH  63  76
ATOM     76  C   UNL A   1      44.440  32.634  30.942  1.00  0.00    -0.014 A 
ATOM     77  C   UNL A   1      44.463  32.877  32.323  1.00  0.00     0.009 A 
ATOM     78  C   UNL A   1      44.677  33.700  30.058  1.00  0.00     0.009 A 
ATOM     79  C   UNL A   1      44.701  34.165  32.808  1.00  0.00     0.001 A 
ATOM     80  C   UNL A   1      44.936  34.982  30.547  1.00  0.00     0.001 A 
ATOM     81  C   UNL A   1      44.944  35.214  31.921  1.00  0.00     0.000 A 
ENDBRANCH  63  76
ENDBRANCH  37  38
ENDBRANCH  30  32
ENDBRANCH  29  30
ENDBRANCH  28  29
ENDBRANCH  27  28
ENDBRANCH   1  27
TORSDOF 17
ENDMDL
MODEL 3
REMARK VINA RESULT:     -10.1      1.724      5.838
REMARK SMILES CC(C)[C@@H](NC(=O)[C@@H]1CC[C@H]2CCCC[C@@H]2[NH2+]1)C(=O)OCCOCCOC(=O)c1ccc(-c2c3nc(c(-c4ccccc4)c4ccc([nH]4)c(-c4ccccc4)c4nc(c(-c5ccccc5)c5ccc2[nH]5)C=C4)C=C3)cc1
REMARK SMILES IDX 23 1 22 2 21 3 20 4 18 5 19 6 4 7 2 8 1 9 3 10 5 11 6 12
REMARK SMILES IDX 7 14 8 15 9 16 17 17 10 18 16 19 11 22 15 23 12 24 14 25
REMARK SMILES IDX 13 26 24 27 25 28 26 29 27 30 28 31 29 32 30 33 76 34 31 35
REMARK SMILES IDX 75 36 32 37 33 38 34 39 69 40 35 41 74 42 68 43 70 44 36 45
REMARK SMILES IDX 73 46 67 47 66 48 37 50 59 51 44 52 58 53 45 54 48 55 57 56
REMARK SMILES IDX 71 57 46 58 47 59 56 61 72 62 49 63 38 64 39 65 43 66 40 67
REMARK SMILES IDX 42 68 41 69 60 70 61 71 65 72 62 73 64 74 63 75 50 76 51 77
REMARK SMILES IDX 55 78 52 79 54 80 53 81
REMARK H PARENT 5 13 17 20 17 21 70 49 48 60
REMARK Flexibility Score: inf
ROOT
ATOM      1  O   UNL A   1      31.587  29.841  27.048  1.00  0.00    -0.374 OA
ENDROOT
BRANCH   1   2
ATOM      2  C   UNL A   1      32.829  29.166  27.253  1.00  0.00     0.202 C 
BRANCH   2   3
ATOM      3  C   UNL A   1      33.847  29.385  26.135  1.00  0.00     0.261 C 
BRANCH   3   4
ATOM      4  O   UNL A   1      33.924  28.233  25.258  1.00  0.00    -0.462 OA
BRANCH   4   5
ATOM      5  C   UNL A   1      33.163  28.361  24.138  1.00  0.00     0.328 C 
ATOM      6  O   UNL A   1      33.275  29.305  23.358  1.00  0.00    -0.250 OA
BRANCH   5   7
ATOM      7  C   UNL A   1      32.091  27.271  23.941  1.00  0.00     0.195 C 
BRANCH   7   8
ATOM      8  C   UNL A   1      30.559  27.502  24.056  1.00  0.00     0.017 C 
ATOM      9  C   UNL A   1      29.993  28.028  22.718  1.00  0.00     0.010 C 
ATOM     10  C   UNL A   1      29.758  26.258  24.433  1.00  0.00     0.010 C 
ENDBRANCH   7   8
BRANCH   7  11
ATOM     11  N   UNL A   1      32.424  26.364  22.820  1.00  0.00    -0.337 N 
ATOM     12  C   UNL A   1      33.421  25.534  22.438  1.00  0.00     0.278 C 
ATOM     13  H   UNL A   1      31.702  26.364  22.150  1.00  0.00     0.164 HD
ATOM     14  O   UNL A   1      33.397  25.299  21.217  1.00  0.00    -0.268 OA
BRANCH  12  15
ATOM     15  C   UNL A   1      34.436  24.759  23.345  1.00  0.00     0.272 C 
ATOM     16  C   UNL A   1      34.761  23.290  23.148  1.00  0.00     0.076 C 
ATOM     17  N   UNL A   1      34.088  24.983  24.774  1.00  0.00    -0.333 N 
ATOM     18  C   UNL A   1      33.627  22.338  23.515  1.00  0.00     0.016 C 
ATOM     19  C   UNL A   1      33.319  23.910  25.419  1.00  0.00     0.186 C 
ATOM     20  H   UNL A   1      33.538  25.841  24.832  1.00  0.00     0.347 HD
ATOM     21  H   UNL A   1      34.977  25.027  25.273  1.00  0.00     0.347 HD
ATOM     22  C   UNL A   1      32.581  23.042  24.388  1.00  0.00     0.048 C 
ATOM     23  C   UNL A   1      32.371  24.533  26.446  1.00  0.00     0.065 C 
ATOM     24  C   UNL A   1      31.616  22.041  25.019  1.00  0.00     0.010 C 
ATOM     25  C   UNL A   1      31.432  23.496  27.060  1.00  0.00     0.006 C 
ATOM     26  C   UNL A   1      30.664  22.732  25.987  1.00  0.00     0.001 C 
ENDBRANCH  12  15
ENDBRANCH   7  11
ENDBRANCH   5   7
ENDBRANCH   4   5
ENDBRANCH   3   4
ENDBRANCH   2   3
ENDBRANCH   1   2
BRANCH   1  27
ATOM     27  C   UNL A   1      31.629  31.017  26.248  1.00  0.00     0.202 C 
BRANCH  27  28
ATOM     28  C   UNL A   1      31.721  32.326  27.039  1.00  0.00     0.261 C 
BRANCH  28  29
ATOM     29  O   UNL A   1      33.065  32.828  27.188  1.00  0.00    -0.460 OA
BRANCH  29  30
ATOM     30  C   UNL A   1      33.207  33.787  28.134  1.00  0.00     0.338 C 
ATOM     31  O   UNL A   1      32.422  34.679  28.406  1.00  0.00    -0.246 OA
BRANCH  30  32
ATOM     32  C   UNL A   1      34.469  33.621  28.885  1.00  0.00     0.060 A 
ATOM     33  C   UNL A   1      35.666  33.955  28.240  1.00  0.00     0.016 A 
ATOM     34  C   UNL A   1      34.490  32.941  30.105  1.00  0.00     0.016 A 
ATOM     35  C   UNL A   1      36.890  33.540  28.772  1.00  0.00     0.010 A 
ATOM     36  C   UNL A   1      35.719  32.518  30.631  1.00  0.00     0.010 A 
ATOM     37  C   UNL A   1      36.920  32.769  29.941  1.00  0.00    -0.014 A 
BRANCH  37  38
ATOM     38  C   UNL A   1      38.159  32.052  30.341  1.00  0.00     0.031 A 
ATOM     39  C   UNL A   1      39.090  32.704  31.332  1.00  0.00     0.074 A 
ATOM     40  C   UNL A   1      38.467  30.837  29.851  1.00  0.00     0.049 A 
ATOM     41  N   UNL A   1      40.276  32.324  31.732  1.00  0.00    -0.248 NA
ATOM     42  C   UNL A   1      38.611  33.946  31.961  1.00  0.00     0.031 C 
ATOM     43  C   UNL A   1      37.630  30.042  28.959  1.00  0.00     0.029 A 
ATOM     44  N   UNL A   1      39.591  30.068  30.035  1.00  0.00    -0.354 N 
ATOM     45  C   UNL A   1      40.692  33.284  32.646  1.00  0.00     0.074 A 
ATOM     46  C   UNL A   1      39.639  34.272  32.731  1.00  0.00     0.031 C 
ATOM     47  C   UNL A   1      38.281  28.907  28.647  1.00  0.00     0.029 A 
ATOM     48  C   UNL A   1      39.594  28.914  29.292  1.00  0.00     0.049 A 
ATOM     49  H   UNL A   1      40.325  30.322  30.640  1.00  0.00     0.167 HD
ATOM     50  C   UNL A   1      41.843  33.340  33.358  1.00  0.00     0.031 A 
ATOM     51  C   UNL A   1      40.554  27.983  29.125  1.00  0.00     0.031 A 
ATOM     52  C   UNL A   1      42.901  32.370  33.283  1.00  0.00     0.049 A 
ATOM     53  C   UNL A   1      41.874  28.126  29.837  1.00  0.00     0.074 A 
ATOM     54  C   UNL A   1      44.108  32.357  33.963  1.00  0.00     0.029 A 
ATOM     55  N   UNL A   1      42.880  31.243  32.481  1.00  0.00    -0.354 N 
ATOM     56  N   UNL A   1      42.260  29.047  30.685  1.00  0.00    -0.248 NA
ATOM     57  C   UNL A   1      42.890  27.096  29.564  1.00  0.00     0.031 C 
ATOM     58  C   UNL A   1      44.835  31.239  33.540  1.00  0.00     0.029 A 
ATOM     59  C   UNL A   1      44.060  30.536  32.633  1.00  0.00     0.049 A 
ATOM     60  H   UNL A   1      42.136  30.983  31.890  1.00  0.00     0.167 HD
ATOM     61  C   UNL A   1      43.545  28.687  31.075  1.00  0.00     0.074 A 
ATOM     62  C   UNL A   1      43.876  27.467  30.370  1.00  0.00     0.031 C 
ATOM     63  C   UNL A   1      44.374  29.313  31.944  1.00  0.00     0.031 A 
BRANCH  50  64
ATOM     64  C   UNL A   1      42.034  34.520  34.266  1.00  0.00    -0.014 A 
ATOM     65  C   UNL A   1      42.573  35.723  33.788  1.00  0.00     0.009 A 
ATOM     66  C   UNL A   1      41.628  34.438  35.607  1.00  0.00     0.009 A 
ATOM     67  C   UNL A   1      42.725  36.817  34.645  1.00  0.00     0.001 A 
ATOM     68  C   UNL A   1      41.760  35.538  36.454  1.00  0.00     0.001 A 
ATOM     69  C   UNL A   1      42.315  36.725  35.975  1.00  0.00     0.000 A 
ENDBRANCH  50  64
BRANCH  51  70
ATOM     70  C   UNL A   1      40.323  26.833  28.214  1.00  0.00    -0.014 A 
ATOM     71  C   UNL A   1      39.672  25.678  28.674  1.00  0.00     0.009 A 
ATOM     72  C   UNL A   1      40.785  26.872  26.889  1.00  0.00     0.009 A 
ATOM     73  C   UNL A   1      39.512  24.575  27.831  1.00  0.00     0.001 A 
ATOM     74  C   UNL A   1      40.602  25.777  26.043  1.00  0.00     0.001 A 
ATOM     75  C   UNL A   1      39.973  24.628  26.517  1.00  0.00     0.000 A 
ENDBRANCH  51  70
BRANCH  63  76
ATOM     76  C   UNL A   1      45.698  28.667  32.237  1.00  0.00    -0.014 A 
ATOM     77  C   UNL A   1      45.833  27.703  33.247  1.00  0.00     0.009 A 
ATOM     78  C   UNL A   1      46.811  28.981  31.441  1.00  0.00     0.009 A 
ATOM     79  C   UNL A   1      47.063  27.079  33.465  1.00  0.00     0.001 A 
ATOM     80  C   UNL A   1      48.034  28.340  31.648  1.00  0.00     0.001 A 
ATOM     81  C   UNL A   1      48.160  27.393  32.662  1.00  0.00     0.000 A 
ENDBRANCH  63  76
ENDBRANCH  37  38
ENDBRANCH  30  32
ENDBRANCH  29  30
ENDBRANCH  28  29
ENDBRANCH  27  28
ENDBRANCH   1  27
TORSDOF 17
ENDMDL
