MODEL 1
REMARK VINA RESULT:     -10.8      0.000      0.000
REMARK SMILES O=C(CC[N@H+]1CCC[C@H](c2nccn2Cc2cscn2)C1)OCCOCCOC(=O)c1ccc(-c2c3nc(c(-c4ccccc4)c4ccc([nH]4)c(-c4ccccc4)c4nc(c(-c5ccccc5)c5ccc2[nH]5)C=C4)C=C3)cc1
REMARK SMILES IDX 23 1 22 2 2 3 1 4 3 5 4 6 5 7 6 8 21 9 7 11 9 12 8 13 10 14
REMARK SMILES IDX 11 15 14 16 12 17 13 18 15 19 16 20 17 21 20 22 18 23 19 24
REMARK SMILES IDX 24 25 25 26 26 27 27 28 28 29 29 30 30 31 31 32 32 33 78 34
REMARK SMILES IDX 33 35 77 36 34 37 35 38 36 39 71 40 37 41 76 42 70 43 72 44
REMARK SMILES IDX 38 45 75 46 69 47 68 48 39 50 61 51 46 52 60 53 47 54 50 55
REMARK SMILES IDX 59 56 73 57 48 58 49 59 58 61 74 62 51 63 40 64 41 65 45 66
REMARK SMILES IDX 42 67 44 68 43 69 62 70 63 71 67 72 64 73 66 74 65 75 52 76
REMARK SMILES IDX 53 77 57 78 54 79 56 80 55 81
REMARK H PARENT 5 10 72 49 50 60
REMARK Flexibility Score: inf
ROOT
ATOM      1  C   UNL A   1      38.278  22.498  25.945  1.00  0.00     0.261 C 
ENDROOT
BRANCH   1   2
ATOM      2  O   UNL A   1      37.748  21.819  24.803  1.00  0.00    -0.463 OA
BRANCH   2   3
ATOM      3  C   UNL A   1      36.628  22.286  24.204  1.00  0.00     0.311 C 
ATOM      4  O   UNL A   1      36.682  22.771  23.078  1.00  0.00    -0.252 OA
BRANCH   3   5
ATOM      5  C   UNL A   1      35.398  22.422  25.080  1.00  0.00     0.184 C 
BRANCH   5   6
ATOM      6  C   UNL A   1      34.134  22.787  24.275  1.00  0.00     0.274 C 
BRANCH   6   7
ATOM      7  N   UNL A   1      33.544  24.143  24.451  1.00  0.00    -0.334 N 
ATOM      8  C   UNL A   1      34.329  24.935  25.409  1.00  0.00     0.262 C 
ATOM      9  C   UNL A   1      33.415  24.866  23.203  1.00  0.00     0.273 C 
ATOM     10  H   UNL A   1      32.603  23.999  24.818  1.00  0.00     0.348 HD
ATOM     11  C   UNL A   1      33.802  26.371  25.559  1.00  0.00     0.062 C 
ATOM     12  C   UNL A   1      32.851  26.274  23.218  1.00  0.00     0.111 C 
ATOM     13  C   UNL A   1      33.664  27.095  24.220  1.00  0.00     0.023 C 
BRANCH  12  14
ATOM     14  C   UNL A   1      31.356  26.523  23.289  1.00  0.00     0.117 A 
ATOM     15  N   UNL A   1      30.589  25.592  23.850  1.00  0.00    -0.241 NA
ATOM     16  N   UNL A   1      30.582  27.643  23.010  1.00  0.00    -0.328 N 
ATOM     17  C   UNL A   1      29.337  26.108  23.973  1.00  0.00     0.131 A 
ATOM     18  C   UNL A   1      29.305  27.377  23.474  1.00  0.00     0.108 A 
BRANCH  16  19
ATOM     19  C   UNL A   1      30.907  28.960  22.476  1.00  0.00     0.180 C 
BRANCH  19  20
ATOM     20  C   UNL A   1      29.724  29.877  22.454  1.00  0.00     0.071 A 
ATOM     21  C   UNL A   1      29.247  30.652  23.498  1.00  0.00     0.092 A 
ATOM     22  N   UNL A   1      29.046  30.067  21.256  1.00  0.00    -0.248 NA
ATOM     23  S   UNL A   1      27.874  31.551  23.000  1.00  0.00    -0.130 S 
ATOM     24  C   UNL A   1      28.033  30.882  21.432  1.00  0.00     0.175 A 
ENDBRANCH  19  20
ENDBRANCH  16  19
ENDBRANCH  12  14
ENDBRANCH   6   7
ENDBRANCH   5   6
ENDBRANCH   3   5
ENDBRANCH   2   3
ENDBRANCH   1   2
BRANCH   1  25
ATOM     25  C   UNL A   1      39.590  21.911  26.461  1.00  0.00     0.202 C 
BRANCH  25  26
ATOM     26  O   UNL A   1      39.896  20.563  26.116  1.00  0.00    -0.374 OA
BRANCH  26  27
ATOM     27  C   UNL A   1      40.890  19.924  26.924  1.00  0.00     0.202 C 
BRANCH  27  28
ATOM     28  C   UNL A   1      42.097  19.389  26.159  1.00  0.00     0.261 C 
BRANCH  28  29
ATOM     29  O   UNL A   1      42.683  20.406  25.366  1.00  0.00    -0.460 OA
BRANCH  29  30
ATOM     30  C   UNL A   1      43.966  20.211  24.974  1.00  0.00     0.338 C 
ATOM     31  O   UNL A   1      44.538  19.155  24.749  1.00  0.00    -0.246 OA
BRANCH  30  32
ATOM     32  C   UNL A   1      44.561  21.556  24.955  1.00  0.00     0.060 A 
ATOM     33  C   UNL A   1      45.578  21.813  25.867  1.00  0.00     0.016 A 
ATOM     34  C   UNL A   1      43.846  22.587  24.315  1.00  0.00     0.016 A 
ATOM     35  C   UNL A   1      45.610  23.072  26.415  1.00  0.00     0.010 A 
ATOM     36  C   UNL A   1      43.858  23.823  24.872  1.00  0.00     0.010 A 
ATOM     37  C   UNL A   1      44.642  23.992  25.999  1.00  0.00    -0.014 A 
BRANCH  37  38
ATOM     38  C   UNL A   1      44.383  25.160  26.786  1.00  0.00     0.031 A 
ATOM     39  C   UNL A   1      45.428  26.175  26.631  1.00  0.00     0.074 A 
ATOM     40  C   UNL A   1      43.218  25.338  27.431  1.00  0.00     0.049 A 
ATOM     41  N   UNL A   1      46.464  26.313  27.385  1.00  0.00    -0.248 NA
ATOM     42  C   UNL A   1      45.484  26.926  25.365  1.00  0.00     0.031 C 
ATOM     43  C   UNL A   1      41.976  24.566  27.339  1.00  0.00     0.029 A 
ATOM     44  N   UNL A   1      42.889  26.354  28.258  1.00  0.00    -0.354 N 
ATOM     45  C   UNL A   1      47.171  27.352  26.807  1.00  0.00     0.074 A 
ATOM     46  C   UNL A   1      46.709  27.441  25.448  1.00  0.00     0.031 C 
ATOM     47  C   UNL A   1      40.975  25.274  27.919  1.00  0.00     0.029 A 
ATOM     48  C   UNL A   1      41.536  26.472  28.523  1.00  0.00     0.049 A 
ATOM     49  H   UNL A   1      43.559  26.964  28.643  1.00  0.00     0.167 HD
ATOM     50  C   UNL A   1      47.776  28.293  27.579  1.00  0.00     0.031 A 
ATOM     51  C   UNL A   1      40.949  27.535  29.127  1.00  0.00     0.031 A 
ATOM     52  C   UNL A   1      47.820  27.888  28.966  1.00  0.00     0.049 A 
ATOM     53  C   UNL A   1      42.021  28.300  29.819  1.00  0.00     0.074 A 
ATOM     54  C   UNL A   1      48.337  26.802  29.646  1.00  0.00     0.029 A 
ATOM     55  N   UNL A   1      46.883  28.455  29.802  1.00  0.00    -0.354 N 
ATOM     56  N   UNL A   1      42.667  27.852  30.860  1.00  0.00    -0.248 NA
ATOM     57  C   UNL A   1      42.704  29.354  29.079  1.00  0.00     0.031 C 
ATOM     58  C   UNL A   1      47.385  26.513  30.668  1.00  0.00     0.029 A 
ATOM     59  C   UNL A   1      46.368  27.470  30.606  1.00  0.00     0.049 A 
ATOM     60  H   UNL A   1      46.627  29.404  29.820  1.00  0.00     0.167 HD
ATOM     61  C   UNL A   1      43.988  28.229  30.652  1.00  0.00     0.074 A 
ATOM     62  C   UNL A   1      43.930  29.244  29.603  1.00  0.00     0.031 C 
ATOM     63  C   UNL A   1      45.019  27.471  31.133  1.00  0.00     0.031 A 
BRANCH  50  64
ATOM     64  C   UNL A   1      47.888  29.738  27.167  1.00  0.00    -0.014 A 
ATOM     65  C   UNL A   1      49.134  30.367  27.302  1.00  0.00     0.009 A 
ATOM     66  C   UNL A   1      46.785  30.573  26.896  1.00  0.00     0.009 A 
ATOM     67  C   UNL A   1      49.252  31.759  27.242  1.00  0.00     0.001 A 
ATOM     68  C   UNL A   1      46.905  31.958  26.788  1.00  0.00     0.001 A 
ATOM     69  C   UNL A   1      48.137  32.554  26.991  1.00  0.00     0.000 A 
ENDBRANCH  50  64
BRANCH  51  70
ATOM     70  C   UNL A   1      39.602  28.100  28.902  1.00  0.00    -0.014 A 
ATOM     71  C   UNL A   1      38.670  28.159  29.950  1.00  0.00     0.009 A 
ATOM     72  C   UNL A   1      39.320  28.830  27.733  1.00  0.00     0.009 A 
ATOM     73  C   UNL A   1      37.523  28.956  29.849  1.00  0.00     0.001 A 
ATOM     74  C   UNL A   1      38.172  29.623  27.630  1.00  0.00     0.001 A 
ATOM     75  C   UNL A   1      37.282  29.699  28.696  1.00  0.00     0.000 A 
ENDBRANCH  51  70
BRANCH  63  76
ATOM     76  C   UNL A   1      44.682  26.375  32.117  1.00  0.00    -0.014 A 
ATOM     77  C   UNL A   1      44.673  25.009  31.779  1.00  0.00     0.009 A 
ATOM     78  C   UNL A   1      44.511  26.725  33.464  1.00  0.00     0.009 A 
ATOM     79  C   UNL A   1      44.465  24.030  32.757  1.00  0.00     0.001 A 
ATOM     80  C   UNL A   1      44.326  25.747  34.443  1.00  0.00     0.001 A 
ATOM     81  C   UNL A   1      44.297  24.401  34.089  1.00  0.00     0.000 A 
ENDBRANCH  63  76
ENDBRANCH  37  38
ENDBRANCH  30  32
ENDBRANCH  29  30
ENDBRANCH  28  29
ENDBRANCH  27  28
ENDBRANCH  26  27
ENDBRANCH  25  26
ENDBRANCH   1  25
TORSDOF 19
ENDMDL
MODEL 2
REMARK VINA RESULT:     -10.6      1.480      2.041
REMARK SMILES O=C(CC[N@H+]1CCC[C@H](c2nccn2Cc2cscn2)C1)OCCOCCOC(=O)c1ccc(-c2c3nc(c(-c4ccccc4)c4ccc([nH]4)c(-c4ccccc4)c4nc(c(-c5ccccc5)c5ccc2[nH]5)C=C4)C=C3)cc1
REMARK SMILES IDX 23 1 22 2 2 3 1 4 3 5 4 6 5 7 6 8 21 9 7 11 9 12 8 13 10 14
REMARK SMILES IDX 11 15 14 16 12 17 13 18 15 19 16 20 17 21 20 22 18 23 19 24
REMARK SMILES IDX 24 25 25 26 26 27 27 28 28 29 29 30 30 31 31 32 32 33 78 34
REMARK SMILES IDX 33 35 77 36 34 37 35 38 36 39 71 40 37 41 76 42 70 43 72 44
REMARK SMILES IDX 38 45 75 46 69 47 68 48 39 50 61 51 46 52 60 53 47 54 50 55
REMARK SMILES IDX 59 56 73 57 48 58 49 59 58 61 74 62 51 63 40 64 41 65 45 66
REMARK SMILES IDX 42 67 44 68 43 69 62 70 63 71 67 72 64 73 66 74 65 75 52 76
REMARK SMILES IDX 53 77 57 78 54 79 56 80 55 81
REMARK H PARENT 5 10 72 49 50 60
REMARK Flexibility Score: inf
ROOT
ATOM      1  C   UNL A   1      38.325  22.226  26.109  1.00  0.00     0.261 C 
ENDROOT
BRANCH   1   2
ATOM      2  O   UNL A   1      37.846  21.413  25.034  1.00  0.00    -0.463 OA
BRANCH   2   3
ATOM      3  C   UNL A   1      36.596  21.606  24.551  1.00  0.00     0.311 C 
ATOM      4  O   UNL A   1      36.421  22.256  23.526  1.00  0.00    -0.252 OA
BRANCH   3   5
ATOM      5  C   UNL A   1      35.451  21.219  25.465  1.00  0.00     0.184 C 
BRANCH   5   6
ATOM      6  C   UNL A   1      34.119  21.047  24.707  1.00  0.00     0.274 C 
BRANCH   6   7
ATOM      7  N   UNL A   1      33.214  22.223  24.581  1.00  0.00    -0.334 N 
ATOM      8  C   UNL A   1      31.863  21.900  25.063  1.00  0.00     0.262 C 
ATOM      9  C   UNL A   1      33.715  23.394  25.271  1.00  0.00     0.273 C 
ATOM     10  H   UNL A   1      33.176  22.449  23.587  1.00  0.00     0.348 HD
ATOM     11  C   UNL A   1      30.918  23.111  25.027  1.00  0.00     0.062 C 
ATOM     12  C   UNL A   1      32.895  24.670  25.256  1.00  0.00     0.111 C 
ATOM     13  C   UNL A   1      31.488  24.330  25.750  1.00  0.00     0.023 C 
BRANCH  12  14
ATOM     14  C   UNL A   1      32.917  25.607  24.061  1.00  0.00     0.117 A 
ATOM     15  N   UNL A   1      33.751  25.332  23.063  1.00  0.00    -0.241 NA
ATOM     16  N   UNL A   1      32.103  26.672  23.696  1.00  0.00    -0.328 N 
ATOM     17  C   UNL A   1      33.463  26.181  22.040  1.00  0.00     0.131 A 
ATOM     18  C   UNL A   1      32.442  27.012  22.397  1.00  0.00     0.108 A 
BRANCH  16  19
ATOM     19  C   UNL A   1      30.983  27.331  24.357  1.00  0.00     0.180 C 
BRANCH  19  20
ATOM     20  C   UNL A   1      31.429  28.330  25.378  1.00  0.00     0.071 A 
ATOM     21  C   UNL A   1      31.543  29.701  25.213  1.00  0.00     0.092 A 
ATOM     22  N   UNL A   1      31.689  27.896  26.672  1.00  0.00    -0.248 NA
ATOM     23  S   UNL A   1      32.080  30.438  26.666  1.00  0.00    -0.130 S 
ATOM     24  C   UNL A   1      32.084  28.900  27.418  1.00  0.00     0.175 A 
ENDBRANCH  19  20
ENDBRANCH  16  19
ENDBRANCH  12  14
ENDBRANCH   6   7
ENDBRANCH   5   6
ENDBRANCH   3   5
ENDBRANCH   2   3
ENDBRANCH   1   2
BRANCH   1  25
ATOM     25  C   UNL A   1      39.800  22.009  26.439  1.00  0.00     0.202 C 
BRANCH  25  26
ATOM     26  O   UNL A   1      40.328  20.695  26.293  1.00  0.00    -0.374 OA
BRANCH  26  27
ATOM     27  C   UNL A   1      41.616  20.472  26.877  1.00  0.00     0.202 C 
BRANCH  27  28
ATOM     28  C   UNL A   1      42.487  19.450  26.151  1.00  0.00     0.261 C 
BRANCH  28  29
ATOM     29  O   UNL A   1      43.012  19.995  24.954  1.00  0.00    -0.460 OA
BRANCH  29  30
ATOM     30  C   UNL A   1      44.347  19.864  24.758  1.00  0.00     0.338 C 
ATOM     31  O   UNL A   1      45.009  18.838  24.710  1.00  0.00    -0.246 OA
BRANCH  30  32
ATOM     32  C   UNL A   1      44.855  21.243  24.697  1.00  0.00     0.060 A 
ATOM     33  C   UNL A   1      45.964  21.546  25.478  1.00  0.00     0.016 A 
ATOM     34  C   UNL A   1      44.003  22.240  24.182  1.00  0.00     0.016 A 
ATOM     35  C   UNL A   1      45.993  22.795  26.049  1.00  0.00     0.010 A 
ATOM     36  C   UNL A   1      44.015  23.463  24.764  1.00  0.00     0.010 A 
ATOM     37  C   UNL A   1      44.927  23.660  25.785  1.00  0.00    -0.014 A 
BRANCH  37  38
ATOM     38  C   UNL A   1      44.704  24.796  26.628  1.00  0.00     0.031 A 
ATOM     39  C   UNL A   1      45.755  25.806  26.487  1.00  0.00     0.074 A 
ATOM     40  C   UNL A   1      43.560  24.958  27.314  1.00  0.00     0.049 A 
ATOM     41  N   UNL A   1      46.814  25.902  27.215  1.00  0.00    -0.248 NA
ATOM     42  C   UNL A   1      45.783  26.610  25.253  1.00  0.00     0.031 C 
ATOM     43  C   UNL A   1      42.307  24.203  27.226  1.00  0.00     0.029 A 
ATOM     44  N   UNL A   1      43.266  25.940  28.194  1.00  0.00    -0.354 N 
ATOM     45  C   UNL A   1      47.515  26.958  26.662  1.00  0.00     0.074 A 
ATOM     46  C   UNL A   1      47.016  27.110  25.321  1.00  0.00     0.031 C 
ATOM     47  C   UNL A   1      41.331  24.895  27.864  1.00  0.00     0.029 A 
ATOM     48  C   UNL A   1      41.923  26.061  28.503  1.00  0.00     0.049 A 
ATOM     49  H   UNL A   1      43.954  26.526  28.584  1.00  0.00     0.167 HD
ATOM     50  C   UNL A   1      48.153  27.858  27.455  1.00  0.00     0.031 A 
ATOM     51  C   UNL A   1      41.366  27.103  29.168  1.00  0.00     0.031 A 
ATOM     52  C   UNL A   1      48.232  27.393  28.821  1.00  0.00     0.049 A 
ATOM     53  C   UNL A   1      42.466  27.826  29.861  1.00  0.00     0.074 A 
ATOM     54  C   UNL A   1      48.756  26.274  29.439  1.00  0.00     0.029 A 
ATOM     55  N   UNL A   1      47.327  27.933  29.708  1.00  0.00    -0.354 N 
ATOM     56  N   UNL A   1      43.136  27.327  30.862  1.00  0.00    -0.248 NA
ATOM     57  C   UNL A   1      43.139  28.904  29.146  1.00  0.00     0.031 C 
ATOM     58  C   UNL A   1      47.831  25.951  30.475  1.00  0.00     0.029 A 
ATOM     59  C   UNL A   1      46.824  26.920  30.484  1.00  0.00     0.049 A 
ATOM     60  H   UNL A   1      47.082  28.884  29.774  1.00  0.00     0.167 HD
ATOM     61  C   UNL A   1      44.455  27.700  30.632  1.00  0.00     0.074 A 
ATOM     62  C   UNL A   1      44.378  28.760  29.629  1.00  0.00     0.031 C 
ATOM     63  C   UNL A   1      45.491  26.911  31.049  1.00  0.00     0.031 A 
BRANCH  50  64
ATOM     64  C   UNL A   1      48.270  29.319  27.101  1.00  0.00    -0.014 A 
ATOM     65  C   UNL A   1      49.532  29.920  27.196  1.00  0.00     0.009 A 
ATOM     66  C   UNL A   1      47.169  30.182  26.929  1.00  0.00     0.009 A 
ATOM     67  C   UNL A   1      49.672  31.312  27.191  1.00  0.00     0.001 A 
ATOM     68  C   UNL A   1      47.309  31.569  26.876  1.00  0.00     0.001 A 
ATOM     69  C   UNL A   1      48.561  32.135  27.037  1.00  0.00     0.000 A 
ENDBRANCH  50  64
BRANCH  51  70
ATOM     70  C   UNL A   1      40.019  27.689  29.007  1.00  0.00    -0.014 A 
ATOM     71  C   UNL A   1      39.127  27.733  30.090  1.00  0.00     0.009 A 
ATOM     72  C   UNL A   1      39.704  28.453  27.868  1.00  0.00     0.009 A 
ATOM     73  C   UNL A   1      37.987  28.548  30.051  1.00  0.00     0.001 A 
ATOM     74  C   UNL A   1      38.564  29.262  27.827  1.00  0.00     0.001 A 
ATOM     75  C   UNL A   1      37.715  29.322  28.927  1.00  0.00     0.000 A 
ENDBRANCH  51  70
BRANCH  63  76
ATOM     76  C   UNL A   1      45.171  25.777  31.995  1.00  0.00    -0.014 A 
ATOM     77  C   UNL A   1      45.182  25.913  33.396  1.00  0.00     0.009 A 
ATOM     78  C   UNL A   1      44.703  24.573  31.449  1.00  0.00     0.009 A 
ATOM     79  C   UNL A   1      44.768  24.861  34.221  1.00  0.00     0.001 A 
ATOM     80  C   UNL A   1      44.269  23.532  32.272  1.00  0.00     0.001 A 
ATOM     81  C   UNL A   1      44.306  23.674  33.657  1.00  0.00     0.000 A 
ENDBRANCH  63  76
ENDBRANCH  37  38
ENDBRANCH  30  32
ENDBRANCH  29  30
ENDBRANCH  28  29
ENDBRANCH  27  28
ENDBRANCH  26  27
ENDBRANCH  25  26
ENDBRANCH   1  25
TORSDOF 19
ENDMDL
MODEL 3
REMARK VINA RESULT:     -10.6      5.697     10.442
REMARK SMILES O=C(CC[N@H+]1CCC[C@H](c2nccn2Cc2cscn2)C1)OCCOCCOC(=O)c1ccc(-c2c3nc(c(-c4ccccc4)c4ccc([nH]4)c(-c4ccccc4)c4nc(c(-c5ccccc5)c5ccc2[nH]5)C=C4)C=C3)cc1
REMARK SMILES IDX 23 1 22 2 2 3 1 4 3 5 4 6 5 7 6 8 21 9 7 11 9 12 8 13 10 14
REMARK SMILES IDX 11 15 14 16 12 17 13 18 15 19 16 20 17 21 20 22 18 23 19 24
REMARK SMILES IDX 24 25 25 26 26 27 27 28 28 29 29 30 30 31 31 32 32 33 78 34
REMARK SMILES IDX 33 35 77 36 34 37 35 38 36 39 71 40 37 41 76 42 70 43 72 44
REMARK SMILES IDX 38 45 75 46 69 47 68 48 39 50 61 51 46 52 60 53 47 54 50 55
REMARK SMILES IDX 59 56 73 57 48 58 49 59 58 61 74 62 51 63 40 64 41 65 45 66
REMARK SMILES IDX 42 67 44 68 43 69 62 70 63 71 67 72 64 73 66 74 65 75 52 76
REMARK SMILES IDX 53 77 57 78 54 79 56 80 55 81
REMARK H PARENT 5 10 72 49 50 60
REMARK Flexibility Score: inf
ROOT
ATOM      1  C   UNL A   1      34.675  31.861  27.641  1.00  0.00     0.261 C 
ENDROOT
BRANCH   1   2
ATOM      2  O   UNL A   1      34.157  30.616  28.119  1.00  0.00    -0.463 OA
BRANCH   2   3
ATOM      3  C   UNL A   1      33.699  29.697  27.237  1.00  0.00     0.311 C 
ATOM      4  O   UNL A   1      34.478  28.928  26.682  1.00  0.00    -0.252 OA
BRANCH   3   5
ATOM      5  C   UNL A   1      32.260  29.849  26.787  1.00  0.00     0.184 C 
BRANCH   5   6
ATOM      6  C   UNL A   1      32.093  29.672  25.263  1.00  0.00     0.274 C 
BRANCH   6   7
ATOM      7  N   UNL A   1      31.544  28.386  24.751  1.00  0.00    -0.334 N 
ATOM      8  C   UNL A   1      30.553  28.624  23.691  1.00  0.00     0.262 C 
ATOM      9  C   UNL A   1      32.572  27.487  24.270  1.00  0.00     0.273 C 
ATOM     10  H   UNL A   1      31.091  27.933  25.545  1.00  0.00     0.348 HD
ATOM     11  C   UNL A   1      30.020  27.320  23.078  1.00  0.00     0.062 C 
ATOM     12  C   UNL A   1      32.171  26.142  23.695  1.00  0.00     0.111 C 
ATOM     13  C   UNL A   1      31.135  26.391  22.598  1.00  0.00     0.023 C 
BRANCH  12  14
ATOM     14  C   UNL A   1      31.841  24.967  24.597  1.00  0.00     0.117 A 
ATOM     15  N   UNL A   1      31.091  25.190  25.672  1.00  0.00    -0.241 NA
ATOM     16  N   UNL A   1      32.041  23.599  24.457  1.00  0.00    -0.328 N 
ATOM     17  C   UNL A   1      30.771  23.983  26.210  1.00  0.00     0.131 A 
ATOM     18  C   UNL A   1      31.334  22.981  25.474  1.00  0.00     0.108 A 
BRANCH  16  19
ATOM     19  C   UNL A   1      32.708  22.797  23.438  1.00  0.00     0.180 C 
BRANCH  19  20
ATOM     20  C   UNL A   1      34.174  22.642  23.700  1.00  0.00     0.071 A 
ATOM     21  C   UNL A   1      34.771  21.862  24.677  1.00  0.00     0.092 A 
ATOM     22  N   UNL A   1      35.076  23.263  22.846  1.00  0.00    -0.248 NA
ATOM     23  S   UNL A   1      36.479  21.991  24.587  1.00  0.00    -0.130 S 
ATOM     24  C   UNL A   1      36.307  23.034  23.241  1.00  0.00     0.175 A 
ENDBRANCH  19  20
ENDBRANCH  16  19
ENDBRANCH  12  14
ENDBRANCH   6   7
ENDBRANCH   5   6
ENDBRANCH   3   5
ENDBRANCH   2   3
ENDBRANCH   1   2
BRANCH   1  25
ATOM     25  C   UNL A   1      34.288  33.063  28.500  1.00  0.00     0.202 C 
BRANCH  25  26
ATOM     26  O   UNL A   1      33.804  34.226  27.836  1.00  0.00    -0.374 OA
BRANCH  26  27
ATOM     27  C   UNL A   1      33.865  35.443  28.588  1.00  0.00     0.202 C 
BRANCH  27  28
ATOM     28  C   UNL A   1      33.033  35.454  29.868  1.00  0.00     0.261 C 
BRANCH  28  29
ATOM     29  O   UNL A   1      33.866  35.396  31.011  1.00  0.00    -0.460 OA
BRANCH  29  30
ATOM     30  C   UNL A   1      33.267  35.090  32.188  1.00  0.00     0.338 C 
ATOM     31  O   UNL A   1      32.122  35.330  32.541  1.00  0.00    -0.246 OA
BRANCH  30  32
ATOM     32  C   UNL A   1      34.327  34.473  33.001  1.00  0.00     0.060 A 
ATOM     33  C   UNL A   1      35.420  35.267  33.326  1.00  0.00     0.016 A 
ATOM     34  C   UNL A   1      34.370  33.067  33.075  1.00  0.00     0.016 A 
ATOM     35  C   UNL A   1      36.646  34.647  33.352  1.00  0.00     0.010 A 
ATOM     36  C   UNL A   1      35.580  32.457  33.074  1.00  0.00     0.010 A 
ATOM     37  C   UNL A   1      36.693  33.278  33.073  1.00  0.00    -0.014 A 
BRANCH  37  38
ATOM     38  C   UNL A   1      37.936  32.665  32.712  1.00  0.00     0.031 A 
ATOM     39  C   UNL A   1      38.823  32.490  33.865  1.00  0.00     0.074 A 
ATOM     40  C   UNL A   1      38.149  32.160  31.485  1.00  0.00     0.049 A 
ATOM     41  N   UNL A   1      39.733  33.317  34.249  1.00  0.00    -0.248 NA
ATOM     42  C   UNL A   1      38.486  31.445  34.846  1.00  0.00     0.031 C 
ATOM     43  C   UNL A   1      37.200  31.946  30.390  1.00  0.00     0.029 A 
ATOM     44  N   UNL A   1      39.296  31.631  31.007  1.00  0.00    -0.354 N 
ATOM     45  C   UNL A   1      40.250  32.746  35.399  1.00  0.00     0.074 A 
ATOM     46  C   UNL A   1      39.251  31.823  35.869  1.00  0.00     0.031 C 
ATOM     47  C   UNL A   1      37.773  31.138  29.464  1.00  0.00     0.029 A 
ATOM     48  C   UNL A   1      39.155  30.893  29.845  1.00  0.00     0.049 A 
ATOM     49  H   UNL A   1      40.165  31.760  31.451  1.00  0.00     0.167 HD
ATOM     50  C   UNL A   1      41.585  32.778  35.650  1.00  0.00     0.031 A 
ATOM     51  C   UNL A   1      40.107  30.086  29.314  1.00  0.00     0.031 A 
ATOM     52  C   UNL A   1      42.266  33.693  34.762  1.00  0.00     0.049 A 
ATOM     53  C   UNL A   1      41.408  30.472  29.924  1.00  0.00     0.074 A 
ATOM     54  C   UNL A   1      42.149  35.040  34.477  1.00  0.00     0.029 A 
ATOM     55  N   UNL A   1      42.937  33.133  33.698  1.00  0.00    -0.354 N 
ATOM     56  N   UNL A   1      42.003  31.608  29.690  1.00  0.00    -0.248 NA
ATOM     57  C   UNL A   1      41.816  29.805  31.154  1.00  0.00     0.031 C 
ATOM     58  C   UNL A   1      42.366  35.146  33.072  1.00  0.00     0.029 A 
ATOM     59  C   UNL A   1      42.668  33.875  32.576  1.00  0.00     0.049 A 
ATOM     60  H   UNL A   1      43.513  32.336  33.735  1.00  0.00     0.167 HD
ATOM     61  C   UNL A   1      42.506  32.009  30.921  1.00  0.00     0.074 A 
ATOM     62  C   UNL A   1      42.460  30.811  31.756  1.00  0.00     0.031 C 
ATOM     63  C   UNL A   1      42.626  33.335  31.232  1.00  0.00     0.031 A 
BRANCH  50  64
ATOM     64  C   UNL A   1      42.311  31.659  36.351  1.00  0.00    -0.014 A 
ATOM     65  C   UNL A   1      43.143  31.987  37.430  1.00  0.00     0.009 A 
ATOM     66  C   UNL A   1      42.416  30.346  35.848  1.00  0.00     0.009 A 
ATOM     67  C   UNL A   1      44.077  31.073  37.928  1.00  0.00     0.001 A 
ATOM     68  C   UNL A   1      43.313  29.416  36.372  1.00  0.00     0.001 A 
ATOM     69  C   UNL A   1      44.166  29.790  37.395  1.00  0.00     0.000 A 
ENDBRANCH  50  64
BRANCH  51  70
ATOM     70  C   UNL A   1      39.936  28.826  28.559  1.00  0.00    -0.014 A 
ATOM     71  C   UNL A   1      40.575  28.644  27.324  1.00  0.00     0.009 A 
ATOM     72  C   UNL A   1      39.367  27.697  29.176  1.00  0.00     0.009 A 
ATOM     73  C   UNL A   1      40.682  27.370  26.750  1.00  0.00     0.001 A 
ATOM     74  C   UNL A   1      39.468  26.426  28.601  1.00  0.00     0.001 A 
ATOM     75  C   UNL A   1      40.142  26.260  27.395  1.00  0.00     0.000 A 
ENDBRANCH  51  70
BRANCH  63  76
ATOM     76  C   UNL A   1      42.457  34.336  30.113  1.00  0.00    -0.014 A 
ATOM     77  C   UNL A   1      43.533  34.853  29.369  1.00  0.00     0.009 A 
ATOM     78  C   UNL A   1      41.154  34.655  29.703  1.00  0.00     0.009 A 
ATOM     79  C   UNL A   1      43.309  35.690  28.270  1.00  0.00     0.001 A 
ATOM     80  C   UNL A   1      40.930  35.472  28.593  1.00  0.00     0.001 A 
ATOM     81  C   UNL A   1      42.007  35.994  27.880  1.00  0.00     0.000 A 
ENDBRANCH  63  76
ENDBRANCH  37  38
ENDBRANCH  30  32
ENDBRANCH  29  30
ENDBRANCH  28  29
ENDBRANCH  27  28
ENDBRANCH  26  27
ENDBRANCH  25  26
ENDBRANCH   1  25
TORSDOF 19
ENDMDL
