MODEL 1
REMARK VINA RESULT:     -11.0      0.000      0.000
REMARK SMILES O=C(NC(=S)Nc1ccccc1C(=O)OCCOCCOC(=O)c1ccc(-c2c3nc(c(-c4ccccc4)c4ccc([nH]4)c(-c4ccccc4)c4nc(c(-c5ccccc5)c5ccc2[nH]5)C=C4)C=C3)cc1)c1ccc2ccccc2c1
REMARK SMILES IDX 17 1 16 2 15 3 13 4 14 5 12 6 7 7 8 8 9 9 11 10 10 11 6 12
REMARK SMILES IDX 4 14 5 15 3 16 1 17 2 18 72 20 73 21 81 22 74 23 80 24 75 25
REMARK SMILES IDX 79 26 76 27 78 28 77 29 18 30 19 31 20 32 21 33 22 34 23 35
REMARK SMILES IDX 24 36 25 37 71 38 26 39 70 40 27 41 28 42 29 43 64 44 30 45
REMARK SMILES IDX 69 46 63 47 65 48 31 49 68 50 62 51 61 52 32 54 54 55 39 56
REMARK SMILES IDX 53 57 40 58 43 59 52 60 66 61 41 62 42 63 51 65 67 66 44 67
REMARK SMILES IDX 33 68 34 69 38 70 35 71 37 72 36 73 55 74 56 75 60 76 57 77
REMARK SMILES IDX 59 78 58 79 45 80 46 81 50 82 47 83 49 84 48 85
REMARK H PARENT 6 13 3 19 65 53 43 64
REMARK Flexibility Score: inf
ROOT
ATOM      1  C   UNL A   1      31.207  26.168  26.330  1.00  0.00     0.202 C 
ENDROOT
BRANCH   1   2
ATOM      2  C   UNL A   1      32.434  25.248  26.351  1.00  0.00     0.261 C 
BRANCH   2   3
ATOM      3  O   UNL A   1      32.298  24.041  27.124  1.00  0.00    -0.460 OA
BRANCH   3   4
ATOM      4  C   UNL A   1      32.199  22.962  26.329  1.00  0.00     0.340 C 
ATOM      5  O   UNL A   1      31.156  22.354  26.106  1.00  0.00    -0.246 OA
BRANCH   4   6
ATOM      6  C   UNL A   1      33.463  22.434  25.739  1.00  0.00     0.083 A 
ATOM      7  C   UNL A   1      33.643  22.442  23.773  1.00  0.00     0.055 A 
ATOM      8  C   UNL A   1      35.413  22.963  22.969  1.00  0.00     0.027 A 
ATOM      9  C   UNL A   1      36.778  23.391  24.333  1.00  0.00     0.002 A 
ATOM     10  C   UNL A   1      34.833  22.896  27.087  1.00  0.00     0.018 A 
ATOM     11  C   UNL A   1      36.603  23.391  26.293  1.00  0.00     0.001 A 
BRANCH   7  12
ATOM     12  N   UNL A   1      32.528  22.709  22.976  1.00  0.00    -0.332 N 
ATOM     13  H   UNL A   1      32.104  21.949  22.515  1.00  0.00     0.169 HD
BRANCH  12  14
ATOM     14  C   UNL A   1      31.990  23.933  22.793  1.00  0.00     0.177 C 
ATOM     15  S   UNL A   1      30.408  24.185  23.276  1.00  0.00    -0.040 S 
BRANCH  14  16
ATOM     16  N   UNL A   1      32.673  24.968  22.155  1.00  0.00    -0.299 N 
ATOM     17  O   UNL A   1      33.836  26.763  21.385  1.00  0.00    -0.269 OA
ATOM     18  C   UNL A   1      32.964  26.370  22.166  1.00  0.00     0.257 C 
ATOM     19  H   UNL A   1      33.145  24.576  21.386  1.00  0.00     0.172 HD
BRANCH  18  20
ATOM     20  C   UNL A   1      32.380  27.440  23.051  1.00  0.00     0.040 A 
ATOM     21  C   UNL A   1      31.098  27.487  23.001  1.00  0.00     0.014 A 
ATOM     22  C   UNL A   1      31.508  28.441  22.951  1.00  0.00     0.022 A 
ATOM     23  C   UNL A   1      29.325  28.470  22.801  1.00  0.00     0.009 A 
ATOM     24  C   UNL A   1      29.858  29.672  22.729  1.00  0.00    -0.018 A 
ATOM     25  C   UNL A   1      28.603  29.502  22.689  1.00  0.00    -0.018 A 
ATOM     26  C   UNL A   1      29.500  31.262  22.538  1.00  0.00     0.009 A 
ATOM     27  C   UNL A   1      27.505  29.997  23.481  1.00  0.00     0.009 A 
ATOM     28  C   UNL A   1      28.286  32.008  22.746  1.00  0.00     0.001 A 
ATOM     29  C   UNL A   1      27.273  31.332  23.369  1.00  0.00     0.001 A 
ENDBRANCH  18  20
ENDBRANCH  14  16
ENDBRANCH  12  14
ENDBRANCH   7  12
ENDBRANCH   4   6
ENDBRANCH   3   4
ENDBRANCH   2   3
ENDBRANCH   1   2
BRANCH   1  30
ATOM     30  O   UNL A   1      31.192  27.410  27.010  1.00  0.00    -0.374 OA
BRANCH  30  31
ATOM     31  C   UNL A   1      32.035  28.481  26.622  1.00  0.00     0.202 C 
BRANCH  31  32
ATOM     32  C   UNL A   1      33.125  29.064  27.541  1.00  0.00     0.261 C 
BRANCH  32  33
ATOM     33  O   UNL A   1      33.752  30.282  27.118  1.00  0.00    -0.460 OA
BRANCH  33  34
ATOM     34  C   UNL A   1      34.557  30.845  28.049  1.00  0.00     0.338 C 
ATOM     35  O   UNL A   1      34.307  31.803  28.762  1.00  0.00    -0.246 OA
BRANCH  34  36
ATOM     36  C   UNL A   1      35.791  30.059  28.211  1.00  0.00     0.060 A 
ATOM     37  C   UNL A   1      36.128  29.601  29.491  1.00  0.00     0.016 A 
ATOM     38  C   UNL A   1      36.692  29.943  27.152  1.00  0.00     0.016 A 
ATOM     39  C   UNL A   1      37.390  29.071  29.730  1.00  0.00     0.010 A 
ATOM     40  C   UNL A   1      37.964  29.417  27.397  1.00  0.00     0.010 A 
ATOM     41  C   UNL A   1      38.331  29.017  28.694  1.00  0.00    -0.014 A 
BRANCH  41  42
ATOM     42  C   UNL A   1      39.734  28.655  29.004  1.00  0.00     0.031 A 
ATOM     43  C   UNL A   1      40.619  29.645  29.709  1.00  0.00     0.074 A 
ATOM     44  C   UNL A   1      40.201  27.436  28.683  1.00  0.00     0.049 A 
ATOM     45  N   UNL A   1      41.885  29.545  30.025  1.00  0.00    -0.248 NA
ATOM     46  C   UNL A   1      39.996  30.917  30.108  1.00  0.00     0.031 C 
ATOM     47  C   UNL A   1      39.421  26.374  28.051  1.00  0.00     0.029 A 
ATOM     48  N   UNL A   1      41.450  26.892  28.842  1.00  0.00    -0.354 N 
ATOM     49  C   UNL A   1      42.215  30.744  30.644  1.00  0.00     0.074 A 
ATOM     50  C   UNL A   1      41.026  31.568  30.631  1.00  0.00     0.031 C 
ATOM     51  C   UNL A   1      40.211  25.303  27.871  1.00  0.00     0.029 A 
ATOM     52  C   UNL A   1      41.560  25.623  28.329  1.00  0.00     0.049 A 
ATOM     53  H   UNL A   1      42.194  27.364  29.281  1.00  0.00     0.167 HD
ATOM     54  C   UNL A   1      43.403  31.121  31.176  1.00  0.00     0.031 A 
ATOM     55  C   UNL A   1      42.636  24.823  28.213  1.00  0.00     0.031 A 
ATOM     56  C   UNL A   1      44.586  30.301  31.171  1.00  0.00     0.049 A 
ATOM     57  C   UNL A   1      43.965  25.304  28.726  1.00  0.00     0.074 A 
ATOM     58  C   UNL A   1      45.834  30.583  31.701  1.00  0.00     0.029 A 
ATOM     59  N   UNL A   1      44.672  29.040  30.598  1.00  0.00    -0.354 N 
ATOM     60  N   UNL A   1      44.263  26.429  29.330  1.00  0.00    -0.248 NA
ATOM     61  C   UNL A   1      45.108  24.397  28.548  1.00  0.00     0.031 C 
ATOM     62  C   UNL A   1      46.694  29.530  31.376  1.00  0.00     0.029 A 
ATOM     63  C   UNL A   1      45.962  28.551  30.723  1.00  0.00     0.049 A 
ATOM     64  H   UNL A   1      43.926  28.564  30.166  1.00  0.00     0.167 HD
ATOM     65  C   UNL A   1      45.617  26.352  29.632  1.00  0.00     0.074 A 
ATOM     66  C   UNL A   1      46.077  25.061  29.163  1.00  0.00     0.031 C 
ATOM     67  C   UNL A   1      46.408  27.267  30.245  1.00  0.00     0.031 A 
BRANCH  54  68
ATOM     68  C   UNL A   1      43.495  32.505  31.766  1.00  0.00    -0.014 A 
ATOM     69  C   UNL A   1      43.829  33.621  30.983  1.00  0.00     0.009 A 
ATOM     70  C   UNL A   1      43.201  32.698  33.126  1.00  0.00     0.009 A 
ATOM     71  C   UNL A   1      43.908  34.892  31.557  1.00  0.00     0.001 A 
ATOM     72  C   UNL A   1      43.246  33.974  33.691  1.00  0.00     0.001 A 
ATOM     73  C   UNL A   1      43.610  35.069  32.909  1.00  0.00     0.000 A 
ENDBRANCH  54  68
BRANCH  55  74
ATOM     74  C   UNL A   1      42.506  23.494  27.558  1.00  0.00    -0.014 A 
ATOM     75  C   UNL A   1      42.774  23.338  26.190  1.00  0.00     0.009 A 
ATOM     76  C   UNL A   1      42.100  22.373  28.300  1.00  0.00     0.009 A 
ATOM     77  C   UNL A   1      42.608  22.096  25.573  1.00  0.00     0.001 A 
ATOM     78  C   UNL A   1      41.971  21.124  27.689  1.00  0.00     0.001 A 
ATOM     79  C   UNL A   1      42.214  20.990  26.324  1.00  0.00     0.000 A 
ENDBRANCH  55  74
BRANCH  67  80
ATOM     80  C   UNL A   1      47.846  26.887  30.481  1.00  0.00    -0.014 A 
ATOM     81  C   UNL A   1      48.227  26.082  31.567  1.00  0.00     0.009 A 
ATOM     82  C   UNL A   1      48.833  27.314  29.577  1.00  0.00     0.009 A 
ATOM     83  C   UNL A   1      49.569  25.751  31.766  1.00  0.00     0.001 A 
ATOM     84  C   UNL A   1      50.167  26.948  29.755  1.00  0.00     0.001 A 
ATOM     85  C   UNL A   1      50.536  26.179  30.857  1.00  0.00     0.000 A 
ENDBRANCH  67  80
ENDBRANCH  41  42
ENDBRANCH  34  36
ENDBRANCH  33  34
ENDBRANCH  32  33
ENDBRANCH  31  32
ENDBRANCH  30  31
ENDBRANCH   1  30
TORSDOF 18
ENDMDL
MODEL 2
REMARK VINA RESULT:     -10.8      6.344     11.778
REMARK SMILES O=C(NC(=S)Nc1ccccc1C(=O)OCCOCCOC(=O)c1ccc(-c2c3nc(c(-c4ccccc4)c4ccc([nH]4)c(-c4ccccc4)c4nc(c(-c5ccccc5)c5ccc2[nH]5)C=C4)C=C3)cc1)c1ccc2ccccc2c1
REMARK SMILES IDX 17 1 16 2 15 3 13 4 14 5 12 6 7 7 8 8 9 9 11 10 10 11 6 12
REMARK SMILES IDX 4 14 5 15 3 16 1 17 2 18 72 20 73 21 81 22 74 23 80 24 75 25
REMARK SMILES IDX 79 26 76 27 78 28 77 29 18 30 19 31 20 32 21 33 22 34 23 35
REMARK SMILES IDX 24 36 25 37 71 38 26 39 70 40 27 41 28 42 29 43 64 44 30 45
REMARK SMILES IDX 69 46 63 47 65 48 31 49 68 50 62 51 61 52 32 54 54 55 39 56
REMARK SMILES IDX 53 57 40 58 43 59 52 60 66 61 41 62 42 63 51 65 67 66 44 67
REMARK SMILES IDX 33 68 34 69 38 70 35 71 37 72 36 73 55 74 56 75 60 76 57 77
REMARK SMILES IDX 59 78 58 79 45 80 46 81 50 82 47 83 49 84 48 85
REMARK H PARENT 6 13 3 19 65 53 43 64
REMARK Flexibility Score: inf
ROOT
ATOM      1  C   UNL A   1      46.599  24.269  25.490  1.00  0.00     0.202 C 
ENDROOT
BRANCH   1   2
ATOM      2  C   UNL A   1      46.601  23.377  24.241  1.00  0.00     0.261 C 
BRANCH   2   3
ATOM      3  O   UNL A   1      46.194  22.012  24.447  1.00  0.00    -0.460 OA
BRANCH   3   4
ATOM      4  C   UNL A   1      44.880  21.854  24.213  1.00  0.00     0.340 C 
ATOM      5  O   UNL A   1      44.329  22.090  23.142  1.00  0.00    -0.246 OA
BRANCH   4   6
ATOM      6  C   UNL A   1      44.033  21.427  25.364  1.00  0.00     0.083 A 
ATOM      7  C   UNL A   1      42.449  22.520  25.807  1.00  0.00     0.055 A 
ATOM      8  C   UNL A   1      40.744  21.583  26.321  1.00  0.00     0.027 A 
ATOM      9  C   UNL A   1      40.922  19.614  26.325  1.00  0.00     0.002 A 
ATOM     10  C   UNL A   1      44.182  19.456  25.344  1.00  0.00     0.018 A 
ATOM     11  C   UNL A   1      42.495  18.519  25.879  1.00  0.00     0.001 A 
BRANCH   7  12
ATOM     12  N   UNL A   1      42.282  23.770  25.209  1.00  0.00    -0.332 N 
ATOM     13  H   UNL A   1      42.134  23.796  24.236  1.00  0.00     0.169 HD
BRANCH  12  14
ATOM     14  C   UNL A   1      42.309  24.947  25.870  1.00  0.00     0.177 C 
ATOM     15  S   UNL A   1      41.265  25.159  27.159  1.00  0.00    -0.040 S 
BRANCH  14  16
ATOM     16  N   UNL A   1      43.118  26.013  25.475  1.00  0.00    -0.299 N 
ATOM     17  O   UNL A   1      44.312  27.901  25.053  1.00  0.00    -0.269 OA
ATOM     18  C   UNL A   1      43.199  27.434  25.313  1.00  0.00     0.257 C 
ATOM     19  H   UNL A   1      43.982  25.635  25.194  1.00  0.00     0.172 HD
BRANCH  18  20
ATOM     20  C   UNL A   1      42.105  28.457  25.470  1.00  0.00     0.040 A 
ATOM     21  C   UNL A   1      42.016  28.918  26.663  1.00  0.00     0.014 A 
ATOM     22  C   UNL A   1      41.076  28.692  26.281  1.00  0.00     0.022 A 
ATOM     23  C   UNL A   1      40.977  29.418  28.343  1.00  0.00     0.009 A 
ATOM     24  C   UNL A   1      39.794  29.118  27.849  1.00  0.00    -0.018 A 
ATOM     25  C   UNL A   1      39.923  29.581  29.022  1.00  0.00    -0.018 A 
ATOM     26  C   UNL A   1      38.194  29.053  28.210  1.00  0.00     0.009 A 
ATOM     27  C   UNL A   1      39.386  30.734  29.702  1.00  0.00     0.009 A 
ATOM     28  C   UNL A   1      37.408  29.711  29.221  1.00  0.00     0.001 A 
ATOM     29  C   UNL A   1      38.046  30.697  29.923  1.00  0.00     0.001 A 
ENDBRANCH  18  20
ENDBRANCH  14  16
ENDBRANCH  12  14
ENDBRANCH   7  12
ENDBRANCH   4   6
ENDBRANCH   3   4
ENDBRANCH   2   3
ENDBRANCH   1   2
BRANCH   1  30
ATOM     30  O   UNL A   1      45.442  24.434  26.289  1.00  0.00    -0.374 OA
BRANCH  30  31
ATOM     31  C   UNL A   1      45.358  23.897  27.598  1.00  0.00     0.202 C 
BRANCH  31  32
ATOM     32  C   UNL A   1      45.747  24.694  28.857  1.00  0.00     0.261 C 
BRANCH  32  33
ATOM     33  O   UNL A   1      45.810  26.121  28.733  1.00  0.00    -0.460 OA
BRANCH  33  34
ATOM     34  C   UNL A   1      46.876  26.685  29.346  1.00  0.00     0.338 C 
ATOM     35  O   UNL A   1      47.692  26.134  30.067  1.00  0.00    -0.246 OA
BRANCH  34  36
ATOM     36  C   UNL A   1      47.031  28.088  28.931  1.00  0.00     0.060 A 
ATOM     37  C   UNL A   1      47.489  29.016  29.874  1.00  0.00     0.016 A 
ATOM     38  C   UNL A   1      46.550  28.510  27.691  1.00  0.00     0.016 A 
ATOM     39  C   UNL A   1      47.419  30.377  29.601  1.00  0.00     0.010 A 
ATOM     40  C   UNL A   1      46.473  29.879  27.422  1.00  0.00     0.010 A 
ATOM     41  C   UNL A   1      46.870  30.818  28.390  1.00  0.00    -0.014 A 
BRANCH  41  42
ATOM     42  C   UNL A   1      46.601  32.262  28.196  1.00  0.00     0.031 A 
ATOM     43  C   UNL A   1      45.271  32.832  28.604  1.00  0.00     0.074 A 
ATOM     44  C   UNL A   1      47.554  33.062  27.687  1.00  0.00     0.049 A 
ATOM     45  N   UNL A   1      44.818  34.053  28.473  1.00  0.00    -0.248 NA
ATOM     46  C   UNL A   1      44.324  31.902  29.241  1.00  0.00     0.031 C 
ATOM     47  C   UNL A   1      48.900  32.635  27.311  1.00  0.00     0.029 A 
ATOM     48  N   UNL A   1      47.528  34.402  27.396  1.00  0.00    -0.354 N 
ATOM     49  C   UNL A   1      43.530  34.035  28.994  1.00  0.00     0.074 A 
ATOM     50  C   UNL A   1      43.263  32.678  29.415  1.00  0.00     0.031 C 
ATOM     51  C   UNL A   1      49.573  33.694  26.832  1.00  0.00     0.029 A 
ATOM     52  C   UNL A   1      48.691  34.856  26.824  1.00  0.00     0.049 A 
ATOM     53  H   UNL A   1      46.754  34.981  27.579  1.00  0.00     0.167 HD
ATOM     54  C   UNL A   1      42.653  35.062  29.113  1.00  0.00     0.031 A 
ATOM     55  C   UNL A   1      48.996  36.067  26.321  1.00  0.00     0.031 A 
ATOM     56  C   UNL A   1      42.923  36.407  28.677  1.00  0.00     0.049 A 
ATOM     57  C   UNL A   1      47.970  37.164  26.378  1.00  0.00     0.074 A 
ATOM     58  C   UNL A   1      42.107  37.523  28.769  1.00  0.00     0.029 A 
ATOM     59  N   UNL A   1      44.093  36.819  28.057  1.00  0.00    -0.354 N 
ATOM     60  N   UNL A   1      46.763  37.146  26.893  1.00  0.00    -0.248 NA
ATOM     61  C   UNL A   1      48.351  38.456  25.790  1.00  0.00     0.031 C 
ATOM     62  C   UNL A   1      42.751  38.587  28.132  1.00  0.00     0.029 A 
ATOM     63  C   UNL A   1      44.004  38.160  27.722  1.00  0.00     0.049 A 
ATOM     64  H   UNL A   1      44.872  36.243  27.881  1.00  0.00     0.167 HD
ATOM     65  C   UNL A   1      46.256  38.427  26.720  1.00  0.00     0.074 A 
ATOM     66  C   UNL A   1      47.293  39.203  26.072  1.00  0.00     0.031 C 
ATOM     67  C   UNL A   1      45.042  38.919  27.070  1.00  0.00     0.031 A 
BRANCH  54  68
ATOM     68  C   UNL A   1      41.297  34.756  29.694  1.00  0.00    -0.014 A 
ATOM     69  C   UNL A   1      41.120  34.500  31.063  1.00  0.00     0.009 A 
ATOM     70  C   UNL A   1      40.168  34.763  28.858  1.00  0.00     0.009 A 
ATOM     71  C   UNL A   1      39.851  34.219  31.574  1.00  0.00     0.001 A 
ATOM     72  C   UNL A   1      38.896  34.517  29.376  1.00  0.00     0.001 A 
ATOM     73  C   UNL A   1      38.739  34.234  30.732  1.00  0.00     0.000 A 
ENDBRANCH  54  68
BRANCH  55  74
ATOM     74  C   UNL A   1      50.325  36.297  25.694  1.00  0.00    -0.014 A 
ATOM     75  C   UNL A   1      51.377  36.864  26.428  1.00  0.00     0.009 A 
ATOM     76  C   UNL A   1      50.544  35.959  24.349  1.00  0.00     0.009 A 
ATOM     77  C   UNL A   1      52.609  37.117  25.820  1.00  0.00     0.001 A 
ATOM     78  C   UNL A   1      51.788  36.178  23.754  1.00  0.00     0.001 A 
ATOM     79  C   UNL A   1      52.815  36.768  24.487  1.00  0.00     0.000 A 
ENDBRANCH  55  74
BRANCH  67  80
ATOM     80  C   UNL A   1      44.782  40.377  26.794  1.00  0.00    -0.014 A 
ATOM     81  C   UNL A   1      45.187  41.379  27.690  1.00  0.00     0.009 A 
ATOM     82  C   UNL A   1      44.153  40.754  25.596  1.00  0.00     0.009 A 
ATOM     83  C   UNL A   1      44.927  42.723  27.412  1.00  0.00     0.001 A 
ATOM     84  C   UNL A   1      43.931  42.099  25.302  1.00  0.00     0.001 A 
ATOM     85  C   UNL A   1      44.306  43.082  26.216  1.00  0.00     0.000 A 
ENDBRANCH  67  80
ENDBRANCH  41  42
ENDBRANCH  34  36
ENDBRANCH  33  34
ENDBRANCH  32  33
ENDBRANCH  31  32
ENDBRANCH  30  31
ENDBRANCH   1  30
TORSDOF 18
ENDMDL
MODEL 3
REMARK VINA RESULT:     -10.4      3.305      8.810
REMARK SMILES O=C(NC(=S)Nc1ccccc1C(=O)OCCOCCOC(=O)c1ccc(-c2c3nc(c(-c4ccccc4)c4ccc([nH]4)c(-c4ccccc4)c4nc(c(-c5ccccc5)c5ccc2[nH]5)C=C4)C=C3)cc1)c1ccc2ccccc2c1
REMARK SMILES IDX 17 1 16 2 15 3 13 4 14 5 12 6 7 7 8 8 9 9 11 10 10 11 6 12
REMARK SMILES IDX 4 14 5 15 3 16 1 17 2 18 72 20 73 21 81 22 74 23 80 24 75 25
REMARK SMILES IDX 79 26 76 27 78 28 77 29 18 30 19 31 20 32 21 33 22 34 23 35
REMARK SMILES IDX 24 36 25 37 71 38 26 39 70 40 27 41 28 42 29 43 64 44 30 45
REMARK SMILES IDX 69 46 63 47 65 48 31 49 68 50 62 51 61 52 32 54 54 55 39 56
REMARK SMILES IDX 53 57 40 58 43 59 52 60 66 61 41 62 42 63 51 65 67 66 44 67
REMARK SMILES IDX 33 68 34 69 38 70 35 71 37 72 36 73 55 74 56 75 60 76 57 77
REMARK SMILES IDX 59 78 58 79 45 80 46 81 50 82 47 83 49 84 48 85
REMARK H PARENT 6 13 3 19 65 53 43 64
REMARK Flexibility Score: inf
ROOT
ATOM      1  C   UNL A   1      33.710  25.812  25.921  1.00  0.00     0.202 C 
ENDROOT
BRANCH   1   2
ATOM      2  C   UNL A   1      32.788  24.755  25.300  1.00  0.00     0.261 C 
BRANCH   2   3
ATOM      3  O   UNL A   1      32.654  24.804  23.868  1.00  0.00    -0.460 OA
BRANCH   3   4
ATOM      4  C   UNL A   1      33.807  24.478  23.258  1.00  0.00     0.340 C 
ATOM      5  O   UNL A   1      34.610  25.290  22.806  1.00  0.00    -0.246 OA
BRANCH   4   6
ATOM      6  C   UNL A   1      34.087  23.027  23.065  1.00  0.00     0.083 A 
ATOM      7  C   UNL A   1      35.076  22.074  24.483  1.00  0.00     0.055 A 
ATOM      8  C   UNL A   1      34.489  20.215  24.985  1.00  0.00     0.027 A 
ATOM      9  C   UNL A   1      32.948  19.583  23.920  1.00  0.00     0.002 A 
ATOM     10  C   UNL A   1      32.528  22.388  22.031  1.00  0.00     0.018 A 
ATOM     11  C   UNL A   1      31.955  20.529  22.510  1.00  0.00     0.001 A 
BRANCH   7  12
ATOM     12  N   UNL A   1      35.690  22.799  25.506  1.00  0.00    -0.332 N 
ATOM     13  H   UNL A   1      35.110  23.315  26.111  1.00  0.00     0.169 HD
BRANCH  12  14
ATOM     14  C   UNL A   1      37.021  22.843  25.724  1.00  0.00     0.177 C 
ATOM     15  S   UNL A   1      37.952  21.546  25.221  1.00  0.00    -0.040 S 
BRANCH  14  16
ATOM     16  N   UNL A   1      37.637  23.887  26.412  1.00  0.00    -0.299 N 
ATOM     17  O   UNL A   1      38.894  25.488  27.426  1.00  0.00    -0.269 OA
ATOM     18  C   UNL A   1      38.788  24.286  27.166  1.00  0.00     0.257 C 
ATOM     19  H   UNL A   1      37.036  24.666  26.360  1.00  0.00     0.172 HD
BRANCH  18  20
ATOM     20  C   UNL A   1      39.932  23.432  27.647  1.00  0.00     0.040 A 
ATOM     21  C   UNL A   1      40.881  23.335  26.790  1.00  0.00     0.014 A 
ATOM     22  C   UNL A   1      40.659  22.408  27.205  1.00  0.00     0.022 A 
ATOM     23  C   UNL A   1      42.229  22.278  25.685  1.00  0.00     0.009 A 
ATOM     24  C   UNL A   1      41.930  21.110  26.213  1.00  0.00    -0.018 A 
ATOM     25  C   UNL A   1      42.838  21.227  25.337  1.00  0.00    -0.018 A 
ATOM     26  C   UNL A   1      42.283  19.508  26.151  1.00  0.00     0.009 A 
ATOM     27  C   UNL A   1      44.240  20.895  25.305  1.00  0.00     0.009 A 
ATOM     28  C   UNL A   1      43.434  18.794  25.663  1.00  0.00     0.001 A 
ATOM     29  C   UNL A   1      44.516  19.564  25.333  1.00  0.00     0.001 A 
ENDBRANCH  18  20
ENDBRANCH  14  16
ENDBRANCH  12  14
ENDBRANCH   7  12
ENDBRANCH   4   6
ENDBRANCH   3   4
ENDBRANCH   2   3
ENDBRANCH   1   2
BRANCH   1  30
ATOM     30  O   UNL A   1      33.701  27.159  25.486  1.00  0.00    -0.374 OA
BRANCH  30  31
ATOM     31  C   UNL A   1      32.879  28.135  26.102  1.00  0.00     0.202 C 
BRANCH  31  32
ATOM     32  C   UNL A   1      33.289  29.614  26.236  1.00  0.00     0.261 C 
BRANCH  32  33
ATOM     33  O   UNL A   1      33.365  30.153  27.562  1.00  0.00    -0.460 OA
BRANCH  33  34
ATOM     34  C   UNL A   1      34.151  31.250  27.671  1.00  0.00     0.338 C 
ATOM     35  O   UNL A   1      33.829  32.412  27.488  1.00  0.00    -0.246 OA
BRANCH  34  36
ATOM     36  C   UNL A   1      35.481  30.885  28.184  1.00  0.00     0.060 A 
ATOM     37  C   UNL A   1      35.627  29.660  28.848  1.00  0.00     0.016 A 
ATOM     38  C   UNL A   1      36.517  31.819  28.177  1.00  0.00     0.016 A 
ATOM     39  C   UNL A   1      36.792  29.386  29.554  1.00  0.00     0.010 A 
ATOM     40  C   UNL A   1      37.685  31.544  28.894  1.00  0.00     0.010 A 
ATOM     41  C   UNL A   1      37.810  30.345  29.617  1.00  0.00    -0.014 A 
BRANCH  41  42
ATOM     42  C   UNL A   1      38.949  30.137  30.542  1.00  0.00     0.031 A 
ATOM     43  C   UNL A   1      40.072  29.221  30.143  1.00  0.00     0.074 A 
ATOM     44  C   UNL A   1      38.991  30.791  31.715  1.00  0.00     0.049 A 
ATOM     45  N   UNL A   1      41.132  28.864  30.825  1.00  0.00    -0.248 NA
ATOM     46  C   UNL A   1      39.990  28.623  28.801  1.00  0.00     0.031 C 
ATOM     47  C   UNL A   1      37.992  31.749  32.184  1.00  0.00     0.029 A 
ATOM     48  N   UNL A   1      39.914  30.740  32.729  1.00  0.00    -0.354 N 
ATOM     49  C   UNL A   1      41.832  27.990  30.003  1.00  0.00     0.074 A 
ATOM     50  C   UNL A   1      41.063  27.845  28.787  1.00  0.00     0.031 C 
ATOM     51  C   UNL A   1      38.352  32.195  33.398  1.00  0.00     0.029 A 
ATOM     52  C   UNL A   1      39.578  31.518  33.810  1.00  0.00     0.049 A 
ATOM     53  H   UNL A   1      40.736  30.201  32.687  1.00  0.00     0.167 HD
ATOM     54  C   UNL A   1      43.012  27.367  30.244  1.00  0.00     0.031 A 
ATOM     55  C   UNL A   1      40.175  31.644  35.009  1.00  0.00     0.031 A 
ATOM     56  C   UNL A   1      43.763  27.505  31.464  1.00  0.00     0.049 A 
ATOM     57  C   UNL A   1      41.433  30.867  35.286  1.00  0.00     0.074 A 
ATOM     58  C   UNL A   1      44.977  26.931  31.799  1.00  0.00     0.029 A 
ATOM     59  N   UNL A   1      43.366  28.263  32.556  1.00  0.00    -0.354 N 
ATOM     60  N   UNL A   1      42.101  30.060  34.496  1.00  0.00    -0.248 NA
ATOM     61  C   UNL A   1      42.026  31.025  36.621  1.00  0.00     0.031 C 
ATOM     62  C   UNL A   1      45.274  27.276  33.121  1.00  0.00     0.029 A 
ATOM     63  C   UNL A   1      44.289  28.136  33.581  1.00  0.00     0.049 A 
ATOM     64  H   UNL A   1      42.548  28.809  32.597  1.00  0.00     0.167 HD
ATOM     65  C   UNL A   1      43.206  29.642  35.226  1.00  0.00     0.074 A 
ATOM     66  C   UNL A   1      43.130  30.300  36.514  1.00  0.00     0.031 C 
ATOM     67  C   UNL A   1      44.197  28.791  34.861  1.00  0.00     0.031 A 
BRANCH  54  68
ATOM     68  C   UNL A   1      43.538  26.438  29.181  1.00  0.00    -0.014 A 
ATOM     69  C   UNL A   1      44.264  26.913  28.077  1.00  0.00     0.009 A 
ATOM     70  C   UNL A   1      43.336  25.054  29.311  1.00  0.00     0.009 A 
ATOM     71  C   UNL A   1      44.739  26.028  27.107  1.00  0.00     0.001 A 
ATOM     72  C   UNL A   1      43.843  24.167  28.358  1.00  0.00     0.001 A 
ATOM     73  C   UNL A   1      44.534  24.656  27.251  1.00  0.00     0.000 A 
ENDBRANCH  54  68
BRANCH  55  74
ATOM     74  C   UNL A   1      39.575  32.521  36.050  1.00  0.00    -0.014 A 
ATOM     75  C   UNL A   1      38.579  32.035  36.910  1.00  0.00     0.009 A 
ATOM     76  C   UNL A   1      39.990  33.856  36.179  1.00  0.00     0.009 A 
ATOM     77  C   UNL A   1      37.990  32.877  37.856  1.00  0.00     0.001 A 
ATOM     78  C   UNL A   1      39.427  34.685  37.151  1.00  0.00     0.001 A 
ATOM     79  C   UNL A   1      38.418  34.198  37.980  1.00  0.00     0.000 A 
ENDBRANCH  55  74
BRANCH  67  80
ATOM     80  C   UNL A   1      45.303  28.554  35.856  1.00  0.00    -0.014 A 
ATOM     81  C   UNL A   1      45.235  27.518  36.801  1.00  0.00     0.009 A 
ATOM     82  C   UNL A   1      46.451  29.363  35.821  1.00  0.00     0.009 A 
ATOM     83  C   UNL A   1      46.273  27.326  37.716  1.00  0.00     0.001 A 
ATOM     84  C   UNL A   1      47.504  29.144  36.710  1.00  0.00     0.001 A 
ATOM     85  C   UNL A   1      47.408  28.135  37.665  1.00  0.00     0.000 A 
ENDBRANCH  67  80
ENDBRANCH  41  42
ENDBRANCH  34  36
ENDBRANCH  33  34
ENDBRANCH  32  33
ENDBRANCH  31  32
ENDBRANCH  30  31
ENDBRANCH   1  30
TORSDOF 18
ENDMDL
