MODEL 1
REMARK VINA RESULT:     -12.0      0.000      0.000
REMARK SMILES Cc1ccc(S(=O)(=O)n2cc(C(=O)C(=O)NCC(=O)OCCOCCOC(=O)c3ccc(-c4c5nc(c(-c6ccccc6)c6ccc([nH]6)c(-c6ccccc6)c6nc(c(-c7ccccc7)c7ccc4[nH]7)C=C6)C=C5)cc3)c3ccccc32)cc1
REMARK SMILES IDX 21 1 20 2 18 3 19 4 17 5 16 6 14 7 15 8 12 10 13 11 11 12
REMARK SMILES IDX 9 13 10 14 82 15 77 16 81 17 78 18 80 19 79 20 6 21 7 22
REMARK SMILES IDX 8 23 5 24 1 25 2 26 3 27 84 28 4 29 83 30 22 31 23 32 24 33
REMARK SMILES IDX 25 34 26 35 27 36 28 37 29 38 30 39 76 40 31 41 75 42 32 43
REMARK SMILES IDX 33 44 34 45 69 46 35 47 74 48 68 49 70 50 36 51 73 52 67 53
REMARK SMILES IDX 66 54 37 56 59 57 44 58 58 59 45 60 48 61 57 62 71 63 46 64
REMARK SMILES IDX 47 65 56 67 72 68 49 69 38 70 39 71 43 72 40 73 42 74 41 75
REMARK SMILES IDX 60 76 61 77 65 78 62 79 64 80 63 81 50 82 51 83 55 84 52 85
REMARK SMILES IDX 54 86 53 87
REMARK H PARENT 16 9 70 55 48 66
REMARK Flexibility Score: inf
ROOT
ATOM      1  C   UNL A   1      40.200  20.479  26.668  1.00  0.00     0.261 C 
ENDROOT
BRANCH   1   2
ATOM      2  O   UNL A   1      39.322  21.330  25.919  1.00  0.00    -0.462 OA
BRANCH   2   3
ATOM      3  C   UNL A   1      39.073  22.601  26.365  1.00  0.00     0.325 C 
ATOM      4  O   UNL A   1      39.827  23.289  27.038  1.00  0.00    -0.250 OA
BRANCH   3   5
ATOM      5  C   UNL A   1      37.678  23.049  25.932  1.00  0.00     0.239 C 
BRANCH   5   6
ATOM      6  N   UNL A   1      37.634  23.207  24.479  1.00  0.00    -0.338 N 
ATOM      7  C   UNL A   1      36.626  22.799  23.630  1.00  0.00     0.292 C 
ATOM      8  O   UNL A   1      36.882  22.690  22.435  1.00  0.00    -0.265 OA
ATOM      9  H   UNL A   1      38.407  23.653  24.062  1.00  0.00     0.164 HD
BRANCH   7  10
ATOM     10  C   UNL A   1      35.224  22.444  24.198  1.00  0.00     0.252 C 
ATOM     11  O   UNL A   1      35.049  21.335  24.693  1.00  0.00    -0.283 OA
BRANCH  10  12
ATOM     12  C   UNL A   1      34.132  23.419  24.192  1.00  0.00     0.054 A 
ATOM     13  N   UNL A   1      32.885  25.216  23.778  1.00  0.00    -0.240 N 
ATOM     14  C   UNL A   1      34.043  24.572  23.437  1.00  0.00     0.117 A 
ATOM     15  C   UNL A   1      32.188  24.520  24.743  1.00  0.00     0.065 A 
ATOM     16  C   UNL A   1      32.952  23.376  25.014  1.00  0.00     0.012 A 
ATOM     17  C   UNL A   1      30.995  24.792  25.435  1.00  0.00     0.028 A 
ATOM     18  C   UNL A   1      32.490  22.473  25.997  1.00  0.00     0.011 A 
ATOM     19  C   UNL A   1      30.583  23.895  26.424  1.00  0.00     0.002 A 
ATOM     20  C   UNL A   1      31.316  22.747  26.700  1.00  0.00     0.001 A 
BRANCH  13  21
ATOM     21  S   UNL A   1      32.483  26.760  23.189  1.00  0.00     0.268 S 
ATOM     22  O   UNL A   1      31.058  26.693  22.899  1.00  0.00    -0.201 OA
ATOM     23  O   UNL A   1      33.459  27.066  22.169  1.00  0.00    -0.201 OA
BRANCH  21  24
ATOM     24  C   UNL A   1      32.713  27.918  24.511  1.00  0.00     0.088 A 
ATOM     25  C   UNL A   1      33.695  30.698  27.638  1.00  0.00     0.044 C 
ATOM     26  C   UNL A   1      33.324  29.720  26.563  1.00  0.00    -0.051 A 
ATOM     27  C   UNL A   1      33.967  28.478  26.500  1.00  0.00     0.005 A 
ATOM     28  C   UNL A   1      32.344  30.033  25.614  1.00  0.00     0.005 A 
ATOM     29  C   UNL A   1      33.668  27.581  25.476  1.00  0.00     0.022 A 
ATOM     30  C   UNL A   1      32.026  29.131  24.595  1.00  0.00     0.022 A 
ENDBRANCH  21  24
ENDBRANCH  13  21
ENDBRANCH  10  12
ENDBRANCH   7  10
ENDBRANCH   5   6
ENDBRANCH   3   5
ENDBRANCH   2   3
ENDBRANCH   1   2
BRANCH   1  31
ATOM     31  C   UNL A   1      41.505  20.308  25.943  1.00  0.00     0.202 C 
BRANCH  31  32
ATOM     32  O   UNL A   1      41.665  18.905  25.772  1.00  0.00    -0.374 OA
BRANCH  32  33
ATOM     33  C   UNL A   1      42.987  18.411  25.865  1.00  0.00     0.202 C 
BRANCH  33  34
ATOM     34  C   UNL A   1      43.970  19.055  24.876  1.00  0.00     0.261 C 
BRANCH  34  35
ATOM     35  O   UNL A   1      45.092  19.624  25.584  1.00  0.00    -0.460 OA
BRANCH  35  36
ATOM     36  C   UNL A   1      45.664  20.724  25.020  1.00  0.00     0.338 C 
ATOM     37  O   UNL A   1      46.798  20.780  24.575  1.00  0.00    -0.246 OA
BRANCH  36  38
ATOM     38  C   UNL A   1      44.817  21.921  25.294  1.00  0.00     0.060 A 
ATOM     39  C   UNL A   1      44.679  22.934  24.325  1.00  0.00     0.016 A 
ATOM     40  C   UNL A   1      44.475  22.178  26.616  1.00  0.00     0.016 A 
ATOM     41  C   UNL A   1      44.364  24.245  24.717  1.00  0.00     0.010 A 
ATOM     42  C   UNL A   1      44.323  23.488  27.008  1.00  0.00     0.010 A 
ATOM     43  C   UNL A   1      44.279  24.536  26.074  1.00  0.00    -0.014 A 
BRANCH  43  44
ATOM     44  C   UNL A   1      44.177  25.860  26.695  1.00  0.00     0.031 A 
ATOM     45  C   UNL A   1      42.838  26.500  26.676  1.00  0.00     0.074 A 
ATOM     46  C   UNL A   1      45.134  26.329  27.539  1.00  0.00     0.049 A 
ATOM     47  N   UNL A   1      42.604  27.682  27.118  1.00  0.00    -0.248 NA
ATOM     48  C   UNL A   1      41.630  25.864  26.142  1.00  0.00     0.031 C 
ATOM     49  C   UNL A   1      44.972  27.272  28.652  1.00  0.00     0.029 A 
ATOM     50  N   UNL A   1      46.508  26.059  27.585  1.00  0.00    -0.354 N 
ATOM     51  C   UNL A   1      41.246  27.815  27.266  1.00  0.00     0.074 A 
ATOM     52  C   UNL A   1      40.676  26.699  26.561  1.00  0.00     0.031 C 
ATOM     53  C   UNL A   1      46.178  27.730  29.037  1.00  0.00     0.029 A 
ATOM     54  C   UNL A   1      47.146  27.205  28.093  1.00  0.00     0.049 A 
ATOM     55  H   UNL A   1      46.947  25.221  27.312  1.00  0.00     0.167 HD
ATOM     56  C   UNL A   1      40.791  28.803  28.084  1.00  0.00     0.031 A 
ATOM     57  C   UNL A   1      48.039  27.907  27.344  1.00  0.00     0.031 A 
ATOM     58  C   UNL A   1      41.903  29.626  28.569  1.00  0.00     0.049 A 
ATOM     59  C   UNL A   1      47.504  29.295  27.130  1.00  0.00     0.074 A 
ATOM     60  C   UNL A   1      42.569  29.718  29.779  1.00  0.00     0.029 A 
ATOM     61  N   UNL A   1      42.711  30.260  27.628  1.00  0.00    -0.354 N 
ATOM     62  N   UNL A   1      46.230  29.572  27.202  1.00  0.00    -0.248 NA
ATOM     63  C   UNL A   1      48.323  30.483  26.931  1.00  0.00     0.031 C 
ATOM     64  C   UNL A   1      43.809  30.383  29.543  1.00  0.00     0.029 A 
ATOM     65  C   UNL A   1      43.879  30.718  28.200  1.00  0.00     0.049 A 
ATOM     66  H   UNL A   1      42.479  30.366  26.678  1.00  0.00     0.167 HD
ATOM     67  C   UNL A   1      46.054  30.921  27.188  1.00  0.00     0.074 A 
ATOM     68  C   UNL A   1      47.387  31.451  26.957  1.00  0.00     0.031 C 
ATOM     69  C   UNL A   1      44.832  31.487  27.401  1.00  0.00     0.031 A 
BRANCH  56  70
ATOM     70  C   UNL A   1      39.379  28.934  28.601  1.00  0.00    -0.014 A 
ATOM     71  C   UNL A   1      38.400  29.516  27.773  1.00  0.00     0.009 A 
ATOM     72  C   UNL A   1      38.942  28.535  29.875  1.00  0.00     0.009 A 
ATOM     73  C   UNL A   1      37.081  29.713  28.200  1.00  0.00     0.001 A 
ATOM     74  C   UNL A   1      37.625  28.738  30.316  1.00  0.00     0.001 A 
ATOM     75  C   UNL A   1      36.693  29.330  29.476  1.00  0.00     0.000 A 
ENDBRANCH  56  70
BRANCH  57  76
ATOM     76  C   UNL A   1      48.778  27.020  26.393  1.00  0.00    -0.014 A 
ATOM     77  C   UNL A   1      48.185  26.813  25.124  1.00  0.00     0.009 A 
ATOM     78  C   UNL A   1      50.166  26.857  26.504  1.00  0.00     0.009 A 
ATOM     79  C   UNL A   1      48.972  26.628  23.980  1.00  0.00     0.001 A 
ATOM     80  C   UNL A   1      50.949  26.658  25.355  1.00  0.00     0.001 A 
ATOM     81  C   UNL A   1      50.358  26.595  24.091  1.00  0.00     0.000 A 
ENDBRANCH  57  76
BRANCH  69  82
ATOM     82  C   UNL A   1      44.411  32.844  26.896  1.00  0.00    -0.014 A 
ATOM     83  C   UNL A   1      44.261  33.165  25.544  1.00  0.00     0.009 A 
ATOM     84  C   UNL A   1      43.967  33.811  27.826  1.00  0.00     0.009 A 
ATOM     85  C   UNL A   1      43.727  34.395  25.142  1.00  0.00     0.001 A 
ATOM     86  C   UNL A   1      43.371  35.009  27.433  1.00  0.00     0.001 A 
ATOM     87  C   UNL A   1      43.265  35.307  26.085  1.00  0.00     0.000 A 
ENDBRANCH  69  82
ENDBRANCH  43  44
ENDBRANCH  36  38
ENDBRANCH  35  36
ENDBRANCH  34  35
ENDBRANCH  33  34
ENDBRANCH  32  33
ENDBRANCH  31  32
ENDBRANCH   1  31
TORSDOF 19
ENDMDL
MODEL 2
REMARK VINA RESULT:     -11.6      4.211     10.176
REMARK SMILES Cc1ccc(S(=O)(=O)n2cc(C(=O)C(=O)NCC(=O)OCCOCCOC(=O)c3ccc(-c4c5nc(c(-c6ccccc6)c6ccc([nH]6)c(-c6ccccc6)c6nc(c(-c7ccccc7)c7ccc4[nH]7)C=C6)C=C5)cc3)c3ccccc32)cc1
REMARK SMILES IDX 21 1 20 2 18 3 19 4 17 5 16 6 14 7 15 8 12 10 13 11 11 12
REMARK SMILES IDX 9 13 10 14 82 15 77 16 81 17 78 18 80 19 79 20 6 21 7 22
REMARK SMILES IDX 8 23 5 24 1 25 2 26 3 27 84 28 4 29 83 30 22 31 23 32 24 33
REMARK SMILES IDX 25 34 26 35 27 36 28 37 29 38 30 39 76 40 31 41 75 42 32 43
REMARK SMILES IDX 33 44 34 45 69 46 35 47 74 48 68 49 70 50 36 51 73 52 67 53
REMARK SMILES IDX 66 54 37 56 59 57 44 58 58 59 45 60 48 61 57 62 71 63 46 64
REMARK SMILES IDX 47 65 56 67 72 68 49 69 38 70 39 71 43 72 40 73 42 74 41 75
REMARK SMILES IDX 60 76 61 77 65 78 62 79 64 80 63 81 50 82 51 83 55 84 52 85
REMARK SMILES IDX 54 86 53 87
REMARK H PARENT 16 9 70 55 48 66
REMARK Flexibility Score: inf
ROOT
ATOM      1  C   UNL A   1      31.263  29.028  25.057  1.00  0.00     0.261 C 
ENDROOT
BRANCH   1   2
ATOM      2  O   UNL A   1      30.567  29.471  23.885  1.00  0.00    -0.462 OA
BRANCH   2   3
ATOM      3  C   UNL A   1      30.301  28.577  22.881  1.00  0.00     0.325 C 
ATOM      4  O   UNL A   1      29.771  28.833  21.810  1.00  0.00    -0.250 OA
BRANCH   3   5
ATOM      5  C   UNL A   1      30.731  27.172  23.298  1.00  0.00     0.239 C 
BRANCH   5   6
ATOM      6  N   UNL A   1      31.450  26.525  22.201  1.00  0.00    -0.338 N 
ATOM      7  C   UNL A   1      32.811  26.320  22.107  1.00  0.00     0.292 C 
ATOM      8  O   UNL A   1      33.288  26.084  21.002  1.00  0.00    -0.265 OA
ATOM      9  H   UNL A   1      30.903  26.200  21.449  1.00  0.00     0.164 HD
BRANCH   7  10
ATOM     10  C   UNL A   1      33.707  26.437  23.372  1.00  0.00     0.252 C 
ATOM     11  O   UNL A   1      34.014  27.554  23.777  1.00  0.00    -0.283 OA
BRANCH  10  12
ATOM     12  C   UNL A   1      34.147  25.249  24.104  1.00  0.00     0.054 A 
ATOM     13  N   UNL A   1      35.273  23.438  24.744  1.00  0.00    -0.240 N 
ATOM     14  C   UNL A   1      35.269  24.482  23.859  1.00  0.00     0.117 A 
ATOM     15  C   UNL A   1      34.181  23.487  25.584  1.00  0.00     0.065 A 
ATOM     16  C   UNL A   1      33.459  24.628  25.205  1.00  0.00     0.012 A 
ATOM     17  C   UNL A   1      33.728  22.633  26.604  1.00  0.00     0.028 A 
ATOM     18  C   UNL A   1      32.257  24.923  25.886  1.00  0.00     0.011 A 
ATOM     19  C   UNL A   1      32.518  22.936  27.235  1.00  0.00     0.002 A 
ATOM     20  C   UNL A   1      31.793  24.069  26.887  1.00  0.00     0.001 A 
BRANCH  13  21
ATOM     21  S   UNL A   1      36.405  22.172  24.668  1.00  0.00     0.268 S 
ATOM     22  O   UNL A   1      36.899  22.189  23.299  1.00  0.00    -0.201 OA
ATOM     23  O   UNL A   1      35.749  21.014  25.232  1.00  0.00    -0.201 OA
BRANCH  21  24
ATOM     24  C   UNL A   1      37.756  22.590  25.737  1.00  0.00     0.088 A 
ATOM     25  C   UNL A   1      41.294  23.480  28.008  1.00  0.00     0.044 C 
ATOM     26  C   UNL A   1      40.042  23.165  27.244  1.00  0.00    -0.051 A 
ATOM     27  C   UNL A   1      39.896  21.914  26.633  1.00  0.00     0.005 A 
ATOM     28  C   UNL A   1      39.015  24.108  27.128  1.00  0.00     0.005 A 
ATOM     29  C   UNL A   1      38.761  21.627  25.877  1.00  0.00     0.022 A 
ATOM     30  C   UNL A   1      37.865  23.821  26.387  1.00  0.00     0.022 A 
ENDBRANCH  21  24
ENDBRANCH  13  21
ENDBRANCH  10  12
ENDBRANCH   7  10
ENDBRANCH   5   6
ENDBRANCH   3   5
ENDBRANCH   2   3
ENDBRANCH   1   2
BRANCH   1  31
ATOM     31  C   UNL A   1      32.398  29.961  25.374  1.00  0.00     0.202 C 
BRANCH  31  32
ATOM     32  O   UNL A   1      32.213  30.340  26.733  1.00  0.00    -0.374 OA
BRANCH  32  33
ATOM     33  C   UNL A   1      33.326  30.931  27.373  1.00  0.00     0.202 C 
BRANCH  33  34
ATOM     34  C   UNL A   1      33.150  32.425  27.688  1.00  0.00     0.261 C 
BRANCH  34  35
ATOM     35  O   UNL A   1      34.396  32.989  28.150  1.00  0.00    -0.460 OA
BRANCH  35  36
ATOM     36  C   UNL A   1      34.380  33.548  29.392  1.00  0.00     0.338 C 
ATOM     37  O   UNL A   1      33.471  34.217  29.853  1.00  0.00    -0.246 OA
BRANCH  36  38
ATOM     38  C   UNL A   1      35.746  33.474  29.988  1.00  0.00     0.060 A 
ATOM     39  C   UNL A   1      36.878  33.818  29.222  1.00  0.00     0.016 A 
ATOM     40  C   UNL A   1      35.899  32.735  31.154  1.00  0.00     0.016 A 
ATOM     41  C   UNL A   1      38.133  33.275  29.538  1.00  0.00     0.010 A 
ATOM     42  C   UNL A   1      37.094  32.086  31.363  1.00  0.00     0.010 A 
ATOM     43  C   UNL A   1      38.217  32.332  30.557  1.00  0.00    -0.014 A 
BRANCH  43  44
ATOM     44  C   UNL A   1      39.370  31.494  30.900  1.00  0.00     0.031 A 
ATOM     45  C   UNL A   1      39.535  30.242  30.119  1.00  0.00     0.074 A 
ATOM     46  C   UNL A   1      40.413  31.976  31.625  1.00  0.00     0.049 A 
ATOM     47  N   UNL A   1      40.453  29.374  30.346  1.00  0.00    -0.248 NA
ATOM     48  C   UNL A   1      38.666  29.845  29.008  1.00  0.00     0.031 C 
ATOM     49  C   UNL A   1      41.818  31.554  31.576  1.00  0.00     0.029 A 
ATOM     50  N   UNL A   1      40.447  32.980  32.602  1.00  0.00    -0.354 N 
ATOM     51  C   UNL A   1      40.529  28.546  29.253  1.00  0.00     0.074 A 
ATOM     52  C   UNL A   1      39.341  28.816  28.489  1.00  0.00     0.031 C 
ATOM     53  C   UNL A   1      42.473  32.032  32.649  1.00  0.00     0.029 A 
ATOM     54  C   UNL A   1      41.481  32.660  33.500  1.00  0.00     0.049 A 
ATOM     55  H   UNL A   1      39.855  33.767  32.650  1.00  0.00     0.167 HD
ATOM     56  C   UNL A   1      41.669  27.823  29.083  1.00  0.00     0.031 A 
ATOM     57  C   UNL A   1      41.222  32.395  34.809  1.00  0.00     0.031 A 
ATOM     58  C   UNL A   1      42.574  28.009  30.222  1.00  0.00     0.049 A 
ATOM     59  C   UNL A   1      41.631  30.980  35.104  1.00  0.00     0.074 A 
ATOM     60  C   UNL A   1      43.741  28.730  30.410  1.00  0.00     0.029 A 
ATOM     61  N   UNL A   1      42.107  27.681  31.493  1.00  0.00    -0.354 N 
ATOM     62  N   UNL A   1      41.713  30.067  34.174  1.00  0.00    -0.248 NA
ATOM     63  C   UNL A   1      42.076  30.494  36.404  1.00  0.00     0.031 C 
ATOM     64  C   UNL A   1      43.947  28.864  31.816  1.00  0.00     0.029 A 
ATOM     65  C   UNL A   1      42.924  28.200  32.475  1.00  0.00     0.049 A 
ATOM     66  H   UNL A   1      41.298  27.149  31.667  1.00  0.00     0.167 HD
ATOM     67  C   UNL A   1      42.312  28.954  34.678  1.00  0.00     0.074 A 
ATOM     68  C   UNL A   1      42.468  29.243  36.093  1.00  0.00     0.031 C 
ATOM     69  C   UNL A   1      42.657  27.903  33.881  1.00  0.00     0.031 A 
BRANCH  56  70
ATOM     70  C   UNL A   1      42.065  27.091  27.825  1.00  0.00    -0.014 A 
ATOM     71  C   UNL A   1      43.298  26.412  27.788  1.00  0.00     0.009 A 
ATOM     72  C   UNL A   1      41.305  27.039  26.644  1.00  0.00     0.009 A 
ATOM     73  C   UNL A   1      43.754  25.751  26.641  1.00  0.00     0.001 A 
ATOM     74  C   UNL A   1      41.758  26.387  25.486  1.00  0.00     0.001 A 
ATOM     75  C   UNL A   1      42.986  25.744  25.485  1.00  0.00     0.000 A 
ENDBRANCH  56  70
BRANCH  57  76
ATOM     76  C   UNL A   1      40.035  33.161  35.302  1.00  0.00    -0.014 A 
ATOM     77  C   UNL A   1      38.885  32.406  35.636  1.00  0.00     0.009 A 
ATOM     78  C   UNL A   1      40.199  34.414  35.911  1.00  0.00     0.009 A 
ATOM     79  C   UNL A   1      38.030  32.811  36.670  1.00  0.00     0.001 A 
ATOM     80  C   UNL A   1      39.330  34.819  36.937  1.00  0.00     0.001 A 
ATOM     81  C   UNL A   1      38.280  33.998  37.351  1.00  0.00     0.000 A 
ENDBRANCH  57  76
BRANCH  69  82
ATOM     82  C   UNL A   1      42.805  26.478  34.350  1.00  0.00    -0.014 A 
ATOM     83  C   UNL A   1      41.865  25.811  35.143  1.00  0.00     0.009 A 
ATOM     84  C   UNL A   1      43.858  25.692  33.829  1.00  0.00     0.009 A 
ATOM     85  C   UNL A   1      41.986  24.446  35.424  1.00  0.00     0.001 A 
ATOM     86  C   UNL A   1      43.946  24.318  34.049  1.00  0.00     0.001 A 
ATOM     87  C   UNL A   1      43.014  23.697  34.862  1.00  0.00     0.000 A 
ENDBRANCH  69  82
ENDBRANCH  43  44
ENDBRANCH  36  38
ENDBRANCH  35  36
ENDBRANCH  34  35
ENDBRANCH  33  34
ENDBRANCH  32  33
ENDBRANCH  31  32
ENDBRANCH   1  31
TORSDOF 19
ENDMDL
MODEL 3
REMARK VINA RESULT:     -11.6      5.650     11.162
REMARK SMILES Cc1ccc(S(=O)(=O)n2cc(C(=O)C(=O)NCC(=O)OCCOCCOC(=O)c3ccc(-c4c5nc(c(-c6ccccc6)c6ccc([nH]6)c(-c6ccccc6)c6nc(c(-c7ccccc7)c7ccc4[nH]7)C=C6)C=C5)cc3)c3ccccc32)cc1
REMARK SMILES IDX 21 1 20 2 18 3 19 4 17 5 16 6 14 7 15 8 12 10 13 11 11 12
REMARK SMILES IDX 9 13 10 14 82 15 77 16 81 17 78 18 80 19 79 20 6 21 7 22
REMARK SMILES IDX 8 23 5 24 1 25 2 26 3 27 84 28 4 29 83 30 22 31 23 32 24 33
REMARK SMILES IDX 25 34 26 35 27 36 28 37 29 38 30 39 76 40 31 41 75 42 32 43
REMARK SMILES IDX 33 44 34 45 69 46 35 47 74 48 68 49 70 50 36 51 73 52 67 53
REMARK SMILES IDX 66 54 37 56 59 57 44 58 58 59 45 60 48 61 57 62 71 63 46 64
REMARK SMILES IDX 47 65 56 67 72 68 49 69 38 70 39 71 43 72 40 73 42 74 41 75
REMARK SMILES IDX 60 76 61 77 65 78 62 79 64 80 63 81 50 82 51 83 55 84 52 85
REMARK SMILES IDX 54 86 53 87
REMARK H PARENT 16 9 70 55 48 66
REMARK Flexibility Score: inf
ROOT
ATOM      1  C   UNL A   1      34.002  33.607  28.632  1.00  0.00     0.261 C 
ENDROOT
BRANCH   1   2
ATOM      2  O   UNL A   1      34.113  32.673  27.550  1.00  0.00    -0.462 OA
BRANCH   2   3
ATOM      3  C   UNL A   1      34.886  31.552  27.704  1.00  0.00     0.325 C 
ATOM      4  O   UNL A   1      36.035  31.521  28.119  1.00  0.00    -0.250 OA
BRANCH   3   5
ATOM      5  C   UNL A   1      34.119  30.314  27.243  1.00  0.00     0.239 C 
BRANCH   5   6
ATOM      6  N   UNL A   1      32.853  30.712  26.630  1.00  0.00    -0.338 N 
ATOM      7  C   UNL A   1      31.843  29.879  26.195  1.00  0.00     0.292 C 
ATOM      8  O   UNL A   1      31.017  30.328  25.406  1.00  0.00    -0.265 OA
ATOM      9  H   UNL A   1      32.705  31.679  26.515  1.00  0.00     0.164 HD
BRANCH   7  10
ATOM     10  C   UNL A   1      31.797  28.398  26.664  1.00  0.00     0.252 C 
ATOM     11  O   UNL A   1      31.653  28.160  27.859  1.00  0.00    -0.283 OA
BRANCH  10  12
ATOM     12  C   UNL A   1      31.878  27.294  25.706  1.00  0.00     0.054 A 
ATOM     13  N   UNL A   1      31.759  25.281  24.763  1.00  0.00    -0.240 N 
ATOM     14  C   UNL A   1      31.443  25.996  25.886  1.00  0.00     0.117 A 
ATOM     15  C   UNL A   1      32.393  26.070  23.827  1.00  0.00     0.065 A 
ATOM     16  C   UNL A   1      32.472  27.349  24.397  1.00  0.00     0.012 A 
ATOM     17  C   UNL A   1      32.942  25.791  22.563  1.00  0.00     0.028 A 
ATOM     18  C   UNL A   1      33.105  28.377  23.664  1.00  0.00     0.011 A 
ATOM     19  C   UNL A   1      33.591  26.822  21.879  1.00  0.00     0.002 A 
ATOM     20  C   UNL A   1      33.668  28.101  22.417  1.00  0.00     0.001 A 
BRANCH  13  21
ATOM     21  S   UNL A   1      31.536  23.599  24.649  1.00  0.00     0.268 S 
ATOM     22  O   UNL A   1      31.096  23.369  23.280  1.00  0.00    -0.201 OA
ATOM     23  O   UNL A   1      30.729  23.224  25.787  1.00  0.00    -0.201 OA
BRANCH  21  24
ATOM     24  C   UNL A   1      33.121  22.830  24.845  1.00  0.00     0.088 A 
ATOM     25  C   UNL A   1      36.872  20.735  24.967  1.00  0.00     0.044 C 
ATOM     26  C   UNL A   1      35.565  21.471  24.958  1.00  0.00    -0.051 A 
ATOM     27  C   UNL A   1      34.365  20.757  24.850  1.00  0.00     0.005 A 
ATOM     28  C   UNL A   1      35.526  22.867  25.051  1.00  0.00     0.005 A 
ATOM     29  C   UNL A   1      33.147  21.433  24.788  1.00  0.00     0.022 A 
ATOM     30  C   UNL A   1      34.307  23.549  25.009  1.00  0.00     0.022 A 
ENDBRANCH  21  24
ENDBRANCH  13  21
ENDBRANCH  10  12
ENDBRANCH   7  10
ENDBRANCH   5   6
ENDBRANCH   3   5
ENDBRANCH   2   3
ENDBRANCH   1   2
BRANCH   1  31
ATOM     31  C   UNL A   1      34.569  34.940  28.232  1.00  0.00     0.202 C 
BRANCH  31  32
ATOM     32  O   UNL A   1      33.848  35.904  28.989  1.00  0.00    -0.374 OA
BRANCH  32  33
ATOM     33  C   UNL A   1      32.856  35.400  29.861  1.00  0.00     0.202 C 
BRANCH  33  34
ATOM     34  C   UNL A   1      32.706  36.191  31.169  1.00  0.00     0.261 C 
BRANCH  34  35
ATOM     35  O   UNL A   1      34.005  36.497  31.720  1.00  0.00    -0.460 OA
BRANCH  35  36
ATOM     36  C   UNL A   1      34.365  35.806  32.837  1.00  0.00     0.338 C 
ATOM     37  O   UNL A   1      34.370  36.252  33.972  1.00  0.00    -0.246 OA
BRANCH  36  38
ATOM     38  C   UNL A   1      35.027  34.529  32.440  1.00  0.00     0.060 A 
ATOM     39  C   UNL A   1      34.841  33.362  33.207  1.00  0.00     0.016 A 
ATOM     40  C   UNL A   1      36.084  34.606  31.541  1.00  0.00     0.016 A 
ATOM     41  C   UNL A   1      35.814  32.349  33.191  1.00  0.00     0.010 A 
ATOM     42  C   UNL A   1      37.101  33.687  31.650  1.00  0.00     0.010 A 
ATOM     43  C   UNL A   1      36.990  32.560  32.481  1.00  0.00    -0.014 A 
BRANCH  43  44
ATOM     44  C   UNL A   1      38.205  31.740  32.508  1.00  0.00     0.031 A 
ATOM     45  C   UNL A   1      38.153  30.453  31.771  1.00  0.00     0.074 A 
ATOM     46  C   UNL A   1      39.408  32.256  32.873  1.00  0.00     0.049 A 
ATOM     47  N   UNL A   1      39.109  29.597  31.757  1.00  0.00    -0.248 NA
ATOM     48  C   UNL A   1      37.002  30.003  30.982  1.00  0.00     0.031 C 
ATOM     49  C   UNL A   1      40.743  31.834  32.433  1.00  0.00     0.029 A 
ATOM     50  N   UNL A   1      39.711  33.306  33.750  1.00  0.00    -0.354 N 
ATOM     51  C   UNL A   1      38.874  28.718  30.729  1.00  0.00     0.074 A 
ATOM     52  C   UNL A   1      37.510  28.950  30.336  1.00  0.00     0.031 C 
ATOM     53  C   UNL A   1      41.676  32.363  33.244  1.00  0.00     0.029 A 
ATOM     54  C   UNL A   1      40.967  33.030  34.319  1.00  0.00     0.049 A 
ATOM     55  H   UNL A   1      39.148  34.093  33.935  1.00  0.00     0.167 HD
ATOM     56  C   UNL A   1      39.925  27.989  30.265  1.00  0.00     0.031 A 
ATOM     57  C   UNL A   1      41.107  32.827  35.657  1.00  0.00     0.031 A 
ATOM     58  C   UNL A   1      41.120  28.229  31.079  1.00  0.00     0.049 A 
ATOM     59  C   UNL A   1      41.605  31.428  35.883  1.00  0.00     0.074 A 
ATOM     60  C   UNL A   1      42.281  28.959  30.883  1.00  0.00     0.029 A 
ATOM     61  N   UNL A   1      41.051  27.962  32.443  1.00  0.00    -0.354 N 
ATOM     62  N   UNL A   1      41.425  30.472  35.012  1.00  0.00    -0.248 NA
ATOM     63  C   UNL A   1      42.419  31.005  37.015  1.00  0.00     0.031 C 
ATOM     64  C   UNL A   1      42.887  29.160  32.159  1.00  0.00     0.029 A 
ATOM     65  C   UNL A   1      42.112  28.528  33.119  1.00  0.00     0.049 A 
ATOM     66  H   UNL A   1      40.337  27.437  32.871  1.00  0.00     0.167 HD
ATOM     67  C   UNL A   1      42.162  29.384  35.368  1.00  0.00     0.074 A 
ATOM     68  C   UNL A   1      42.721  29.741  36.660  1.00  0.00     0.031 C 
ATOM     69  C   UNL A   1      42.273  28.297  34.553  1.00  0.00     0.031 A 
BRANCH  56  70
ATOM     70  C   UNL A   1      39.945  27.199  28.979  1.00  0.00    -0.014 A 
ATOM     71  C   UNL A   1      39.300  25.948  28.937  1.00  0.00     0.009 A 
ATOM     72  C   UNL A   1      40.582  27.597  27.792  1.00  0.00     0.009 A 
ATOM     73  C   UNL A   1      39.316  25.136  27.796  1.00  0.00     0.001 A 
ATOM     74  C   UNL A   1      40.612  26.786  26.646  1.00  0.00     0.001 A 
ATOM     75  C   UNL A   1      39.978  25.553  26.650  1.00  0.00     0.000 A 
ENDBRANCH  56  70
BRANCH  57  76
ATOM     76  C   UNL A   1      40.106  33.614  36.442  1.00  0.00    -0.014 A 
ATOM     77  C   UNL A   1      39.186  32.874  37.223  1.00  0.00     0.009 A 
ATOM     78  C   UNL A   1      40.381  34.935  36.825  1.00  0.00     0.009 A 
ATOM     79  C   UNL A   1      38.701  33.377  38.438  1.00  0.00     0.001 A 
ATOM     80  C   UNL A   1      39.881  35.438  38.037  1.00  0.00     0.001 A 
ATOM     81  C   UNL A   1      39.086  34.644  38.866  1.00  0.00     0.000 A 
ENDBRANCH  57  76
BRANCH  69  82
ATOM     82  C   UNL A   1      42.573  26.896  35.022  1.00  0.00    -0.014 A 
ATOM     83  C   UNL A   1      41.595  25.952  35.350  1.00  0.00     0.009 A 
ATOM     84  C   UNL A   1      43.906  26.427  34.967  1.00  0.00     0.009 A 
ATOM     85  C   UNL A   1      41.930  24.625  35.638  1.00  0.00     0.001 A 
ATOM     86  C   UNL A   1      44.238  25.090  35.185  1.00  0.00     0.001 A 
ATOM     87  C   UNL A   1      43.247  24.190  35.536  1.00  0.00     0.000 A 
ENDBRANCH  69  82
ENDBRANCH  43  44
ENDBRANCH  36  38
ENDBRANCH  35  36
ENDBRANCH  34  35
ENDBRANCH  33  34
ENDBRANCH  32  33
ENDBRANCH  31  32
ENDBRANCH   1  31
TORSDOF 19
ENDMDL
