MODEL 1
REMARK VINA RESULT:     -10.4      0.000      0.000
REMARK SMILES C[N@H+]([C@H]1CCC[C@]([NH3+])(C(=O)OCCOCCOC(=O)c2ccc(-c3c4nc(c(-c5ccccc5)c5ccc([nH]5)c(-c5ccccc5)c5nc(c(-c6ccccc6)c6ccc3[nH]6)C=C5)C=C4)cc2)C1)[C@H]1CC[C@H](C)CC1
REMARK SMILES IDX 14 1 13 2 12 3 11 4 9 5 10 6 7 7 3 8 4 9 68 10 5 11 6 12
REMARK SMILES IDX 2 13 1 14 69 16 73 17 72 18 71 19 74 20 70 21 75 22 8 23
REMARK SMILES IDX 15 27 16 28 17 29 18 30 19 31 20 32 21 33 67 34 22 35 66 36
REMARK SMILES IDX 23 37 24 38 25 39 60 40 26 41 65 42 59 43 61 44 27 45 64 46
REMARK SMILES IDX 58 47 57 48 28 50 50 51 35 52 49 53 36 54 39 55 48 56 62 57
REMARK SMILES IDX 37 58 38 59 47 61 63 62 40 63 29 64 30 65 34 66 31 67 33 68
REMARK SMILES IDX 32 69 51 70 52 71 56 72 53 73 55 74 54 75 41 76 42 77 46 78
REMARK SMILES IDX 43 79 45 80 44 81
REMARK H PARENT 2 15 8 24 8 25 8 26 61 49 39 60
REMARK Flexibility Score: inf
ROOT
ATOM      1  O   UNL A   1      42.339  20.181  25.783  1.00  0.00    -0.374 OA
ENDROOT
BRANCH   1   2
ATOM      2  C   UNL A   1      40.957  20.023  26.121  1.00  0.00     0.202 C 
BRANCH   2   3
ATOM      3  C   UNL A   1      40.253  21.309  26.566  1.00  0.00     0.261 C 
BRANCH   3   4
ATOM      4  O   UNL A   1      39.074  21.490  25.766  1.00  0.00    -0.459 OA
BRANCH   4   5
ATOM      5  C   UNL A   1      38.359  22.638  25.951  1.00  0.00     0.368 C 
ATOM      6  O   UNL A   1      38.765  23.611  26.574  1.00  0.00    -0.245 OA
BRANCH   5   7
ATOM      7  C   UNL A   1      36.954  22.540  25.259  1.00  0.00     0.198 C 
ATOM      8  C   UNL A   1      34.424  22.771  26.070  1.00  0.00     0.190 C 
ATOM      9  C   UNL A   1      34.371  21.238  26.088  1.00  0.00     0.065 C 
ATOM     10  C   UNL A   1      35.905  23.234  26.168  1.00  0.00     0.145 C 
ATOM     11  C   UNL A   1      35.238  20.572  25.028  1.00  0.00     0.013 C 
ATOM     12  C   UNL A   1      36.695  21.027  25.076  1.00  0.00     0.081 C 
BRANCH   8  13
ATOM     13  N   UNL A   1      33.579  23.477  25.065  1.00  0.00    -0.332 N 
ATOM     14  C   UNL A   1      32.401  22.732  24.611  1.00  0.00     0.333 C 
ATOM     15  H   UNL A   1      34.230  23.563  24.284  1.00  0.00     0.348 HD
BRANCH  13  16
ATOM     16  C   UNL A   1      33.121  24.841  25.493  1.00  0.00     0.184 C 
ATOM     17  C   UNL A   1      31.776  28.976  25.932  1.00  0.00     0.007 C 
ATOM     18  C   UNL A   1      32.390  27.750  25.258  1.00  0.00    -0.014 C 
ATOM     19  C   UNL A   1      31.350  26.636  25.167  1.00  0.00     0.009 C 
ATOM     20  C   UNL A   1      33.637  27.280  26.013  1.00  0.00     0.009 C 
ATOM     21  C   UNL A   1      31.945  25.348  24.613  1.00  0.00     0.065 C 
ATOM     22  C   UNL A   1      34.198  25.952  25.487  1.00  0.00     0.065 C 
ENDBRANCH  13  16
ENDBRANCH   8  13
BRANCH   7  23
ATOM     23  N   UNL A   1      37.032  23.266  23.965  1.00  0.00    -0.343 N 
ATOM     24  H   UNL A   1      36.303  23.978  23.930  1.00  0.00     0.345 HD
ATOM     25  H   UNL A   1      36.902  22.608  23.197  1.00  0.00     0.345 HD
ATOM     26  H   UNL A   1      37.947  23.712  23.881  1.00  0.00     0.345 HD
ENDBRANCH   7  23
ENDBRANCH   5   7
ENDBRANCH   4   5
ENDBRANCH   3   4
ENDBRANCH   2   3
ENDBRANCH   1   2
BRANCH   1  27
ATOM     27  C   UNL A   1      42.937  21.429  26.133  1.00  0.00     0.202 C 
BRANCH  27  28
ATOM     28  C   UNL A   1      43.712  22.125  25.009  1.00  0.00     0.261 C 
BRANCH  28  29
ATOM     29  O   UNL A   1      43.163  23.416  24.691  1.00  0.00    -0.460 OA
BRANCH  29  30
ATOM     30  C   UNL A   1      43.925  24.463  25.077  1.00  0.00     0.338 C 
ATOM     31  O   UNL A   1      45.023  24.785  24.639  1.00  0.00    -0.246 OA
BRANCH  30  32
ATOM     32  C   UNL A   1      43.185  25.306  26.031  1.00  0.00     0.060 A 
ATOM     33  C   UNL A   1      43.645  26.615  26.218  1.00  0.00     0.016 A 
ATOM     34  C   UNL A   1      42.119  24.815  26.790  1.00  0.00     0.016 A 
ATOM     35  C   UNL A   1      43.077  27.422  27.201  1.00  0.00     0.010 A 
ATOM     36  C   UNL A   1      41.554  25.624  27.782  1.00  0.00     0.010 A 
ATOM     37  C   UNL A   1      42.057  26.917  28.017  1.00  0.00    -0.014 A 
BRANCH  37  38
ATOM     38  C   UNL A   1      41.633  27.695  29.207  1.00  0.00     0.031 A 
ATOM     39  C   UNL A   1      40.366  28.505  29.137  1.00  0.00     0.074 A 
ATOM     40  C   UNL A   1      42.331  27.637  30.354  1.00  0.00     0.049 A 
ATOM     41  N   UNL A   1      39.800  29.238  30.062  1.00  0.00    -0.248 NA
ATOM     42  C   UNL A   1      39.641  28.482  27.857  1.00  0.00     0.031 C 
ATOM     43  C   UNL A   1      43.547  26.853  30.568  1.00  0.00     0.029 A 
ATOM     44  N   UNL A   1      42.108  28.251  31.561  1.00  0.00    -0.354 N 
ATOM     45  C   UNL A   1      38.654  29.763  29.476  1.00  0.00     0.074 A 
ATOM     46  C   UNL A   1      38.623  29.292  28.108  1.00  0.00     0.031 C 
ATOM     47  C   UNL A   1      43.962  27.031  31.834  1.00  0.00     0.029 A 
ATOM     48  C   UNL A   1      43.059  27.963  32.509  1.00  0.00     0.049 A 
ATOM     49  H   UNL A   1      41.338  28.841  31.732  1.00  0.00     0.167 HD
ATOM     50  C   UNL A   1      37.707  30.560  30.027  1.00  0.00     0.031 A 
ATOM     51  C   UNL A   1      43.193  28.410  33.771  1.00  0.00     0.031 A 
ATOM     52  C   UNL A   1      37.740  31.041  31.383  1.00  0.00     0.049 A 
ATOM     53  C   UNL A   1      42.171  29.360  34.336  1.00  0.00     0.074 A 
ATOM     54  C   UNL A   1      36.819  31.844  32.033  1.00  0.00     0.029 A 
ATOM     55  N   UNL A   1      38.748  30.769  32.292  1.00  0.00    -0.354 N 
ATOM     56  N   UNL A   1      41.081  29.830  33.778  1.00  0.00    -0.248 NA
ATOM     57  C   UNL A   1      42.397  29.835  35.710  1.00  0.00     0.031 C 
ATOM     58  C   UNL A   1      37.298  32.102  33.322  1.00  0.00     0.029 A 
ATOM     59  C   UNL A   1      38.489  31.413  33.490  1.00  0.00     0.049 A 
ATOM     60  H   UNL A   1      39.533  30.203  32.113  1.00  0.00     0.167 HD
ATOM     61  C   UNL A   1      40.479  30.632  34.741  1.00  0.00     0.074 A 
ATOM     62  C   UNL A   1      41.316  30.574  35.921  1.00  0.00     0.031 C 
ATOM     63  C   UNL A   1      39.331  31.349  34.655  1.00  0.00     0.031 A 
BRANCH  50  64
ATOM     64  C   UNL A   1      36.569  30.988  29.146  1.00  0.00    -0.014 A 
ATOM     65  C   UNL A   1      36.426  32.324  28.738  1.00  0.00     0.009 A 
ATOM     66  C   UNL A   1      35.644  30.035  28.692  1.00  0.00     0.009 A 
ATOM     67  C   UNL A   1      35.360  32.701  27.919  1.00  0.00     0.001 A 
ATOM     68  C   UNL A   1      34.594  30.412  27.853  1.00  0.00     0.001 A 
ATOM     69  C   UNL A   1      34.447  31.745  27.475  1.00  0.00     0.000 A 
ENDBRANCH  50  64
BRANCH  51  70
ATOM     70  C   UNL A   1      44.354  27.979  34.594  1.00  0.00    -0.014 A 
ATOM     71  C   UNL A   1      45.549  28.712  34.588  1.00  0.00     0.009 A 
ATOM     72  C   UNL A   1      44.276  26.813  35.372  1.00  0.00     0.009 A 
ATOM     73  C   UNL A   1      46.650  28.274  35.327  1.00  0.00     0.001 A 
ATOM     74  C   UNL A   1      45.370  26.392  36.129  1.00  0.00     0.001 A 
ATOM     75  C   UNL A   1      46.559  27.117  36.100  1.00  0.00     0.000 A 
ENDBRANCH  51  70
BRANCH  63  76
ATOM     76  C   UNL A   1      38.895  32.101  35.881  1.00  0.00    -0.014 A 
ATOM     77  C   UNL A   1      39.241  33.448  36.071  1.00  0.00     0.009 A 
ATOM     78  C   UNL A   1      38.093  31.463  36.840  1.00  0.00     0.009 A 
ATOM     79  C   UNL A   1      38.816  34.130  37.213  1.00  0.00     0.001 A 
ATOM     80  C   UNL A   1      37.647  32.155  37.966  1.00  0.00     0.001 A 
ATOM     81  C   UNL A   1      38.017  33.485  38.157  1.00  0.00     0.000 A 
ENDBRANCH  63  76
ENDBRANCH  37  38
ENDBRANCH  30  32
ENDBRANCH  29  30
ENDBRANCH  28  29
ENDBRANCH  27  28
ENDBRANCH   1  27
TORSDOF 17
ENDMDL
MODEL 2
REMARK VINA RESULT:     -10.2      4.267      8.950
REMARK SMILES C[N@H+]([C@H]1CCC[C@]([NH3+])(C(=O)OCCOCCOC(=O)c2ccc(-c3c4nc(c(-c5ccccc5)c5ccc([nH]5)c(-c5ccccc5)c5nc(c(-c6ccccc6)c6ccc3[nH]6)C=C5)C=C4)cc2)C1)[C@H]1CC[C@H](C)CC1
REMARK SMILES IDX 14 1 13 2 12 3 11 4 9 5 10 6 7 7 3 8 4 9 68 10 5 11 6 12
REMARK SMILES IDX 2 13 1 14 69 16 73 17 72 18 71 19 74 20 70 21 75 22 8 23
REMARK SMILES IDX 15 27 16 28 17 29 18 30 19 31 20 32 21 33 67 34 22 35 66 36
REMARK SMILES IDX 23 37 24 38 25 39 60 40 26 41 65 42 59 43 61 44 27 45 64 46
REMARK SMILES IDX 58 47 57 48 28 50 50 51 35 52 49 53 36 54 39 55 48 56 62 57
REMARK SMILES IDX 37 58 38 59 47 61 63 62 40 63 29 64 30 65 34 66 31 67 33 68
REMARK SMILES IDX 32 69 51 70 52 71 56 72 53 73 55 74 54 75 41 76 42 77 46 78
REMARK SMILES IDX 43 79 45 80 44 81
REMARK H PARENT 2 15 8 24 8 25 8 26 61 49 39 60
REMARK Flexibility Score: inf
ROOT
ATOM      1  O   UNL A   1      32.831  29.436  25.006  1.00  0.00    -0.374 OA
ENDROOT
BRANCH   1   2
ATOM      2  C   UNL A   1      31.417  29.657  25.043  1.00  0.00     0.202 C 
BRANCH   2   3
ATOM      3  C   UNL A   1      30.641  29.061  23.864  1.00  0.00     0.261 C 
BRANCH   3   4
ATOM      4  O   UNL A   1      31.223  27.794  23.522  1.00  0.00    -0.459 OA
BRANCH   4   5
ATOM      5  C   UNL A   1      30.672  26.678  24.083  1.00  0.00     0.368 C 
ATOM      6  O   UNL A   1      29.495  26.578  24.409  1.00  0.00    -0.245 OA
BRANCH   5   7
ATOM      7  C   UNL A   1      31.747  25.547  24.252  1.00  0.00     0.198 C 
ATOM      8  C   UNL A   1      31.709  22.881  24.241  1.00  0.00     0.190 C 
ATOM      9  C   UNL A   1      31.739  22.952  25.774  1.00  0.00     0.065 C 
ATOM     10  C   UNL A   1      31.172  24.226  23.677  1.00  0.00     0.145 C 
ATOM     11  C   UNL A   1      32.512  24.141  26.328  1.00  0.00     0.013 C 
ATOM     12  C   UNL A   1      32.029  25.478  25.771  1.00  0.00     0.081 C 
BRANCH   8  13
ATOM     13  N   UNL A   1      32.903  22.309  23.556  1.00  0.00    -0.332 N 
ATOM     14  C   UNL A   1      33.146  22.816  22.202  1.00  0.00     0.333 C 
ATOM     15  H   UNL A   1      32.642  21.325  23.492  1.00  0.00     0.348 HD
BRANCH  13  16
ATOM     16  C   UNL A   1      34.182  22.442  24.332  1.00  0.00     0.184 C 
ATOM     17  C   UNL A   1      38.265  22.616  25.880  1.00  0.00     0.007 C 
ATOM     18  C   UNL A   1      37.122  22.244  24.936  1.00  0.00    -0.014 C 
ATOM     19  C   UNL A   1      36.488  23.512  24.369  1.00  0.00     0.009 C 
ATOM     20  C   UNL A   1      36.082  21.380  25.655  1.00  0.00     0.009 C 
ATOM     21  C   UNL A   1      35.265  23.202  23.516  1.00  0.00     0.065 C 
ATOM     22  C   UNL A   1      34.826  21.120  24.811  1.00  0.00     0.065 C 
ENDBRANCH  13  16
ENDBRANCH   8  13
BRANCH   7  23
ATOM     23  N   UNL A   1      32.946  25.938  23.466  1.00  0.00    -0.343 N 
ATOM     24  H   UNL A   1      33.020  25.344  22.642  1.00  0.00     0.345 HD
ATOM     25  H   UNL A   1      33.781  25.829  24.041  1.00  0.00     0.345 HD
ATOM     26  H   UNL A   1      32.858  26.913  23.176  1.00  0.00     0.345 HD
ENDBRANCH   7  23
ENDBRANCH   5   7
ENDBRANCH   4   5
ENDBRANCH   3   4
ENDBRANCH   2   3
ENDBRANCH   1   2
BRANCH   1  27
ATOM     27  C   UNL A   1      33.483  29.305  26.269  1.00  0.00     0.202 C 
BRANCH  27  28
ATOM     28  C   UNL A   1      33.196  30.423  27.277  1.00  0.00     0.261 C 
BRANCH  28  29
ATOM     29  O   UNL A   1      34.271  31.375  27.351  1.00  0.00    -0.460 OA
BRANCH  29  30
ATOM     30  C   UNL A   1      34.864  31.462  28.562  1.00  0.00     0.338 C 
ATOM     31  O   UNL A   1      34.434  32.023  29.563  1.00  0.00    -0.246 OA
BRANCH  30  32
ATOM     32  C   UNL A   1      36.085  30.638  28.592  1.00  0.00     0.060 A 
ATOM     33  C   UNL A   1      36.452  30.083  29.824  1.00  0.00     0.016 A 
ATOM     34  C   UNL A   1      36.900  30.473  27.469  1.00  0.00     0.016 A 
ATOM     35  C   UNL A   1      37.662  29.406  29.952  1.00  0.00     0.010 A 
ATOM     36  C   UNL A   1      38.120  29.799  27.601  1.00  0.00     0.010 A 
ATOM     37  C   UNL A   1      38.523  29.297  28.852  1.00  0.00    -0.014 A 
BRANCH  37  38
ATOM     38  C   UNL A   1      39.902  28.791  29.062  1.00  0.00     0.031 A 
ATOM     39  C   UNL A   1      40.912  29.682  29.734  1.00  0.00     0.074 A 
ATOM     40  C   UNL A   1      40.237  27.537  28.715  1.00  0.00     0.049 A 
ATOM     41  N   UNL A   1      42.161  29.436  30.036  1.00  0.00    -0.248 NA
ATOM     42  C   UNL A   1      40.452  31.026  30.118  1.00  0.00     0.031 C 
ATOM     43  C   UNL A   1      39.340  26.558  28.101  1.00  0.00     0.029 A 
ATOM     44  N   UNL A   1      41.431  26.871  28.837  1.00  0.00    -0.354 N 
ATOM     45  C   UNL A   1      42.636  30.592  30.645  1.00  0.00     0.074 A 
ATOM     46  C   UNL A   1      41.551  31.549  30.639  1.00  0.00     0.031 C 
ATOM     47  C   UNL A   1      40.016  25.414  27.903  1.00  0.00     0.029 A 
ATOM     48  C   UNL A   1      41.398  25.589  28.348  1.00  0.00     0.049 A 
ATOM     49  H   UNL A   1      42.235  27.275  29.238  1.00  0.00     0.167 HD
ATOM     50  C   UNL A   1      43.861  30.834  31.169  1.00  0.00     0.031 A 
ATOM     51  C   UNL A   1      42.374  24.666  28.258  1.00  0.00     0.031 A 
ATOM     52  C   UNL A   1      44.947  29.890  31.166  1.00  0.00     0.049 A 
ATOM     53  C   UNL A   1      43.751  24.987  28.774  1.00  0.00     0.074 A 
ATOM     54  C   UNL A   1      46.221  30.042  31.684  1.00  0.00     0.029 A 
ATOM     55  N   UNL A   1      44.887  28.621  30.613  1.00  0.00    -0.354 N 
ATOM     56  N   UNL A   1      44.179  26.076  29.367  1.00  0.00    -0.248 NA
ATOM     57  C   UNL A   1      44.777  23.946  28.614  1.00  0.00     0.031 C 
ATOM     58  C   UNL A   1      46.950  28.882  31.397  1.00  0.00     0.029 A 
ATOM     59  C   UNL A   1      46.111  27.989  30.751  1.00  0.00     0.049 A 
ATOM     60  H   UNL A   1      44.092  28.228  30.186  1.00  0.00     0.167 HD
ATOM     61  C   UNL A   1      45.513  25.840  29.674  1.00  0.00     0.074 A 
ATOM     62  C   UNL A   1      45.821  24.502  29.215  1.00  0.00     0.031 C 
ATOM     63  C   UNL A   1      46.404  26.659  30.287  1.00  0.00     0.031 A 
BRANCH  50  64
ATOM     64  C   UNL A   1      44.100  32.193  31.762  1.00  0.00    -0.014 A 
ATOM     65  C   UNL A   1      43.776  32.472  33.100  1.00  0.00     0.009 A 
ATOM     66  C   UNL A   1      44.686  33.200  30.979  1.00  0.00     0.009 A 
ATOM     67  C   UNL A   1      44.005  33.743  33.630  1.00  0.00     0.001 A 
ATOM     68  C   UNL A   1      44.937  34.461  31.521  1.00  0.00     0.001 A 
ATOM     69  C   UNL A   1      44.589  34.735  32.842  1.00  0.00     0.000 A 
ENDBRANCH  50  64
BRANCH  51  70
ATOM     70  C   UNL A   1      42.093  23.345  27.636  1.00  0.00    -0.014 A 
ATOM     71  C   UNL A   1      42.404  23.105  26.290  1.00  0.00     0.009 A 
ATOM     72  C   UNL A   1      41.489  22.323  28.386  1.00  0.00     0.009 A 
ATOM     73  C   UNL A   1      42.094  21.877  25.701  1.00  0.00     0.001 A 
ATOM     74  C   UNL A   1      41.205  21.088  27.801  1.00  0.00     0.001 A 
ATOM     75  C   UNL A   1      41.498  20.869  26.458  1.00  0.00     0.000 A 
ENDBRANCH  51  70
BRANCH  63  76
ATOM     76  C   UNL A   1      47.786  26.118  30.526  1.00  0.00    -0.014 A 
ATOM     77  C   UNL A   1      48.754  26.114  29.510  1.00  0.00     0.009 A 
ATOM     78  C   UNL A   1      48.135  25.643  31.800  1.00  0.00     0.009 A 
ATOM     79  C   UNL A   1      50.035  25.616  29.758  1.00  0.00     0.001 A 
ATOM     80  C   UNL A   1      49.424  25.172  32.053  1.00  0.00     0.001 A 
ATOM     81  C   UNL A   1      50.370  25.149  31.029  1.00  0.00     0.000 A 
ENDBRANCH  63  76
ENDBRANCH  37  38
ENDBRANCH  30  32
ENDBRANCH  29  30
ENDBRANCH  28  29
ENDBRANCH  27  28
ENDBRANCH   1  27
TORSDOF 17
ENDMDL
MODEL 3
REMARK VINA RESULT:     -10.1      4.518     11.018
REMARK SMILES C[N@H+]([C@H]1CCC[C@]([NH3+])(C(=O)OCCOCCOC(=O)c2ccc(-c3c4nc(c(-c5ccccc5)c5ccc([nH]5)c(-c5ccccc5)c5nc(c(-c6ccccc6)c6ccc3[nH]6)C=C5)C=C4)cc2)C1)[C@H]1CC[C@H](C)CC1
REMARK SMILES IDX 14 1 13 2 12 3 11 4 9 5 10 6 7 7 3 8 4 9 68 10 5 11 6 12
REMARK SMILES IDX 2 13 1 14 69 16 73 17 72 18 71 19 74 20 70 21 75 22 8 23
REMARK SMILES IDX 15 27 16 28 17 29 18 30 19 31 20 32 21 33 67 34 22 35 66 36
REMARK SMILES IDX 23 37 24 38 25 39 60 40 26 41 65 42 59 43 61 44 27 45 64 46
REMARK SMILES IDX 58 47 57 48 28 50 50 51 35 52 49 53 36 54 39 55 48 56 62 57
REMARK SMILES IDX 37 58 38 59 47 61 63 62 40 63 29 64 30 65 34 66 31 67 33 68
REMARK SMILES IDX 32 69 51 70 52 71 56 72 53 73 55 74 54 75 41 76 42 77 46 78
REMARK SMILES IDX 43 79 45 80 44 81
REMARK H PARENT 2 15 8 24 8 25 8 26 61 49 39 60
REMARK Flexibility Score: inf
ROOT
ATOM      1  O   UNL A   1      34.210  34.043  27.743  1.00  0.00    -0.374 OA
ENDROOT
BRANCH   1   2
ATOM      2  C   UNL A   1      34.123  35.232  28.535  1.00  0.00     0.202 C 
BRANCH   2   3
ATOM      3  C   UNL A   1      33.213  35.122  29.764  1.00  0.00     0.261 C 
BRANCH   3   4
ATOM      4  O   UNL A   1      33.779  34.164  30.672  1.00  0.00    -0.459 OA
BRANCH   4   5
ATOM      5  C   UNL A   1      34.267  34.634  31.857  1.00  0.00     0.368 C 
ATOM      6  O   UNL A   1      33.771  35.557  32.491  1.00  0.00    -0.245 OA
BRANCH   5   7
ATOM      7  C   UNL A   1      35.546  33.834  32.292  1.00  0.00     0.198 C 
ATOM      8  C   UNL A   1      38.039  34.480  32.981  1.00  0.00     0.190 C 
ATOM      9  C   UNL A   1      38.451  34.096  31.553  1.00  0.00     0.065 C 
ATOM     10  C   UNL A   1      36.520  34.808  33.006  1.00  0.00     0.145 C 
ATOM     11  C   UNL A   1      37.624  32.969  30.949  1.00  0.00     0.013 C 
ATOM     12  C   UNL A   1      36.122  33.246  30.984  1.00  0.00     0.081 C 
BRANCH   8  13
ATOM     13  N   UNL A   1      38.548  33.631  34.096  1.00  0.00    -0.332 N 
ATOM     14  C   UNL A   1      37.570  33.332  35.147  1.00  0.00     0.333 C 
ATOM     15  H   UNL A   1      39.273  34.231  34.488  1.00  0.00     0.348 HD
BRANCH  13  16
ATOM     16  C   UNL A   1      39.155  32.330  33.652  1.00  0.00     0.184 C 
ATOM     17  C   UNL A   1      40.621  28.255  33.071  1.00  0.00     0.007 C 
ATOM     18  C   UNL A   1      40.081  29.473  33.818  1.00  0.00    -0.014 C 
ATOM     19  C   UNL A   1      38.713  29.858  33.260  1.00  0.00     0.009 C 
ATOM     20  C   UNL A   1      41.063  30.646  33.730  1.00  0.00     0.009 C 
ATOM     21  C   UNL A   1      38.184  31.140  33.888  1.00  0.00     0.065 C 
ATOM     22  C   UNL A   1      40.501  31.950  34.313  1.00  0.00     0.065 C 
ENDBRANCH  13  16
ENDBRANCH   8  13
BRANCH   7  23
ATOM     23  N   UNL A   1      35.120  32.784  33.252  1.00  0.00    -0.343 N 
ATOM     24  H   UNL A   1      35.763  32.764  34.042  1.00  0.00     0.345 HD
ATOM     25  H   UNL A   1      35.124  31.875  32.787  1.00  0.00     0.345 HD
ATOM     26  H   UNL A   1      34.177  32.990  33.585  1.00  0.00     0.345 HD
ENDBRANCH   7  23
ENDBRANCH   5   7
ENDBRANCH   4   5
ENDBRANCH   3   4
ENDBRANCH   2   3
ENDBRANCH   1   2
BRANCH   1  27
ATOM     27  C   UNL A   1      32.995  33.315  27.559  1.00  0.00     0.202 C 
BRANCH  27  28
ATOM     28  C   UNL A   1      33.150  31.795  27.449  1.00  0.00     0.261 C 
BRANCH  28  29
ATOM     29  O   UNL A   1      34.146  31.285  28.353  1.00  0.00    -0.460 OA
BRANCH  29  30
ATOM     30  C   UNL A   1      34.565  30.030  28.080  1.00  0.00     0.338 C 
ATOM     31  O   UNL A   1      33.943  29.147  27.499  1.00  0.00    -0.246 OA
BRANCH  30  32
ATOM     32  C   UNL A   1      35.983  29.876  28.446  1.00  0.00     0.060 A 
ATOM     33  C   UNL A   1      36.933  30.140  27.452  1.00  0.00     0.016 A 
ATOM     34  C   UNL A   1      36.383  29.407  29.700  1.00  0.00     0.016 A 
ATOM     35  C   UNL A   1      38.282  29.886  27.689  1.00  0.00     0.010 A 
ATOM     36  C   UNL A   1      37.737  29.145  29.935  1.00  0.00     0.010 A 
ATOM     37  C   UNL A   1      38.687  29.347  28.916  1.00  0.00    -0.014 A 
BRANCH  37  38
ATOM     38  C   UNL A   1      40.080  28.859  29.066  1.00  0.00     0.031 A 
ATOM     39  C   UNL A   1      41.108  29.764  29.689  1.00  0.00     0.074 A 
ATOM     40  C   UNL A   1      40.415  27.608  28.708  1.00  0.00     0.049 A 
ATOM     41  N   UNL A   1      42.373  29.535  29.936  1.00  0.00    -0.248 NA
ATOM     42  C   UNL A   1      40.649  31.104  30.090  1.00  0.00     0.031 C 
ATOM     43  C   UNL A   1      39.504  26.616  28.138  1.00  0.00     0.029 A 
ATOM     44  N   UNL A   1      41.621  26.957  28.778  1.00  0.00    -0.354 N 
ATOM     45  C   UNL A   1      42.860  30.698  30.519  1.00  0.00     0.074 A 
ATOM     46  C   UNL A   1      41.764  31.642  30.559  1.00  0.00     0.031 C 
ATOM     47  C   UNL A   1      40.183  25.479  27.913  1.00  0.00     0.029 A 
ATOM     48  C   UNL A   1      41.582  25.673  28.295  1.00  0.00     0.049 A 
ATOM     49  H   UNL A   1      42.437  27.372  29.141  1.00  0.00     0.167 HD
ATOM     50  C   UNL A   1      44.104  30.957  30.987  1.00  0.00     0.031 A 
ATOM     51  C   UNL A   1      42.564  24.761  28.163  1.00  0.00     0.031 A 
ATOM     52  C   UNL A   1      45.200  30.026  30.938  1.00  0.00     0.049 A 
ATOM     53  C   UNL A   1      43.959  25.102  28.616  1.00  0.00     0.074 A 
ATOM     54  C   UNL A   1      46.495  30.196  31.397  1.00  0.00     0.029 A 
ATOM     55  N   UNL A   1      45.132  28.755  30.392  1.00  0.00    -0.354 N 
ATOM     56  N   UNL A   1      44.400  26.197  29.186  1.00  0.00    -0.248 NA
ATOM     57  C   UNL A   1      44.990  24.073  28.412  1.00  0.00     0.031 C 
ATOM     58  C   UNL A   1      47.225  29.044  31.081  1.00  0.00     0.029 A 
ATOM     59  C   UNL A   1      46.369  28.139  30.476  1.00  0.00     0.049 A 
ATOM     60  H   UNL A   1      44.324  28.351  30.002  1.00  0.00     0.167 HD
ATOM     61  C   UNL A   1      45.750  25.978  29.434  1.00  0.00     0.074 A 
ATOM     62  C   UNL A   1      46.053  24.643  28.964  1.00  0.00     0.031 C 
ATOM     63  C   UNL A   1      46.656  26.810  30.003  1.00  0.00     0.031 A 
BRANCH  50  64
ATOM     64  C   UNL A   1      44.353  32.321  31.564  1.00  0.00    -0.014 A 
ATOM     65  C   UNL A   1      44.098  32.598  32.918  1.00  0.00     0.009 A 
ATOM     66  C   UNL A   1      44.879  33.336  30.750  1.00  0.00     0.009 A 
ATOM     67  C   UNL A   1      44.335  33.873  33.434  1.00  0.00     0.001 A 
ATOM     68  C   UNL A   1      45.138  34.602  31.276  1.00  0.00     0.001 A 
ATOM     69  C   UNL A   1      44.858  34.873  32.614  1.00  0.00     0.000 A 
ENDBRANCH  50  64
BRANCH  51  70
ATOM     70  C   UNL A   1      42.273  23.435  27.558  1.00  0.00    -0.014 A 
ATOM     71  C   UNL A   1      41.790  22.379  28.344  1.00  0.00     0.009 A 
ATOM     72  C   UNL A   1      42.501  23.215  26.191  1.00  0.00     0.009 A 
ATOM     73  C   UNL A   1      41.563  21.123  27.778  1.00  0.00     0.001 A 
ATOM     74  C   UNL A   1      42.249  21.965  25.622  1.00  0.00     0.001 A 
ATOM     75  C   UNL A   1      41.789  20.918  26.417  1.00  0.00     0.000 A 
ENDBRANCH  51  70
BRANCH  63  76
ATOM     76  C   UNL A   1      48.055  26.288  30.182  1.00  0.00    -0.014 A 
ATOM     77  C   UNL A   1      48.985  26.318  29.131  1.00  0.00     0.009 A 
ATOM     78  C   UNL A   1      48.457  25.795  31.433  1.00  0.00     0.009 A 
ATOM     79  C   UNL A   1      50.281  25.836  29.323  1.00  0.00     0.001 A 
ATOM     80  C   UNL A   1      49.762  25.340  31.629  1.00  0.00     0.001 A 
ATOM     81  C   UNL A   1      50.670  25.351  30.572  1.00  0.00     0.000 A 
ENDBRANCH  63  76
ENDBRANCH  37  38
ENDBRANCH  30  32
ENDBRANCH  29  30
ENDBRANCH  28  29
ENDBRANCH  27  28
ENDBRANCH   1  27
TORSDOF 17
ENDMDL
