MODEL 1
REMARK VINA RESULT:     -11.5      0.000      0.000
REMARK SMILES O=C(OCCOCCOC(=O)c1ccc(-n2cc(CSc3nc4ccccc4c(=O)n3-c3ccccc3)nn2)cc1)c1ccc(-c2c3nc(c(-c4ccccc4)c4ccc([nH]4)c(-c4ccccc4)c4nc(c(-c5ccccc5)c5ccc2[nH]5)C=C4)C=C3)cc1
REMARK SMILES IDX 7 1 6 2 5 3 4 4 3 5 2 6 1 7 42 8 43 9 89 10 44 11 88 12
REMARK SMILES IDX 45 13 46 14 47 15 82 16 48 17 87 18 81 19 83 20 49 21 86 22
REMARK SMILES IDX 80 23 79 24 50 26 72 27 57 28 71 29 58 30 61 31 70 32 84 33
REMARK SMILES IDX 59 34 60 35 69 37 85 38 62 39 51 40 52 41 56 42 53 43 55 44
REMARK SMILES IDX 54 45 73 46 74 47 78 48 75 49 77 50 76 51 63 52 64 53 68 54
REMARK SMILES IDX 65 55 67 56 66 57 8 58 9 59 10 60 11 61 12 62 13 63 41 64
REMARK SMILES IDX 14 65 40 66 15 67 16 68 17 69 39 70 18 71 38 72 19 73 20 74
REMARK SMILES IDX 21 75 22 76 31 77 23 78 29 79 24 80 28 81 30 82 25 83 27 84
REMARK SMILES IDX 26 85 32 86 33 87 37 88 34 89 36 90 35 91
REMARK H PARENT 83 25 61 36
REMARK Flexibility Score: inf
ROOT
ATOM      1  C   UNL A   1      42.266  21.272  26.126  1.00  0.00     0.202 C 
ENDROOT
BRANCH   1   2
ATOM      2  O   UNL A   1      43.245  21.696  27.091  1.00  0.00    -0.374 OA
BRANCH   2   3
ATOM      3  C   UNL A   1      42.785  22.555  28.128  1.00  0.00     0.202 C 
BRANCH   3   4
ATOM      4  C   UNL A   1      43.748  23.626  28.641  1.00  0.00     0.261 C 
BRANCH   4   5
ATOM      5  O   UNL A   1      44.790  23.982  27.712  1.00  0.00    -0.460 OA
BRANCH   5   6
ATOM      6  C   UNL A   1      44.627  24.853  26.692  1.00  0.00     0.338 C 
ATOM      7  O   UNL A   1      44.436  24.457  25.546  1.00  0.00    -0.246 OA
BRANCH   6   8
ATOM      8  C   UNL A   1      44.373  26.276  27.035  1.00  0.00     0.060 A 
ATOM      9  C   UNL A   1      44.823  26.896  28.199  1.00  0.00     0.016 A 
ATOM     10  C   UNL A   1      43.505  26.971  26.181  1.00  0.00     0.016 A 
ATOM     11  C   UNL A   1      44.192  28.025  28.666  1.00  0.00     0.010 A 
ATOM     12  C   UNL A   1      42.926  28.153  26.602  1.00  0.00     0.010 A 
ATOM     13  C   UNL A   1      43.184  28.594  27.897  1.00  0.00    -0.014 A 
BRANCH  13  14
ATOM     14  C   UNL A   1      42.440  29.681  28.502  1.00  0.00     0.031 A 
ATOM     15  C   UNL A   1      43.111  31.007  28.440  1.00  0.00     0.074 A 
ATOM     16  C   UNL A   1      41.212  29.473  29.010  1.00  0.00     0.049 A 
ATOM     17  N   UNL A   1      43.378  31.824  29.407  1.00  0.00    -0.248 NA
ATOM     18  C   UNL A   1      43.661  31.415  27.136  1.00  0.00     0.031 C 
ATOM     19  C   UNL A   1      40.389  28.263  28.904  1.00  0.00     0.029 A 
ATOM     20  N   UNL A   1      40.374  30.364  29.601  1.00  0.00    -0.354 N 
ATOM     21  C   UNL A   1      43.979  32.930  28.811  1.00  0.00     0.074 A 
ATOM     22  C   UNL A   1      44.253  32.567  27.444  1.00  0.00     0.031 C 
ATOM     23  C   UNL A   1      39.101  28.587  29.144  1.00  0.00     0.029 A 
ATOM     24  C   UNL A   1      39.042  29.980  29.552  1.00  0.00     0.049 A 
ATOM     25  H   UNL A   1      40.682  31.199  30.022  1.00  0.00     0.167 HD
ATOM     26  C   UNL A   1      43.991  34.153  29.407  1.00  0.00     0.031 A 
ATOM     27  C   UNL A   1      37.967  30.786  29.721  1.00  0.00     0.031 A 
ATOM     28  C   UNL A   1      43.820  34.063  30.830  1.00  0.00     0.049 A 
ATOM     29  C   UNL A   1      38.431  32.021  30.395  1.00  0.00     0.074 A 
ATOM     30  C   UNL A   1      44.534  33.485  31.860  1.00  0.00     0.029 A 
ATOM     31  N   UNL A   1      42.576  34.335  31.344  1.00  0.00    -0.354 N 
ATOM     32  N   UNL A   1      38.864  32.050  31.623  1.00  0.00    -0.248 NA
ATOM     33  C   UNL A   1      38.839  33.144  29.564  1.00  0.00     0.031 C 
ATOM     34  C   UNL A   1      43.546  33.001  32.765  1.00  0.00     0.029 A 
ATOM     35  C   UNL A   1      42.294  33.358  32.261  1.00  0.00     0.049 A 
ATOM     36  H   UNL A   1      41.995  35.092  31.099  1.00  0.00     0.167 HD
ATOM     37  C   UNL A   1      39.930  32.938  31.602  1.00  0.00     0.074 A 
ATOM     38  C   UNL A   1      39.800  33.659  30.337  1.00  0.00     0.031 C 
ATOM     39  C   UNL A   1      40.975  32.807  32.473  1.00  0.00     0.031 A 
BRANCH  26  40
ATOM     40  C   UNL A   1      43.709  35.421  28.635  1.00  0.00    -0.014 A 
ATOM     41  C   UNL A   1      44.546  36.535  28.833  1.00  0.00     0.009 A 
ATOM     42  C   UNL A   1      42.492  35.659  27.965  1.00  0.00     0.009 A 
ATOM     43  C   UNL A   1      44.136  37.824  28.472  1.00  0.00     0.001 A 
ATOM     44  C   UNL A   1      42.099  36.938  27.567  1.00  0.00     0.001 A 
ATOM     45  C   UNL A   1      42.907  38.026  27.852  1.00  0.00     0.000 A 
ENDBRANCH  26  40
BRANCH  27  46
ATOM     46  C   UNL A   1      36.666  30.687  29.026  1.00  0.00    -0.014 A 
ATOM     47  C   UNL A   1      35.913  31.834  28.740  1.00  0.00     0.009 A 
ATOM     48  C   UNL A   1      36.273  29.476  28.422  1.00  0.00     0.009 A 
ATOM     49  C   UNL A   1      34.820  31.773  27.865  1.00  0.00     0.001 A 
ATOM     50  C   UNL A   1      35.179  29.414  27.555  1.00  0.00     0.001 A 
ATOM     51  C   UNL A   1      34.459  30.567  27.266  1.00  0.00     0.000 A 
ENDBRANCH  27  46
BRANCH  39  52
ATOM     52  C   UNL A   1      40.846  31.792  33.580  1.00  0.00    -0.014 A 
ATOM     53  C   UNL A   1      41.231  30.447  33.426  1.00  0.00     0.009 A 
ATOM     54  C   UNL A   1      40.488  32.236  34.861  1.00  0.00     0.009 A 
ATOM     55  C   UNL A   1      41.228  29.569  34.513  1.00  0.00     0.001 A 
ATOM     56  C   UNL A   1      40.504  31.363  35.952  1.00  0.00     0.001 A 
ATOM     57  C   UNL A   1      40.868  30.029  35.777  1.00  0.00     0.000 A 
ENDBRANCH  39  52
ENDBRANCH  13  14
ENDBRANCH   6   8
ENDBRANCH   5   6
ENDBRANCH   4   5
ENDBRANCH   3   4
ENDBRANCH   2   3
ENDBRANCH   1   2
BRANCH   1  58
ATOM     58  C   UNL A   1      40.875  20.825  26.612  1.00  0.00     0.261 C 
BRANCH  58  59
ATOM     59  O   UNL A   1      39.815  21.358  25.796  1.00  0.00    -0.460 OA
BRANCH  59  60
ATOM     60  C   UNL A   1      39.073  22.349  26.367  1.00  0.00     0.338 C 
ATOM     61  O   UNL A   1      39.449  23.169  27.166  1.00  0.00    -0.246 OA
BRANCH  60  62
ATOM     62  C   UNL A   1      37.780  22.450  25.636  1.00  0.00     0.060 A 
ATOM     63  C   UNL A   1      36.964  21.306  25.601  1.00  0.00     0.018 A 
ATOM     64  C   UNL A   1      37.348  23.641  25.051  1.00  0.00     0.018 A 
ATOM     65  C   UNL A   1      35.728  21.338  24.952  1.00  0.00     0.029 A 
ATOM     66  C   UNL A   1      36.099  23.687  24.427  1.00  0.00     0.029 A 
ATOM     67  C   UNL A   1      35.301  22.530  24.366  1.00  0.00     0.066 A 
BRANCH  67  68
ATOM     68  N   UNL A   1      34.114  22.566  23.604  1.00  0.00    -0.220 N 
ATOM     69  C   UNL A   1      33.846  23.426  22.552  1.00  0.00     0.141 A 
ATOM     70  N   UNL A   1      32.974  21.992  24.028  1.00  0.00    -0.062 NA
ATOM     71  C   UNL A   1      32.472  23.542  22.553  1.00  0.00     0.093 A 
ATOM     72  N   UNL A   1      31.974  22.539  23.361  1.00  0.00    -0.134 NA
BRANCH  71  73
ATOM     73  C   UNL A   1      31.481  24.575  22.161  1.00  0.00     0.138 C 
BRANCH  73  74
ATOM     74  S   UNL A   1      31.708  26.254  21.643  1.00  0.00    -0.081 SA
BRANCH  74  75
ATOM     75  C   UNL A   1      30.990  27.460  22.654  1.00  0.00     0.176 A 
ATOM     76  N   UNL A   1      30.135  28.168  21.975  1.00  0.00    -0.223 NA
ATOM     77  N   UNL A   1      31.227  27.684  24.003  1.00  0.00    -0.255 N 
ATOM     78  C   UNL A   1      29.515  29.255  22.586  1.00  0.00     0.079 A 
ATOM     79  C   UNL A   1      31.121  29.036  24.379  1.00  0.00     0.266 A 
ATOM     80  C   UNL A   1      28.402  29.863  22.005  1.00  0.00     0.029 A 
ATOM     81  C   UNL A   1      30.072  29.821  23.719  1.00  0.00     0.066 A 
ATOM     82  O   UNL A   1      31.865  29.628  25.162  1.00  0.00    -0.268 OA
ATOM     83  C   UNL A   1      27.907  31.064  22.525  1.00  0.00     0.002 A 
ATOM     84  C   UNL A   1      29.627  31.047  24.218  1.00  0.00     0.016 A 
ATOM     85  C   UNL A   1      28.542  31.674  23.609  1.00  0.00     0.001 A 
BRANCH  77  86
ATOM     86  C   UNL A   1      31.652  26.724  25.012  1.00  0.00     0.051 A 
ATOM     87  C   UNL A   1      33.027  26.514  25.253  1.00  0.00     0.027 A 
ATOM     88  C   UNL A   1      30.788  25.974  25.818  1.00  0.00     0.027 A 
ATOM     89  C   UNL A   1      33.502  25.486  26.075  1.00  0.00     0.002 A 
ATOM     90  C   UNL A   1      31.248  24.903  26.600  1.00  0.00     0.002 A 
ATOM     91  C   UNL A   1      32.606  24.640  26.704  1.00  0.00     0.000 A 
ENDBRANCH  77  86
ENDBRANCH  74  75
ENDBRANCH  73  74
ENDBRANCH  71  73
ENDBRANCH  67  68
ENDBRANCH  60  62
ENDBRANCH  59  60
ENDBRANCH  58  59
ENDBRANCH   1  58
TORSDOF 19
ENDMDL
MODEL 2
REMARK VINA RESULT:     -11.4      1.787      2.782
REMARK SMILES O=C(OCCOCCOC(=O)c1ccc(-n2cc(CSc3nc4ccccc4c(=O)n3-c3ccccc3)nn2)cc1)c1ccc(-c2c3nc(c(-c4ccccc4)c4ccc([nH]4)c(-c4ccccc4)c4nc(c(-c5ccccc5)c5ccc2[nH]5)C=C4)C=C3)cc1
REMARK SMILES IDX 7 1 6 2 5 3 4 4 3 5 2 6 1 7 42 8 43 9 89 10 44 11 88 12
REMARK SMILES IDX 45 13 46 14 47 15 82 16 48 17 87 18 81 19 83 20 49 21 86 22
REMARK SMILES IDX 80 23 79 24 50 26 72 27 57 28 71 29 58 30 61 31 70 32 84 33
REMARK SMILES IDX 59 34 60 35 69 37 85 38 62 39 51 40 52 41 56 42 53 43 55 44
REMARK SMILES IDX 54 45 73 46 74 47 78 48 75 49 77 50 76 51 63 52 64 53 68 54
REMARK SMILES IDX 65 55 67 56 66 57 8 58 9 59 10 60 11 61 12 62 13 63 41 64
REMARK SMILES IDX 14 65 40 66 15 67 16 68 17 69 39 70 18 71 38 72 19 73 20 74
REMARK SMILES IDX 21 75 22 76 31 77 23 78 29 79 24 80 28 81 30 82 25 83 27 84
REMARK SMILES IDX 26 85 32 86 33 87 37 88 34 89 36 90 35 91
REMARK H PARENT 83 25 61 36
REMARK Flexibility Score: inf
ROOT
ATOM      1  C   UNL A   1      45.046  22.045  25.571  1.00  0.00     0.202 C 
ENDROOT
BRANCH   1   2
ATOM      2  O   UNL A   1      45.711  23.051  26.356  1.00  0.00    -0.374 OA
BRANCH   2   3
ATOM      3  C   UNL A   1      45.893  24.321  25.740  1.00  0.00     0.202 C 
BRANCH   3   4
ATOM      4  C   UNL A   1      45.346  25.547  26.470  1.00  0.00     0.261 C 
BRANCH   4   5
ATOM      5  O   UNL A   1      45.518  25.514  27.900  1.00  0.00    -0.460 OA
BRANCH   5   6
ATOM      6  C   UNL A   1      44.620  24.978  28.756  1.00  0.00     0.338 C 
ATOM      7  O   UNL A   1      44.829  23.897  29.299  1.00  0.00    -0.246 OA
BRANCH   6   8
ATOM      8  C   UNL A   1      43.535  25.860  29.259  1.00  0.00     0.060 A 
ATOM      9  C   UNL A   1      42.357  26.132  28.564  1.00  0.00     0.016 A 
ATOM     10  C   UNL A   1      43.808  26.559  30.443  1.00  0.00     0.016 A 
ATOM     11  C   UNL A   1      41.638  27.268  28.848  1.00  0.00     0.010 A 
ATOM     12  C   UNL A   1      43.040  27.655  30.788  1.00  0.00     0.010 A 
ATOM     13  C   UNL A   1      42.042  28.068  29.911  1.00  0.00    -0.014 A 
BRANCH  13  14
ATOM     14  C   UNL A   1      41.353  29.333  30.070  1.00  0.00     0.031 A 
ATOM     15  C   UNL A   1      42.190  30.536  29.817  1.00  0.00     0.074 A 
ATOM     16  C   UNL A   1      40.040  29.367  30.361  1.00  0.00     0.049 A 
ATOM     17  N   UNL A   1      42.392  31.557  30.586  1.00  0.00    -0.248 NA
ATOM     18  C   UNL A   1      43.001  30.537  28.587  1.00  0.00     0.031 C 
ATOM     19  C   UNL A   1      39.097  28.244  30.397  1.00  0.00     0.029 A 
ATOM     20  N   UNL A   1      39.236  30.448  30.537  1.00  0.00    -0.354 N 
ATOM     21  C   UNL A   1      43.223  32.413  29.867  1.00  0.00     0.074 A 
ATOM     22  C   UNL A   1      43.675  31.678  28.713  1.00  0.00     0.031 C 
ATOM     23  C   UNL A   1      37.840  28.722  30.291  1.00  0.00     0.029 A 
ATOM     24  C   UNL A   1      37.893  30.174  30.323  1.00  0.00     0.049 A 
ATOM     25  H   UNL A   1      39.572  31.337  30.792  1.00  0.00     0.167 HD
ATOM     26  C   UNL A   1      43.291  33.745  30.133  1.00  0.00     0.031 A 
ATOM     27  C   UNL A   1      36.918  31.079  30.073  1.00  0.00     0.031 A 
ATOM     28  C   UNL A   1      42.871  34.051  31.472  1.00  0.00     0.049 A 
ATOM     29  C   UNL A   1      37.416  32.408  30.500  1.00  0.00     0.074 A 
ATOM     30  C   UNL A   1      43.320  33.712  32.733  1.00  0.00     0.029 A 
ATOM     31  N   UNL A   1      41.604  34.550  31.647  1.00  0.00    -0.354 N 
ATOM     32  N   UNL A   1      37.635  32.728  31.743  1.00  0.00    -0.248 NA
ATOM     33  C   UNL A   1      38.101  33.232  29.515  1.00  0.00     0.031 C 
ATOM     34  C   UNL A   1      42.138  33.568  33.516  1.00  0.00     0.029 A 
ATOM     35  C   UNL A   1      41.047  33.877  32.702  1.00  0.00     0.049 A 
ATOM     36  H   UNL A   1      41.175  35.257  31.114  1.00  0.00     0.167 HD
ATOM     37  C   UNL A   1      38.794  33.489  31.714  1.00  0.00     0.074 A 
ATOM     38  C   UNL A   1      38.974  33.855  30.311  1.00  0.00     0.031 C 
ATOM     39  C   UNL A   1      39.651  33.511  32.779  1.00  0.00     0.031 A 
BRANCH  26  40
ATOM     40  C   UNL A   1      43.309  34.780  29.032  1.00  0.00    -0.014 A 
ATOM     41  C   UNL A   1      42.109  35.073  28.358  1.00  0.00     0.009 A 
ATOM     42  C   UNL A   1      44.497  35.247  28.435  1.00  0.00     0.009 A 
ATOM     43  C   UNL A   1      42.114  35.705  27.109  1.00  0.00     0.001 A 
ATOM     44  C   UNL A   1      44.502  35.914  27.209  1.00  0.00     0.001 A 
ATOM     45  C   UNL A   1      43.311  36.112  26.529  1.00  0.00     0.000 A 
ENDBRANCH  26  40
BRANCH  27  46
ATOM     46  C   UNL A   1      35.752  30.904  29.182  1.00  0.00    -0.014 A 
ATOM     47  C   UNL A   1      34.811  31.929  29.016  1.00  0.00     0.009 A 
ATOM     48  C   UNL A   1      35.691  29.808  28.298  1.00  0.00     0.009 A 
ATOM     49  C   UNL A   1      33.859  31.869  27.989  1.00  0.00     0.001 A 
ATOM     50  C   UNL A   1      34.737  29.744  27.279  1.00  0.00     0.001 A 
ATOM     51  C   UNL A   1      33.828  30.782  27.116  1.00  0.00     0.000 A 
ENDBRANCH  27  46
BRANCH  39  52
ATOM     52  C   UNL A   1      39.206  32.840  34.055  1.00  0.00    -0.014 A 
ATOM     53  C   UNL A   1      38.746  33.563  35.171  1.00  0.00     0.009 A 
ATOM     54  C   UNL A   1      39.086  31.444  34.073  1.00  0.00     0.009 A 
ATOM     55  C   UNL A   1      38.212  32.905  36.283  1.00  0.00     0.001 A 
ATOM     56  C   UNL A   1      38.533  30.788  35.176  1.00  0.00     0.001 A 
ATOM     57  C   UNL A   1      38.102  31.517  36.282  1.00  0.00     0.000 A 
ENDBRANCH  39  52
ENDBRANCH  13  14
ENDBRANCH   6   8
ENDBRANCH   5   6
ENDBRANCH   4   5
ENDBRANCH   3   4
ENDBRANCH   2   3
ENDBRANCH   1   2
BRANCH   1  58
ATOM     58  C   UNL A   1      43.574  22.255  25.173  1.00  0.00     0.261 C 
BRANCH  58  59
ATOM     59  O   UNL A   1      42.865  23.076  26.120  1.00  0.00    -0.460 OA
BRANCH  59  60
ATOM     60  C   UNL A   1      42.106  22.403  27.032  1.00  0.00     0.338 C 
ATOM     61  O   UNL A   1      42.479  21.918  28.069  1.00  0.00    -0.246 OA
BRANCH  60  62
ATOM     62  C   UNL A   1      40.671  22.603  26.689  1.00  0.00     0.060 A 
ATOM     63  C   UNL A   1      39.963  21.495  26.192  1.00  0.00     0.018 A 
ATOM     64  C   UNL A   1      40.019  23.818  26.900  1.00  0.00     0.018 A 
ATOM     65  C   UNL A   1      38.609  21.605  25.872  1.00  0.00     0.029 A 
ATOM     66  C   UNL A   1      38.656  23.926  26.611  1.00  0.00     0.029 A 
ATOM     67  C   UNL A   1      37.961  22.824  26.082  1.00  0.00     0.066 A 
BRANCH  67  68
ATOM     68  N   UNL A   1      36.626  23.003  25.662  1.00  0.00    -0.220 N 
ATOM     69  C   UNL A   1      36.022  24.213  25.360  1.00  0.00     0.141 A 
ATOM     70  N   UNL A   1      35.689  22.053  25.829  1.00  0.00    -0.062 NA
ATOM     71  C   UNL A   1      34.686  23.999  25.624  1.00  0.00     0.093 A 
ATOM     72  N   UNL A   1      34.506  22.636  25.756  1.00  0.00    -0.134 NA
BRANCH  71  73
ATOM     73  C   UNL A   1      33.529  24.823  26.053  1.00  0.00     0.138 C 
BRANCH  73  74
ATOM     74  S   UNL A   1      33.199  26.550  25.831  1.00  0.00    -0.081 SA
BRANCH  74  75
ATOM     75  C   UNL A   1      31.908  26.939  24.747  1.00  0.00     0.176 A 
ATOM     76  N   UNL A   1      31.642  28.212  24.800  1.00  0.00    -0.223 NA
ATOM     77  N   UNL A   1      31.224  26.077  23.901  1.00  0.00    -0.255 N 
ATOM     78  C   UNL A   1      30.568  28.713  24.068  1.00  0.00     0.079 A 
ATOM     79  C   UNL A   1      29.875  26.425  23.708  1.00  0.00     0.266 A 
ATOM     80  C   UNL A   1      30.417  30.085  23.869  1.00  0.00     0.029 A 
ATOM     81  C   UNL A   1      29.571  27.859  23.632  1.00  0.00     0.066 A 
ATOM     82  O   UNL A   1      28.926  25.642  23.660  1.00  0.00    -0.268 OA
ATOM     83  C   UNL A   1      29.241  30.587  23.300  1.00  0.00     0.002 A 
ATOM     84  C   UNL A   1      28.369  28.344  23.113  1.00  0.00     0.016 A 
ATOM     85  C   UNL A   1      28.203  29.719  22.956  1.00  0.00     0.001 A 
BRANCH  77  86
ATOM     86  C   UNL A   1      31.707  24.845  23.293  1.00  0.00     0.051 A 
ATOM     87  C   UNL A   1      31.217  23.598  23.737  1.00  0.00     0.027 A 
ATOM     88  C   UNL A   1      32.634  24.779  22.246  1.00  0.00     0.027 A 
ATOM     89  C   UNL A   1      31.765  22.380  23.323  1.00  0.00     0.002 A 
ATOM     90  C   UNL A   1      33.233  23.568  21.864  1.00  0.00     0.002 A 
ATOM     91  C   UNL A   1      32.818  22.370  22.426  1.00  0.00     0.000 A 
ENDBRANCH  77  86
ENDBRANCH  74  75
ENDBRANCH  73  74
ENDBRANCH  71  73
ENDBRANCH  67  68
ENDBRANCH  60  62
ENDBRANCH  59  60
ENDBRANCH  58  59
ENDBRANCH   1  58
TORSDOF 19
ENDMDL
MODEL 3
REMARK VINA RESULT:     -11.4      5.920     12.264
REMARK SMILES O=C(OCCOCCOC(=O)c1ccc(-n2cc(CSc3nc4ccccc4c(=O)n3-c3ccccc3)nn2)cc1)c1ccc(-c2c3nc(c(-c4ccccc4)c4ccc([nH]4)c(-c4ccccc4)c4nc(c(-c5ccccc5)c5ccc2[nH]5)C=C4)C=C3)cc1
REMARK SMILES IDX 7 1 6 2 5 3 4 4 3 5 2 6 1 7 42 8 43 9 89 10 44 11 88 12
REMARK SMILES IDX 45 13 46 14 47 15 82 16 48 17 87 18 81 19 83 20 49 21 86 22
REMARK SMILES IDX 80 23 79 24 50 26 72 27 57 28 71 29 58 30 61 31 70 32 84 33
REMARK SMILES IDX 59 34 60 35 69 37 85 38 62 39 51 40 52 41 56 42 53 43 55 44
REMARK SMILES IDX 54 45 73 46 74 47 78 48 75 49 77 50 76 51 63 52 64 53 68 54
REMARK SMILES IDX 65 55 67 56 66 57 8 58 9 59 10 60 11 61 12 62 13 63 41 64
REMARK SMILES IDX 14 65 40 66 15 67 16 68 17 69 39 70 18 71 38 72 19 73 20 74
REMARK SMILES IDX 21 75 22 76 31 77 23 78 29 79 24 80 28 81 30 82 25 83 27 84
REMARK SMILES IDX 26 85 32 86 33 87 37 88 34 89 36 90 35 91
REMARK H PARENT 83 25 61 36
REMARK Flexibility Score: inf
ROOT
ATOM      1  C   UNL A   1      33.214  34.574  27.981  1.00  0.00     0.202 C 
ENDROOT
BRANCH   1   2
ATOM      2  O   UNL A   1      34.313  33.727  27.603  1.00  0.00    -0.374 OA
BRANCH   2   3
ATOM      3  C   UNL A   1      34.288  32.393  28.098  1.00  0.00     0.202 C 
BRANCH   3   4
ATOM      4  C   UNL A   1      35.508  31.901  28.876  1.00  0.00     0.261 C 
BRANCH   4   5
ATOM      5  O   UNL A   1      35.599  30.469  28.996  1.00  0.00    -0.460 OA
BRANCH   5   6
ATOM      6  C   UNL A   1      36.329  29.835  29.941  1.00  0.00     0.338 C 
ATOM      7  O   UNL A   1      35.908  29.709  31.087  1.00  0.00    -0.246 OA
BRANCH   6   8
ATOM      8  C   UNL A   1      37.495  29.033  29.488  1.00  0.00     0.060 A 
ATOM      9  C   UNL A   1      38.187  28.129  30.293  1.00  0.00     0.016 A 
ATOM     10  C   UNL A   1      37.991  29.332  28.211  1.00  0.00     0.016 A 
ATOM     11  C   UNL A   1      39.481  27.783  29.983  1.00  0.00     0.010 A 
ATOM     12  C   UNL A   1      39.259  28.918  27.852  1.00  0.00     0.010 A 
ATOM     13  C   UNL A   1      40.035  28.256  28.800  1.00  0.00    -0.014 A 
BRANCH  13  14
ATOM     14  C   UNL A   1      41.447  28.001  28.596  1.00  0.00     0.031 A 
ATOM     15  C   UNL A   1      41.767  26.648  28.067  1.00  0.00     0.074 A 
ATOM     16  C   UNL A   1      42.357  28.965  28.819  1.00  0.00     0.049 A 
ATOM     17  N   UNL A   1      42.579  25.763  28.548  1.00  0.00    -0.248 NA
ATOM     18  C   UNL A   1      40.982  26.182  26.911  1.00  0.00     0.031 C 
ATOM     19  C   UNL A   1      42.113  30.382  29.115  1.00  0.00     0.029 A 
ATOM     20  N   UNL A   1      43.707  28.910  28.676  1.00  0.00    -0.354 N 
ATOM     21  C   UNL A   1      42.537  24.691  27.660  1.00  0.00     0.074 A 
ATOM     22  C   UNL A   1      41.443  24.943  26.757  1.00  0.00     0.031 C 
ATOM     23  C   UNL A   1      43.231  31.086  28.841  1.00  0.00     0.029 A 
ATOM     24  C   UNL A   1      44.291  30.155  28.492  1.00  0.00     0.049 A 
ATOM     25  H   UNL A   1      44.220  28.071  28.700  1.00  0.00     0.167 HD
ATOM     26  C   UNL A   1      43.551  23.789  27.569  1.00  0.00     0.031 A 
ATOM     27  C   UNL A   1      45.519  30.398  27.977  1.00  0.00     0.031 A 
ATOM     28  C   UNL A   1      44.347  23.747  28.764  1.00  0.00     0.049 A 
ATOM     29  C   UNL A   1      46.299  29.142  28.058  1.00  0.00     0.074 A 
ATOM     30  C   UNL A   1      44.100  23.432  30.085  1.00  0.00     0.029 A 
ATOM     31  N   UNL A   1      45.550  24.409  28.756  1.00  0.00    -0.354 N 
ATOM     32  N   UNL A   1      46.685  28.606  29.180  1.00  0.00    -0.248 NA
ATOM     33  C   UNL A   1      46.265  28.238  26.917  1.00  0.00     0.031 C 
ATOM     34  C   UNL A   1      44.907  24.336  30.835  1.00  0.00     0.029 A 
ATOM     35  C   UNL A   1      45.635  25.110  29.929  1.00  0.00     0.049 A 
ATOM     36  H   UNL A   1      46.225  24.385  28.039  1.00  0.00     0.167 HD
ATOM     37  C   UNL A   1      46.525  27.240  28.995  1.00  0.00     0.074 A 
ATOM     38  C   UNL A   1      46.367  27.067  27.553  1.00  0.00     0.031 C 
ATOM     39  C   UNL A   1      46.248  26.413  30.048  1.00  0.00     0.031 A 
BRANCH  26  40
ATOM     40  C   UNL A   1      44.063  23.294  26.237  1.00  0.00    -0.014 A 
ATOM     41  C   UNL A   1      43.903  21.934  25.912  1.00  0.00     0.009 A 
ATOM     42  C   UNL A   1      44.956  24.031  25.433  1.00  0.00     0.009 A 
ATOM     43  C   UNL A   1      44.671  21.331  24.909  1.00  0.00     0.001 A 
ATOM     44  C   UNL A   1      45.693  23.442  24.405  1.00  0.00     0.001 A 
ATOM     45  C   UNL A   1      45.576  22.082  24.166  1.00  0.00     0.000 A 
ENDBRANCH  26  40
BRANCH  27  46
ATOM     46  C   UNL A   1      45.912  31.537  27.121  1.00  0.00    -0.014 A 
ATOM     47  C   UNL A   1      44.970  32.193  26.317  1.00  0.00     0.009 A 
ATOM     48  C   UNL A   1      47.176  32.142  27.276  1.00  0.00     0.009 A 
ATOM     49  C   UNL A   1      45.275  33.418  25.709  1.00  0.00     0.001 A 
ATOM     50  C   UNL A   1      47.483  33.360  26.665  1.00  0.00     0.001 A 
ATOM     51  C   UNL A   1      46.527  34.006  25.890  1.00  0.00     0.000 A 
ENDBRANCH  27  46
BRANCH  39  52
ATOM     52  C   UNL A   1      46.315  26.995  31.438  1.00  0.00    -0.014 A 
ATOM     53  C   UNL A   1      47.526  27.157  32.135  1.00  0.00     0.009 A 
ATOM     54  C   UNL A   1      45.152  27.550  31.989  1.00  0.00     0.009 A 
ATOM     55  C   UNL A   1      47.566  27.826  33.362  1.00  0.00     0.001 A 
ATOM     56  C   UNL A   1      45.195  28.237  33.206  1.00  0.00     0.001 A 
ATOM     57  C   UNL A   1      46.399  28.370  33.894  1.00  0.00     0.000 A 
ENDBRANCH  39  52
ENDBRANCH  13  14
ENDBRANCH   6   8
ENDBRANCH   5   6
ENDBRANCH   4   5
ENDBRANCH   3   4
ENDBRANCH   2   3
ENDBRANCH   1   2
BRANCH   1  58
ATOM     58  C   UNL A   1      33.400  35.578  29.133  1.00  0.00     0.261 C 
BRANCH  58  59
ATOM     59  O   UNL A   1      32.654  35.204  30.308  1.00  0.00    -0.460 OA
BRANCH  59  60
ATOM     60  C   UNL A   1      33.031  35.820  31.465  1.00  0.00     0.338 C 
ATOM     61  O   UNL A   1      32.523  36.787  31.972  1.00  0.00    -0.246 OA
BRANCH  60  62
ATOM     62  C   UNL A   1      34.004  34.941  32.171  1.00  0.00     0.060 A 
ATOM     63  C   UNL A   1      34.764  35.514  33.205  1.00  0.00     0.018 A 
ATOM     64  C   UNL A   1      34.130  33.584  31.872  1.00  0.00     0.018 A 
ATOM     65  C   UNL A   1      35.678  34.741  33.923  1.00  0.00     0.029 A 
ATOM     66  C   UNL A   1      35.021  32.799  32.609  1.00  0.00     0.029 A 
ATOM     67  C   UNL A   1      35.804  33.384  33.620  1.00  0.00     0.066 A 
BRANCH  67  68
ATOM     68  N   UNL A   1      36.798  32.602  34.246  1.00  0.00    -0.220 N 
ATOM     69  C   UNL A   1      37.707  33.045  35.192  1.00  0.00     0.141 A 
ATOM     70  N   UNL A   1      37.194  31.417  33.749  1.00  0.00    -0.062 NA
ATOM     71  C   UNL A   1      38.791  32.208  35.036  1.00  0.00     0.093 A 
ATOM     72  N   UNL A   1      38.380  31.141  34.260  1.00  0.00    -0.134 NA
BRANCH  71  73
ATOM     73  C   UNL A   1      40.259  32.300  35.237  1.00  0.00     0.138 C 
BRANCH  73  74
ATOM     74  S   UNL A   1      41.579  31.335  34.555  1.00  0.00    -0.081 SA
BRANCH  74  75
ATOM     75  C   UNL A   1      42.417  32.042  33.216  1.00  0.00     0.176 A 
ATOM     76  N   UNL A   1      43.619  31.552  33.127  1.00  0.00    -0.223 NA
ATOM     77  N   UNL A   1      41.934  32.980  32.315  1.00  0.00    -0.255 N 
ATOM     78  C   UNL A   1      44.491  32.060  32.167  1.00  0.00     0.079 A 
ATOM     79  C   UNL A   1      42.918  33.866  31.839  1.00  0.00     0.266 A 
ATOM     80  C   UNL A   1      45.671  31.390  31.847  1.00  0.00     0.029 A 
ATOM     81  C   UNL A   1      44.252  33.302  31.605  1.00  0.00     0.066 A 
ATOM     82  O   UNL A   1      42.776  35.077  31.662  1.00  0.00    -0.268 OA
ATOM     83  C   UNL A   1      46.625  32.002  31.026  1.00  0.00     0.002 A 
ATOM     84  C   UNL A   1      45.215  33.951  30.830  1.00  0.00     0.016 A 
ATOM     85  C   UNL A   1      46.413  33.296  30.548  1.00  0.00     0.001 A 
BRANCH  77  86
ATOM     86  C   UNL A   1      40.555  33.201  31.900  1.00  0.00     0.051 A 
ATOM     87  C   UNL A   1      39.914  32.269  31.056  1.00  0.00     0.027 A 
ATOM     88  C   UNL A   1      39.764  34.283  32.298  1.00  0.00     0.027 A 
ATOM     89  C   UNL A   1      38.661  32.507  30.482  1.00  0.00     0.002 A 
ATOM     90  C   UNL A   1      38.532  34.564  31.685  1.00  0.00     0.002 A 
ATOM     91  C   UNL A   1      37.995  33.690  30.752  1.00  0.00     0.000 A 
ENDBRANCH  77  86
ENDBRANCH  74  75
ENDBRANCH  73  74
ENDBRANCH  71  73
ENDBRANCH  67  68
ENDBRANCH  60  62
ENDBRANCH  59  60
ENDBRANCH  58  59
ENDBRANCH   1  58
TORSDOF 19
ENDMDL
