MODEL 1
REMARK VINA RESULT:     -11.3      0.000      0.000
REMARK SMILES CN(C)c1cc(C(F)(F)F)cc(-c2cccc(/C=C/C(=O)OCCOCCOC(=O)c3ccc(-c4c5nc(c(-c6ccccc6)c6ccc([nH]6)c(-c6ccccc6)c6nc(c(-c7ccccc7)c7ccc4[nH]7)C=C6)C=C5)cc3)c2)n1
REMARK SMILES IDX 24 1 23 2 22 3 20 4 21 5 19 6 18 7 17 8 13 9 14 10 79 11
REMARK SMILES IDX 15 12 16 13 12 14 4 15 5 16 80 17 6 18 11 19 2 20 1 21 3 22
REMARK SMILES IDX 7 23 8 24 9 25 10 26 25 27 26 28 27 29 28 30 29 31 30 32
REMARK SMILES IDX 31 33 32 34 78 35 33 36 77 37 34 38 35 39 36 40 71 41 37 42
REMARK SMILES IDX 76 43 70 44 72 45 38 46 75 47 69 48 68 49 39 51 61 52 46 53
REMARK SMILES IDX 60 54 47 55 50 56 59 57 73 58 48 59 49 60 58 62 74 63 51 64
REMARK SMILES IDX 40 65 41 66 45 67 42 68 44 69 43 70 62 71 63 72 67 73 64 74
REMARK SMILES IDX 66 75 65 76 52 77 53 78 57 79 54 80 56 81 55 82
REMARK H PARENT 72 50 50 61
REMARK Flexibility Score: inf
ROOT
ATOM      1  C   UNL A   1      45.704  19.329  25.208  1.00  0.00     0.202 C 
ENDROOT
BRANCH   1   2
ATOM      2  C   UNL A   1      44.309  19.428  24.588  1.00  0.00     0.261 C 
BRANCH   2   3
ATOM      3  O   UNL A   1      43.491  18.310  24.978  1.00  0.00    -0.460 OA
BRANCH   3   4
ATOM      4  C   UNL A   1      42.883  18.430  26.182  1.00  0.00     0.330 C 
ATOM      5  O   UNL A   1      43.065  17.724  27.163  1.00  0.00    -0.247 OA
BRANCH   4   6
ATOM      6  C   UNL A   1      41.980  19.597  26.242  1.00  0.00     0.094 C 
ATOM      7  C   UNL A   1      40.647  19.580  26.085  1.00  0.00     0.015 C 
BRANCH   7   8
ATOM      8  C   UNL A   1      39.816  20.798  26.126  1.00  0.00    -0.025 A 
ATOM      9  C   UNL A   1      37.674  21.891  25.630  1.00  0.00     0.001 A 
ATOM     10  C   UNL A   1      38.200  23.094  26.125  1.00  0.00     0.010 A 
ATOM     11  C   UNL A   1      38.504  20.751  25.631  1.00  0.00     0.018 A 
ATOM     12  C   UNL A   1      39.505  23.161  26.608  1.00  0.00     0.001 A 
ATOM     13  C   UNL A   1      40.310  22.021  26.599  1.00  0.00     0.008 A 
BRANCH   9  14
ATOM     14  C   UNL A   1      36.292  21.834  25.135  1.00  0.00     0.073 A 
ATOM     15  C   UNL A   1      34.474  20.446  24.622  1.00  0.00     0.129 A 
ATOM     16  C   UNL A   1      33.748  21.552  24.186  1.00  0.00     0.060 A 
ATOM     17  N   UNL A   1      35.733  20.601  25.091  1.00  0.00    -0.231 NA
ATOM     18  C   UNL A   1      34.309  22.833  24.242  1.00  0.00     0.061 A 
ATOM     19  C   UNL A   1      35.612  22.969  24.723  1.00  0.00     0.042 A 
BRANCH  15  20
ATOM     20  N   UNL A   1      33.910  19.177  24.623  1.00  0.00    -0.363 N 
ATOM     21  C   UNL A   1      34.784  18.015  24.626  1.00  0.00     0.144 C 
ATOM     22  C   UNL A   1      32.603  19.053  25.253  1.00  0.00     0.144 C 
ENDBRANCH  15  20
BRANCH  18  23
ATOM     23  C   UNL A   1      33.529  24.047  23.823  1.00  0.00     0.416 C 
ATOM     24  F   UNL A   1      32.338  24.144  24.476  1.00  0.00    -0.166 F 
ATOM     25  F   UNL A   1      34.192  25.207  24.083  1.00  0.00    -0.166 F 
ATOM     26  F   UNL A   1      33.232  24.076  22.495  1.00  0.00    -0.166 F 
ENDBRANCH  18  23
ENDBRANCH   9  14
ENDBRANCH   7   8
ENDBRANCH   4   6
ENDBRANCH   3   4
ENDBRANCH   2   3
ENDBRANCH   1   2
BRANCH   1  27
ATOM     27  O   UNL A   1      46.523  20.487  25.053  1.00  0.00    -0.374 OA
BRANCH  27  28
ATOM     28  C   UNL A   1      45.923  21.744  25.374  1.00  0.00     0.202 C 
BRANCH  28  29
ATOM     29  C   UNL A   1      45.796  22.730  24.206  1.00  0.00     0.261 C 
BRANCH  29  30
ATOM     30  O   UNL A   1      45.136  23.946  24.609  1.00  0.00    -0.460 OA
BRANCH  30  31
ATOM     31  C   UNL A   1      43.854  23.797  25.014  1.00  0.00     0.338 C 
ATOM     32  O   UNL A   1      43.029  22.997  24.593  1.00  0.00    -0.246 OA
BRANCH  31  33
ATOM     33  C   UNL A   1      43.602  24.637  26.200  1.00  0.00     0.060 A 
ATOM     34  C   UNL A   1      42.928  24.049  27.278  1.00  0.00     0.016 A 
ATOM     35  C   UNL A   1      43.957  25.988  26.238  1.00  0.00     0.016 A 
ATOM     36  C   UNL A   1      42.564  24.821  28.380  1.00  0.00     0.010 A 
ATOM     37  C   UNL A   1      43.585  26.763  27.341  1.00  0.00     0.010 A 
ATOM     38  C   UNL A   1      42.858  26.190  28.401  1.00  0.00    -0.014 A 
BRANCH  38  39
ATOM     39  C   UNL A   1      42.284  27.046  29.467  1.00  0.00     0.031 A 
ATOM     40  C   UNL A   1      42.961  27.099  30.809  1.00  0.00     0.074 A 
ATOM     41  C   UNL A   1      41.187  27.790  29.237  1.00  0.00     0.049 A 
ATOM     42  N   UNL A   1      42.619  27.762  31.885  1.00  0.00    -0.248 NA
ATOM     43  C   UNL A   1      44.185  26.296  30.959  1.00  0.00     0.031 C 
ATOM     44  C   UNL A   1      40.461  27.860  27.970  1.00  0.00     0.029 A 
ATOM     45  N   UNL A   1      40.491  28.627  30.072  1.00  0.00    -0.354 N 
ATOM     46  C   UNL A   1      43.579  27.452  32.839  1.00  0.00     0.074 A 
ATOM     47  C   UNL A   1      44.502  26.521  32.226  1.00  0.00     0.031 C 
ATOM     48  C   UNL A   1      39.414  28.691  28.114  1.00  0.00     0.029 A 
ATOM     49  C   UNL A   1      39.381  29.186  29.488  1.00  0.00     0.049 A 
ATOM     50  H   UNL A   1      40.762  28.810  31.001  1.00  0.00     0.167 HD
ATOM     51  C   UNL A   1      43.687  27.903  34.111  1.00  0.00     0.031 A 
ATOM     52  C   UNL A   1      38.435  29.991  30.009  1.00  0.00     0.031 A 
ATOM     53  C   UNL A   1      42.766  28.819  34.729  1.00  0.00     0.049 A 
ATOM     54  C   UNL A   1      38.537  30.423  31.448  1.00  0.00     0.074 A 
ATOM     55  C   UNL A   1      42.805  29.350  36.007  1.00  0.00     0.029 A 
ATOM     56  N   UNL A   1      41.635  29.334  34.114  1.00  0.00    -0.354 N 
ATOM     57  N   UNL A   1      39.466  30.146  32.330  1.00  0.00    -0.248 NA
ATOM     58  C   UNL A   1      37.461  31.285  31.958  1.00  0.00     0.031 C 
ATOM     59  C   UNL A   1      41.667  30.145  36.183  1.00  0.00     0.029 A 
ATOM     60  C   UNL A   1      40.951  30.153  34.996  1.00  0.00     0.049 A 
ATOM     61  H   UNL A   1      41.359  29.144  33.189  1.00  0.00     0.167 HD
ATOM     62  C   UNL A   1      39.102  30.820  33.490  1.00  0.00     0.074 A 
ATOM     63  C   UNL A   1      37.874  31.529  33.195  1.00  0.00     0.031 C 
ATOM     64  C   UNL A   1      39.730  30.850  34.691  1.00  0.00     0.031 A 
BRANCH  51  65
ATOM     65  C   UNL A   1      44.829  27.380  34.935  1.00  0.00    -0.014 A 
ATOM     66  C   UNL A   1      44.704  26.206  35.695  1.00  0.00     0.009 A 
ATOM     67  C   UNL A   1      46.059  28.055  34.925  1.00  0.00     0.009 A 
ATOM     68  C   UNL A   1      45.780  25.737  36.452  1.00  0.00     0.001 A 
ATOM     69  C   UNL A   1      47.141  27.569  35.661  1.00  0.00     0.001 A 
ATOM     70  C   UNL A   1      46.998  26.416  36.431  1.00  0.00     0.000 A 
ENDBRANCH  51  65
BRANCH  52  71
ATOM     71  C   UNL A   1      37.288  30.428  29.172  1.00  0.00    -0.014 A 
ATOM     72  C   UNL A   1      37.233  31.732  28.657  1.00  0.00     0.009 A 
ATOM     73  C   UNL A   1      36.233  29.545  28.897  1.00  0.00     0.009 A 
ATOM     74  C   UNL A   1      36.132  32.148  27.903  1.00  0.00     0.001 A 
ATOM     75  C   UNL A   1      35.147  29.955  28.121  1.00  0.00     0.001 A 
ATOM     76  C   UNL A   1      35.093  31.258  27.632  1.00  0.00     0.000 A 
ENDBRANCH  52  71
BRANCH  64  77
ATOM     77  C   UNL A   1      39.120  31.704  35.766  1.00  0.00    -0.014 A 
ATOM     78  C   UNL A   1      39.447  33.063  35.893  1.00  0.00     0.009 A 
ATOM     79  C   UNL A   1      38.169  31.149  36.638  1.00  0.00     0.009 A 
ATOM     80  C   UNL A   1      38.857  33.840  36.892  1.00  0.00     0.001 A 
ATOM     81  C   UNL A   1      37.560  31.935  37.616  1.00  0.00     0.001 A 
ATOM     82  C   UNL A   1      37.911  33.278  37.748  1.00  0.00     0.000 A 
ENDBRANCH  64  77
ENDBRANCH  38  39
ENDBRANCH  31  33
ENDBRANCH  30  31
ENDBRANCH  29  30
ENDBRANCH  28  29
ENDBRANCH  27  28
ENDBRANCH   1  27
TORSDOF 18
ENDMDL
MODEL 2
REMARK VINA RESULT:     -11.2      6.487     12.768
REMARK SMILES CN(C)c1cc(C(F)(F)F)cc(-c2cccc(/C=C/C(=O)OCCOCCOC(=O)c3ccc(-c4c5nc(c(-c6ccccc6)c6ccc([nH]6)c(-c6ccccc6)c6nc(c(-c7ccccc7)c7ccc4[nH]7)C=C6)C=C5)cc3)c2)n1
REMARK SMILES IDX 24 1 23 2 22 3 20 4 21 5 19 6 18 7 17 8 13 9 14 10 79 11
REMARK SMILES IDX 15 12 16 13 12 14 4 15 5 16 80 17 6 18 11 19 2 20 1 21 3 22
REMARK SMILES IDX 7 23 8 24 9 25 10 26 25 27 26 28 27 29 28 30 29 31 30 32
REMARK SMILES IDX 31 33 32 34 78 35 33 36 77 37 34 38 35 39 36 40 71 41 37 42
REMARK SMILES IDX 76 43 70 44 72 45 38 46 75 47 69 48 68 49 39 51 61 52 46 53
REMARK SMILES IDX 60 54 47 55 50 56 59 57 73 58 48 59 49 60 58 62 74 63 51 64
REMARK SMILES IDX 40 65 41 66 45 67 42 68 44 69 43 70 62 71 63 72 67 73 64 74
REMARK SMILES IDX 66 75 65 76 52 77 53 78 57 79 54 80 56 81 55 82
REMARK H PARENT 72 50 50 61
REMARK Flexibility Score: inf
ROOT
ATOM      1  C   UNL A   1      32.570  36.060  32.674  1.00  0.00     0.202 C 
ENDROOT
BRANCH   1   2
ATOM      2  C   UNL A   1      34.034  36.193  33.100  1.00  0.00     0.261 C 
BRANCH   2   3
ATOM      3  O   UNL A   1      34.784  35.019  32.744  1.00  0.00    -0.460 OA
BRANCH   3   4
ATOM      4  C   UNL A   1      34.546  33.926  33.507  1.00  0.00     0.330 C 
ATOM      5  O   UNL A   1      33.621  33.137  33.381  1.00  0.00    -0.247 OA
BRANCH   4   6
ATOM      6  C   UNL A   1      35.598  33.708  34.521  1.00  0.00     0.094 C 
ATOM      7  C   UNL A   1      36.839  33.251  34.292  1.00  0.00     0.015 C 
BRANCH   7   8
ATOM      8  C   UNL A   1      37.824  33.028  35.367  1.00  0.00    -0.025 A 
ATOM      9  C   UNL A   1      39.759  31.772  36.208  1.00  0.00     0.001 A 
ATOM     10  C   UNL A   1      39.697  32.516  37.397  1.00  0.00     0.010 A 
ATOM     11  C   UNL A   1      38.806  32.038  35.204  1.00  0.00     0.018 A 
ATOM     12  C   UNL A   1      38.720  33.493  37.580  1.00  0.00     0.001 A 
ATOM     13  C   UNL A   1      37.785  33.740  36.573  1.00  0.00     0.008 A 
BRANCH   9  14
ATOM     14  C   UNL A   1      40.802  30.753  36.026  1.00  0.00     0.073 A 
ATOM     15  C   UNL A   1      42.964  30.067  36.617  1.00  0.00     0.129 A 
ATOM     16  C   UNL A   1      42.857  28.977  35.757  1.00  0.00     0.060 A 
ATOM     17  N   UNL A   1      41.937  30.938  36.742  1.00  0.00    -0.231 NA
ATOM     18  C   UNL A   1      41.683  28.766  35.024  1.00  0.00     0.061 A 
ATOM     19  C   UNL A   1      40.639  29.681  35.162  1.00  0.00     0.042 A 
BRANCH  15  20
ATOM     20  N   UNL A   1      44.101  30.257  37.391  1.00  0.00    -0.363 N 
ATOM     21  C   UNL A   1      44.952  29.118  37.690  1.00  0.00     0.144 C 
ATOM     22  C   UNL A   1      44.719  31.573  37.315  1.00  0.00     0.144 C 
ENDBRANCH  15  20
BRANCH  18  23
ATOM     23  C   UNL A   1      41.526  27.572  34.126  1.00  0.00     0.416 C 
ATOM     24  F   UNL A   1      42.725  27.069  33.723  1.00  0.00    -0.166 F 
ATOM     25  F   UNL A   1      40.875  26.543  34.736  1.00  0.00    -0.166 F 
ATOM     26  F   UNL A   1      40.827  27.832  32.986  1.00  0.00    -0.166 F 
ENDBRANCH  18  23
ENDBRANCH   9  14
ENDBRANCH   7   8
ENDBRANCH   4   6
ENDBRANCH   3   4
ENDBRANCH   2   3
ENDBRANCH   1   2
BRANCH   1  27
ATOM     27  O   UNL A   1      32.206  36.792  31.506  1.00  0.00    -0.374 OA
BRANCH  27  28
ATOM     28  C   UNL A   1      33.210  36.931  30.497  1.00  0.00     0.202 C 
BRANCH  28  29
ATOM     29  C   UNL A   1      32.732  36.703  29.057  1.00  0.00     0.261 C 
BRANCH  29  30
ATOM     30  O   UNL A   1      33.609  35.812  28.343  1.00  0.00    -0.460 OA
BRANCH  30  31
ATOM     31  C   UNL A   1      33.329  34.495  28.483  1.00  0.00     0.338 C 
ATOM     32  O   UNL A   1      32.258  33.938  28.284  1.00  0.00    -0.246 OA
BRANCH  31  33
ATOM     33  C   UNL A   1      34.568  33.744  28.754  1.00  0.00     0.060 A 
ATOM     34  C   UNL A   1      34.661  33.067  29.977  1.00  0.00     0.016 A 
ATOM     35  C   UNL A   1      35.645  33.748  27.863  1.00  0.00     0.016 A 
ATOM     36  C   UNL A   1      35.848  32.432  30.337  1.00  0.00     0.010 A 
ATOM     37  C   UNL A   1      36.838  33.116  28.229  1.00  0.00     0.010 A 
ATOM     38  C   UNL A   1      36.955  32.484  29.481  1.00  0.00    -0.014 A 
BRANCH  38  39
ATOM     39  C   UNL A   1      38.272  31.998  29.956  1.00  0.00     0.031 A 
ATOM     40  C   UNL A   1      38.793  30.679  29.453  1.00  0.00     0.074 A 
ATOM     41  C   UNL A   1      39.012  32.732  30.807  1.00  0.00     0.049 A 
ATOM     42  N   UNL A   1      39.905  30.058  29.752  1.00  0.00    -0.248 NA
ATOM     43  C   UNL A   1      37.945  29.966  28.483  1.00  0.00     0.031 C 
ATOM     44  C   UNL A   1      38.641  34.042  31.338  1.00  0.00     0.029 A 
ATOM     45  N   UNL A   1      40.232  32.469  31.377  1.00  0.00    -0.354 N 
ATOM     46  C   UNL A   1      39.888  28.880  29.016  1.00  0.00     0.074 A 
ATOM     47  C   UNL A   1      38.644  28.860  28.276  1.00  0.00     0.031 C 
ATOM     48  C   UNL A   1      39.613  34.468  32.164  1.00  0.00     0.029 A 
ATOM     49  C   UNL A   1      40.656  33.447  32.242  1.00  0.00     0.049 A 
ATOM     50  H   UNL A   1      40.754  31.657  31.183  1.00  0.00     0.167 HD
ATOM     51  C   UNL A   1      40.824  27.904  28.956  1.00  0.00     0.031 A 
ATOM     52  C   UNL A   1      41.752  33.504  33.023  1.00  0.00     0.031 A 
ATOM     53  C   UNL A   1      42.056  27.914  29.697  1.00  0.00     0.049 A 
ATOM     54  C   UNL A   1      42.745  32.373  32.993  1.00  0.00     0.074 A 
ATOM     55  C   UNL A   1      43.077  26.979  29.686  1.00  0.00     0.029 A 
ATOM     56  N   UNL A   1      42.431  28.906  30.590  1.00  0.00    -0.354 N 
ATOM     57  N   UNL A   1      42.731  31.279  32.270  1.00  0.00    -0.248 NA
ATOM     58  C   UNL A   1      43.908  32.490  33.884  1.00  0.00     0.031 C 
ATOM     59  C   UNL A   1      44.045  27.379  30.612  1.00  0.00     0.029 A 
ATOM     60  C   UNL A   1      43.653  28.591  31.158  1.00  0.00     0.049 A 
ATOM     61  H   UNL A   1      41.906  29.713  30.790  1.00  0.00     0.167 HD
ATOM     62  C   UNL A   1      43.893  30.592  32.599  1.00  0.00     0.074 A 
ATOM     63  C   UNL A   1      44.595  31.397  33.576  1.00  0.00     0.031 C 
ATOM     64  C   UNL A   1      44.340  29.401  32.130  1.00  0.00     0.031 A 
BRANCH  51  65
ATOM     65  C   UNL A   1      40.531  26.719  28.079  1.00  0.00    -0.014 A 
ATOM     66  C   UNL A   1      41.051  26.627  26.778  1.00  0.00     0.009 A 
ATOM     67  C   UNL A   1      39.750  25.664  28.575  1.00  0.00     0.009 A 
ATOM     68  C   UNL A   1      40.768  25.516  25.981  1.00  0.00     0.001 A 
ATOM     69  C   UNL A   1      39.490  24.542  27.785  1.00  0.00     0.001 A 
ATOM     70  C   UNL A   1      39.992  24.473  26.487  1.00  0.00     0.000 A 
ENDBRANCH  51  65
BRANCH  52  71
ATOM     71  C   UNL A   1      41.964  34.668  33.922  1.00  0.00    -0.014 A 
ATOM     72  C   UNL A   1      42.710  35.777  33.496  1.00  0.00     0.009 A 
ATOM     73  C   UNL A   1      41.432  34.666  35.221  1.00  0.00     0.009 A 
ATOM     74  C   UNL A   1      42.937  36.851  34.361  1.00  0.00     0.001 A 
ATOM     75  C   UNL A   1      41.639  35.752  36.074  1.00  0.00     0.001 A 
ATOM     76  C   UNL A   1      42.399  36.839  35.647  1.00  0.00     0.000 A 
ENDBRANCH  52  71
BRANCH  64  77
ATOM     77  C   UNL A   1      45.665  28.912  32.642  1.00  0.00    -0.014 A 
ATOM     78  C   UNL A   1      45.746  27.974  33.683  1.00  0.00     0.009 A 
ATOM     79  C   UNL A   1      46.852  29.366  32.042  1.00  0.00     0.009 A 
ATOM     80  C   UNL A   1      46.989  27.524  34.132  1.00  0.00     0.001 A 
ATOM     81  C   UNL A   1      48.091  28.893  32.474  1.00  0.00     0.001 A 
ATOM     82  C   UNL A   1      48.159  27.979  33.525  1.00  0.00     0.000 A 
ENDBRANCH  64  77
ENDBRANCH  38  39
ENDBRANCH  31  33
ENDBRANCH  30  31
ENDBRANCH  29  30
ENDBRANCH  28  29
ENDBRANCH  27  28
ENDBRANCH   1  27
TORSDOF 18
ENDMDL
MODEL 3
REMARK VINA RESULT:     -10.8      1.349      2.005
REMARK SMILES CN(C)c1cc(C(F)(F)F)cc(-c2cccc(/C=C/C(=O)OCCOCCOC(=O)c3ccc(-c4c5nc(c(-c6ccccc6)c6ccc([nH]6)c(-c6ccccc6)c6nc(c(-c7ccccc7)c7ccc4[nH]7)C=C6)C=C5)cc3)c2)n1
REMARK SMILES IDX 24 1 23 2 22 3 20 4 21 5 19 6 18 7 17 8 13 9 14 10 79 11
REMARK SMILES IDX 15 12 16 13 12 14 4 15 5 16 80 17 6 18 11 19 2 20 1 21 3 22
REMARK SMILES IDX 7 23 8 24 9 25 10 26 25 27 26 28 27 29 28 30 29 31 30 32
REMARK SMILES IDX 31 33 32 34 78 35 33 36 77 37 34 38 35 39 36 40 71 41 37 42
REMARK SMILES IDX 76 43 70 44 72 45 38 46 75 47 69 48 68 49 39 51 61 52 46 53
REMARK SMILES IDX 60 54 47 55 50 56 59 57 73 58 48 59 49 60 58 62 74 63 51 64
REMARK SMILES IDX 40 65 41 66 45 67 42 68 44 69 43 70 62 71 63 72 67 73 64 74
REMARK SMILES IDX 66 75 65 76 52 77 53 78 57 79 54 80 56 81 55 82
REMARK H PARENT 72 50 50 61
REMARK Flexibility Score: inf
ROOT
ATOM      1  C   UNL A   1      45.403  18.818  25.361  1.00  0.00     0.202 C 
ENDROOT
BRANCH   1   2
ATOM      2  C   UNL A   1      44.033  19.030  24.715  1.00  0.00     0.261 C 
BRANCH   2   3
ATOM      3  O   UNL A   1      43.034  18.203  25.337  1.00  0.00    -0.460 OA
BRANCH   3   4
ATOM      4  C   UNL A   1      42.675  18.573  26.589  1.00  0.00     0.330 C 
ATOM      5  O   UNL A   1      43.088  18.095  27.636  1.00  0.00    -0.247 OA
BRANCH   4   6
ATOM      6  C   UNL A   1      41.743  19.718  26.592  1.00  0.00     0.094 C 
ATOM      7  C   UNL A   1      40.487  19.722  26.119  1.00  0.00     0.015 C 
BRANCH   7   8
ATOM      8  C   UNL A   1      39.628  20.920  26.127  1.00  0.00    -0.025 A 
ATOM      9  C   UNL A   1      37.442  21.935  25.655  1.00  0.00     0.001 A 
ATOM     10  C   UNL A   1      37.955  23.175  26.067  1.00  0.00     0.010 A 
ATOM     11  C   UNL A   1      38.299  20.816  25.685  1.00  0.00     0.018 A 
ATOM     12  C   UNL A   1      39.275  23.298  26.495  1.00  0.00     0.001 A 
ATOM     13  C   UNL A   1      40.108  22.178  26.516  1.00  0.00     0.008 A 
BRANCH   9  14
ATOM     14  C   UNL A   1      36.044  21.819  25.217  1.00  0.00     0.073 A 
ATOM     15  C   UNL A   1      34.096  22.983  24.631  1.00  0.00     0.129 A 
ATOM     16  C   UNL A   1      33.424  21.776  24.453  1.00  0.00     0.060 A 
ATOM     17  N   UNL A   1      35.394  22.989  25.008  1.00  0.00    -0.231 NA
ATOM     18  C   UNL A   1      34.089  20.561  24.649  1.00  0.00     0.061 A 
ATOM     19  C   UNL A   1      35.427  20.590  25.046  1.00  0.00     0.042 A 
BRANCH  15  20
ATOM     20  N   UNL A   1      33.464  24.196  24.386  1.00  0.00    -0.363 N 
ATOM     21  C   UNL A   1      32.782  24.870  25.478  1.00  0.00     0.144 C 
ATOM     22  C   UNL A   1      34.028  25.013  23.321  1.00  0.00     0.144 C 
ENDBRANCH  15  20
BRANCH  18  23
ATOM     23  C   UNL A   1      33.401  19.246  24.417  1.00  0.00     0.416 C 
ATOM     24  F   UNL A   1      32.354  19.359  23.554  1.00  0.00    -0.166 F 
ATOM     25  F   UNL A   1      34.231  18.311  23.877  1.00  0.00    -0.166 F 
ATOM     26  F   UNL A   1      32.893  18.686  25.550  1.00  0.00    -0.166 F 
ENDBRANCH  18  23
ENDBRANCH   9  14
ENDBRANCH   7   8
ENDBRANCH   4   6
ENDBRANCH   3   4
ENDBRANCH   2   3
ENDBRANCH   1   2
BRANCH   1  27
ATOM     27  O   UNL A   1      46.358  19.851  25.122  1.00  0.00    -0.374 OA
BRANCH  27  28
ATOM     28  C   UNL A   1      45.877  21.028  24.468  1.00  0.00     0.202 C 
BRANCH  28  29
ATOM     29  C   UNL A   1      45.890  22.305  25.318  1.00  0.00     0.261 C 
BRANCH  29  30
ATOM     30  O   UNL A   1      44.677  22.444  26.083  1.00  0.00    -0.460 OA
BRANCH  30  31
ATOM     31  C   UNL A   1      43.866  23.455  25.694  1.00  0.00     0.338 C 
ATOM     32  O   UNL A   1      43.289  23.575  24.621  1.00  0.00    -0.246 OA
BRANCH  31  33
ATOM     33  C   UNL A   1      43.607  24.357  26.831  1.00  0.00     0.060 A 
ATOM     34  C   UNL A   1      42.760  23.894  27.847  1.00  0.00     0.016 A 
ATOM     35  C   UNL A   1      44.128  25.653  26.880  1.00  0.00     0.016 A 
ATOM     36  C   UNL A   1      42.392  24.740  28.890  1.00  0.00     0.010 A 
ATOM     37  C   UNL A   1      43.751  26.504  27.925  1.00  0.00     0.010 A 
ATOM     38  C   UNL A   1      42.856  26.061  28.916  1.00  0.00    -0.014 A 
BRANCH  38  39
ATOM     39  C   UNL A   1      42.294  27.016  29.901  1.00  0.00     0.031 A 
ATOM     40  C   UNL A   1      42.962  27.166  31.240  1.00  0.00     0.074 A 
ATOM     41  C   UNL A   1      41.215  27.763  29.600  1.00  0.00     0.049 A 
ATOM     42  N   UNL A   1      42.628  27.925  32.253  1.00  0.00    -0.248 NA
ATOM     43  C   UNL A   1      44.167  26.352  31.467  1.00  0.00     0.031 C 
ATOM     44  C   UNL A   1      40.501  27.742  28.325  1.00  0.00     0.029 A 
ATOM     45  N   UNL A   1      40.533  28.682  30.355  1.00  0.00    -0.354 N 
ATOM     46  C   UNL A   1      43.574  27.674  33.239  1.00  0.00     0.074 A 
ATOM     47  C   UNL A   1      44.479  26.675  32.714  1.00  0.00     0.031 C 
ATOM     48  C   UNL A   1      39.472  28.605  28.389  1.00  0.00     0.029 A 
ATOM     49  C   UNL A   1      39.440  29.215  29.717  1.00  0.00     0.049 A 
ATOM     50  H   UNL A   1      40.801  28.936  31.268  1.00  0.00     0.167 HD
ATOM     51  C   UNL A   1      43.683  28.229  34.470  1.00  0.00     0.031 A 
ATOM     52  C   UNL A   1      38.510  30.081  30.160  1.00  0.00     0.031 A 
ATOM     53  C   UNL A   1      42.779  29.213  35.000  1.00  0.00     0.049 A 
ATOM     54  C   UNL A   1      38.612  30.630  31.558  1.00  0.00     0.074 A 
ATOM     55  C   UNL A   1      42.821  29.849  36.229  1.00  0.00     0.029 A 
ATOM     56  N   UNL A   1      41.665  29.700  34.334  1.00  0.00    -0.354 N 
ATOM     57  N   UNL A   1      39.528  30.407  32.469  1.00  0.00    -0.248 NA
ATOM     58  C   UNL A   1      37.552  31.555  31.984  1.00  0.00     0.031 C 
ATOM     59  C   UNL A   1      41.700  30.680  36.328  1.00  0.00     0.029 A 
ATOM     60  C   UNL A   1      40.994  30.605  35.138  1.00  0.00     0.049 A 
ATOM     61  H   UNL A   1      41.391  29.440  33.426  1.00  0.00     0.167 HD
ATOM     62  C   UNL A   1      39.171  31.184  33.565  1.00  0.00     0.074 A 
ATOM     63  C   UNL A   1      37.962  31.893  33.200  1.00  0.00     0.031 C 
ATOM     64  C   UNL A   1      39.791  31.301  34.764  1.00  0.00     0.031 A 
BRANCH  51  65
ATOM     65  C   UNL A   1      44.807  27.751  35.345  1.00  0.00    -0.014 A 
ATOM     66  C   UNL A   1      44.717  26.543  36.055  1.00  0.00     0.009 A 
ATOM     67  C   UNL A   1      45.986  28.506  35.434  1.00  0.00     0.009 A 
ATOM     68  C   UNL A   1      45.775  26.117  36.861  1.00  0.00     0.001 A 
ATOM     69  C   UNL A   1      47.053  28.065  36.220  1.00  0.00     0.001 A 
ATOM     70  C   UNL A   1      46.943  26.876  36.938  1.00  0.00     0.000 A 
ENDBRANCH  51  65
BRANCH  52  71
ATOM     71  C   UNL A   1      37.379  30.472  29.278  1.00  0.00    -0.014 A 
ATOM     72  C   UNL A   1      37.298  31.769  28.749  1.00  0.00     0.009 A 
ATOM     73  C   UNL A   1      36.365  29.551  28.975  1.00  0.00     0.009 A 
ATOM     74  C   UNL A   1      36.212  32.141  27.953  1.00  0.00     0.001 A 
ATOM     75  C   UNL A   1      35.294  29.917  28.158  1.00  0.00     0.001 A 
ATOM     76  C   UNL A   1      35.214  31.214  27.655  1.00  0.00     0.000 A 
ENDBRANCH  52  71
BRANCH  64  77
ATOM     77  C   UNL A   1      39.193  32.256  35.759  1.00  0.00    -0.014 A 
ATOM     78  C   UNL A   1      38.244  31.829  36.702  1.00  0.00     0.009 A 
ATOM     79  C   UNL A   1      39.620  33.594  35.781  1.00  0.00     0.009 A 
ATOM     80  C   UNL A   1      37.713  32.732  37.625  1.00  0.00     0.001 A 
ATOM     81  C   UNL A   1      39.108  34.486  36.723  1.00  0.00     0.001 A 
ATOM     82  C   UNL A   1      38.149  34.056  37.639  1.00  0.00     0.000 A 
ENDBRANCH  64  77
ENDBRANCH  38  39
ENDBRANCH  31  33
ENDBRANCH  30  31
ENDBRANCH  29  30
ENDBRANCH  28  29
ENDBRANCH  27  28
ENDBRANCH   1  27
TORSDOF 18
ENDMDL
