MODEL 1
REMARK VINA RESULT:     -10.2      0.000      0.000
REMARK SMILES Cc1nc(C)c(C(=O)N[C@@H](Cc2ccccc2)C(=O)OCCOCCOC(=O)c2ccc(-c3c4nc(c(-c5ccccc5)c5ccc([nH]5)c(-c5ccccc5)c5nc(c(-c6ccccc6)c6ccc3[nH]6)C=C5)C=C4)cc2)s1
REMARK SMILES IDX 23 1 22 2 21 3 20 4 18 5 19 6 10 7 9 8 7 9 8 10 6 12 1 13
REMARK SMILES IDX 2 14 3 15 77 16 4 17 5 18 11 19 12 20 13 21 17 22 14 23
REMARK SMILES IDX 16 24 15 25 24 26 25 27 26 28 27 29 28 30 29 31 30 32 76 33
REMARK SMILES IDX 31 34 75 35 32 36 33 37 34 38 69 39 35 40 74 41 68 42 70 43
REMARK SMILES IDX 36 44 73 45 67 46 66 47 37 49 59 50 44 51 58 52 45 53 48 54
REMARK SMILES IDX 57 55 71 56 46 57 47 58 56 60 72 61 49 62 38 63 39 64 43 65
REMARK SMILES IDX 40 66 42 67 41 68 60 69 61 70 65 71 62 72 64 73 63 74 50 75
REMARK SMILES IDX 51 76 55 77 52 78 54 79 53 80
REMARK H PARENT 9 11 70 48 48 59
REMARK Flexibility Score: inf
ROOT
ATOM      1  O   UNL A   1      32.162  30.538  26.823  1.00  0.00    -0.374 OA
ENDROOT
BRANCH   1   2
ATOM      2  C   UNL A   1      33.551  30.477  27.142  1.00  0.00     0.202 C 
BRANCH   2   3
ATOM      3  C   UNL A   1      34.174  29.078  27.192  1.00  0.00     0.261 C 
BRANCH   3   4
ATOM      4  O   UNL A   1      33.233  28.062  26.814  1.00  0.00    -0.462 OA
BRANCH   4   5
ATOM      5  C   UNL A   1      33.498  27.408  25.647  1.00  0.00     0.329 C 
ATOM      6  O   UNL A   1      33.738  27.958  24.577  1.00  0.00    -0.250 OA
BRANCH   5   7
ATOM      7  C   UNL A   1      33.339  25.884  25.784  1.00  0.00     0.197 C 
BRANCH   7   8
ATOM      8  N   UNL A   1      32.016  25.469  26.277  1.00  0.00    -0.338 N 
ATOM      9  C   UNL A   1      31.378  24.257  26.409  1.00  0.00     0.263 C 
ATOM     10  O   UNL A   1      30.238  24.331  26.877  1.00  0.00    -0.268 OA
ATOM     11  H   UNL A   1      31.464  26.228  26.578  1.00  0.00     0.164 HD
BRANCH   9  12
ATOM     12  C   UNL A   1      31.963  22.981  26.026  1.00  0.00     0.115 A 
ATOM     13  C   UNL A   1      32.828  19.715  24.081  1.00  0.00     0.079 C 
ATOM     14  C   UNL A   1      32.685  20.907  24.960  1.00  0.00     0.091 A 
ATOM     15  N   UNL A   1      33.296  21.047  26.112  1.00  0.00    -0.246 NA
ATOM     16  S   UNL A   1      31.706  22.229  24.501  1.00  0.00    -0.113 S 
ATOM     17  C   UNL A   1      32.931  22.247  26.711  1.00  0.00     0.061 A 
ATOM     18  C   UNL A   1      33.618  22.569  27.995  1.00  0.00     0.068 C 
ENDBRANCH   9  12
ENDBRANCH   7   8
BRANCH   7  19
ATOM     19  C   UNL A   1      33.690  25.221  24.439  1.00  0.00     0.072 C 
BRANCH  19  20
ATOM     20  C   UNL A   1      34.874  24.283  24.487  1.00  0.00    -0.045 A 
ATOM     21  C   UNL A   1      35.139  23.417  23.419  1.00  0.00     0.004 A 
ATOM     22  C   UNL A   1      35.737  24.283  25.594  1.00  0.00     0.004 A 
ATOM     23  C   UNL A   1      36.248  22.572  23.454  1.00  0.00     0.000 A 
ATOM     24  C   UNL A   1      36.849  23.441  25.624  1.00  0.00     0.000 A 
ATOM     25  C   UNL A   1      37.105  22.586  24.554  1.00  0.00     0.000 A 
ENDBRANCH  19  20
ENDBRANCH   7  19
ENDBRANCH   5   7
ENDBRANCH   4   5
ENDBRANCH   3   4
ENDBRANCH   2   3
ENDBRANCH   1   2
BRANCH   1  26
ATOM     26  C   UNL A   1      31.538  31.824  26.829  1.00  0.00     0.202 C 
BRANCH  26  27
ATOM     27  C   UNL A   1      32.462  33.046  26.924  1.00  0.00     0.261 C 
BRANCH  27  28
ATOM     28  O   UNL A   1      32.114  33.934  28.004  1.00  0.00    -0.460 OA
BRANCH  28  29
ATOM     29  C   UNL A   1      33.139  34.690  28.464  1.00  0.00     0.338 C 
ATOM     30  O   UNL A   1      33.117  35.883  28.740  1.00  0.00    -0.246 OA
BRANCH  29  31
ATOM     31  C   UNL A   1      34.316  33.857  28.758  1.00  0.00     0.060 A 
ATOM     32  C   UNL A   1      34.244  33.006  29.869  1.00  0.00     0.016 A 
ATOM     33  C   UNL A   1      35.511  34.006  28.054  1.00  0.00     0.016 A 
ATOM     34  C   UNL A   1      35.385  32.338  30.311  1.00  0.00     0.010 A 
ATOM     35  C   UNL A   1      36.658  33.342  28.506  1.00  0.00     0.010 A 
ATOM     36  C   UNL A   1      36.609  32.535  29.657  1.00  0.00    -0.014 A 
BRANCH  36  37
ATOM     37  C   UNL A   1      37.855  32.005  30.265  1.00  0.00     0.031 A 
ATOM     38  C   UNL A   1      38.449  30.728  29.734  1.00  0.00     0.074 A 
ATOM     39  C   UNL A   1      38.477  32.674  31.251  1.00  0.00     0.049 A 
ATOM     40  N   UNL A   1      39.528  30.093  30.118  1.00  0.00    -0.248 NA
ATOM     41  C   UNL A   1      37.734  30.083  28.620  1.00  0.00     0.031 C 
ATOM     42  C   UNL A   1      38.034  33.945  31.824  1.00  0.00     0.029 A 
ATOM     43  N   UNL A   1      39.623  32.373  31.944  1.00  0.00    -0.354 N 
ATOM     44  C   UNL A   1      39.622  28.977  29.297  1.00  0.00     0.074 A 
ATOM     45  C   UNL A   1      38.477  29.005  28.411  1.00  0.00     0.031 C 
ATOM     46  C   UNL A   1      38.899  34.313  32.784  1.00  0.00     0.029 A 
ATOM     47  C   UNL A   1      39.936  33.292  32.913  1.00  0.00     0.049 A 
ATOM     48  H   UNL A   1      40.166  31.572  31.764  1.00  0.00     0.167 HD
ATOM     49  C   UNL A   1      40.575  28.015  29.275  1.00  0.00     0.031 A 
ATOM     50  C   UNL A   1      40.939  33.301  33.813  1.00  0.00     0.031 A 
ATOM     51  C   UNL A   1      41.708  27.971  30.161  1.00  0.00     0.049 A 
ATOM     52  C   UNL A   1      41.940  32.178  33.825  1.00  0.00     0.074 A 
ATOM     53  C   UNL A   1      42.732  27.041  30.208  1.00  0.00     0.029 A 
ATOM     54  N   UNL A   1      41.960  28.895  31.162  1.00  0.00    -0.354 N 
ATOM     55  N   UNL A   1      42.027  31.140  33.028  1.00  0.00    -0.248 NA
ATOM     56  C   UNL A   1      42.983  32.231  34.860  1.00  0.00     0.031 C 
ATOM     57  C   UNL A   1      43.579  27.375  31.270  1.00  0.00     0.029 A 
ATOM     58  C   UNL A   1      43.108  28.542  31.851  1.00  0.00     0.049 A 
ATOM     59  H   UNL A   1      41.406  29.685  31.355  1.00  0.00     0.167 HD
ATOM     60  C   UNL A   1      43.146  30.431  33.451  1.00  0.00     0.074 A 
ATOM     61  C   UNL A   1      43.713  31.164  34.563  1.00  0.00     0.031 C 
ATOM     62  C   UNL A   1      43.659  29.278  32.959  1.00  0.00     0.031 A 
BRANCH  49  63
ATOM     63  C   UNL A   1      40.416  26.907  28.274  1.00  0.00    -0.014 A 
ATOM     64  C   UNL A   1      41.017  26.980  27.008  1.00  0.00     0.009 A 
ATOM     65  C   UNL A   1      39.685  25.758  28.616  1.00  0.00     0.009 A 
ATOM     66  C   UNL A   1      40.864  25.935  26.094  1.00  0.00     0.001 A 
ATOM     67  C   UNL A   1      39.553  24.706  27.709  1.00  0.00     0.001 A 
ATOM     68  C   UNL A   1      40.136  24.799  26.446  1.00  0.00     0.000 A 
ENDBRANCH  49  63
BRANCH  50  69
ATOM     69  C   UNL A   1      41.038  34.404  34.804  1.00  0.00    -0.014 A 
ATOM     70  C   UNL A   1      41.799  35.549  34.526  1.00  0.00     0.009 A 
ATOM     71  C   UNL A   1      40.389  34.303  36.044  1.00  0.00     0.009 A 
ATOM     72  C   UNL A   1      41.928  36.561  35.481  1.00  0.00     0.001 A 
ATOM     73  C   UNL A   1      40.499  35.327  36.987  1.00  0.00     0.001 A 
ATOM     74  C   UNL A   1      41.275  36.450  36.709  1.00  0.00     0.000 A 
ENDBRANCH  50  69
BRANCH  62  75
ATOM     75  C   UNL A   1      44.910  28.751  33.602  1.00  0.00    -0.014 A 
ATOM     76  C   UNL A   1      46.179  29.162  33.166  1.00  0.00     0.009 A 
ATOM     77  C   UNL A   1      44.817  27.864  34.685  1.00  0.00     0.009 A 
ATOM     78  C   UNL A   1      47.331  28.671  33.784  1.00  0.00     0.001 A 
ATOM     79  C   UNL A   1      45.969  27.395  35.318  1.00  0.00     0.001 A 
ATOM     80  C   UNL A   1      47.224  27.791  34.861  1.00  0.00     0.000 A 
ENDBRANCH  62  75
ENDBRANCH  36  37
ENDBRANCH  29  31
ENDBRANCH  28  29
ENDBRANCH  27  28
ENDBRANCH  26  27
ENDBRANCH   1  26
TORSDOF 18
ENDMDL
MODEL 2
REMARK VINA RESULT:     -10.1      3.697      8.539
REMARK SMILES Cc1nc(C)c(C(=O)N[C@@H](Cc2ccccc2)C(=O)OCCOCCOC(=O)c2ccc(-c3c4nc(c(-c5ccccc5)c5ccc([nH]5)c(-c5ccccc5)c5nc(c(-c6ccccc6)c6ccc3[nH]6)C=C5)C=C4)cc2)s1
REMARK SMILES IDX 23 1 22 2 21 3 20 4 18 5 19 6 10 7 9 8 7 9 8 10 6 12 1 13
REMARK SMILES IDX 2 14 3 15 77 16 4 17 5 18 11 19 12 20 13 21 17 22 14 23
REMARK SMILES IDX 16 24 15 25 24 26 25 27 26 28 27 29 28 30 29 31 30 32 76 33
REMARK SMILES IDX 31 34 75 35 32 36 33 37 34 38 69 39 35 40 74 41 68 42 70 43
REMARK SMILES IDX 36 44 73 45 67 46 66 47 37 49 59 50 44 51 58 52 45 53 48 54
REMARK SMILES IDX 57 55 71 56 46 57 47 58 56 60 72 61 49 62 38 63 39 64 43 65
REMARK SMILES IDX 40 66 42 67 41 68 60 69 61 70 65 71 62 72 64 73 63 74 50 75
REMARK SMILES IDX 51 76 55 77 52 78 54 79 53 80
REMARK H PARENT 9 11 70 48 48 59
REMARK Flexibility Score: inf
ROOT
ATOM      1  O   UNL A   1      37.781  21.472  24.664  1.00  0.00    -0.374 OA
ENDROOT
BRANCH   1   2
ATOM      2  C   UNL A   1      37.741  22.403  25.744  1.00  0.00     0.202 C 
BRANCH   2   3
ATOM      3  C   UNL A   1      36.566  23.387  25.748  1.00  0.00     0.261 C 
BRANCH   3   4
ATOM      4  O   UNL A   1      35.340  22.750  26.135  1.00  0.00    -0.462 OA
BRANCH   4   5
ATOM      5  C   UNL A   1      34.528  22.348  25.115  1.00  0.00     0.329 C 
ATOM      6  O   UNL A   1      34.646  22.704  23.948  1.00  0.00    -0.250 OA
BRANCH   5   7
ATOM      7  C   UNL A   1      33.355  21.484  25.609  1.00  0.00     0.197 C 
BRANCH   7   8
ATOM      8  N   UNL A   1      32.438  22.195  26.515  1.00  0.00    -0.338 N 
ATOM      9  C   UNL A   1      31.914  23.466  26.545  1.00  0.00     0.263 C 
ATOM     10  O   UNL A   1      31.161  23.683  27.499  1.00  0.00    -0.268 OA
ATOM     11  H   UNL A   1      32.132  21.636  27.267  1.00  0.00     0.164 HD
BRANCH   9  12
ATOM     12  C   UNL A   1      32.214  24.496  25.562  1.00  0.00     0.115 A 
ATOM     13  C   UNL A   1      33.704  27.632  23.790  1.00  0.00     0.079 C 
ATOM     14  C   UNL A   1      33.051  26.377  24.251  1.00  0.00     0.091 A 
ATOM     15  N   UNL A   1      32.169  25.708  23.548  1.00  0.00    -0.246 NA
ATOM     16  S   UNL A   1      33.439  25.685  25.764  1.00  0.00    -0.113 S 
ATOM     17  C   UNL A   1      31.716  24.605  24.263  1.00  0.00     0.061 A 
ATOM     18  C   UNL A   1      30.765  23.710  23.545  1.00  0.00     0.068 C 
ENDBRANCH   9  12
ENDBRANCH   7   8
BRANCH   7  19
ATOM     19  C   UNL A   1      32.622  20.891  24.391  1.00  0.00     0.072 C 
BRANCH  19  20
ATOM     20  C   UNL A   1      33.062  19.497  24.007  1.00  0.00    -0.045 A 
ATOM     21  C   UNL A   1      32.399  18.799  22.990  1.00  0.00     0.004 A 
ATOM     22  C   UNL A   1      34.153  18.893  24.648  1.00  0.00     0.004 A 
ATOM     23  C   UNL A   1      32.824  17.523  22.618  1.00  0.00     0.000 A 
ATOM     24  C   UNL A   1      34.580  17.619  24.272  1.00  0.00     0.000 A 
ATOM     25  C   UNL A   1      33.916  16.935  23.255  1.00  0.00     0.000 A 
ENDBRANCH  19  20
ENDBRANCH   7  19
ENDBRANCH   5   7
ENDBRANCH   4   5
ENDBRANCH   3   4
ENDBRANCH   2   3
ENDBRANCH   1   2
BRANCH   1  26
ATOM     26  C   UNL A   1      37.666  20.084  24.983  1.00  0.00     0.202 C 
BRANCH  26  27
ATOM     27  C   UNL A   1      38.971  19.318  25.240  1.00  0.00     0.261 C 
BRANCH  27  28
ATOM     28  O   UNL A   1      39.748  19.871  26.319  1.00  0.00    -0.460 OA
BRANCH  28  29
ATOM     29  C   UNL A   1      41.089  19.810  26.138  1.00  0.00     0.338 C 
ATOM     30  O   UNL A   1      41.721  18.946  25.542  1.00  0.00    -0.246 OA
BRANCH  29  31
ATOM     31  C   UNL A   1      41.741  21.035  26.630  1.00  0.00     0.060 A 
ATOM     32  C   UNL A   1      41.718  21.271  28.011  1.00  0.00     0.016 A 
ATOM     33  C   UNL A   1      42.236  22.001  25.753  1.00  0.00     0.016 A 
ATOM     34  C   UNL A   1      42.146  22.497  28.516  1.00  0.00     0.010 A 
ATOM     35  C   UNL A   1      42.656  23.236  26.262  1.00  0.00     0.010 A 
ATOM     36  C   UNL A   1      42.578  23.503  27.641  1.00  0.00    -0.014 A 
BRANCH  36  37
ATOM     37  C   UNL A   1      42.814  24.872  28.163  1.00  0.00     0.031 A 
ATOM     38  C   UNL A   1      44.211  25.288  28.537  1.00  0.00     0.074 A 
ATOM     39  C   UNL A   1      41.803  25.753  28.262  1.00  0.00     0.049 A 
ATOM     40  N   UNL A   1      44.637  26.433  29.009  1.00  0.00    -0.248 NA
ATOM     41  C   UNL A   1      45.269  24.281  28.352  1.00  0.00     0.031 C 
ATOM     42  C   UNL A   1      40.414  25.494  27.888  1.00  0.00     0.029 A 
ATOM     43  N   UNL A   1      41.797  27.051  28.708  1.00  0.00    -0.354 N 
ATOM     44  C   UNL A   1      46.008  26.285  29.177  1.00  0.00     0.074 A 
ATOM     45  C   UNL A   1      46.340  24.933  28.784  1.00  0.00     0.031 C 
ATOM     46  C   UNL A   1      39.687  26.600  28.124  1.00  0.00     0.029 A 
ATOM     47  C   UNL A   1      40.554  27.631  28.690  1.00  0.00     0.049 A 
ATOM     48  H   UNL A   1      42.606  27.520  29.013  1.00  0.00     0.167 HD
ATOM     49  C   UNL A   1      46.913  27.193  29.616  1.00  0.00     0.031 A 
ATOM     50  C   UNL A   1      40.156  28.852  29.099  1.00  0.00     0.031 A 
ATOM     51  C   UNL A   1      46.589  28.534  30.024  1.00  0.00     0.049 A 
ATOM     52  C   UNL A   1      41.167  29.815  29.661  1.00  0.00     0.074 A 
ATOM     53  C   UNL A   1      47.440  29.528  30.474  1.00  0.00     0.029 A 
ATOM     54  N   UNL A   1      45.309  29.065  30.039  1.00  0.00    -0.354 N 
ATOM     55  N   UNL A   1      42.463  29.668  29.795  1.00  0.00    -0.248 NA
ATOM     56  C   UNL A   1      40.657  31.113  30.126  1.00  0.00     0.031 C 
ATOM     57  C   UNL A   1      46.669  30.647  30.808  1.00  0.00     0.029 A 
ATOM     58  C   UNL A   1      45.344  30.364  30.517  1.00  0.00     0.049 A 
ATOM     59  H   UNL A   1      44.497  28.589  29.752  1.00  0.00     0.167 HD
ATOM     60  C   UNL A   1      42.926  30.862  30.336  1.00  0.00     0.074 A 
ATOM     61  C   UNL A   1      41.775  31.727  30.492  1.00  0.00     0.031 C 
ATOM     62  C   UNL A   1      44.191  31.212  30.671  1.00  0.00     0.031 A 
BRANCH  49  63
ATOM     63  C   UNL A   1      48.345  26.751  29.707  1.00  0.00    -0.014 A 
ATOM     64  C   UNL A   1      48.833  26.101  30.851  1.00  0.00     0.009 A 
ATOM     65  C   UNL A   1      49.208  26.954  28.619  1.00  0.00     0.009 A 
ATOM     66  C   UNL A   1      50.166  25.690  30.914  1.00  0.00     0.001 A 
ATOM     67  C   UNL A   1      50.534  26.522  28.676  1.00  0.00     0.001 A 
ATOM     68  C   UNL A   1      51.014  25.897  29.826  1.00  0.00     0.000 A 
ENDBRANCH  49  63
BRANCH  50  69
ATOM     69  C   UNL A   1      38.723  29.233  29.017  1.00  0.00    -0.014 A 
ATOM     70  C   UNL A   1      38.201  29.807  27.848  1.00  0.00     0.009 A 
ATOM     71  C   UNL A   1      37.875  29.047  30.120  1.00  0.00     0.009 A 
ATOM     72  C   UNL A   1      36.863  30.208  27.795  1.00  0.00     0.001 A 
ATOM     73  C   UNL A   1      36.533  29.425  30.055  1.00  0.00     0.001 A 
ATOM     74  C   UNL A   1      36.030  30.013  28.896  1.00  0.00     0.000 A 
ENDBRANCH  50  69
BRANCH  62  75
ATOM     75  C   UNL A   1      44.402  32.597  31.213  1.00  0.00    -0.014 A 
ATOM     76  C   UNL A   1      44.322  32.858  32.590  1.00  0.00     0.009 A 
ATOM     77  C   UNL A   1      44.726  33.645  30.338  1.00  0.00     0.009 A 
ATOM     78  C   UNL A   1      44.534  34.150  33.076  1.00  0.00     0.001 A 
ATOM     79  C   UNL A   1      44.961  34.930  30.829  1.00  0.00     0.001 A 
ATOM     80  C   UNL A   1      44.856  35.183  32.196  1.00  0.00     0.000 A 
ENDBRANCH  62  75
ENDBRANCH  36  37
ENDBRANCH  29  31
ENDBRANCH  28  29
ENDBRANCH  27  28
ENDBRANCH  26  27
ENDBRANCH   1  26
TORSDOF 18
ENDMDL
MODEL 3
REMARK VINA RESULT:     -10.0      1.551      2.446
REMARK SMILES Cc1nc(C)c(C(=O)N[C@@H](Cc2ccccc2)C(=O)OCCOCCOC(=O)c2ccc(-c3c4nc(c(-c5ccccc5)c5ccc([nH]5)c(-c5ccccc5)c5nc(c(-c6ccccc6)c6ccc3[nH]6)C=C5)C=C4)cc2)s1
REMARK SMILES IDX 23 1 22 2 21 3 20 4 18 5 19 6 10 7 9 8 7 9 8 10 6 12 1 13
REMARK SMILES IDX 2 14 3 15 77 16 4 17 5 18 11 19 12 20 13 21 17 22 14 23
REMARK SMILES IDX 16 24 15 25 24 26 25 27 26 28 27 29 28 30 29 31 30 32 76 33
REMARK SMILES IDX 31 34 75 35 32 36 33 37 34 38 69 39 35 40 74 41 68 42 70 43
REMARK SMILES IDX 36 44 73 45 67 46 66 47 37 49 59 50 44 51 58 52 45 53 48 54
REMARK SMILES IDX 57 55 71 56 46 57 47 58 56 60 72 61 49 62 38 63 39 64 43 65
REMARK SMILES IDX 40 66 42 67 41 68 60 69 61 70 65 71 62 72 64 73 63 74 50 75
REMARK SMILES IDX 51 76 55 77 52 78 54 79 53 80
REMARK H PARENT 9 11 70 48 48 59
REMARK Flexibility Score: inf
ROOT
ATOM      1  O   UNL A   1      31.778  30.551  25.864  1.00  0.00    -0.374 OA
ENDROOT
BRANCH   1   2
ATOM      2  C   UNL A   1      32.567  29.636  26.622  1.00  0.00     0.202 C 
BRANCH   2   3
ATOM      3  C   UNL A   1      31.906  28.298  26.970  1.00  0.00     0.261 C 
BRANCH   3   4
ATOM      4  O   UNL A   1      32.490  27.210  26.239  1.00  0.00    -0.462 OA
BRANCH   4   5
ATOM      5  C   UNL A   1      31.824  26.021  26.306  1.00  0.00     0.329 C 
ATOM      6  O   UNL A   1      30.746  25.854  26.865  1.00  0.00    -0.250 OA
BRANCH   5   7
ATOM      7  C   UNL A   1      32.638  24.862  25.703  1.00  0.00     0.197 C 
BRANCH   7   8
ATOM      8  N   UNL A   1      31.876  24.034  24.754  1.00  0.00    -0.338 N 
ATOM      9  C   UNL A   1      31.052  24.310  23.688  1.00  0.00     0.263 C 
ATOM     10  O   UNL A   1      30.588  23.310  23.132  1.00  0.00    -0.268 OA
ATOM     11  H   UNL A   1      31.977  23.069  24.921  1.00  0.00     0.164 HD
BRANCH   9  12
ATOM     12  C   UNL A   1      30.721  25.654  23.238  1.00  0.00     0.115 A 
ATOM     13  C   UNL A   1      28.906  29.062  22.704  1.00  0.00     0.079 C 
ATOM     14  C   UNL A   1      29.784  27.865  22.800  1.00  0.00     0.091 A 
ATOM     15  N   UNL A   1      30.900  27.719  22.128  1.00  0.00    -0.246 NA
ATOM     16  S   UNL A   1      29.401  26.571  23.847  1.00  0.00    -0.113 S 
ATOM     17  C   UNL A   1      31.472  26.482  22.402  1.00  0.00     0.061 A 
ATOM     18  C   UNL A   1      32.792  26.218  21.761  1.00  0.00     0.068 C 
ENDBRANCH   9  12
ENDBRANCH   7   8
BRANCH   7  19
ATOM     19  C   UNL A   1      33.925  25.428  25.074  1.00  0.00     0.072 C 
BRANCH  19  20
ATOM     20  C   UNL A   1      34.975  24.393  24.744  1.00  0.00    -0.045 A 
ATOM     21  C   UNL A   1      34.981  23.761  23.495  1.00  0.00     0.004 A 
ATOM     22  C   UNL A   1      35.971  24.067  25.677  1.00  0.00     0.004 A 
ATOM     23  C   UNL A   1      35.968  22.825  23.183  1.00  0.00     0.000 A 
ATOM     24  C   UNL A   1      36.960  23.136  25.361  1.00  0.00     0.000 A 
ATOM     25  C   UNL A   1      36.959  22.516  24.114  1.00  0.00     0.000 A 
ENDBRANCH  19  20
ENDBRANCH   7  19
ENDBRANCH   5   7
ENDBRANCH   4   5
ENDBRANCH   3   4
ENDBRANCH   2   3
ENDBRANCH   1   2
BRANCH   1  26
ATOM     26  C   UNL A   1      31.383  31.767  26.501  1.00  0.00     0.202 C 
BRANCH  26  27
ATOM     27  C   UNL A   1      32.449  32.503  27.324  1.00  0.00     0.261 C 
BRANCH  27  28
ATOM     28  O   UNL A   1      32.128  33.887  27.558  1.00  0.00    -0.460 OA
BRANCH  28  29
ATOM     29  C   UNL A   1      32.946  34.516  28.435  1.00  0.00     0.338 C 
ATOM     30  O   UNL A   1      32.717  35.543  29.062  1.00  0.00    -0.246 OA
BRANCH  29  31
ATOM     31  C   UNL A   1      34.155  33.716  28.690  1.00  0.00     0.060 A 
ATOM     32  C   UNL A   1      34.149  32.872  29.809  1.00  0.00     0.016 A 
ATOM     33  C   UNL A   1      35.319  33.892  27.940  1.00  0.00     0.016 A 
ATOM     34  C   UNL A   1      35.323  32.239  30.211  1.00  0.00     0.010 A 
ATOM     35  C   UNL A   1      36.500  33.262  28.352  1.00  0.00     0.010 A 
ATOM     36  C   UNL A   1      36.516  32.463  29.510  1.00  0.00    -0.014 A 
BRANCH  36  37
ATOM     37  C   UNL A   1      37.797  31.971  30.074  1.00  0.00     0.031 A 
ATOM     38  C   UNL A   1      38.383  30.684  29.560  1.00  0.00     0.074 A 
ATOM     39  C   UNL A   1      38.457  32.684  31.004  1.00  0.00     0.049 A 
ATOM     40  N   UNL A   1      39.489  30.077  29.911  1.00  0.00    -0.248 NA
ATOM     41  C   UNL A   1      37.624  29.989  28.506  1.00  0.00     0.031 C 
ATOM     42  C   UNL A   1      38.025  33.968  31.552  1.00  0.00     0.029 A 
ATOM     43  N   UNL A   1      39.640  32.422  31.649  1.00  0.00    -0.354 N 
ATOM     44  C   UNL A   1      39.559  28.933  29.126  1.00  0.00     0.074 A 
ATOM     45  C   UNL A   1      38.372  28.914  28.298  1.00  0.00     0.031 C 
ATOM     46  C   UNL A   1      38.930  34.382  32.455  1.00  0.00     0.029 A 
ATOM     47  C   UNL A   1      39.988  33.379  32.568  1.00  0.00     0.049 A 
ATOM     48  H   UNL A   1      40.186  31.622  31.470  1.00  0.00     0.167 HD
ATOM     49  C   UNL A   1      40.524  27.983  29.091  1.00  0.00     0.031 A 
ATOM     50  C   UNL A   1      41.033  33.434  33.416  1.00  0.00     0.031 A 
ATOM     51  C   UNL A   1      41.699  27.986  29.921  1.00  0.00     0.049 A 
ATOM     52  C   UNL A   1      42.050  32.324  33.418  1.00  0.00     0.074 A 
ATOM     53  C   UNL A   1      42.737  27.071  29.950  1.00  0.00     0.029 A 
ATOM     54  N   UNL A   1      41.987  28.948  30.876  1.00  0.00    -0.354 N 
ATOM     55  N   UNL A   1      42.112  31.259  32.655  1.00  0.00    -0.248 NA
ATOM     56  C   UNL A   1      43.141  32.428  34.398  1.00  0.00     0.031 C 
ATOM     57  C   UNL A   1      43.630  27.454  30.957  1.00  0.00     0.029 A 
ATOM     58  C   UNL A   1      43.172  28.635  31.519  1.00  0.00     0.049 A 
ATOM     59  H   UNL A   1      41.431  29.737  31.068  1.00  0.00     0.167 HD
ATOM     60  C   UNL A   1      43.261  30.581  33.046  1.00  0.00     0.074 A 
ATOM     61  C   UNL A   1      43.871  31.360  34.103  1.00  0.00     0.031 C 
ATOM     62  C   UNL A   1      43.766  29.417  32.571  1.00  0.00     0.031 A 
BRANCH  49  63
ATOM     63  C   UNL A   1      40.331  26.838  28.139  1.00  0.00    -0.014 A 
ATOM     64  C   UNL A   1      40.871  26.871  26.845  1.00  0.00     0.009 A 
ATOM     65  C   UNL A   1      39.632  25.694  28.556  1.00  0.00     0.009 A 
ATOM     66  C   UNL A   1      40.689  25.792  25.977  1.00  0.00     0.001 A 
ATOM     67  C   UNL A   1      39.471  24.609  27.695  1.00  0.00     0.001 A 
ATOM     68  C   UNL A   1      39.993  24.662  26.403  1.00  0.00     0.000 A 
ENDBRANCH  49  63
BRANCH  50  69
ATOM     69  C   UNL A   1      41.164  34.573  34.361  1.00  0.00    -0.014 A 
ATOM     70  C   UNL A   1      40.443  34.591  35.564  1.00  0.00     0.009 A 
ATOM     71  C   UNL A   1      41.994  35.660  34.050  1.00  0.00     0.009 A 
ATOM     72  C   UNL A   1      40.533  35.688  36.425  1.00  0.00     0.001 A 
ATOM     73  C   UNL A   1      42.102  36.744  34.923  1.00  0.00     0.001 A 
ATOM     74  C   UNL A   1      41.365  36.761  36.106  1.00  0.00     0.000 A 
ENDBRANCH  50  69
BRANCH  62  75
ATOM     75  C   UNL A   1      45.055  28.930  33.169  1.00  0.00    -0.014 A 
ATOM     76  C   UNL A   1      46.295  29.342  32.657  1.00  0.00     0.009 A 
ATOM     77  C   UNL A   1      45.027  28.081  34.286  1.00  0.00     0.009 A 
ATOM     78  C   UNL A   1      47.483  28.888  33.234  1.00  0.00     0.001 A 
ATOM     79  C   UNL A   1      46.216  27.649  34.877  1.00  0.00     0.001 A 
ATOM     80  C   UNL A   1      47.442  28.045  34.345  1.00  0.00     0.000 A 
ENDBRANCH  62  75
ENDBRANCH  36  37
ENDBRANCH  29  31
ENDBRANCH  28  29
ENDBRANCH  27  28
ENDBRANCH  26  27
ENDBRANCH   1  26
TORSDOF 18
ENDMDL
