MODEL 1
REMARK VINA RESULT:     -10.3      0.000      0.000
REMARK SMILES O=C(OCCOCCOC(=O)c1cccc2nc(Cl)c(Cl)nc12)c1ccc(-c2c3nc(c(-c4ccccc4)c4ccc([nH]4)c(-c4ccccc4)c4nc(c(-c5ccccc5)c5ccc2[nH]5)C=C4)C=C3)cc1
REMARK SMILES IDX 5 1 4 2 3 3 2 4 1 5 24 6 25 7 71 8 26 9 70 10 27 11 28 12
REMARK SMILES IDX 29 13 64 14 30 15 69 16 63 17 65 18 31 19 68 20 62 21 61 22
REMARK SMILES IDX 32 24 54 25 39 26 53 27 40 28 43 29 52 30 66 31 41 32 42 33
REMARK SMILES IDX 51 35 67 36 44 37 33 38 34 39 38 40 35 41 37 42 36 43 55 44
REMARK SMILES IDX 56 45 60 46 57 47 59 48 58 49 45 50 46 51 50 52 47 53 49 54
REMARK SMILES IDX 48 55 6 56 7 57 8 58 9 59 10 60 11 61 12 62 13 63 23 64
REMARK SMILES IDX 14 65 16 66 22 67 15 68 17 69 20 70 18 71 21 72 19 73
REMARK H PARENT 65 23 43 34
REMARK Flexibility Score: inf
ROOT
ATOM      1  C   UNL A   1      38.092  19.808  24.711  1.00  0.00     0.202 C 
ENDROOT
BRANCH   1   2
ATOM      2  C   UNL A   1      39.064  19.820  25.891  1.00  0.00     0.261 C 
BRANCH   2   3
ATOM      3  O   UNL A   1      40.238  19.051  25.617  1.00  0.00    -0.460 OA
BRANCH   3   4
ATOM      4  C   UNL A   1      41.519  19.374  25.910  1.00  0.00     0.338 C 
ATOM      5  O   UNL A   1      42.362  18.479  25.819  1.00  0.00    -0.246 OA
BRANCH   4   6
ATOM      6  C   UNL A   1      42.000  20.732  26.344  1.00  0.00     0.060 A 
ATOM      7  C   UNL A   1      41.954  20.979  27.730  1.00  0.00     0.016 A 
ATOM      8  C   UNL A   1      42.388  21.793  25.519  1.00  0.00     0.016 A 
ATOM      9  C   UNL A   1      42.199  22.251  28.250  1.00  0.00     0.010 A 
ATOM     10  C   UNL A   1      42.601  23.070  26.021  1.00  0.00     0.010 A 
ATOM     11  C   UNL A   1      42.489  23.305  27.385  1.00  0.00    -0.014 A 
BRANCH  11  12
ATOM     12  C   UNL A   1      42.831  24.646  27.870  1.00  0.00     0.031 A 
ATOM     13  C   UNL A   1      41.767  25.671  28.097  1.00  0.00     0.074 A 
ATOM     14  C   UNL A   1      44.140  24.938  27.937  1.00  0.00     0.049 A 
ATOM     15  N   UNL A   1      41.904  26.904  28.508  1.00  0.00    -0.248 NA
ATOM     16  C   UNL A   1      40.376  25.280  27.812  1.00  0.00     0.031 C 
ATOM     17  C   UNL A   1      45.218  23.999  27.611  1.00  0.00     0.029 A 
ATOM     18  N   UNL A   1      44.787  26.099  28.253  1.00  0.00    -0.354 N 
ATOM     19  C   UNL A   1      40.619  27.429  28.554  1.00  0.00     0.074 A 
ATOM     20  C   UNL A   1      39.718  26.401  28.084  1.00  0.00     0.031 C 
ATOM     21  C   UNL A   1      46.394  24.627  27.730  1.00  0.00     0.029 A 
ATOM     22  C   UNL A   1      46.150  26.008  28.129  1.00  0.00     0.049 A 
ATOM     23  H   UNL A   1      44.322  26.918  28.539  1.00  0.00     0.167 HD
ATOM     24  C   UNL A   1      40.252  28.661  28.972  1.00  0.00     0.031 A 
ATOM     25  C   UNL A   1      47.099  26.942  28.319  1.00  0.00     0.031 A 
ATOM     26  C   UNL A   1      41.200  29.658  29.401  1.00  0.00     0.049 A 
ATOM     27  C   UNL A   1      46.664  28.289  28.811  1.00  0.00     0.074 A 
ATOM     28  C   UNL A   1      40.948  30.909  29.931  1.00  0.00     0.029 A 
ATOM     29  N   UNL A   1      42.580  29.519  29.328  1.00  0.00    -0.354 N 
ATOM     30  N   UNL A   1      45.444  28.733  29.003  1.00  0.00    -0.248 NA
ATOM     31  C   UNL A   1      47.717  29.249  29.152  1.00  0.00     0.031 C 
ATOM     32  C   UNL A   1      42.170  31.557  30.104  1.00  0.00     0.029 A 
ATOM     33  C   UNL A   1      43.191  30.677  29.771  1.00  0.00     0.049 A 
ATOM     34  H   UNL A   1      43.052  28.716  29.010  1.00  0.00     0.167 HD
ATOM     35  C   UNL A   1      45.579  30.016  29.508  1.00  0.00     0.074 A 
ATOM     36  C   UNL A   1      47.004  30.271  29.610  1.00  0.00     0.031 C 
ATOM     37  C   UNL A   1      44.614  30.900  29.855  1.00  0.00     0.031 A 
BRANCH  24  38
ATOM     38  C   UNL A   1      38.789  29.015  29.034  1.00  0.00    -0.014 A 
ATOM     39  C   UNL A   1      38.174  29.658  27.947  1.00  0.00     0.009 A 
ATOM     40  C   UNL A   1      38.068  28.876  30.230  1.00  0.00     0.009 A 
ATOM     41  C   UNL A   1      36.888  30.191  28.069  1.00  0.00     0.001 A 
ATOM     42  C   UNL A   1      36.771  29.386  30.341  1.00  0.00     0.001 A 
ATOM     43  C   UNL A   1      36.189  30.057  29.267  1.00  0.00     0.000 A 
ENDBRANCH  24  38
BRANCH  25  44
ATOM     44  C   UNL A   1      48.520  26.566  28.110  1.00  0.00    -0.014 A 
ATOM     45  C   UNL A   1      49.106  26.677  26.836  1.00  0.00     0.009 A 
ATOM     46  C   UNL A   1      49.254  25.962  29.140  1.00  0.00     0.009 A 
ATOM     47  C   UNL A   1      50.380  26.160  26.591  1.00  0.00     0.001 A 
ATOM     48  C   UNL A   1      50.542  25.475  28.900  1.00  0.00     0.001 A 
ATOM     49  C   UNL A   1      51.097  25.562  27.624  1.00  0.00     0.000 A 
ENDBRANCH  25  44
BRANCH  37  50
ATOM     50  C   UNL A   1      45.050  32.240  30.377  1.00  0.00    -0.014 A 
ATOM     51  C   UNL A   1      45.173  32.439  31.762  1.00  0.00     0.009 A 
ATOM     52  C   UNL A   1      45.190  33.335  29.513  1.00  0.00     0.009 A 
ATOM     53  C   UNL A   1      45.394  33.717  32.274  1.00  0.00     0.001 A 
ATOM     54  C   UNL A   1      45.446  34.607  30.027  1.00  0.00     0.001 A 
ATOM     55  C   UNL A   1      45.531  34.798  31.406  1.00  0.00     0.000 A 
ENDBRANCH  37  50
ENDBRANCH  11  12
ENDBRANCH   4   6
ENDBRANCH   3   4
ENDBRANCH   2   3
ENDBRANCH   1   2
BRANCH   1  56
ATOM     56  O   UNL A   1      37.547  21.084  24.386  1.00  0.00    -0.374 OA
BRANCH  56  57
ATOM     57  C   UNL A   1      37.774  22.115  25.342  1.00  0.00     0.202 C 
BRANCH  57  58
ATOM     58  C   UNL A   1      37.094  23.414  24.916  1.00  0.00     0.261 C 
BRANCH  58  59
ATOM     59  O   UNL A   1      35.692  23.363  25.242  1.00  0.00    -0.460 OA
BRANCH  59  60
ATOM     60  C   UNL A   1      34.830  23.694  24.246  1.00  0.00     0.340 C 
ATOM     61  O   UNL A   1      35.092  23.873  23.069  1.00  0.00    -0.246 OA
BRANCH  60  62
ATOM     62  C   UNL A   1      33.475  23.767  24.828  1.00  0.00     0.088 A 
ATOM     63  C   UNL A   1      32.621  22.672  24.638  1.00  0.00     0.018 A 
ATOM     64  C   UNL A   1      33.069  24.915  25.531  1.00  0.00     0.105 A 
ATOM     65  C   UNL A   1      31.350  22.696  25.185  1.00  0.00     0.003 A 
ATOM     66  C   UNL A   1      31.766  24.913  26.092  1.00  0.00     0.091 A 
ATOM     67  N   UNL A   1      33.834  26.031  25.644  1.00  0.00    -0.230 NA
ATOM     68  C   UNL A   1      30.944  23.808  25.921  1.00  0.00     0.031 A 
ATOM     69  N   UNL A   1      31.268  25.967  26.766  1.00  0.00    -0.231 NA
ATOM     70  C   UNL A   1      33.313  27.099  26.291  1.00  0.00     0.167 A 
ATOM     71  C   UNL A   1      32.055  27.063  26.855  1.00  0.00     0.167 A 
ATOM     72  Cl  UNL A   1      34.312  28.494  26.242  1.00  0.00    -0.059 Cl
ATOM     73  Cl  UNL A   1      31.325  28.382  27.672  1.00  0.00    -0.059 Cl
ENDBRANCH  60  62
ENDBRANCH  59  60
ENDBRANCH  58  59
ENDBRANCH  57  58
ENDBRANCH  56  57
ENDBRANCH   1  56
TORSDOF 14
ENDMDL
MODEL 2
REMARK VINA RESULT:     -10.1      4.349      9.184
REMARK SMILES O=C(OCCOCCOC(=O)c1cccc2nc(Cl)c(Cl)nc12)c1ccc(-c2c3nc(c(-c4ccccc4)c4ccc([nH]4)c(-c4ccccc4)c4nc(c(-c5ccccc5)c5ccc2[nH]5)C=C4)C=C3)cc1
REMARK SMILES IDX 5 1 4 2 3 3 2 4 1 5 24 6 25 7 71 8 26 9 70 10 27 11 28 12
REMARK SMILES IDX 29 13 64 14 30 15 69 16 63 17 65 18 31 19 68 20 62 21 61 22
REMARK SMILES IDX 32 24 54 25 39 26 53 27 40 28 43 29 52 30 66 31 41 32 42 33
REMARK SMILES IDX 51 35 67 36 44 37 33 38 34 39 38 40 35 41 37 42 36 43 55 44
REMARK SMILES IDX 56 45 60 46 57 47 59 48 58 49 45 50 46 51 50 52 47 53 49 54
REMARK SMILES IDX 48 55 6 56 7 57 8 58 9 59 10 60 11 61 12 62 13 63 23 64
REMARK SMILES IDX 14 65 16 66 22 67 15 68 17 69 20 70 18 71 21 72 19 73
REMARK H PARENT 65 23 43 34
REMARK Flexibility Score: inf
ROOT
ATOM      1  C   UNL A   1      32.261  31.007  26.666  1.00  0.00     0.202 C 
ENDROOT
BRANCH   1   2
ATOM      2  C   UNL A   1      31.391  32.209  27.037  1.00  0.00     0.261 C 
BRANCH   2   3
ATOM      3  O   UNL A   1      32.139  33.428  27.022  1.00  0.00    -0.460 OA
BRANCH   3   4
ATOM      4  C   UNL A   1      32.933  33.918  28.002  1.00  0.00     0.338 C 
ATOM      5  O   UNL A   1      32.537  34.920  28.601  1.00  0.00    -0.246 OA
BRANCH   4   6
ATOM      6  C   UNL A   1      34.261  33.346  28.417  1.00  0.00     0.060 A 
ATOM      7  C   UNL A   1      34.231  32.487  29.534  1.00  0.00     0.016 A 
ATOM      8  C   UNL A   1      35.516  33.652  27.881  1.00  0.00     0.016 A 
ATOM      9  C   UNL A   1      35.405  32.032  30.133  1.00  0.00     0.010 A 
ATOM     10  C   UNL A   1      36.693  33.232  28.488  1.00  0.00     0.010 A 
ATOM     11  C   UNL A   1      36.640  32.437  29.626  1.00  0.00    -0.014 A 
BRANCH  11  12
ATOM     12  C   UNL A   1      37.910  31.935  30.160  1.00  0.00     0.031 A 
ATOM     13  C   UNL A   1      38.489  30.647  29.668  1.00  0.00     0.074 A 
ATOM     14  C   UNL A   1      38.420  32.602  31.207  1.00  0.00     0.049 A 
ATOM     15  N   UNL A   1      39.591  30.058  30.046  1.00  0.00    -0.248 NA
ATOM     16  C   UNL A   1      37.735  29.913  28.637  1.00  0.00     0.031 C 
ATOM     17  C   UNL A   1      37.822  33.803  31.798  1.00  0.00     0.029 A 
ATOM     18  N   UNL A   1      39.515  32.352  31.984  1.00  0.00    -0.354 N 
ATOM     19  C   UNL A   1      39.678  28.898  29.287  1.00  0.00     0.074 A 
ATOM     20  C   UNL A   1      38.494  28.838  28.460  1.00  0.00     0.031 C 
ATOM     21  C   UNL A   1      38.552  34.179  32.855  1.00  0.00     0.029 A 
ATOM     22  C   UNL A   1      39.656  33.241  33.019  1.00  0.00     0.049 A 
ATOM     23  H   UNL A   1      40.139  31.609  31.818  1.00  0.00     0.167 HD
ATOM     24  C   UNL A   1      40.678  27.989  29.290  1.00  0.00     0.031 A 
ATOM     25  C   UNL A   1      40.580  33.291  33.995  1.00  0.00     0.031 A 
ATOM     26  C   UNL A   1      41.821  28.085  30.162  1.00  0.00     0.049 A 
ATOM     27  C   UNL A   1      41.693  32.289  33.955  1.00  0.00     0.074 A 
ATOM     28  C   UNL A   1      42.943  27.278  30.197  1.00  0.00     0.029 A 
ATOM     29  N   UNL A   1      41.975  29.036  31.162  1.00  0.00    -0.354 N 
ATOM     30  N   UNL A   1      41.853  31.279  33.131  1.00  0.00    -0.248 NA
ATOM     31  C   UNL A   1      42.770  32.444  34.937  1.00  0.00     0.031 C 
ATOM     32  C   UNL A   1      43.736  27.690  31.267  1.00  0.00     0.029 A 
ATOM     33  C   UNL A   1      43.157  28.812  31.843  1.00  0.00     0.049 A 
ATOM     34  H   UNL A   1      41.338  29.761  31.357  1.00  0.00     0.167 HD
ATOM     35  C   UNL A   1      43.058  30.690  33.479  1.00  0.00     0.074 A 
ATOM     36  C   UNL A   1      43.597  31.469  34.578  1.00  0.00     0.031 C 
ATOM     37  C   UNL A   1      43.662  29.605  32.938  1.00  0.00     0.031 A 
BRANCH  24  38
ATOM     38  C   UNL A   1      40.632  26.837  28.321  1.00  0.00    -0.014 A 
ATOM     39  C   UNL A   1      41.134  26.991  27.018  1.00  0.00     0.009 A 
ATOM     40  C   UNL A   1      39.933  25.661  28.638  1.00  0.00     0.009 A 
ATOM     41  C   UNL A   1      40.902  26.017  26.044  1.00  0.00     0.001 A 
ATOM     42  C   UNL A   1      39.725  24.675  27.669  1.00  0.00     0.001 A 
ATOM     43  C   UNL A   1      40.194  24.862  26.370  1.00  0.00     0.000 A 
ENDBRANCH  24  38
BRANCH  25  44
ATOM     44  C   UNL A   1      40.493  34.378  35.004  1.00  0.00    -0.014 A 
ATOM     45  C   UNL A   1      41.148  35.604  34.787  1.00  0.00     0.009 A 
ATOM     46  C   UNL A   1      39.882  34.149  36.244  1.00  0.00     0.009 A 
ATOM     47  C   UNL A   1      41.222  36.560  35.802  1.00  0.00     0.001 A 
ATOM     48  C   UNL A   1      39.929  35.121  37.247  1.00  0.00     0.001 A 
ATOM     49  C   UNL A   1      40.610  36.318  37.030  1.00  0.00     0.000 A 
ENDBRANCH  25  44
BRANCH  37  50
ATOM     50  C   UNL A   1      44.979  29.176  33.521  1.00  0.00    -0.014 A 
ATOM     51  C   UNL A   1      46.175  29.635  32.945  1.00  0.00     0.009 A 
ATOM     52  C   UNL A   1      45.034  28.208  34.533  1.00  0.00     0.009 A 
ATOM     53  C   UNL A   1      47.401  29.107  33.349  1.00  0.00     0.001 A 
ATOM     54  C   UNL A   1      46.265  27.708  34.960  1.00  0.00     0.001 A 
ATOM     55  C   UNL A   1      47.443  28.146  34.356  1.00  0.00     0.000 A 
ENDBRANCH  37  50
ENDBRANCH  11  12
ENDBRANCH   4   6
ENDBRANCH   3   4
ENDBRANCH   2   3
ENDBRANCH   1   2
BRANCH   1  56
ATOM     56  O   UNL A   1      31.528  29.841  26.300  1.00  0.00    -0.374 OA
BRANCH  56  57
ATOM     57  C   UNL A   1      31.495  29.544  24.907  1.00  0.00     0.202 C 
BRANCH  57  58
ATOM     58  C   UNL A   1      32.876  29.125  24.406  1.00  0.00     0.261 C 
BRANCH  58  59
ATOM     59  O   UNL A   1      33.005  27.692  24.466  1.00  0.00    -0.460 OA
BRANCH  59  60
ATOM     60  C   UNL A   1      33.442  27.175  25.642  1.00  0.00     0.340 C 
ATOM     61  O   UNL A   1      34.196  27.697  26.446  1.00  0.00    -0.246 OA
BRANCH  60  62
ATOM     62  C   UNL A   1      32.807  25.854  25.818  1.00  0.00     0.088 A 
ATOM     63  C   UNL A   1      31.484  25.819  26.280  1.00  0.00     0.018 A 
ATOM     64  C   UNL A   1      33.531  24.680  25.544  1.00  0.00     0.105 A 
ATOM     65  C   UNL A   1      30.849  24.600  26.439  1.00  0.00     0.003 A 
ATOM     66  C   UNL A   1      32.856  23.442  25.703  1.00  0.00     0.091 A 
ATOM     67  N   UNL A   1      34.842  24.676  25.195  1.00  0.00    -0.230 NA
ATOM     68  C   UNL A   1      31.537  23.427  26.131  1.00  0.00     0.031 A 
ATOM     69  N   UNL A   1      33.460  22.257  25.488  1.00  0.00    -0.231 NA
ATOM     70  C   UNL A   1      35.452  23.481  25.016  1.00  0.00     0.167 A 
ATOM     71  C   UNL A   1      34.768  22.291  25.147  1.00  0.00     0.167 A 
ATOM     72  Cl  UNL A   1      37.139  23.601  24.722  1.00  0.00    -0.059 Cl
ATOM     73  Cl  UNL A   1      35.479  20.742  24.952  1.00  0.00    -0.059 Cl
ENDBRANCH  60  62
ENDBRANCH  59  60
ENDBRANCH  58  59
ENDBRANCH  57  58
ENDBRANCH  56  57
ENDBRANCH   1  56
TORSDOF 14
ENDMDL
MODEL 3
REMARK VINA RESULT:     -10.1      2.244      2.691
REMARK SMILES O=C(OCCOCCOC(=O)c1cccc2nc(Cl)c(Cl)nc12)c1ccc(-c2c3nc(c(-c4ccccc4)c4ccc([nH]4)c(-c4ccccc4)c4nc(c(-c5ccccc5)c5ccc2[nH]5)C=C4)C=C3)cc1
REMARK SMILES IDX 5 1 4 2 3 3 2 4 1 5 24 6 25 7 71 8 26 9 70 10 27 11 28 12
REMARK SMILES IDX 29 13 64 14 30 15 69 16 63 17 65 18 31 19 68 20 62 21 61 22
REMARK SMILES IDX 32 24 54 25 39 26 53 27 40 28 43 29 52 30 66 31 41 32 42 33
REMARK SMILES IDX 51 35 67 36 44 37 33 38 34 39 38 40 35 41 37 42 36 43 55 44
REMARK SMILES IDX 56 45 60 46 57 47 59 48 58 49 45 50 46 51 50 52 47 53 49 54
REMARK SMILES IDX 48 55 6 56 7 57 8 58 9 59 10 60 11 61 12 62 13 63 23 64
REMARK SMILES IDX 14 65 16 66 22 67 15 68 17 69 20 70 18 71 21 72 19 73
REMARK H PARENT 65 23 43 34
REMARK Flexibility Score: inf
ROOT
ATOM      1  C   UNL A   1      38.260  19.876  24.920  1.00  0.00     0.202 C 
ENDROOT
BRANCH   1   2
ATOM      2  C   UNL A   1      39.274  19.627  26.038  1.00  0.00     0.261 C 
BRANCH   2   3
ATOM      3  O   UNL A   1      40.496  19.082  25.532  1.00  0.00    -0.460 OA
BRANCH   3   4
ATOM      4  C   UNL A   1      41.757  19.420  25.889  1.00  0.00     0.338 C 
ATOM      5  O   UNL A   1      42.621  18.545  25.807  1.00  0.00    -0.246 OA
BRANCH   4   6
ATOM      6  C   UNL A   1      42.191  20.773  26.384  1.00  0.00     0.060 A 
ATOM      7  C   UNL A   1      42.077  20.978  27.773  1.00  0.00     0.016 A 
ATOM      8  C   UNL A   1      42.596  21.865  25.609  1.00  0.00     0.016 A 
ATOM      9  C   UNL A   1      42.273  22.238  28.341  1.00  0.00     0.010 A 
ATOM     10  C   UNL A   1      42.762  23.130  26.157  1.00  0.00     0.010 A 
ATOM     11  C   UNL A   1      42.583  23.322  27.521  1.00  0.00    -0.014 A 
BRANCH  11  12
ATOM     12  C   UNL A   1      42.877  24.654  28.060  1.00  0.00     0.031 A 
ATOM     13  C   UNL A   1      41.795  25.674  28.209  1.00  0.00     0.074 A 
ATOM     14  C   UNL A   1      44.174  24.946  28.250  1.00  0.00     0.049 A 
ATOM     15  N   UNL A   1      41.890  26.898  28.654  1.00  0.00    -0.248 NA
ATOM     16  C   UNL A   1      40.435  25.287  27.794  1.00  0.00     0.031 C 
ATOM     17  C   UNL A   1      45.279  24.014  28.004  1.00  0.00     0.029 A 
ATOM     18  N   UNL A   1      44.787  26.100  28.644  1.00  0.00    -0.354 N 
ATOM     19  C   UNL A   1      40.606  27.422  28.595  1.00  0.00     0.074 A 
ATOM     20  C   UNL A   1      39.753  26.403  28.026  1.00  0.00     0.031 C 
ATOM     21  C   UNL A   1      46.438  24.640  28.240  1.00  0.00     0.029 A 
ATOM     22  C   UNL A   1      46.156  26.013  28.642  1.00  0.00     0.049 A 
ATOM     23  H   UNL A   1      44.296  26.913  28.903  1.00  0.00     0.167 HD
ATOM     24  C   UNL A   1      40.199  28.645  29.002  1.00  0.00     0.031 A 
ATOM     25  C   UNL A   1      47.082  26.944  28.934  1.00  0.00     0.031 A 
ATOM     26  C   UNL A   1      41.103  29.634  29.532  1.00  0.00     0.049 A 
ATOM     27  C   UNL A   1      46.601  28.281  29.410  1.00  0.00     0.074 A 
ATOM     28  C   UNL A   1      40.801  30.875  30.061  1.00  0.00     0.029 A 
ATOM     29  N   UNL A   1      42.484  29.498  29.582  1.00  0.00    -0.354 N 
ATOM     30  N   UNL A   1      45.367  28.720  29.501  1.00  0.00    -0.248 NA
ATOM     31  C   UNL A   1      47.617  29.235  29.862  1.00  0.00     0.031 C 
ATOM     32  C   UNL A   1      42.002  31.521  30.356  1.00  0.00     0.029 A 
ATOM     33  C   UNL A   1      43.050  30.648  30.099  1.00  0.00     0.049 A 
ATOM     34  H   UNL A   1      42.985  28.701  29.292  1.00  0.00     0.167 HD
ATOM     35  C   UNL A   1      45.454  29.994  30.040  1.00  0.00     0.074 A 
ATOM     36  C   UNL A   1      46.863  30.248  30.274  1.00  0.00     0.031 C 
ATOM     37  C   UNL A   1      44.459  30.870  30.315  1.00  0.00     0.031 A 
BRANCH  24  38
ATOM     38  C   UNL A   1      38.736  28.997  28.938  1.00  0.00    -0.014 A 
ATOM     39  C   UNL A   1      38.220  29.663  27.814  1.00  0.00     0.009 A 
ATOM     40  C   UNL A   1      37.910  28.833  30.062  1.00  0.00     0.009 A 
ATOM     41  C   UNL A   1      36.927  30.192  27.830  1.00  0.00     0.001 A 
ATOM     42  C   UNL A   1      36.607  29.339  30.065  1.00  0.00     0.001 A 
ATOM     43  C   UNL A   1      36.124  30.033  28.957  1.00  0.00     0.000 A 
ENDBRANCH  24  38
BRANCH  25  44
ATOM     44  C   UNL A   1      48.517  26.573  28.847  1.00  0.00    -0.014 A 
ATOM     45  C   UNL A   1      49.188  26.061  29.972  1.00  0.00     0.009 A 
ATOM     46  C   UNL A   1      49.257  26.860  27.692  1.00  0.00     0.009 A 
ATOM     47  C   UNL A   1      50.574  25.879  29.952  1.00  0.00     0.001 A 
ATOM     48  C   UNL A   1      50.637  26.647  27.664  1.00  0.00     0.001 A 
ATOM     49  C   UNL A   1      51.295  26.170  28.797  1.00  0.00     0.000 A 
ENDBRANCH  25  44
BRANCH  37  50
ATOM     50  C   UNL A   1      44.843  32.201  30.899  1.00  0.00    -0.014 A 
ATOM     51  C   UNL A   1      44.846  32.372  32.293  1.00  0.00     0.009 A 
ATOM     52  C   UNL A   1      45.053  33.313  30.072  1.00  0.00     0.009 A 
ATOM     53  C   UNL A   1      45.017  33.639  32.848  1.00  0.00     0.001 A 
ATOM     54  C   UNL A   1      45.259  34.575  30.632  1.00  0.00     0.001 A 
ATOM     55  C   UNL A   1      45.224  34.738  32.017  1.00  0.00     0.000 A 
ENDBRANCH  37  50
ENDBRANCH  11  12
ENDBRANCH   4   6
ENDBRANCH   3   4
ENDBRANCH   2   3
ENDBRANCH   1   2
BRANCH   1  56
ATOM     56  O   UNL A   1      38.008  21.253  24.652  1.00  0.00    -0.374 OA
BRANCH  56  57
ATOM     57  C   UNL A   1      37.521  22.018  25.750  1.00  0.00     0.202 C 
BRANCH  57  58
ATOM     58  C   UNL A   1      37.335  23.482  25.356  1.00  0.00     0.261 C 
BRANCH  58  59
ATOM     59  O   UNL A   1      35.933  23.804  25.312  1.00  0.00    -0.460 OA
BRANCH  59  60
ATOM     60  C   UNL A   1      35.253  23.390  24.212  1.00  0.00     0.340 C 
ATOM     61  O   UNL A   1      35.661  23.343  23.065  1.00  0.00    -0.246 OA
BRANCH  60  62
ATOM     62  C   UNL A   1      33.912  22.954  24.649  1.00  0.00     0.088 A 
ATOM     63  C   UNL A   1      32.983  23.943  24.998  1.00  0.00     0.018 A 
ATOM     64  C   UNL A   1      33.605  21.583  24.723  1.00  0.00     0.105 A 
ATOM     65  C   UNL A   1      31.710  23.572  25.394  1.00  0.00     0.003 A 
ATOM     66  C   UNL A   1      32.291  21.228  25.121  1.00  0.00     0.091 A 
ATOM     67  N   UNL A   1      34.512  20.601  24.492  1.00  0.00    -0.230 NA
ATOM     68  C   UNL A   1      31.373  22.220  25.434  1.00  0.00     0.031 A 
ATOM     69  N   UNL A   1      31.896  19.946  25.246  1.00  0.00    -0.231 NA
ATOM     70  C   UNL A   1      34.119  19.316  24.654  1.00  0.00     0.167 A 
ATOM     71  C   UNL A   1      32.827  18.993  25.012  1.00  0.00     0.167 A 
ATOM     72  Cl  UNL A   1      35.388  18.175  24.476  1.00  0.00    -0.059 Cl
ATOM     73  Cl  UNL A   1      32.263  17.392  25.253  1.00  0.00    -0.059 Cl
ENDBRANCH  60  62
ENDBRANCH  59  60
ENDBRANCH  58  59
ENDBRANCH  57  58
ENDBRANCH  56  57
ENDBRANCH   1  56
TORSDOF 14
ENDMDL
