MODEL 1
REMARK VINA RESULT:      -9.9      0.000      0.000
REMARK SMILES C[C@@H](C(=O)OCCOCCOC(=O)c1ccc(-c2c3nc(c(-c4ccccc4)c4ccc([nH]4)c(-c4ccccc4)c4nc(c(-c5ccccc5)c5ccc2[nH]5)C=C4)C=C3)cc1)c1ccc(OC2CCCC2)cc1F
REMARK SMILES IDX 7 1 6 2 5 3 3 4 4 5 2 6 1 7 62 8 63 9 73 10 64 11 72 12
REMARK SMILES IDX 74 13 65 14 66 15 67 16 68 17 71 18 69 19 70 20 8 21 9 22
REMARK SMILES IDX 10 23 11 24 12 25 13 26 14 27 15 28 61 29 16 30 60 31 17 32
REMARK SMILES IDX 18 33 19 34 54 35 20 36 59 37 53 38 55 39 21 40 58 41 52 42
REMARK SMILES IDX 51 43 22 45 44 46 29 47 43 48 30 49 33 50 42 51 56 52 31 53
REMARK SMILES IDX 32 54 41 56 57 57 34 58 23 59 24 60 28 61 25 62 27 63 26 64
REMARK SMILES IDX 45 65 46 66 50 67 47 68 49 69 48 70 35 71 36 72 40 73 37 74
REMARK SMILES IDX 39 75 38 76
REMARK H PARENT 55 44 33 55
REMARK Flexibility Score: inf
ROOT
ATOM      1  C   UNL A   1      41.797  21.053  26.964  1.00  0.00     0.202 C 
ENDROOT
BRANCH   1   2
ATOM      2  C   UNL A   1      40.372  21.569  27.201  1.00  0.00     0.261 C 
BRANCH   2   3
ATOM      3  O   UNL A   1      39.836  22.074  25.967  1.00  0.00    -0.463 OA
BRANCH   3   4
ATOM      4  C   UNL A   1      38.730  22.857  26.084  1.00  0.00     0.313 C 
ATOM      5  O   UNL A   1      38.757  24.063  26.304  1.00  0.00    -0.252 OA
BRANCH   4   6
ATOM      6  C   UNL A   1      37.441  22.074  25.819  1.00  0.00     0.129 C 
ATOM      7  C   UNL A   1      37.569  21.004  24.726  1.00  0.00     0.025 C 
BRANCH   6   8
ATOM      8  C   UNL A   1      36.239  22.966  25.543  1.00  0.00     0.002 A 
ATOM      9  C   UNL A   1      35.286  23.200  26.543  1.00  0.00     0.011 A 
ATOM     10  C   UNL A   1      36.001  23.539  24.291  1.00  0.00     0.130 A 
ATOM     11  C   UNL A   1      34.167  24.005  26.285  1.00  0.00     0.047 A 
ATOM     12  C   UNL A   1      34.865  24.297  24.018  1.00  0.00     0.086 A 
ATOM     13  F   UNL A   1      36.878  23.385  23.294  1.00  0.00    -0.207 F 
ATOM     14  C   UNL A   1      33.955  24.574  25.026  1.00  0.00     0.122 A 
BRANCH  14  15
ATOM     15  O   UNL A   1      32.852  25.367  24.931  1.00  0.00    -0.490 OA
BRANCH  15  16
ATOM     16  C   UNL A   1      32.849  26.745  25.300  1.00  0.00     0.173 C 
ATOM     17  C   UNL A   1      32.495  27.767  24.222  1.00  0.00     0.045 C 
ATOM     18  C   UNL A   1      31.999  27.077  26.521  1.00  0.00     0.045 C 
ATOM     19  C   UNL A   1      32.091  29.012  24.998  1.00  0.00     0.004 C 
ATOM     20  C   UNL A   1      31.640  28.553  26.384  1.00  0.00     0.004 C 
ENDBRANCH  15  16
ENDBRANCH  14  15
ENDBRANCH   6   8
ENDBRANCH   4   6
ENDBRANCH   3   4
ENDBRANCH   2   3
ENDBRANCH   1   2
BRANCH   1  21
ATOM     21  O   UNL A   1      42.272  21.129  25.617  1.00  0.00    -0.374 OA
BRANCH  21  22
ATOM     22  C   UNL A   1      43.667  20.902  25.411  1.00  0.00     0.202 C 
BRANCH  22  23
ATOM     23  C   UNL A   1      44.430  22.016  24.694  1.00  0.00     0.261 C 
BRANCH  23  24
ATOM     24  O   UNL A   1      43.658  23.225  24.635  1.00  0.00    -0.460 OA
BRANCH  24  25
ATOM     25  C   UNL A   1      44.343  24.336  24.982  1.00  0.00     0.338 C 
ATOM     26  O   UNL A   1      45.421  24.716  24.543  1.00  0.00    -0.246 OA
BRANCH  25  27
ATOM     27  C   UNL A   1      43.524  25.165  25.880  1.00  0.00     0.060 A 
ATOM     28  C   UNL A   1      43.893  26.508  26.025  1.00  0.00     0.016 A 
ATOM     29  C   UNL A   1      42.452  24.636  26.604  1.00  0.00     0.016 A 
ATOM     30  C   UNL A   1      43.235  27.314  26.947  1.00  0.00     0.010 A 
ATOM     31  C   UNL A   1      41.797  25.445  27.535  1.00  0.00     0.010 A 
ATOM     32  C   UNL A   1      42.216  26.773  27.739  1.00  0.00    -0.014 A 
BRANCH  32  33
ATOM     33  C   UNL A   1      41.715  27.546  28.896  1.00  0.00     0.031 A 
ATOM     34  C   UNL A   1      42.466  27.465  30.197  1.00  0.00     0.074 A 
ATOM     35  C   UNL A   1      40.638  28.341  28.778  1.00  0.00     0.049 A 
ATOM     36  N   UNL A   1      42.213  28.052  31.337  1.00  0.00    -0.248 NA
ATOM     37  C   UNL A   1      43.663  26.608  30.211  1.00  0.00     0.031 C 
ATOM     38  C   UNL A   1      39.861  28.539  27.556  1.00  0.00     0.029 A 
ATOM     39  N   UNL A   1      40.016  29.134  29.708  1.00  0.00    -0.354 N 
ATOM     40  C   UNL A   1      43.211  27.628  32.206  1.00  0.00     0.074 A 
ATOM     41  C   UNL A   1      44.057  26.714  31.471  1.00  0.00     0.031 C 
ATOM     42  C   UNL A   1      38.863  29.402  27.811  1.00  0.00     0.029 A 
ATOM     43  C   UNL A   1      38.913  29.789  29.219  1.00  0.00     0.049 A 
ATOM     44  H   UNL A   1      40.330  29.226  30.636  1.00  0.00     0.167 HD
ATOM     45  C   UNL A   1      43.409  27.973  33.500  1.00  0.00     0.031 A 
ATOM     46  C   UNL A   1      38.036  30.596  29.845  1.00  0.00     0.031 A 
ATOM     47  C   UNL A   1      42.561  28.875  34.231  1.00  0.00     0.049 A 
ATOM     48  C   UNL A   1      38.233  30.902  31.306  1.00  0.00     0.074 A 
ATOM     49  C   UNL A   1      42.683  29.305  35.541  1.00  0.00     0.029 A 
ATOM     50  N   UNL A   1      41.424  29.478  33.714  1.00  0.00    -0.354 N 
ATOM     51  N   UNL A   1      39.195  30.517  32.110  1.00  0.00    -0.248 NA
ATOM     52  C   UNL A   1      37.224  31.762  31.941  1.00  0.00     0.031 C 
ATOM     53  C   UNL A   1      41.589  30.125  35.834  1.00  0.00     0.029 A 
ATOM     54  C   UNL A   1      40.818  30.252  34.690  1.00  0.00     0.049 A 
ATOM     55  H   UNL A   1      41.097  29.372  32.793  1.00  0.00     0.167 HD
ATOM     56  C   UNL A   1      38.923  31.109  33.337  1.00  0.00     0.074 A 
ATOM     57  C   UNL A   1      37.715  31.890  33.166  1.00  0.00     0.031 C 
ATOM     58  C   UNL A   1      39.614  31.020  34.500  1.00  0.00     0.031 A 
BRANCH  45  59
ATOM     59  C   UNL A   1      44.567  27.338  34.216  1.00  0.00    -0.014 A 
ATOM     60  C   UNL A   1      44.429  26.116  34.893  1.00  0.00     0.009 A 
ATOM     61  C   UNL A   1      45.824  27.961  34.191  1.00  0.00     0.009 A 
ATOM     62  C   UNL A   1      45.518  25.550  35.560  1.00  0.00     0.001 A 
ATOM     63  C   UNL A   1      46.918  27.380  34.835  1.00  0.00     0.001 A 
ATOM     64  C   UNL A   1      46.762  26.180  35.526  1.00  0.00     0.000 A 
ENDBRANCH  45  59
BRANCH  46  65
ATOM     65  C   UNL A   1      36.882  31.162  29.100  1.00  0.00    -0.014 A 
ATOM     66  C   UNL A   1      35.781  30.358  28.769  1.00  0.00     0.009 A 
ATOM     67  C   UNL A   1      36.882  32.508  28.704  1.00  0.00     0.009 A 
ATOM     68  C   UNL A   1      34.715  30.885  28.035  1.00  0.00     0.001 A 
ATOM     69  C   UNL A   1      35.803  33.039  27.995  1.00  0.00     0.001 A 
ATOM     70  C   UNL A   1      34.725  32.226  27.653  1.00  0.00     0.000 A 
ENDBRANCH  46  65
BRANCH  58  71
ATOM     71  C   UNL A   1      39.100  31.812  35.668  1.00  0.00    -0.014 A 
ATOM     72  C   UNL A   1      39.486  33.146  35.873  1.00  0.00     0.009 A 
ATOM     73  C   UNL A   1      38.181  31.226  36.553  1.00  0.00     0.009 A 
ATOM     74  C   UNL A   1      38.987  33.865  36.960  1.00  0.00     0.001 A 
ATOM     75  C   UNL A   1      37.661  31.957  37.621  1.00  0.00     0.001 A 
ATOM     76  C   UNL A   1      38.071  33.272  37.830  1.00  0.00     0.000 A 
ENDBRANCH  58  71
ENDBRANCH  32  33
ENDBRANCH  25  27
ENDBRANCH  24  25
ENDBRANCH  23  24
ENDBRANCH  22  23
ENDBRANCH  21  22
ENDBRANCH   1  21
TORSDOF 17
ENDMDL
MODEL 2
REMARK VINA RESULT:      -9.8      4.504      8.620
REMARK SMILES C[C@@H](C(=O)OCCOCCOC(=O)c1ccc(-c2c3nc(c(-c4ccccc4)c4ccc([nH]4)c(-c4ccccc4)c4nc(c(-c5ccccc5)c5ccc2[nH]5)C=C4)C=C3)cc1)c1ccc(OC2CCCC2)cc1F
REMARK SMILES IDX 7 1 6 2 5 3 3 4 4 5 2 6 1 7 62 8 63 9 73 10 64 11 72 12
REMARK SMILES IDX 74 13 65 14 66 15 67 16 68 17 71 18 69 19 70 20 8 21 9 22
REMARK SMILES IDX 10 23 11 24 12 25 13 26 14 27 15 28 61 29 16 30 60 31 17 32
REMARK SMILES IDX 18 33 19 34 54 35 20 36 59 37 53 38 55 39 21 40 58 41 52 42
REMARK SMILES IDX 51 43 22 45 44 46 29 47 43 48 30 49 33 50 42 51 56 52 31 53
REMARK SMILES IDX 32 54 41 56 57 57 34 58 23 59 24 60 28 61 25 62 27 63 26 64
REMARK SMILES IDX 45 65 46 66 50 67 47 68 49 69 48 70 35 71 36 72 40 73 37 74
REMARK SMILES IDX 39 75 38 76
REMARK H PARENT 55 44 33 55
REMARK Flexibility Score: inf
ROOT
ATOM      1  C   UNL A   1      46.187  21.967  24.575  1.00  0.00     0.202 C 
ENDROOT
BRANCH   1   2
ATOM      2  C   UNL A   1      45.347  23.232  24.364  1.00  0.00     0.261 C 
BRANCH   2   3
ATOM      3  O   UNL A   1      46.168  24.391  24.583  1.00  0.00    -0.463 OA
BRANCH   3   4
ATOM      4  C   UNL A   1      45.508  25.511  24.984  1.00  0.00     0.313 C 
ATOM      5  O   UNL A   1      44.288  25.607  25.055  1.00  0.00    -0.252 OA
BRANCH   4   6
ATOM      6  C   UNL A   1      46.472  26.618  25.426  1.00  0.00     0.129 C 
ATOM      7  C   UNL A   1      45.779  27.887  25.939  1.00  0.00     0.025 C 
BRANCH   6   8
ATOM      8  C   UNL A   1      47.505  26.975  24.366  1.00  0.00     0.002 A 
ATOM      9  C   UNL A   1      47.150  27.776  23.273  1.00  0.00     0.011 A 
ATOM     10  C   UNL A   1      48.815  26.489  24.401  1.00  0.00     0.130 A 
ATOM     11  C   UNL A   1      48.094  28.090  22.284  1.00  0.00     0.047 A 
ATOM     12  C   UNL A   1      49.739  26.759  23.395  1.00  0.00     0.086 A 
ATOM     13  F   UNL A   1      49.237  25.742  25.426  1.00  0.00    -0.207 F 
ATOM     14  C   UNL A   1      49.402  27.598  22.346  1.00  0.00     0.122 A 
BRANCH  14  15
ATOM     15  O   UNL A   1      50.222  28.019  21.343  1.00  0.00    -0.490 OA
BRANCH  15  16
ATOM     16  C   UNL A   1      50.946  27.123  20.501  1.00  0.00     0.173 C 
ATOM     17  C   UNL A   1      50.237  25.849  20.045  1.00  0.00     0.045 C 
ATOM     18  C   UNL A   1      51.550  27.763  19.257  1.00  0.00     0.045 C 
ATOM     19  C   UNL A   1      51.023  25.396  18.822  1.00  0.00     0.004 C 
ATOM     20  C   UNL A   1      51.719  26.630  18.251  1.00  0.00     0.004 C 
ENDBRANCH  15  16
ENDBRANCH  14  15
ENDBRANCH   6   8
ENDBRANCH   4   6
ENDBRANCH   3   4
ENDBRANCH   2   3
ENDBRANCH   1   2
BRANCH   1  21
ATOM     21  O   UNL A   1      45.590  20.949  25.385  1.00  0.00    -0.374 OA
BRANCH  21  22
ATOM     22  C   UNL A   1      45.527  19.635  24.828  1.00  0.00     0.202 C 
BRANCH  22  23
ATOM     23  C   UNL A   1      44.139  18.998  24.766  1.00  0.00     0.261 C 
BRANCH  23  24
ATOM     24  O   UNL A   1      43.473  19.070  26.036  1.00  0.00    -0.460 OA
BRANCH  24  25
ATOM     25  C   UNL A   1      42.189  19.480  25.964  1.00  0.00     0.338 C 
ATOM     26  O   UNL A   1      41.214  18.827  25.615  1.00  0.00    -0.246 OA
BRANCH  25  27
ATOM     27  C   UNL A   1      42.066  20.830  26.539  1.00  0.00     0.060 A 
ATOM     28  C   UNL A   1      42.186  21.913  25.659  1.00  0.00     0.016 A 
ATOM     29  C   UNL A   1      41.890  21.039  27.909  1.00  0.00     0.016 A 
ATOM     30  C   UNL A   1      42.199  23.211  26.153  1.00  0.00     0.010 A 
ATOM     31  C   UNL A   1      41.911  22.344  28.405  1.00  0.00     0.010 A 
ATOM     32  C   UNL A   1      42.109  23.430  27.533  1.00  0.00    -0.014 A 
BRANCH  32  33
ATOM     33  C   UNL A   1      42.400  24.778  28.070  1.00  0.00     0.031 A 
ATOM     34  C   UNL A   1      43.818  25.118  28.435  1.00  0.00     0.074 A 
ATOM     35  C   UNL A   1      41.425  25.696  28.187  1.00  0.00     0.049 A 
ATOM     36  N   UNL A   1      44.305  26.230  28.920  1.00  0.00    -0.248 NA
ATOM     37  C   UNL A   1      44.822  24.062  28.222  1.00  0.00     0.031 C 
ATOM     38  C   UNL A   1      40.025  25.498  27.817  1.00  0.00     0.029 A 
ATOM     39  N   UNL A   1      41.475  26.986  28.650  1.00  0.00    -0.354 N 
ATOM     40  C   UNL A   1      45.667  26.005  29.080  1.00  0.00     0.074 A 
ATOM     41  C   UNL A   1      45.926  24.643  28.667  1.00  0.00     0.031 C 
ATOM     42  C   UNL A   1      39.346  26.630  28.068  1.00  0.00     0.029 A 
ATOM     43  C   UNL A   1      40.256  27.617  28.644  1.00  0.00     0.049 A 
ATOM     44  H   UNL A   1      42.304  27.418  28.957  1.00  0.00     0.167 HD
ATOM     45  C   UNL A   1      46.618  26.857  29.527  1.00  0.00     0.031 A 
ATOM     46  C   UNL A   1      39.915  28.847  29.071  1.00  0.00     0.031 A 
ATOM     47  C   UNL A   1      46.357  28.207  29.947  1.00  0.00     0.049 A 
ATOM     48  C   UNL A   1      40.978  29.749  29.639  1.00  0.00     0.074 A 
ATOM     49  C   UNL A   1      47.252  29.160  30.399  1.00  0.00     0.029 A 
ATOM     50  N   UNL A   1      45.100  28.793  29.973  1.00  0.00    -0.354 N 
ATOM     51  N   UNL A   1      42.267  29.535  29.760  1.00  0.00    -0.248 NA
ATOM     52  C   UNL A   1      40.538  31.066  30.119  1.00  0.00     0.031 C 
ATOM     53  C   UNL A   1      46.530  30.304  30.753  1.00  0.00     0.029 A 
ATOM     54  C   UNL A   1      45.193  30.084  30.465  1.00  0.00     0.049 A 
ATOM     55  H   UNL A   1      44.267  28.355  29.686  1.00  0.00     0.167 HD
ATOM     56  C   UNL A   1      42.794  30.699  30.304  1.00  0.00     0.074 A 
ATOM     57  C   UNL A   1      41.690  31.619  30.476  1.00  0.00     0.031 C 
ATOM     58  C   UNL A   1      44.080  30.983  30.629  1.00  0.00     0.031 A 
BRANCH  45  59
ATOM     59  C   UNL A   1      48.024  26.336  29.623  1.00  0.00    -0.014 A 
ATOM     60  C   UNL A   1      48.518  25.772  30.810  1.00  0.00     0.009 A 
ATOM     61  C   UNL A   1      48.861  26.387  28.497  1.00  0.00     0.009 A 
ATOM     62  C   UNL A   1      49.832  25.304  30.877  1.00  0.00     0.001 A 
ATOM     63  C   UNL A   1      50.164  25.893  28.559  1.00  0.00     0.001 A 
ATOM     64  C   UNL A   1      50.652  25.360  29.750  1.00  0.00     0.000 A 
ENDBRANCH  45  59
BRANCH  46  65
ATOM     65  C   UNL A   1      38.500  29.296  28.996  1.00  0.00    -0.014 A 
ATOM     66  C   UNL A   1      37.978  29.818  27.804  1.00  0.00     0.009 A 
ATOM     67  C   UNL A   1      37.668  29.216  30.124  1.00  0.00     0.009 A 
ATOM     68  C   UNL A   1      36.658  30.274  27.750  1.00  0.00     0.001 A 
ATOM     69  C   UNL A   1      36.342  29.646  30.059  1.00  0.00     0.001 A 
ATOM     70  C   UNL A   1      35.841  30.183  28.876  1.00  0.00     0.000 A 
ENDBRANCH  46  65
BRANCH  58  71
ATOM     71  C   UNL A   1      44.365  32.356  31.170  1.00  0.00    -0.014 A 
ATOM     72  C   UNL A   1      44.759  33.405  30.326  1.00  0.00     0.009 A 
ATOM     73  C   UNL A   1      44.195  32.610  32.540  1.00  0.00     0.009 A 
ATOM     74  C   UNL A   1      45.009  34.675  30.849  1.00  0.00     0.001 A 
ATOM     75  C   UNL A   1      44.417  33.888  33.055  1.00  0.00     0.001 A 
ATOM     76  C   UNL A   1      44.832  34.916  32.212  1.00  0.00     0.000 A 
ENDBRANCH  58  71
ENDBRANCH  32  33
ENDBRANCH  25  27
ENDBRANCH  24  25
ENDBRANCH  23  24
ENDBRANCH  22  23
ENDBRANCH  21  22
ENDBRANCH   1  21
TORSDOF 17
ENDMDL
MODEL 3
REMARK VINA RESULT:      -9.8      0.475      5.928
REMARK SMILES C[C@@H](C(=O)OCCOCCOC(=O)c1ccc(-c2c3nc(c(-c4ccccc4)c4ccc([nH]4)c(-c4ccccc4)c4nc(c(-c5ccccc5)c5ccc2[nH]5)C=C4)C=C3)cc1)c1ccc(OC2CCCC2)cc1F
REMARK SMILES IDX 7 1 6 2 5 3 3 4 4 5 2 6 1 7 62 8 63 9 73 10 64 11 72 12
REMARK SMILES IDX 74 13 65 14 66 15 67 16 68 17 71 18 69 19 70 20 8 21 9 22
REMARK SMILES IDX 10 23 11 24 12 25 13 26 14 27 15 28 61 29 16 30 60 31 17 32
REMARK SMILES IDX 18 33 19 34 54 35 20 36 59 37 53 38 55 39 21 40 58 41 52 42
REMARK SMILES IDX 51 43 22 45 44 46 29 47 43 48 30 49 33 50 42 51 56 52 31 53
REMARK SMILES IDX 32 54 41 56 57 57 34 58 23 59 24 60 28 61 25 62 27 63 26 64
REMARK SMILES IDX 45 65 46 66 50 67 47 68 49 69 48 70 35 71 36 72 40 73 37 74
REMARK SMILES IDX 39 75 38 76
REMARK H PARENT 55 44 33 55
REMARK Flexibility Score: inf
ROOT
ATOM      1  C   UNL A   1      41.119  20.386  26.839  1.00  0.00     0.202 C 
ENDROOT
BRANCH   1   2
ATOM      2  C   UNL A   1      40.229  21.621  27.021  1.00  0.00     0.261 C 
BRANCH   2   3
ATOM      3  O   UNL A   1      39.352  21.748  25.889  1.00  0.00    -0.463 OA
BRANCH   3   4
ATOM      4  C   UNL A   1      38.347  22.654  26.023  1.00  0.00     0.313 C 
ATOM      5  O   UNL A   1      38.517  23.849  26.237  1.00  0.00    -0.252 OA
BRANCH   4   6
ATOM      6  C   UNL A   1      36.971  22.023  25.785  1.00  0.00     0.129 C 
ATOM      7  C   UNL A   1      36.968  20.893  24.747  1.00  0.00     0.025 C 
BRANCH   6   8
ATOM      8  C   UNL A   1      35.890  23.043  25.455  1.00  0.00     0.002 A 
ATOM      9  C   UNL A   1      34.918  23.378  26.406  1.00  0.00     0.011 A 
ATOM     10  C   UNL A   1      35.781  23.641  24.197  1.00  0.00     0.130 A 
ATOM     11  C   UNL A   1      33.908  24.301  26.098  1.00  0.00     0.047 A 
ATOM     12  C   UNL A   1      34.751  24.519  23.873  1.00  0.00     0.086 A 
ATOM     13  F   UNL A   1      36.687  23.394  23.245  1.00  0.00    -0.207 F 
ATOM     14  C   UNL A   1      33.826  24.893  24.834  1.00  0.00     0.122 A 
BRANCH  14  15
ATOM     15  O   UNL A   1      32.822  25.802  24.689  1.00  0.00    -0.490 OA
BRANCH  15  16
ATOM     16  C   UNL A   1      32.856  27.100  25.279  1.00  0.00     0.173 C 
ATOM     17  C   UNL A   1      32.623  28.301  24.365  1.00  0.00     0.045 C 
ATOM     18  C   UNL A   1      31.941  27.278  26.485  1.00  0.00     0.045 C 
ATOM     19  C   UNL A   1      32.224  29.426  25.310  1.00  0.00     0.004 C 
ATOM     20  C   UNL A   1      31.659  28.774  26.571  1.00  0.00     0.004 C 
ENDBRANCH  15  16
ENDBRANCH  14  15
ENDBRANCH   6   8
ENDBRANCH   4   6
ENDBRANCH   3   4
ENDBRANCH   2   3
ENDBRANCH   1   2
BRANCH   1  21
ATOM     21  O   UNL A   1      41.983  20.401  25.699  1.00  0.00    -0.374 OA
BRANCH  21  22
ATOM     22  C   UNL A   1      43.339  20.789  25.923  1.00  0.00     0.202 C 
BRANCH  22  23
ATOM     23  C   UNL A   1      43.982  21.641  24.829  1.00  0.00     0.261 C 
BRANCH  23  24
ATOM     24  O   UNL A   1      43.309  22.901  24.683  1.00  0.00    -0.460 OA
BRANCH  24  25
ATOM     25  C   UNL A   1      44.063  23.972  25.014  1.00  0.00     0.338 C 
ATOM     26  O   UNL A   1      45.129  24.316  24.521  1.00  0.00    -0.246 OA
BRANCH  25  27
ATOM     27  C   UNL A   1      43.335  24.812  25.979  1.00  0.00     0.060 A 
ATOM     28  C   UNL A   1      43.704  26.160  26.061  1.00  0.00     0.016 A 
ATOM     29  C   UNL A   1      42.351  24.288  26.822  1.00  0.00     0.016 A 
ATOM     30  C   UNL A   1      43.140  26.978  27.032  1.00  0.00     0.010 A 
ATOM     31  C   UNL A   1      41.789  25.110  27.802  1.00  0.00     0.010 A 
ATOM     32  C   UNL A   1      42.215  26.444  27.937  1.00  0.00    -0.014 A 
BRANCH  32  33
ATOM     33  C   UNL A   1      41.832  27.235  29.127  1.00  0.00     0.031 A 
ATOM     34  C   UNL A   1      40.568  28.049  29.075  1.00  0.00     0.074 A 
ATOM     35  C   UNL A   1      42.572  27.193  30.247  1.00  0.00     0.049 A 
ATOM     36  N   UNL A   1      40.038  28.815  29.993  1.00  0.00    -0.248 NA
ATOM     37  C   UNL A   1      39.799  27.988  27.821  1.00  0.00     0.031 C 
ATOM     38  C   UNL A   1      43.788  26.402  30.432  1.00  0.00     0.029 A 
ATOM     39  N   UNL A   1      42.400  27.836  31.447  1.00  0.00    -0.354 N 
ATOM     40  C   UNL A   1      38.881  29.335  29.425  1.00  0.00     0.074 A 
ATOM     41  C   UNL A   1      38.800  28.820  28.075  1.00  0.00     0.031 C 
ATOM     42  C   UNL A   1      44.253  26.605  31.675  1.00  0.00     0.029 A 
ATOM     43  C   UNL A   1      43.388  27.563  32.360  1.00  0.00     0.049 A 
ATOM     44  H   UNL A   1      41.642  28.434  31.635  1.00  0.00     0.167 HD
ATOM     45  C   UNL A   1      37.966  30.163  29.979  1.00  0.00     0.031 A 
ATOM     46  C   UNL A   1      43.578  28.048  33.602  1.00  0.00     0.031 A 
ATOM     47  C   UNL A   1      38.054  30.681  31.317  1.00  0.00     0.049 A 
ATOM     48  C   UNL A   1      42.588  29.030  34.167  1.00  0.00     0.074 A 
ATOM     49  C   UNL A   1      37.170  31.513  31.981  1.00  0.00     0.029 A 
ATOM     50  N   UNL A   1      39.097  30.421  32.193  1.00  0.00    -0.354 N 
ATOM     51  N   UNL A   1      41.484  29.493  33.630  1.00  0.00    -0.248 NA
ATOM     52  C   UNL A   1      42.867  29.548  35.513  1.00  0.00     0.031 C 
ATOM     53  C   UNL A   1      37.706  31.803  33.240  1.00  0.00     0.029 A 
ATOM     54  C   UNL A   1      38.894  31.103  33.381  1.00  0.00     0.049 A 
ATOM     55  H   UNL A   1      39.867  29.840  31.999  1.00  0.00     0.167 HD
ATOM     56  C   UNL A   1      40.924  30.335  34.583  1.00  0.00     0.074 A 
ATOM     57  C   UNL A   1      41.802  30.307  35.735  1.00  0.00     0.031 C 
ATOM     58  C   UNL A   1      39.782  31.063  34.514  1.00  0.00     0.031 A 
BRANCH  45  59
ATOM     59  C   UNL A   1      36.811  30.591  29.118  1.00  0.00    -0.014 A 
ATOM     60  C   UNL A   1      35.817  29.683  28.719  1.00  0.00     0.009 A 
ATOM     61  C   UNL A   1      36.702  31.933  28.720  1.00  0.00     0.009 A 
ATOM     62  C   UNL A   1      34.759  30.103  27.911  1.00  0.00     0.001 A 
ATOM     63  C   UNL A   1      35.629  32.356  27.936  1.00  0.00     0.001 A 
ATOM     64  C   UNL A   1      34.663  31.440  27.524  1.00  0.00     0.000 A 
ENDBRANCH  45  59
BRANCH  46  65
ATOM     65  C   UNL A   1      44.763  27.625  34.393  1.00  0.00    -0.014 A 
ATOM     66  C   UNL A   1      44.701  26.502  35.231  1.00  0.00     0.009 A 
ATOM     67  C   UNL A   1      45.961  28.354  34.322  1.00  0.00     0.009 A 
ATOM     68  C   UNL A   1      45.806  26.132  36.001  1.00  0.00     0.001 A 
ATOM     69  C   UNL A   1      47.073  27.966  35.072  1.00  0.00     0.001 A 
ATOM     70  C   UNL A   1      46.992  26.862  35.917  1.00  0.00     0.000 A 
ENDBRANCH  46  65
BRANCH  58  71
ATOM     71  C   UNL A   1      39.400  31.860  35.729  1.00  0.00    -0.014 A 
ATOM     72  C   UNL A   1      40.054  33.059  36.052  1.00  0.00     0.009 A 
ATOM     73  C   UNL A   1      38.339  31.424  36.539  1.00  0.00     0.009 A 
ATOM     74  C   UNL A   1      39.675  33.787  37.181  1.00  0.00     0.001 A 
ATOM     75  C   UNL A   1      37.942  32.170  37.650  1.00  0.00     0.001 A 
ATOM     76  C   UNL A   1      38.616  33.345  37.975  1.00  0.00     0.000 A 
ENDBRANCH  58  71
ENDBRANCH  32  33
ENDBRANCH  25  27
ENDBRANCH  24  25
ENDBRANCH  23  24
ENDBRANCH  22  23
ENDBRANCH  21  22
ENDBRANCH   1  21
TORSDOF 17
ENDMDL
