MODEL 1
REMARK VINA RESULT:     -10.3      0.000      0.000
REMARK SMILES COc1ccccc1Nc1snc(C)c1C(=O)OCCOCCOC(=O)c1ccc(-c2c3nc(c(-c4ccccc4)c4ccc([nH]4)c(-c4ccccc4)c4nc(c(-c5ccccc5)c5ccc2[nH]5)C=C4)C=C3)cc1
REMARK SMILES IDX 20 1 19 2 18 3 16 4 17 5 15 6 10 7 11 8 12 9 13 10 14 11
REMARK SMILES IDX 9 12 8 14 3 15 4 16 5 17 7 18 6 19 2 20 1 21 21 22 22 23
REMARK SMILES IDX 23 24 24 25 25 26 26 27 27 28 28 29 74 30 29 31 73 32 30 33
REMARK SMILES IDX 31 34 32 35 67 36 33 37 72 38 66 39 68 40 34 41 71 42 65 43
REMARK SMILES IDX 64 44 35 46 57 47 42 48 56 49 43 50 46 51 55 52 69 53 44 54
REMARK SMILES IDX 45 55 54 57 70 58 47 59 36 60 37 61 41 62 38 63 40 64 39 65
REMARK SMILES IDX 58 66 59 67 63 68 60 69 62 70 61 71 48 72 49 73 53 74 50 75
REMARK SMILES IDX 52 76 51 77
REMARK H PARENT 9 13 68 45 46 56
REMARK Flexibility Score: inf
ROOT
ATOM      1  C   UNL A   1      35.498  21.937  26.312  1.00  0.00     0.202 C 
ENDROOT
BRANCH   1   2
ATOM      2  C   UNL A   1      34.066  21.537  26.679  1.00  0.00     0.261 C 
BRANCH   2   3
ATOM      3  O   UNL A   1      33.158  22.649  26.663  1.00  0.00    -0.460 OA
BRANCH   3   4
ATOM      4  C   UNL A   1      32.288  22.677  25.611  1.00  0.00     0.343 C 
ATOM      5  O   UNL A   1      31.159  22.185  25.627  1.00  0.00    -0.246 OA
BRANCH   4   6
ATOM      6  C   UNL A   1      32.755  23.485  24.503  1.00  0.00     0.117 A 
ATOM      7  C   UNL A   1      33.362  24.737  24.586  1.00  0.00     0.128 A 
ATOM      8  S   UNL A   1      33.594  25.294  22.967  1.00  0.00    -0.017 S 
ATOM      9  N   UNL A   1      33.048  23.940  22.208  1.00  0.00    -0.195 NA
ATOM     10  C   UNL A   1      32.646  23.060  23.122  1.00  0.00     0.068 A 
ATOM     11  C   UNL A   1      32.101  21.759  22.626  1.00  0.00     0.069 C 
BRANCH   7  12
ATOM     12  N   UNL A   1      33.755  25.529  25.621  1.00  0.00    -0.342 N 
ATOM     13  H   UNL A   1      34.527  25.200  26.135  1.00  0.00     0.168 HD
BRANCH  12  14
ATOM     14  C   UNL A   1      33.217  26.756  26.063  1.00  0.00     0.082 A 
ATOM     15  C   UNL A   1      31.992  26.795  26.756  1.00  0.00     0.142 A 
ATOM     16  C   UNL A   1      31.518  27.990  27.310  1.00  0.00     0.048 A 
ATOM     17  C   UNL A   1      32.253  29.167  27.174  1.00  0.00     0.004 A 
ATOM     18  C   UNL A   1      33.890  27.972  25.870  1.00  0.00     0.030 A 
ATOM     19  C   UNL A   1      33.427  29.162  26.432  1.00  0.00     0.002 A 
BRANCH  15  20
ATOM     20  O   UNL A   1      31.129  25.726  26.784  1.00  0.00    -0.495 OA
ATOM     21  C   UNL A   1      30.048  25.849  25.867  1.00  0.00     0.278 C 
ENDBRANCH  15  20
ENDBRANCH  12  14
ENDBRANCH   7  12
ENDBRANCH   4   6
ENDBRANCH   3   4
ENDBRANCH   2   3
ENDBRANCH   1   2
BRANCH   1  22
ATOM     22  O   UNL A   1      35.844  22.146  24.943  1.00  0.00    -0.374 OA
BRANCH  22  23
ATOM     23  C   UNL A   1      37.161  21.892  24.473  1.00  0.00     0.202 C 
BRANCH  23  24
ATOM     24  C   UNL A   1      37.980  20.769  25.092  1.00  0.00     0.261 C 
BRANCH  24  25
ATOM     25  O   UNL A   1      39.117  21.265  25.773  1.00  0.00    -0.460 OA
BRANCH  25  26
ATOM     26  C   UNL A   1      40.128  20.378  25.841  1.00  0.00     0.338 C 
ATOM     27  O   UNL A   1      40.072  19.169  25.642  1.00  0.00    -0.246 OA
BRANCH  26  28
ATOM     28  C   UNL A   1      41.320  21.060  26.344  1.00  0.00     0.060 A 
ATOM     29  C   UNL A   1      41.597  20.837  27.693  1.00  0.00     0.016 A 
ATOM     30  C   UNL A   1      41.781  22.190  25.653  1.00  0.00     0.016 A 
ATOM     31  C   UNL A   1      41.999  21.918  28.432  1.00  0.00     0.010 A 
ATOM     32  C   UNL A   1      42.202  23.262  26.390  1.00  0.00     0.010 A 
ATOM     33  C   UNL A   1      42.158  23.142  27.774  1.00  0.00    -0.014 A 
BRANCH  33  34
ATOM     34  C   UNL A   1      42.298  24.325  28.578  1.00  0.00     0.031 A 
ATOM     35  C   UNL A   1      41.262  25.319  28.272  1.00  0.00     0.074 A 
ATOM     36  C   UNL A   1      43.233  24.452  29.534  1.00  0.00     0.049 A 
ATOM     37  N   UNL A   1      41.401  26.382  27.558  1.00  0.00    -0.248 NA
ATOM     38  C   UNL A   1      39.873  24.966  28.595  1.00  0.00     0.031 C 
ATOM     39  C   UNL A   1      44.139  23.448  30.099  1.00  0.00     0.029 A 
ATOM     40  N   UNL A   1      43.496  25.550  30.281  1.00  0.00    -0.354 N 
ATOM     41  C   UNL A   1      40.138  26.947  27.509  1.00  0.00     0.074 A 
ATOM     42  C   UNL A   1      39.217  25.930  27.950  1.00  0.00     0.031 C 
ATOM     43  C   UNL A   1      44.669  23.929  31.251  1.00  0.00     0.029 A 
ATOM     44  C   UNL A   1      44.252  25.312  31.415  1.00  0.00     0.049 A 
ATOM     45  H   UNL A   1      43.175  26.448  30.035  1.00  0.00     0.167 HD
ATOM     46  C   UNL A   1      39.976  28.292  27.401  1.00  0.00     0.031 A 
ATOM     47  C   UNL A   1      44.441  26.188  32.435  1.00  0.00     0.031 A 
ATOM     48  C   UNL A   1      41.196  28.946  26.994  1.00  0.00     0.049 A 
ATOM     49  C   UNL A   1      44.141  27.546  31.909  1.00  0.00     0.074 A 
ATOM     50  C   UNL A   1      42.002  28.885  25.876  1.00  0.00     0.029 A 
ATOM     51  N   UNL A   1      41.970  29.494  27.992  1.00  0.00    -0.354 N 
ATOM     52  N   UNL A   1      44.870  28.124  30.995  1.00  0.00    -0.248 NA
ATOM     53  C   UNL A   1      42.775  28.039  32.013  1.00  0.00     0.031 C 
ATOM     54  C   UNL A   1      43.336  28.959  26.378  1.00  0.00     0.029 A 
ATOM     55  C   UNL A   1      43.272  29.127  27.764  1.00  0.00     0.049 A 
ATOM     56  H   UNL A   1      41.646  30.050  28.737  1.00  0.00     0.167 HD
ATOM     57  C   UNL A   1      43.959  28.721  30.133  1.00  0.00     0.074 A 
ATOM     58  C   UNL A   1      42.690  28.714  30.861  1.00  0.00     0.031 C 
ATOM     59  C   UNL A   1      44.247  28.891  28.807  1.00  0.00     0.031 A 
BRANCH  46  60
ATOM     60  C   UNL A   1      38.859  29.024  28.090  1.00  0.00    -0.014 A 
ATOM     61  C   UNL A   1      38.698  28.855  29.473  1.00  0.00     0.009 A 
ATOM     62  C   UNL A   1      37.803  29.652  27.398  1.00  0.00     0.009 A 
ATOM     63  C   UNL A   1      37.513  29.236  30.113  1.00  0.00     0.001 A 
ATOM     64  C   UNL A   1      36.639  30.073  28.039  1.00  0.00     0.001 A 
ATOM     65  C   UNL A   1      36.483  29.839  29.395  1.00  0.00     0.000 A 
ENDBRANCH  46  60
BRANCH  47  66
ATOM     66  C   UNL A   1      44.498  25.880  33.881  1.00  0.00    -0.014 A 
ATOM     67  C   UNL A   1      43.347  25.536  34.606  1.00  0.00     0.009 A 
ATOM     68  C   UNL A   1      45.746  25.669  34.501  1.00  0.00     0.009 A 
ATOM     69  C   UNL A   1      43.444  24.986  35.895  1.00  0.00     0.001 A 
ATOM     70  C   UNL A   1      45.843  25.119  35.783  1.00  0.00     0.001 A 
ATOM     71  C   UNL A   1      44.691  24.768  36.477  1.00  0.00     0.000 A 
ENDBRANCH  47  66
BRANCH  59  72
ATOM     72  C   UNL A   1      45.649  28.559  28.349  1.00  0.00    -0.014 A 
ATOM     73  C   UNL A   1      46.002  27.303  27.818  1.00  0.00     0.009 A 
ATOM     74  C   UNL A   1      46.596  29.589  28.296  1.00  0.00     0.009 A 
ATOM     75  C   UNL A   1      47.273  27.082  27.274  1.00  0.00     0.001 A 
ATOM     76  C   UNL A   1      47.859  29.375  27.735  1.00  0.00     0.001 A 
ATOM     77  C   UNL A   1      48.198  28.122  27.228  1.00  0.00     0.000 A 
ENDBRANCH  59  72
ENDBRANCH  33  34
ENDBRANCH  26  28
ENDBRANCH  25  26
ENDBRANCH  24  25
ENDBRANCH  23  24
ENDBRANCH  22  23
ENDBRANCH   1  22
TORSDOF 17
ENDMDL
MODEL 2
REMARK VINA RESULT:     -10.1      3.600      5.284
REMARK SMILES COc1ccccc1Nc1snc(C)c1C(=O)OCCOCCOC(=O)c1ccc(-c2c3nc(c(-c4ccccc4)c4ccc([nH]4)c(-c4ccccc4)c4nc(c(-c5ccccc5)c5ccc2[nH]5)C=C4)C=C3)cc1
REMARK SMILES IDX 20 1 19 2 18 3 16 4 17 5 15 6 10 7 11 8 12 9 13 10 14 11
REMARK SMILES IDX 9 12 8 14 3 15 4 16 5 17 7 18 6 19 2 20 1 21 21 22 22 23
REMARK SMILES IDX 23 24 24 25 25 26 26 27 27 28 28 29 74 30 29 31 73 32 30 33
REMARK SMILES IDX 31 34 32 35 67 36 33 37 72 38 66 39 68 40 34 41 71 42 65 43
REMARK SMILES IDX 64 44 35 46 57 47 42 48 56 49 43 50 46 51 55 52 69 53 44 54
REMARK SMILES IDX 45 55 54 57 70 58 47 59 36 60 37 61 41 62 38 63 40 64 39 65
REMARK SMILES IDX 58 66 59 67 63 68 60 69 62 70 61 71 48 72 49 73 53 74 50 75
REMARK SMILES IDX 52 76 51 77
REMARK H PARENT 9 13 68 45 46 56
REMARK Flexibility Score: inf
ROOT
ATOM      1  C   UNL A   1      38.544  21.714  25.632  1.00  0.00     0.202 C 
ENDROOT
BRANCH   1   2
ATOM      2  C   UNL A   1      37.377  21.624  24.645  1.00  0.00     0.261 C 
BRANCH   2   3
ATOM      3  O   UNL A   1      36.362  20.700  25.069  1.00  0.00    -0.460 OA
BRANCH   3   4
ATOM      4  C   UNL A   1      35.224  21.269  25.563  1.00  0.00     0.343 C 
ATOM      5  O   UNL A   1      35.129  21.784  26.678  1.00  0.00    -0.246 OA
BRANCH   4   6
ATOM      6  C   UNL A   1      34.157  21.356  24.588  1.00  0.00     0.117 A 
ATOM      7  C   UNL A   1      33.888  22.434  23.745  1.00  0.00     0.128 A 
ATOM      8  S   UNL A   1      32.437  22.054  22.888  1.00  0.00    -0.017 S 
ATOM      9  N   UNL A   1      32.240  20.534  23.487  1.00  0.00    -0.195 NA
ATOM     10  C   UNL A   1      33.213  20.281  24.361  1.00  0.00     0.068 A 
ATOM     11  C   UNL A   1      33.200  18.943  25.030  1.00  0.00     0.069 C 
BRANCH   7  12
ATOM     12  N   UNL A   1      34.502  23.626  23.511  1.00  0.00    -0.342 N 
ATOM     13  H   UNL A   1      35.286  23.588  22.917  1.00  0.00     0.168 HD
BRANCH  12  14
ATOM     14  C   UNL A   1      34.176  24.910  23.996  1.00  0.00     0.082 A 
ATOM     15  C   UNL A   1      33.720  25.914  23.120  1.00  0.00     0.142 A 
ATOM     16  C   UNL A   1      33.272  27.146  23.611  1.00  0.00     0.048 A 
ATOM     17  C   UNL A   1      33.280  27.400  24.982  1.00  0.00     0.004 A 
ATOM     18  C   UNL A   1      34.252  25.227  25.360  1.00  0.00     0.030 A 
ATOM     19  C   UNL A   1      33.794  26.449  25.854  1.00  0.00     0.002 A 
BRANCH  15  20
ATOM     20  O   UNL A   1      33.843  25.810  21.755  1.00  0.00    -0.495 OA
ATOM     21  C   UNL A   1      32.603  25.603  21.090  1.00  0.00     0.278 C 
ENDBRANCH  15  20
ENDBRANCH  12  14
ENDBRANCH   7  12
ENDBRANCH   4   6
ENDBRANCH   3   4
ENDBRANCH   2   3
ENDBRANCH   1   2
BRANCH   1  22
ATOM     22  O   UNL A   1      38.664  22.856  26.480  1.00  0.00    -0.374 OA
BRANCH  22  23
ATOM     23  C   UNL A   1      39.835  23.073  27.256  1.00  0.00     0.202 C 
BRANCH  23  24
ATOM     24  C   UNL A   1      41.101  23.586  26.585  1.00  0.00     0.261 C 
BRANCH  24  25
ATOM     25  O   UNL A   1      41.469  24.864  27.070  1.00  0.00    -0.460 OA
BRANCH  25  26
ATOM     26  C   UNL A   1      41.295  25.848  26.167  1.00  0.00     0.338 C 
ATOM     27  O   UNL A   1      41.877  25.988  25.096  1.00  0.00    -0.246 OA
BRANCH  26  28
ATOM     28  C   UNL A   1      40.380  26.844  26.726  1.00  0.00     0.060 A 
ATOM     29  C   UNL A   1      40.778  28.168  26.549  1.00  0.00     0.016 A 
ATOM     30  C   UNL A   1      39.508  26.445  27.750  1.00  0.00     0.016 A 
ATOM     31  C   UNL A   1      40.614  29.014  27.613  1.00  0.00     0.010 A 
ATOM     32  C   UNL A   1      39.327  27.298  28.802  1.00  0.00     0.010 A 
ATOM     33  C   UNL A   1      40.010  28.507  28.769  1.00  0.00    -0.014 A 
BRANCH  33  34
ATOM     34  C   UNL A   1      40.092  29.292  29.970  1.00  0.00     0.031 A 
ATOM     35  C   UNL A   1      38.916  30.154  30.140  1.00  0.00     0.074 A 
ATOM     36  C   UNL A   1      41.102  29.181  30.849  1.00  0.00     0.049 A 
ATOM     37  N   UNL A   1      38.847  31.419  29.903  1.00  0.00    -0.248 NA
ATOM     38  C   UNL A   1      37.623  29.494  30.365  1.00  0.00     0.031 C 
ATOM     39  C   UNL A   1      42.178  28.189  30.919  1.00  0.00     0.029 A 
ATOM     40  N   UNL A   1      41.309  29.930  31.957  1.00  0.00    -0.354 N 
ATOM     41  C   UNL A   1      37.527  31.757  30.148  1.00  0.00     0.074 A 
ATOM     42  C   UNL A   1      36.790  30.520  30.192  1.00  0.00     0.031 C 
ATOM     43  C   UNL A   1      42.767  28.261  32.139  1.00  0.00     0.029 A 
ATOM     44  C   UNL A   1      42.206  29.391  32.863  1.00  0.00     0.049 A 
ATOM     45  H   UNL A   1      40.857  30.792  32.107  1.00  0.00     0.167 HD
ATOM     46  C   UNL A   1      37.192  32.996  30.594  1.00  0.00     0.031 A 
ATOM     47  C   UNL A   1      42.396  29.821  34.136  1.00  0.00     0.031 A 
ATOM     48  C   UNL A   1      38.273  33.936  30.421  1.00  0.00     0.049 A 
ATOM     49  C   UNL A   1      41.879  31.212  34.211  1.00  0.00     0.074 A 
ATOM     50  C   UNL A   1      38.956  34.439  29.332  1.00  0.00     0.029 A 
ATOM     51  N   UNL A   1      39.078  34.166  31.514  1.00  0.00    -0.354 N 
ATOM     52  N   UNL A   1      42.429  32.205  33.569  1.00  0.00    -0.248 NA
ATOM     53  C   UNL A   1      40.482  31.410  34.573  1.00  0.00     0.031 C 
ATOM     54  C   UNL A   1      40.317  34.516  29.753  1.00  0.00     0.029 A 
ATOM     55  C   UNL A   1      40.382  34.122  31.092  1.00  0.00     0.049 A 
ATOM     56  H   UNL A   1      38.771  34.334  32.434  1.00  0.00     0.167 HD
ATOM     57  C   UNL A   1      41.365  32.941  33.064  1.00  0.00     0.074 A 
ATOM     58  C   UNL A   1      40.192  32.457  33.793  1.00  0.00     0.031 C 
ATOM     59  C   UNL A   1      41.486  33.654  31.903  1.00  0.00     0.031 A 
BRANCH  46  60
ATOM     60  C   UNL A   1      36.075  33.222  31.574  1.00  0.00    -0.014 A 
ATOM     61  C   UNL A   1      35.033  34.089  31.216  1.00  0.00     0.009 A 
ATOM     62  C   UNL A   1      36.144  32.834  32.928  1.00  0.00     0.009 A 
ATOM     63  C   UNL A   1      34.149  34.590  32.178  1.00  0.00     0.001 A 
ATOM     64  C   UNL A   1      35.239  33.297  33.882  1.00  0.00     0.001 A 
ATOM     65  C   UNL A   1      34.257  34.199  33.511  1.00  0.00     0.000 A 
ENDBRANCH  46  60
BRANCH  47  66
ATOM     66  C   UNL A   1      42.645  28.989  35.334  1.00  0.00    -0.014 A 
ATOM     67  C   UNL A   1      41.720  28.029  35.769  1.00  0.00     0.009 A 
ATOM     68  C   UNL A   1      43.932  28.960  35.909  1.00  0.00     0.009 A 
ATOM     69  C   UNL A   1      42.075  27.067  36.729  1.00  0.00     0.001 A 
ATOM     70  C   UNL A   1      44.287  28.001  36.862  1.00  0.00     0.001 A 
ATOM     71  C   UNL A   1      43.361  27.047  37.266  1.00  0.00     0.000 A 
ENDBRANCH  47  66
BRANCH  59  72
ATOM     72  C   UNL A   1      42.860  33.745  31.280  1.00  0.00    -0.014 A 
ATOM     73  C   UNL A   1      43.368  32.768  30.403  1.00  0.00     0.009 A 
ATOM     74  C   UNL A   1      43.593  34.926  31.449  1.00  0.00     0.009 A 
ATOM     75  C   UNL A   1      44.584  32.960  29.736  1.00  0.00     0.001 A 
ATOM     76  C   UNL A   1      44.798  35.127  30.770  1.00  0.00     0.001 A 
ATOM     77  C   UNL A   1      45.295  34.144  29.917  1.00  0.00     0.000 A 
ENDBRANCH  59  72
ENDBRANCH  33  34
ENDBRANCH  26  28
ENDBRANCH  25  26
ENDBRANCH  24  25
ENDBRANCH  23  24
ENDBRANCH  22  23
ENDBRANCH   1  22
TORSDOF 17
ENDMDL
MODEL 3
REMARK VINA RESULT:     -10.0      4.918      9.309
REMARK SMILES COc1ccccc1Nc1snc(C)c1C(=O)OCCOCCOC(=O)c1ccc(-c2c3nc(c(-c4ccccc4)c4ccc([nH]4)c(-c4ccccc4)c4nc(c(-c5ccccc5)c5ccc2[nH]5)C=C4)C=C3)cc1
REMARK SMILES IDX 20 1 19 2 18 3 16 4 17 5 15 6 10 7 11 8 12 9 13 10 14 11
REMARK SMILES IDX 9 12 8 14 3 15 4 16 5 17 7 18 6 19 2 20 1 21 21 22 22 23
REMARK SMILES IDX 23 24 24 25 25 26 26 27 27 28 28 29 74 30 29 31 73 32 30 33
REMARK SMILES IDX 31 34 32 35 67 36 33 37 72 38 66 39 68 40 34 41 71 42 65 43
REMARK SMILES IDX 64 44 35 46 57 47 42 48 56 49 43 50 46 51 55 52 69 53 44 54
REMARK SMILES IDX 45 55 54 57 70 58 47 59 36 60 37 61 41 62 38 63 40 64 39 65
REMARK SMILES IDX 58 66 59 67 63 68 60 69 62 70 61 71 48 72 49 73 53 74 50 75
REMARK SMILES IDX 52 76 51 77
REMARK H PARENT 9 13 68 45 46 56
REMARK Flexibility Score: inf
ROOT
ATOM      1  C   UNL A   1      33.885  31.185  27.562  1.00  0.00     0.202 C 
ENDROOT
BRANCH   1   2
ATOM      2  C   UNL A   1      32.519  31.012  26.892  1.00  0.00     0.261 C 
BRANCH   2   3
ATOM      3  O   UNL A   1      32.598  30.301  25.647  1.00  0.00    -0.460 OA
BRANCH   3   4
ATOM      4  C   UNL A   1      32.152  29.011  25.683  1.00  0.00     0.343 C 
ATOM      5  O   UNL A   1      31.370  28.567  26.524  1.00  0.00    -0.246 OA
BRANCH   4   6
ATOM      6  C   UNL A   1      32.563  28.231  24.534  1.00  0.00     0.117 A 
ATOM      7  C   UNL A   1      32.205  28.456  23.206  1.00  0.00     0.128 A 
ATOM      8  S   UNL A   1      32.868  27.159  22.277  1.00  0.00    -0.017 S 
ATOM      9  N   UNL A   1      33.670  26.419  23.509  1.00  0.00    -0.195 NA
ATOM     10  C   UNL A   1      33.440  27.083  24.640  1.00  0.00     0.068 A 
ATOM     11  C   UNL A   1      34.078  26.553  25.885  1.00  0.00     0.069 C 
BRANCH   7  12
ATOM     12  N   UNL A   1      31.482  29.421  22.573  1.00  0.00    -0.342 N 
ATOM     13  H   UNL A   1      32.006  30.061  22.041  1.00  0.00     0.168 HD
BRANCH  12  14
ATOM     14  C   UNL A   1      30.087  29.634  22.568  1.00  0.00     0.082 A 
ATOM     15  C   UNL A   1      29.203  28.610  22.956  1.00  0.00     0.142 A 
ATOM     16  C   UNL A   1      27.830  28.854  23.078  1.00  0.00     0.048 A 
ATOM     17  C   UNL A   1      27.316  30.122  22.808  1.00  0.00     0.004 A 
ATOM     18  C   UNL A   1      29.530  30.874  22.221  1.00  0.00     0.030 A 
ATOM     19  C   UNL A   1      28.164  31.125  22.355  1.00  0.00     0.002 A 
BRANCH  15  20
ATOM     20  O   UNL A   1      29.601  27.299  23.069  1.00  0.00    -0.495 OA
ATOM     21  C   UNL A   1      28.749  26.520  23.900  1.00  0.00     0.278 C 
ENDBRANCH  15  20
ENDBRANCH  12  14
ENDBRANCH   7  12
ENDBRANCH   4   6
ENDBRANCH   3   4
ENDBRANCH   2   3
ENDBRANCH   1   2
BRANCH   1  22
ATOM     22  O   UNL A   1      34.128  32.324  28.387  1.00  0.00    -0.374 OA
BRANCH  22  23
ATOM     23  C   UNL A   1      33.538  33.583  28.091  1.00  0.00     0.202 C 
BRANCH  23  24
ATOM     24  C   UNL A   1      33.724  34.748  29.053  1.00  0.00     0.261 C 
BRANCH  24  25
ATOM     25  O   UNL A   1      33.016  34.546  30.262  1.00  0.00    -0.460 OA
BRANCH  25  26
ATOM     26  C   UNL A   1      33.416  35.361  31.257  1.00  0.00     0.338 C 
ATOM     27  O   UNL A   1      33.204  36.565  31.364  1.00  0.00    -0.246 OA
BRANCH  26  28
ATOM     28  C   UNL A   1      34.294  34.612  32.156  1.00  0.00     0.060 A 
ATOM     29  C   UNL A   1      35.436  35.299  32.566  1.00  0.00     0.016 A 
ATOM     30  C   UNL A   1      34.214  33.211  32.148  1.00  0.00     0.016 A 
ATOM     31  C   UNL A   1      36.609  34.593  32.599  1.00  0.00     0.010 A 
ATOM     32  C   UNL A   1      35.384  32.506  32.202  1.00  0.00     0.010 A 
ATOM     33  C   UNL A   1      36.566  33.232  32.277  1.00  0.00    -0.014 A 
BRANCH  33  34
ATOM     34  C   UNL A   1      37.812  32.559  32.033  1.00  0.00     0.031 A 
ATOM     35  C   UNL A   1      38.642  32.491  33.242  1.00  0.00     0.074 A 
ATOM     36  C   UNL A   1      38.125  32.009  30.848  1.00  0.00     0.049 A 
ATOM     37  N   UNL A   1      39.660  33.230  33.521  1.00  0.00    -0.248 NA
ATOM     38  C   UNL A   1      38.140  31.680  34.360  1.00  0.00     0.031 C 
ATOM     39  C   UNL A   1      37.287  31.787  29.667  1.00  0.00     0.029 A 
ATOM     40  N   UNL A   1      39.298  31.431  30.499  1.00  0.00    -0.354 N 
ATOM     41  C   UNL A   1      40.055  32.832  34.786  1.00  0.00     0.074 A 
ATOM     42  C   UNL A   1      38.964  32.066  35.333  1.00  0.00     0.031 C 
ATOM     43  C   UNL A   1      37.913  30.915  28.838  1.00  0.00     0.029 A 
ATOM     44  C   UNL A   1      39.241  30.642  29.364  1.00  0.00     0.049 A 
ATOM     45  H   UNL A   1      40.128  31.564  31.012  1.00  0.00     0.167 HD
ATOM     46  C   UNL A   1      41.357  32.903  35.168  1.00  0.00     0.031 A 
ATOM     47  C   UNL A   1      40.205  29.779  28.954  1.00  0.00     0.031 A 
ATOM     48  C   UNL A   1      42.129  33.737  34.279  1.00  0.00     0.049 A 
ATOM     49  C   UNL A   1      41.472  30.190  29.613  1.00  0.00     0.074 A 
ATOM     50  C   UNL A   1      42.091  35.070  33.922  1.00  0.00     0.029 A 
ATOM     51  N   UNL A   1      42.842  33.099  33.289  1.00  0.00    -0.354 N 
ATOM     52  N   UNL A   1      42.071  31.318  29.348  1.00  0.00    -0.248 NA
ATOM     53  C   UNL A   1      41.795  29.610  30.910  1.00  0.00     0.031 C 
ATOM     54  C   UNL A   1      42.369  35.085  32.523  1.00  0.00     0.029 A 
ATOM     55  C   UNL A   1      42.627  33.774  32.115  1.00  0.00     0.049 A 
ATOM     56  H   UNL A   1      43.405  32.300  33.404  1.00  0.00     0.167 HD
ATOM     57  C   UNL A   1      42.484  31.805  30.581  1.00  0.00     0.074 A 
ATOM     58  C   UNL A   1      42.369  30.667  31.494  1.00  0.00     0.031 C 
ATOM     59  C   UNL A   1      42.593  33.149  30.810  1.00  0.00     0.031 A 
BRANCH  46  60
ATOM     60  C   UNL A   1      41.990  31.873  36.061  1.00  0.00    -0.014 A 
ATOM     61  C   UNL A   1      42.632  32.302  37.231  1.00  0.00     0.009 A 
ATOM     62  C   UNL A   1      42.215  30.539  35.664  1.00  0.00     0.009 A 
ATOM     63  C   UNL A   1      43.503  31.457  37.927  1.00  0.00     0.001 A 
ATOM     64  C   UNL A   1      43.048  29.680  36.378  1.00  0.00     0.001 A 
ATOM     65  C   UNL A   1      43.716  30.149  37.497  1.00  0.00     0.000 A 
ENDBRANCH  46  60
BRANCH  47  66
ATOM     66  C   UNL A   1      40.012  28.444  28.344  1.00  0.00    -0.014 A 
ATOM     67  C   UNL A   1      40.639  28.087  27.141  1.00  0.00     0.009 A 
ATOM     68  C   UNL A   1      39.406  27.416  29.093  1.00  0.00     0.009 A 
ATOM     69  C   UNL A   1      40.673  26.749  26.714  1.00  0.00     0.001 A 
ATOM     70  C   UNL A   1      39.442  26.083  28.671  1.00  0.00     0.001 A 
ATOM     71  C   UNL A   1      40.084  25.748  27.485  1.00  0.00     0.000 A 
ENDBRANCH  47  66
BRANCH  59  72
ATOM     72  C   UNL A   1      42.409  34.075  29.629  1.00  0.00    -0.014 A 
ATOM     73  C   UNL A   1      41.177  34.687  29.322  1.00  0.00     0.009 A 
ATOM     74  C   UNL A   1      43.542  34.473  28.908  1.00  0.00     0.009 A 
ATOM     75  C   UNL A   1      41.083  35.648  28.308  1.00  0.00     0.001 A 
ATOM     76  C   UNL A   1      43.452  35.446  27.909  1.00  0.00     0.001 A 
ATOM     77  C   UNL A   1      42.223  36.030  27.607  1.00  0.00     0.000 A 
ENDBRANCH  59  72
ENDBRANCH  33  34
ENDBRANCH  26  28
ENDBRANCH  25  26
ENDBRANCH  24  25
ENDBRANCH  23  24
ENDBRANCH  22  23
ENDBRANCH   1  22
TORSDOF 17
ENDMDL
