MODEL 1
REMARK VINA RESULT:      -9.1      0.000      0.000
REMARK SMILES CCC[C@@H](C(=O)OCCOCCOC(=O)c1ccc(-c2c3nc(c(-c4ccccc4)c4ccc([nH]4)c(-c4ccccc4)c4nc(c(-c5ccccc5)c5ccc2[nH]5)C=C4)C=C3)cc1)n1nc(/C=C/c2ccc(OC)cc2)ccc1=O
REMARK SMILES IDX 9 1 8 2 7 3 5 4 6 5 4 6 3 7 2 8 1 9 64 10 65 11 79 12 66 13
REMARK SMILES IDX 78 14 80 15 77 16 67 17 68 18 69 19 70 20 76 21 71 22 75 23
REMARK SMILES IDX 72 24 73 25 74 26 10 27 11 28 12 29 13 30 14 31 15 32 16 33
REMARK SMILES IDX 17 34 63 35 18 36 62 37 19 38 20 39 21 40 56 41 22 42 61 43
REMARK SMILES IDX 55 44 57 45 23 46 60 47 54 48 53 49 24 51 46 52 31 53 45 54
REMARK SMILES IDX 32 55 35 56 44 57 58 58 33 59 34 60 43 62 59 63 36 64 25 65
REMARK SMILES IDX 26 66 30 67 27 68 29 69 28 70 47 71 48 72 52 73 49 74 51 75
REMARK SMILES IDX 50 76 37 77 38 78 42 79 39 80 41 81 40 82
REMARK H PARENT 57 50 35 61
REMARK Flexibility Score: inf
ROOT
ATOM      1  C   UNL A   1      45.286  23.415  38.031  1.00  0.00     0.202 C 
ENDROOT
BRANCH   1   2
ATOM      2  C   UNL A   1      45.675  23.087  39.480  1.00  0.00     0.261 C 
BRANCH   2   3
ATOM      3  O   UNL A   1      46.199  21.751  39.527  1.00  0.00    -0.462 OA
BRANCH   3   4
ATOM      4  C   UNL A   1      47.536  21.618  39.318  1.00  0.00     0.331 C 
ATOM      5  O   UNL A   1      48.362  22.494  39.551  1.00  0.00    -0.250 OA
BRANCH   4   6
ATOM      6  C   UNL A   1      47.887  20.188  38.859  1.00  0.00     0.221 C 
BRANCH   6   7
ATOM      7  C   UNL A   1      49.143  19.986  37.977  1.00  0.00     0.039 C 
BRANCH   7   8
ATOM      8  C   UNL A   1      50.381  19.331  38.602  1.00  0.00    -0.001 C 
ATOM      9  C   UNL A   1      51.269  18.591  37.618  1.00  0.00     0.004 C 
ENDBRANCH   7   8
ENDBRANCH   6   7
BRANCH   6  10
ATOM     10  N   UNL A   1      46.718  19.501  38.242  1.00  0.00    -0.215 N 
ATOM     11  N   UNL A   1      46.141  18.515  39.032  1.00  0.00    -0.169 NA
ATOM     12  C   UNL A   1      46.412  19.651  36.895  1.00  0.00     0.267 A 
ATOM     13  C   UNL A   1      45.263  17.723  38.492  1.00  0.00     0.084 A 
ATOM     14  C   UNL A   1      45.384  18.754  36.342  1.00  0.00     0.075 A 
ATOM     15  O   UNL A   1      46.924  20.456  36.124  1.00  0.00    -0.268 OA
ATOM     16  C   UNL A   1      44.826  17.803  37.086  1.00  0.00     0.036 A 
BRANCH  13  17
ATOM     17  C   UNL A   1      44.640  16.683  39.360  1.00  0.00     0.031 C 
ATOM     18  C   UNL A   1      43.331  16.425  39.493  1.00  0.00     0.010 C 
BRANCH  18  19
ATOM     19  C   UNL A   1      42.798  15.463  40.466  1.00  0.00    -0.025 A 
ATOM     20  C   UNL A   1      42.057  14.366  40.018  1.00  0.00     0.012 A 
ATOM     21  C   UNL A   1      42.917  15.679  41.845  1.00  0.00     0.012 A 
ATOM     22  C   UNL A   1      41.462  13.495  40.934  1.00  0.00     0.047 A 
ATOM     23  C   UNL A   1      42.322  14.806  42.761  1.00  0.00     0.047 A 
ATOM     24  C   UNL A   1      41.590  13.709  42.308  1.00  0.00     0.118 A 
BRANCH  24  25
ATOM     25  O   UNL A   1      40.949  12.794  43.096  1.00  0.00    -0.497 OA
ATOM     26  C   UNL A   1      41.555  11.512  43.205  1.00  0.00     0.278 C 
ENDBRANCH  24  25
ENDBRANCH  18  19
ENDBRANCH  13  17
ENDBRANCH   6  10
ENDBRANCH   4   6
ENDBRANCH   3   4
ENDBRANCH   2   3
ENDBRANCH   1   2
BRANCH   1  27
ATOM     27  O   UNL A   1      46.119  24.351  37.338  1.00  0.00    -0.374 OA
BRANCH  27  28
ATOM     28  C   UNL A   1      46.862  25.269  38.139  1.00  0.00     0.202 C 
BRANCH  28  29
ATOM     29  C   UNL A   1      48.129  25.842  37.499  1.00  0.00     0.261 C 
BRANCH  29  30
ATOM     30  O   UNL A   1      47.826  26.670  36.366  1.00  0.00    -0.460 OA
BRANCH  30  31
ATOM     31  C   UNL A   1      47.221  27.836  36.684  1.00  0.00     0.338 C 
ATOM     32  O   UNL A   1      47.578  28.661  37.516  1.00  0.00    -0.246 OA
BRANCH  31  33
ATOM     33  C   UNL A   1      46.099  28.087  35.765  1.00  0.00     0.060 A 
ATOM     34  C   UNL A   1      46.304  29.025  34.746  1.00  0.00     0.016 A 
ATOM     35  C   UNL A   1      44.854  27.476  35.934  1.00  0.00     0.016 A 
ATOM     36  C   UNL A   1      45.246  29.401  33.925  1.00  0.00     0.010 A 
ATOM     37  C   UNL A   1      43.790  27.860  35.111  1.00  0.00     0.010 A 
ATOM     38  C   UNL A   1      43.974  28.851  34.130  1.00  0.00    -0.014 A 
BRANCH  38  39
ATOM     39  C   UNL A   1      42.813  29.427  33.413  1.00  0.00     0.031 A 
ATOM     40  C   UNL A   1      42.091  30.601  34.016  1.00  0.00     0.074 A 
ATOM     41  C   UNL A   1      42.433  28.940  32.219  1.00  0.00     0.049 A 
ATOM     42  N   UNL A   1      41.052  31.255  33.566  1.00  0.00    -0.248 NA
ATOM     43  C   UNL A   1      42.612  31.106  35.298  1.00  0.00     0.031 C 
ATOM     44  C   UNL A   1      43.081  27.838  31.510  1.00  0.00     0.029 A 
ATOM     45  N   UNL A   1      41.405  29.315  31.393  1.00  0.00    -0.354 N 
ATOM     46  C   UNL A   1      40.790  32.241  34.508  1.00  0.00     0.074 A 
ATOM     47  C   UNL A   1      41.760  32.084  35.570  1.00  0.00     0.031 C 
ATOM     48  C   UNL A   1      42.432  27.624  30.352  1.00  0.00     0.029 A 
ATOM     49  C   UNL A   1      41.305  28.550  30.258  1.00  0.00     0.049 A 
ATOM     50  H   UNL A   1      40.796  30.062  31.594  1.00  0.00     0.167 HD
ATOM     51  C   UNL A   1      39.831  33.198  34.489  1.00  0.00     0.031 A 
ATOM     52  C   UNL A   1      40.396  28.582  29.265  1.00  0.00     0.031 A 
ATOM     53  C   UNL A   1      38.861  33.349  33.439  1.00  0.00     0.049 A 
ATOM     54  C   UNL A   1      39.292  29.605  29.307  1.00  0.00     0.074 A 
ATOM     55  C   UNL A   1      37.859  34.297  33.322  1.00  0.00     0.029 A 
ATOM     56  N   UNL A   1      38.766  32.526  32.328  1.00  0.00    -0.354 N 
ATOM     57  N   UNL A   1      39.072  30.548  30.191  1.00  0.00    -0.248 NA
ATOM     58  C   UNL A   1      38.316  29.569  28.209  1.00  0.00     0.031 C 
ATOM     59  C   UNL A   1      37.122  34.012  32.167  1.00  0.00     0.029 A 
ATOM     60  C   UNL A   1      37.705  32.926  31.535  1.00  0.00     0.049 A 
ATOM     61  H   UNL A   1      39.366  31.771  32.132  1.00  0.00     0.167 HD
ATOM     62  C   UNL A   1      37.953  31.237  29.739  1.00  0.00     0.074 A 
ATOM     63  C   UNL A   1      37.549  30.612  28.497  1.00  0.00     0.031 C 
ATOM     64  C   UNL A   1      37.317  32.294  30.300  1.00  0.00     0.031 A 
BRANCH  51  65
ATOM     65  C   UNL A   1      39.765  34.138  35.660  1.00  0.00    -0.014 A 
ATOM     66  C   UNL A   1      40.381  35.398  35.622  1.00  0.00     0.009 A 
ATOM     67  C   UNL A   1      39.035  33.772  36.802  1.00  0.00     0.009 A 
ATOM     68  C   UNL A   1      40.291  36.262  36.715  1.00  0.00     0.001 A 
ATOM     69  C   UNL A   1      38.923  34.649  37.882  1.00  0.00     0.001 A 
ATOM     70  C   UNL A   1      39.557  35.890  37.841  1.00  0.00     0.000 A 
ENDBRANCH  51  65
BRANCH  52  71
ATOM     71  C   UNL A   1      40.470  27.598  28.153  1.00  0.00    -0.014 A 
ATOM     72  C   UNL A   1      39.824  26.356  28.248  1.00  0.00     0.009 A 
ATOM     73  C   UNL A   1      41.215  27.888  26.998  1.00  0.00     0.009 A 
ATOM     74  C   UNL A   1      39.948  25.414  27.224  1.00  0.00     0.001 A 
ATOM     75  C   UNL A   1      41.311  26.956  25.963  1.00  0.00     0.001 A 
ATOM     76  C   UNL A   1      40.688  25.717  26.081  1.00  0.00     0.000 A 
ENDBRANCH  52  71
BRANCH  64  77
ATOM     77  C   UNL A   1      36.143  32.867  29.558  1.00  0.00    -0.014 A 
ATOM     78  C   UNL A   1      36.267  34.023  28.772  1.00  0.00     0.009 A 
ATOM     79  C   UNL A   1      34.902  32.211  29.612  1.00  0.00     0.009 A 
ATOM     80  C   UNL A   1      35.163  34.530  28.084  1.00  0.00     0.001 A 
ATOM     81  C   UNL A   1      33.808  32.704  28.900  1.00  0.00     0.001 A 
ATOM     82  C   UNL A   1      33.936  33.867  28.143  1.00  0.00     0.000 A 
ENDBRANCH  64  77
ENDBRANCH  38  39
ENDBRANCH  31  33
ENDBRANCH  30  31
ENDBRANCH  29  30
ENDBRANCH  28  29
ENDBRANCH  27  28
ENDBRANCH   1  27
TORSDOF 20
ENDMDL
MODEL 2
REMARK VINA RESULT:      -9.0      7.623     10.927
REMARK SMILES CCC[C@@H](C(=O)OCCOCCOC(=O)c1ccc(-c2c3nc(c(-c4ccccc4)c4ccc([nH]4)c(-c4ccccc4)c4nc(c(-c5ccccc5)c5ccc2[nH]5)C=C4)C=C3)cc1)n1nc(/C=C/c2ccc(OC)cc2)ccc1=O
REMARK SMILES IDX 9 1 8 2 7 3 5 4 6 5 4 6 3 7 2 8 1 9 64 10 65 11 79 12 66 13
REMARK SMILES IDX 78 14 80 15 77 16 67 17 68 18 69 19 70 20 76 21 71 22 75 23
REMARK SMILES IDX 72 24 73 25 74 26 10 27 11 28 12 29 13 30 14 31 15 32 16 33
REMARK SMILES IDX 17 34 63 35 18 36 62 37 19 38 20 39 21 40 56 41 22 42 61 43
REMARK SMILES IDX 55 44 57 45 23 46 60 47 54 48 53 49 24 51 46 52 31 53 45 54
REMARK SMILES IDX 32 55 35 56 44 57 58 58 33 59 34 60 43 62 59 63 36 64 25 65
REMARK SMILES IDX 26 66 30 67 27 68 29 69 28 70 47 71 48 72 52 73 49 74 51 75
REMARK SMILES IDX 50 76 37 77 38 78 42 79 39 80 41 81 40 82
REMARK H PARENT 57 50 35 61
REMARK Flexibility Score: inf
ROOT
ATOM      1  C   UNL A   1      47.828  25.234  25.725  1.00  0.00     0.202 C 
ENDROOT
BRANCH   1   2
ATOM      2  C   UNL A   1      46.339  25.333  25.365  1.00  0.00     0.261 C 
BRANCH   2   3
ATOM      3  O   UNL A   1      45.689  24.109  25.741  1.00  0.00    -0.462 OA
BRANCH   3   4
ATOM      4  C   UNL A   1      44.659  23.704  24.952  1.00  0.00     0.331 C 
ATOM      5  O   UNL A   1      44.786  23.316  23.795  1.00  0.00    -0.250 OA
BRANCH   4   6
ATOM      6  C   UNL A   1      43.331  23.688  25.736  1.00  0.00     0.221 C 
BRANCH   6   7
ATOM      7  C   UNL A   1      43.309  24.298  27.158  1.00  0.00     0.039 C 
BRANCH   7   8
ATOM      8  C   UNL A   1      43.172  23.354  28.359  1.00  0.00    -0.001 C 
ATOM      9  C   UNL A   1      44.434  23.198  29.188  1.00  0.00     0.004 C 
ENDBRANCH   7   8
ENDBRANCH   6   7
BRANCH   6  10
ATOM     10  N   UNL A   1      42.715  22.331  25.756  1.00  0.00    -0.215 N 
ATOM     11  N   UNL A   1      41.328  22.324  25.831  1.00  0.00    -0.169 NA
ATOM     12  C   UNL A   1      43.479  21.187  25.956  1.00  0.00     0.267 A 
ATOM     13  C   UNL A   1      40.726  21.197  26.071  1.00  0.00     0.084 A 
ATOM     14  C   UNL A   1      42.747  19.931  26.186  1.00  0.00     0.075 A 
ATOM     15  O   UNL A   1      44.703  21.129  25.964  1.00  0.00    -0.268 OA
ATOM     16  C   UNL A   1      41.419  19.911  26.265  1.00  0.00     0.036 A 
BRANCH  13  17
ATOM     17  C   UNL A   1      39.237  21.206  26.129  1.00  0.00     0.031 C 
ATOM     18  C   UNL A   1      38.399  21.700  25.205  1.00  0.00     0.010 C 
BRANCH  18  19
ATOM     19  C   UNL A   1      36.945  21.778  25.401  1.00  0.00    -0.025 A 
ATOM     20  C   UNL A   1      36.398  22.874  26.072  1.00  0.00     0.012 A 
ATOM     21  C   UNL A   1      36.102  20.723  25.030  1.00  0.00     0.012 A 
ATOM     22  C   UNL A   1      35.029  22.918  26.352  1.00  0.00     0.047 A 
ATOM     23  C   UNL A   1      34.732  20.769  25.310  1.00  0.00     0.047 A 
ATOM     24  C   UNL A   1      34.190  21.868  25.974  1.00  0.00     0.118 A 
BRANCH  24  25
ATOM     25  O   UNL A   1      32.877  22.027  26.319  1.00  0.00    -0.497 OA
ATOM     26  C   UNL A   1      32.577  23.095  27.208  1.00  0.00     0.278 C 
ENDBRANCH  24  25
ENDBRANCH  18  19
ENDBRANCH  13  17
ENDBRANCH   6  10
ENDBRANCH   4   6
ENDBRANCH   3   4
ENDBRANCH   2   3
ENDBRANCH   1   2
BRANCH   1  27
ATOM     27  O   UNL A   1      48.223  25.795  26.982  1.00  0.00    -0.374 OA
BRANCH  27  28
ATOM     28  C   UNL A   1      48.928  24.938  27.879  1.00  0.00     0.202 C 
BRANCH  28  29
ATOM     29  C   UNL A   1      49.094  25.457  29.309  1.00  0.00     0.261 C 
BRANCH  29  30
ATOM     30  O   UNL A   1      49.815  26.698  29.346  1.00  0.00    -0.460 OA
BRANCH  30  31
ATOM     31  C   UNL A   1      49.834  27.287  30.562  1.00  0.00     0.338 C 
ATOM     32  O   UNL A   1      50.740  27.270  31.386  1.00  0.00    -0.246 OA
BRANCH  31  33
ATOM     33  C   UNL A   1      48.630  28.115  30.738  1.00  0.00     0.060 A 
ATOM     34  C   UNL A   1      47.795  27.807  31.819  1.00  0.00     0.016 A 
ATOM     35  C   UNL A   1      48.286  29.121  29.834  1.00  0.00     0.016 A 
ATOM     36  C   UNL A   1      46.579  28.467  31.968  1.00  0.00     0.010 A 
ATOM     37  C   UNL A   1      47.061  29.780  29.981  1.00  0.00     0.010 A 
ATOM     38  C   UNL A   1      46.187  29.427  31.026  1.00  0.00    -0.014 A 
BRANCH  38  39
ATOM     39  C   UNL A   1      44.801  29.949  31.059  1.00  0.00     0.031 A 
ATOM     40  C   UNL A   1      43.718  29.189  30.343  1.00  0.00     0.074 A 
ATOM     41  C   UNL A   1      44.503  31.060  31.753  1.00  0.00     0.049 A 
ATOM     42  N   UNL A   1      42.444  29.465  30.236  1.00  0.00    -0.248 NA
ATOM     43  C   UNL A   1      44.126  27.951  29.657  1.00  0.00     0.031 C 
ATOM     44  C   UNL A   1      45.455  31.856  32.527  1.00  0.00     0.029 A 
ATOM     45  N   UNL A   1      43.306  31.710  31.919  1.00  0.00    -0.354 N 
ATOM     46  C   UNL A   1      41.900  28.444  29.468  1.00  0.00     0.074 A 
ATOM     47  C   UNL A   1      42.985  27.556  29.111  1.00  0.00     0.031 C 
ATOM     48  C   UNL A   1      44.804  32.892  33.084  1.00  0.00     0.029 A 
ATOM     49  C   UNL A   1      43.400  32.849  32.679  1.00  0.00     0.049 A 
ATOM     50  H   UNL A   1      42.461  31.389  31.531  1.00  0.00     0.167 HD
ATOM     51  C   UNL A   1      40.611  28.258  29.098  1.00  0.00     0.031 A 
ATOM     52  C   UNL A   1      42.463  33.763  32.995  1.00  0.00     0.031 A 
ATOM     53  C   UNL A   1      39.534  29.145  29.446  1.00  0.00     0.049 A 
ATOM     54  C   UNL A   1      41.053  33.573  32.504  1.00  0.00     0.074 A 
ATOM     55  C   UNL A   1      38.190  29.033  29.130  1.00  0.00     0.029 A 
ATOM     56  N   UNL A   1      39.678  30.312  30.179  1.00  0.00    -0.354 N 
ATOM     57  N   UNL A   1      40.546  32.590  31.801  1.00  0.00    -0.248 NA
ATOM     58  C   UNL A   1      40.083  34.620  32.860  1.00  0.00     0.031 C 
ATOM     59  C   UNL A   1      37.531  30.163  29.627  1.00  0.00     0.029 A 
ATOM     60  C   UNL A   1      38.454  30.945  30.303  1.00  0.00     0.049 A 
ATOM     61  H   UNL A   1      40.525  30.640  30.557  1.00  0.00     0.167 HD
ATOM     62  C   UNL A   1      39.195  32.883  31.657  1.00  0.00     0.074 A 
ATOM     63  C   UNL A   1      38.960  34.128  32.357  1.00  0.00     0.031 C 
ATOM     64  C   UNL A   1      38.235  32.183  31.005  1.00  0.00     0.031 A 
BRANCH  51  65
ATOM     65  C   UNL A   1      40.299  27.061  28.244  1.00  0.00    -0.014 A 
ATOM     66  C   UNL A   1      39.607  25.955  28.760  1.00  0.00     0.009 A 
ATOM     67  C   UNL A   1      40.667  27.062  26.889  1.00  0.00     0.009 A 
ATOM     68  C   UNL A   1      39.313  24.861  27.942  1.00  0.00     0.001 A 
ATOM     69  C   UNL A   1      40.347  25.980  26.067  1.00  0.00     0.001 A 
ATOM     70  C   UNL A   1      39.677  24.878  26.596  1.00  0.00     0.000 A 
ENDBRANCH  51  65
BRANCH  52  71
ATOM     71  C   UNL A   1      42.828  34.959  33.799  1.00  0.00    -0.014 A 
ATOM     72  C   UNL A   1      43.268  36.136  33.175  1.00  0.00     0.009 A 
ATOM     73  C   UNL A   1      42.765  34.918  35.201  1.00  0.00     0.009 A 
ATOM     74  C   UNL A   1      43.666  37.236  33.940  1.00  0.00     0.001 A 
ATOM     75  C   UNL A   1      43.133  36.029  35.961  1.00  0.00     0.001 A 
ATOM     76  C   UNL A   1      43.593  37.182  35.332  1.00  0.00     0.000 A 
ENDBRANCH  52  71
BRANCH  64  77
ATOM     77  C   UNL A   1      36.834  32.726  31.051  1.00  0.00    -0.014 A 
ATOM     78  C   UNL A   1      36.335  33.552  30.033  1.00  0.00     0.009 A 
ATOM     79  C   UNL A   1      35.986  32.366  32.112  1.00  0.00     0.009 A 
ATOM     80  C   UNL A   1      35.027  34.036  30.095  1.00  0.00     0.001 A 
ATOM     81  C   UNL A   1      34.671  32.827  32.156  1.00  0.00     0.001 A 
ATOM     82  C   UNL A   1      34.194  33.668  31.152  1.00  0.00     0.000 A 
ENDBRANCH  64  77
ENDBRANCH  38  39
ENDBRANCH  31  33
ENDBRANCH  30  31
ENDBRANCH  29  30
ENDBRANCH  28  29
ENDBRANCH  27  28
ENDBRANCH   1  27
TORSDOF 20
ENDMDL
MODEL 3
REMARK VINA RESULT:      -8.9      7.682     12.548
REMARK SMILES CCC[C@@H](C(=O)OCCOCCOC(=O)c1ccc(-c2c3nc(c(-c4ccccc4)c4ccc([nH]4)c(-c4ccccc4)c4nc(c(-c5ccccc5)c5ccc2[nH]5)C=C4)C=C3)cc1)n1nc(/C=C/c2ccc(OC)cc2)ccc1=O
REMARK SMILES IDX 9 1 8 2 7 3 5 4 6 5 4 6 3 7 2 8 1 9 64 10 65 11 79 12 66 13
REMARK SMILES IDX 78 14 80 15 77 16 67 17 68 18 69 19 70 20 76 21 71 22 75 23
REMARK SMILES IDX 72 24 73 25 74 26 10 27 11 28 12 29 13 30 14 31 15 32 16 33
REMARK SMILES IDX 17 34 63 35 18 36 62 37 19 38 20 39 21 40 56 41 22 42 61 43
REMARK SMILES IDX 55 44 57 45 23 46 60 47 54 48 53 49 24 51 46 52 31 53 45 54
REMARK SMILES IDX 32 55 35 56 44 57 58 58 33 59 34 60 43 62 59 63 36 64 25 65
REMARK SMILES IDX 26 66 30 67 27 68 29 69 28 70 47 71 48 72 52 73 49 74 51 75
REMARK SMILES IDX 50 76 37 77 38 78 42 79 39 80 41 81 40 82
REMARK H PARENT 57 50 35 61
REMARK Flexibility Score: inf
ROOT
ATOM      1  C   UNL A   1      37.016  31.510  33.654  1.00  0.00     0.202 C 
ENDROOT
BRANCH   1   2
ATOM      2  C   UNL A   1      37.799  32.367  34.660  1.00  0.00     0.261 C 
BRANCH   2   3
ATOM      3  O   UNL A   1      38.967  32.892  34.010  1.00  0.00    -0.462 OA
BRANCH   3   4
ATOM      4  C   UNL A   1      40.144  32.271  34.287  1.00  0.00     0.331 C 
ATOM      5  O   UNL A   1      40.577  32.086  35.420  1.00  0.00    -0.250 OA
BRANCH   4   6
ATOM      6  C   UNL A   1      40.805  31.731  33.002  1.00  0.00     0.221 C 
BRANCH   6   7
ATOM      7  C   UNL A   1      39.998  31.784  31.683  1.00  0.00     0.039 C 
BRANCH   7   8
ATOM      8  C   UNL A   1      40.020  33.078  30.860  1.00  0.00    -0.001 C 
ATOM      9  C   UNL A   1      39.187  33.035  29.592  1.00  0.00     0.004 C 
ENDBRANCH   7   8
ENDBRANCH   6   7
BRANCH   6  10
ATOM     10  N   UNL A   1      41.368  30.365  33.200  1.00  0.00    -0.215 N 
ATOM     11  N   UNL A   1      42.661  30.197  32.725  1.00  0.00    -0.169 NA
ATOM     12  C   UNL A   1      40.566  29.295  33.577  1.00  0.00     0.267 A 
ATOM     13  C   UNL A   1      43.145  28.992  32.658  1.00  0.00     0.084 A 
ATOM     14  C   UNL A   1      41.174  27.956  33.519  1.00  0.00     0.075 A 
ATOM     15  O   UNL A   1      39.398  29.362  33.947  1.00  0.00    -0.268 OA
ATOM     16  C   UNL A   1      42.411  27.779  33.062  1.00  0.00     0.036 A 
BRANCH  13  17
ATOM     17  C   UNL A   1      44.542  28.832  32.164  1.00  0.00     0.031 C 
ATOM     18  C   UNL A   1      45.009  27.854  31.374  1.00  0.00     0.010 C 
BRANCH  18  19
ATOM     19  C   UNL A   1      46.431  27.706  31.036  1.00  0.00    -0.025 A 
ATOM     20  C   UNL A   1      46.912  26.466  30.606  1.00  0.00     0.012 A 
ATOM     21  C   UNL A   1      47.342  28.749  31.243  1.00  0.00     0.012 A 
ATOM     22  C   UNL A   1      48.278  26.282  30.373  1.00  0.00     0.047 A 
ATOM     23  C   UNL A   1      48.708  28.564  31.008  1.00  0.00     0.047 A 
ATOM     24  C   UNL A   1      49.182  27.328  30.572  1.00  0.00     0.118 A 
BRANCH  24  25
ATOM     25  O   UNL A   1      50.489  27.014  30.323  1.00  0.00    -0.497 OA
ATOM     26  C   UNL A   1      51.050  25.961  31.097  1.00  0.00     0.278 C 
ENDBRANCH  24  25
ENDBRANCH  18  19
ENDBRANCH  13  17
ENDBRANCH   6  10
ENDBRANCH   4   6
ENDBRANCH   3   4
ENDBRANCH   2   3
ENDBRANCH   1   2
BRANCH   1  27
ATOM     27  O   UNL A   1      35.899  32.134  33.012  1.00  0.00    -0.374 OA
BRANCH  27  28
ATOM     28  C   UNL A   1      36.156  32.811  31.783  1.00  0.00     0.202 C 
BRANCH  28  29
ATOM     29  C   UNL A   1      35.433  32.261  30.551  1.00  0.00     0.261 C 
BRANCH  29  30
ATOM     30  O   UNL A   1      36.276  31.385  29.786  1.00  0.00    -0.460 OA
BRANCH  30  31
ATOM     31  C   UNL A   1      36.372  30.135  30.291  1.00  0.00     0.338 C 
ATOM     32  O   UNL A   1      35.558  29.549  30.994  1.00  0.00    -0.246 OA
BRANCH  31  33
ATOM     33  C   UNL A   1      37.567  29.467  29.753  1.00  0.00     0.060 A 
ATOM     34  C   UNL A   1      38.384  28.786  30.665  1.00  0.00     0.016 A 
ATOM     35  C   UNL A   1      37.924  29.559  28.407  1.00  0.00     0.016 A 
ATOM     36  C   UNL A   1      39.593  28.243  30.245  1.00  0.00     0.010 A 
ATOM     37  C   UNL A   1      39.144  29.017  27.987  1.00  0.00     0.010 A 
ATOM     38  C   UNL A   1      39.998  28.392  28.912  1.00  0.00    -0.014 A 
BRANCH  38  39
ATOM     39  C   UNL A   1      41.381  28.021  28.531  1.00  0.00     0.031 A 
ATOM     40  C   UNL A   1      42.456  29.073  28.573  1.00  0.00     0.074 A 
ATOM     41  C   UNL A   1      41.684  26.755  28.195  1.00  0.00     0.049 A 
ATOM     42  N   UNL A   1      43.726  28.971  28.276  1.00  0.00    -0.248 NA
ATOM     43  C   UNL A   1      42.045  30.418  29.008  1.00  0.00     0.031 C 
ATOM     44  C   UNL A   1      40.741  25.639  28.164  1.00  0.00     0.029 A 
ATOM     45  N   UNL A   1      42.879  26.199  27.816  1.00  0.00    -0.354 N 
ATOM     46  C   UNL A   1      44.263  30.235  28.481  1.00  0.00     0.074 A 
ATOM     47  C   UNL A   1      43.179  31.095  28.900  1.00  0.00     0.031 C 
ATOM     48  C   UNL A   1      41.395  24.528  27.783  1.00  0.00     0.029 A 
ATOM     49  C   UNL A   1      42.791  24.864  27.511  1.00  0.00     0.049 A 
ATOM     50  H   UNL A   1      43.720  26.709  27.767  1.00  0.00     0.167 HD
ATOM     51  C   UNL A   1      45.547  30.643  28.340  1.00  0.00     0.031 A 
ATOM     52  C   UNL A   1      43.727  24.014  27.047  1.00  0.00     0.031 A 
ATOM     53  C   UNL A   1      46.624  29.790  27.915  1.00  0.00     0.049 A 
ATOM     54  C   UNL A   1      45.130  24.513  26.823  1.00  0.00     0.074 A 
ATOM     55  C   UNL A   1      47.963  30.107  27.756  1.00  0.00     0.029 A 
ATOM     56  N   UNL A   1      46.485  28.454  27.573  1.00  0.00    -0.354 N 
ATOM     57  N   UNL A   1      45.631  25.704  27.046  1.00  0.00    -0.248 NA
ATOM     58  C   UNL A   1      46.098  23.544  26.289  1.00  0.00     0.031 C 
ATOM     59  C   UNL A   1      48.622  28.976  27.264  1.00  0.00     0.029 A 
ATOM     60  C   UNL A   1      47.706  27.940  27.176  1.00  0.00     0.049 A 
ATOM     61  H   UNL A   1      45.642  27.947  27.609  1.00  0.00     0.167 HD
ATOM     62  C   UNL A   1      46.976  25.619  26.710  1.00  0.00     0.074 A 
ATOM     63  C   UNL A   1      47.216  24.257  26.281  1.00  0.00     0.031 C 
ATOM     64  C   UNL A   1      47.929  26.581  26.754  1.00  0.00     0.031 A 
BRANCH  51  65
ATOM     65  C   UNL A   1      45.851  32.088  28.618  1.00  0.00    -0.014 A 
ATOM     66  C   UNL A   1      46.080  33.000  27.576  1.00  0.00     0.009 A 
ATOM     67  C   UNL A   1      45.865  32.551  29.943  1.00  0.00     0.009 A 
ATOM     68  C   UNL A   1      46.342  34.343  27.858  1.00  0.00     0.001 A 
ATOM     69  C   UNL A   1      46.101  33.899  30.221  1.00  0.00     0.001 A 
ATOM     70  C   UNL A   1      46.346  34.792  29.179  1.00  0.00     0.000 A 
ENDBRANCH  51  65
BRANCH  52  71
ATOM     71  C   UNL A   1      43.369  22.605  26.736  1.00  0.00    -0.014 A 
ATOM     72  C   UNL A   1      43.747  22.020  25.518  1.00  0.00     0.009 A 
ATOM     73  C   UNL A   1      42.618  21.847  27.648  1.00  0.00     0.009 A 
ATOM     74  C   UNL A   1      43.355  20.715  25.208  1.00  0.00     0.001 A 
ATOM     75  C   UNL A   1      42.254  20.532  27.349  1.00  0.00     0.001 A 
ATOM     76  C   UNL A   1      42.613  19.972  26.126  1.00  0.00     0.000 A 
ENDBRANCH  52  71
BRANCH  64  77
ATOM     77  C   UNL A   1      49.327  26.186  26.367  1.00  0.00    -0.014 A 
ATOM     78  C   UNL A   1      50.203  25.596  27.290  1.00  0.00     0.009 A 
ATOM     79  C   UNL A   1      49.756  26.370  25.042  1.00  0.00     0.009 A 
ATOM     80  C   UNL A   1      51.494  25.230  26.903  1.00  0.00     0.001 A 
ATOM     81  C   UNL A   1      51.036  25.976  24.651  1.00  0.00     0.001 A 
ATOM     82  C   UNL A   1      51.907  25.414  25.583  1.00  0.00     0.000 A 
ENDBRANCH  64  77
ENDBRANCH  38  39
ENDBRANCH  31  33
ENDBRANCH  30  31
ENDBRANCH  29  30
ENDBRANCH  28  29
ENDBRANCH  27  28
ENDBRANCH   1  27
TORSDOF 20
ENDMDL
