MODEL 1
REMARK VINA RESULT:     -11.8      0.000      0.000
REMARK SMILES NS(=O)(=O)c1ccc(-n2nc(C(F)F)cc2-c2ccc(C(=O)OCCOCCOC(=O)c3ccc(-c4c5nc(c(-c6ccccc6)c6ccc([nH]6)c(-c6ccccc6)c6nc(c(-c7ccccc7)c7ccc4[nH]7)C=C6)C=C5)cc3)cc2)cc1
REMARK SMILES IDX 25 1 24 2 23 3 21 4 22 5 20 6 17 7 18 8 81 9 19 10 80 11
REMARK SMILES IDX 16 12 9 13 10 14 11 15 15 16 8 17 5 18 6 19 83 20 7 21 82 22
REMARK SMILES IDX 2 23 3 24 4 25 1 26 12 29 13 30 14 31 26 32 27 33 28 34
REMARK SMILES IDX 29 35 30 36 31 37 32 38 33 39 79 40 34 41 78 42 35 43 36 44
REMARK SMILES IDX 37 45 72 46 38 47 77 48 71 49 73 50 39 51 76 52 70 53 69 54
REMARK SMILES IDX 40 56 62 57 47 58 61 59 48 60 51 61 60 62 74 63 49 64 50 65
REMARK SMILES IDX 59 67 75 68 52 69 41 70 42 71 46 72 43 73 45 74 44 75 63 76
REMARK SMILES IDX 64 77 68 78 65 79 67 80 66 81 53 82 54 83 58 84 55 85 57 86
REMARK SMILES IDX 56 87
REMARK H PARENT 1 27 1 28 73 55 51 66
REMARK Flexibility Score: inf
ROOT
ATOM      1  C   UNL A   1      32.581  33.121  27.417  1.00  0.00     0.202 C 
ENDROOT
BRANCH   1   2
ATOM      2  C   UNL A   1      33.519  31.995  27.852  1.00  0.00     0.261 C 
BRANCH   2   3
ATOM      3  O   UNL A   1      33.155  30.717  27.307  1.00  0.00    -0.460 OA
BRANCH   3   4
ATOM      4  C   UNL A   1      34.055  29.737  27.563  1.00  0.00     0.338 C 
ATOM      5  O   UNL A   1      35.030  29.808  28.291  1.00  0.00    -0.246 OA
BRANCH   4   6
ATOM      6  C   UNL A   1      33.616  28.460  26.965  1.00  0.00     0.060 A 
ATOM      7  C   UNL A   1      32.803  26.200  25.543  1.00  0.00     0.000 A 
ATOM      8  C   UNL A   1      34.095  26.714  25.367  1.00  0.00     0.011 A 
ATOM      9  C   UNL A   1      31.945  26.788  26.484  1.00  0.00     0.011 A 
ATOM     10  C   UNL A   1      34.498  27.843  26.070  1.00  0.00     0.016 A 
ATOM     11  C   UNL A   1      32.355  27.912  27.208  1.00  0.00     0.016 A 
BRANCH   7  12
ATOM     12  C   UNL A   1      32.329  25.135  24.665  1.00  0.00     0.075 A 
ATOM     13  N   UNL A   1      31.184  25.176  23.879  1.00  0.00    -0.233 N 
ATOM     14  N   UNL A   1      30.806  23.936  23.477  1.00  0.00    -0.166 NA
ATOM     15  C   UNL A   1      31.830  23.134  23.819  1.00  0.00     0.129 A 
ATOM     16  C   UNL A   1      32.787  23.835  24.587  1.00  0.00     0.060 A 
BRANCH  13  17
ATOM     17  C   UNL A   1      30.447  26.323  23.481  1.00  0.00     0.065 A 
ATOM     18  C   UNL A   1      29.040  28.612  22.758  1.00  0.00     0.082 A 
ATOM     19  C   UNL A   1      30.344  28.431  22.292  1.00  0.00     0.024 A 
ATOM     20  C   UNL A   1      28.427  27.649  23.568  1.00  0.00     0.024 A 
ATOM     21  C   UNL A   1      31.053  27.291  22.666  1.00  0.00     0.030 A 
ATOM     22  C   UNL A   1      29.123  26.483  23.905  1.00  0.00     0.030 A 
BRANCH  18  23
ATOM     23  S   UNL A   1      28.160  30.088  22.343  1.00  0.00     0.238 S 
ATOM     24  O   UNL A   1      27.018  30.219  23.210  1.00  0.00    -0.207 OA
ATOM     25  O   UNL A   1      28.074  30.177  20.901  1.00  0.00    -0.207 OA
BRANCH  23  26
ATOM     26  N   UNL A   1      29.212  31.316  22.819  1.00  0.00    -0.225 NA
ATOM     27  H   UNL A   1      30.175  30.990  22.739  1.00  0.00     0.137 HD
ATOM     28  H   UNL A   1      29.019  31.574  23.787  1.00  0.00     0.137 HD
ENDBRANCH  23  26
ENDBRANCH  18  23
ENDBRANCH  13  17
BRANCH  15  29
ATOM     29  C   UNL A   1      31.895  21.683  23.443  1.00  0.00     0.393 C 
ATOM     30  F   UNL A   1      31.790  21.482  22.103  1.00  0.00    -0.203 F 
ATOM     31  F   UNL A   1      33.072  21.120  23.835  1.00  0.00    -0.203 F 
ENDBRANCH  15  29
ENDBRANCH   7  12
ENDBRANCH   4   6
ENDBRANCH   3   4
ENDBRANCH   2   3
ENDBRANCH   1   2
BRANCH   1  32
ATOM     32  O   UNL A   1      32.414  34.252  28.271  1.00  0.00    -0.374 OA
BRANCH  32  33
ATOM     33  C   UNL A   1      33.538  35.020  28.683  1.00  0.00     0.202 C 
BRANCH  33  34
ATOM     34  C   UNL A   1      33.512  35.665  30.059  1.00  0.00     0.261 C 
BRANCH  34  35
ATOM     35  O   UNL A   1      32.897  34.828  31.025  1.00  0.00    -0.460 OA
BRANCH  35  36
ATOM     36  C   UNL A   1      32.993  35.291  32.292  1.00  0.00     0.338 C 
ATOM     37  O   UNL A   1      32.373  36.211  32.796  1.00  0.00    -0.246 OA
BRANCH  36  38
ATOM     38  C   UNL A   1      34.124  34.619  32.938  1.00  0.00     0.060 A 
ATOM     39  C   UNL A   1      35.258  35.408  33.145  1.00  0.00     0.016 A 
ATOM     40  C   UNL A   1      34.177  33.219  32.907  1.00  0.00     0.016 A 
ATOM     41  C   UNL A   1      36.485  34.806  33.009  1.00  0.00     0.010 A 
ATOM     42  C   UNL A   1      35.399  32.627  32.742  1.00  0.00     0.010 A 
ATOM     43  C   UNL A   1      36.522  33.447  32.684  1.00  0.00    -0.014 A 
BRANCH  43  44
ATOM     44  C   UNL A   1      37.799  32.843  32.395  1.00  0.00     0.031 A 
ATOM     45  C   UNL A   1      38.638  32.788  33.608  1.00  0.00     0.074 A 
ATOM     46  C   UNL A   1      38.095  32.295  31.204  1.00  0.00     0.049 A 
ATOM     47  N   UNL A   1      39.600  33.586  33.924  1.00  0.00    -0.248 NA
ATOM     48  C   UNL A   1      38.175  31.925  34.710  1.00  0.00     0.031 C 
ATOM     49  C   UNL A   1      37.208  32.042  30.064  1.00  0.00     0.029 A 
ATOM     50  N   UNL A   1      39.265  31.745  30.797  1.00  0.00    -0.354 N 
ATOM     51  C   UNL A   1      40.020  33.150  35.173  1.00  0.00     0.074 A 
ATOM     52  C   UNL A   1      38.943  32.359  35.707  1.00  0.00     0.031 C 
ATOM     53  C   UNL A   1      37.811  31.176  29.212  1.00  0.00     0.029 A 
ATOM     54  C   UNL A   1      39.168  30.932  29.674  1.00  0.00     0.049 A 
ATOM     55  H   UNL A   1      40.117  31.908  31.261  1.00  0.00     0.167 HD
ATOM     56  C   UNL A   1      41.341  33.138  35.496  1.00  0.00     0.031 A 
ATOM     57  C   UNL A   1      40.125  30.079  29.227  1.00  0.00     0.031 A 
ATOM     58  C   UNL A   1      42.108  33.952  34.587  1.00  0.00     0.049 A 
ATOM     59  C   UNL A   1      41.403  30.490  29.858  1.00  0.00     0.074 A 
ATOM     60  C   UNL A   1      42.127  35.286  34.238  1.00  0.00     0.029 A 
ATOM     61  N   UNL A   1      42.747  33.275  33.575  1.00  0.00    -0.354 N 
ATOM     62  N   UNL A   1      42.001  31.618  29.603  1.00  0.00    -0.248 NA
ATOM     63  C   UNL A   1      41.772  29.858  31.116  1.00  0.00     0.031 C 
ATOM     64  C   UNL A   1      42.408  35.302  32.840  1.00  0.00     0.029 A 
ATOM     65  C   UNL A   1      42.619  33.988  32.414  1.00  0.00     0.049 A 
ATOM     66  H   UNL A   1      43.219  32.417  33.670  1.00  0.00     0.167 HD
ATOM     67  C   UNL A   1      42.473  32.054  30.833  1.00  0.00     0.074 A 
ATOM     68  C   UNL A   1      42.392  30.884  31.707  1.00  0.00     0.031 C 
ATOM     69  C   UNL A   1      42.601  33.389  31.096  1.00  0.00     0.031 A 
BRANCH  56  70
ATOM     70  C   UNL A   1      41.973  32.004  36.273  1.00  0.00    -0.014 A 
ATOM     71  C   UNL A   1      42.756  32.323  37.393  1.00  0.00     0.009 A 
ATOM     72  C   UNL A   1      42.072  30.680  35.794  1.00  0.00     0.009 A 
ATOM     73  C   UNL A   1      43.643  31.393  37.949  1.00  0.00     0.001 A 
ATOM     74  C   UNL A   1      42.924  29.737  36.371  1.00  0.00     0.001 A 
ATOM     75  C   UNL A   1      43.732  30.104  37.432  1.00  0.00     0.000 A 
ENDBRANCH  56  70
BRANCH  57  76
ATOM     76  C   UNL A   1      39.968  28.740  28.608  1.00  0.00    -0.014 A 
ATOM     77  C   UNL A   1      40.671  28.402  27.438  1.00  0.00     0.009 A 
ATOM     78  C   UNL A   1      39.367  27.692  29.329  1.00  0.00     0.009 A 
ATOM     79  C   UNL A   1      40.804  27.066  27.031  1.00  0.00     0.001 A 
ATOM     80  C   UNL A   1      39.498  26.358  28.923  1.00  0.00     0.001 A 
ATOM     81  C   UNL A   1      40.229  26.044  27.783  1.00  0.00     0.000 A 
ENDBRANCH  57  76
BRANCH  69  82
ATOM     82  C   UNL A   1      42.507  34.349  29.936  1.00  0.00    -0.014 A 
ATOM     83  C   UNL A   1      43.607  34.737  29.150  1.00  0.00     0.009 A 
ATOM     84  C   UNL A   1      41.223  34.736  29.526  1.00  0.00     0.009 A 
ATOM     85  C   UNL A   1      43.419  35.498  27.990  1.00  0.00     0.001 A 
ATOM     86  C   UNL A   1      41.035  35.477  28.358  1.00  0.00     0.001 A 
ATOM     87  C   UNL A   1      42.132  35.859  27.592  1.00  0.00     0.000 A 
ENDBRANCH  69  82
ENDBRANCH  43  44
ENDBRANCH  36  38
ENDBRANCH  35  36
ENDBRANCH  34  35
ENDBRANCH  33  34
ENDBRANCH  32  33
ENDBRANCH   1  32
TORSDOF 19
ENDMDL
MODEL 2
REMARK VINA RESULT:     -11.2      4.423      6.593
REMARK SMILES NS(=O)(=O)c1ccc(-n2nc(C(F)F)cc2-c2ccc(C(=O)OCCOCCOC(=O)c3ccc(-c4c5nc(c(-c6ccccc6)c6ccc([nH]6)c(-c6ccccc6)c6nc(c(-c7ccccc7)c7ccc4[nH]7)C=C6)C=C5)cc3)cc2)cc1
REMARK SMILES IDX 25 1 24 2 23 3 21 4 22 5 20 6 17 7 18 8 81 9 19 10 80 11
REMARK SMILES IDX 16 12 9 13 10 14 11 15 15 16 8 17 5 18 6 19 83 20 7 21 82 22
REMARK SMILES IDX 2 23 3 24 4 25 1 26 12 29 13 30 14 31 26 32 27 33 28 34
REMARK SMILES IDX 29 35 30 36 31 37 32 38 33 39 79 40 34 41 78 42 35 43 36 44
REMARK SMILES IDX 37 45 72 46 38 47 77 48 71 49 73 50 39 51 76 52 70 53 69 54
REMARK SMILES IDX 40 56 62 57 47 58 61 59 48 60 51 61 60 62 74 63 49 64 50 65
REMARK SMILES IDX 59 67 75 68 52 69 41 70 42 71 46 72 43 73 45 74 44 75 63 76
REMARK SMILES IDX 64 77 68 78 65 79 67 80 66 81 53 82 54 83 58 84 55 85 57 86
REMARK SMILES IDX 56 87
REMARK H PARENT 1 27 1 28 73 55 51 66
REMARK Flexibility Score: inf
ROOT
ATOM      1  C   UNL A   1      32.029  28.449  24.576  1.00  0.00     0.202 C 
ENDROOT
BRANCH   1   2
ATOM      2  C   UNL A   1      31.151  27.431  23.847  1.00  0.00     0.261 C 
BRANCH   2   3
ATOM      3  O   UNL A   1      30.886  26.255  24.628  1.00  0.00    -0.460 OA
BRANCH   3   4
ATOM      4  C   UNL A   1      31.274  25.103  24.030  1.00  0.00     0.338 C 
ATOM      5  O   UNL A   1      30.658  24.470  23.188  1.00  0.00    -0.246 OA
BRANCH   4   6
ATOM      6  C   UNL A   1      32.662  24.765  24.404  1.00  0.00     0.060 A 
ATOM      7  C   UNL A   1      35.226  23.827  24.983  1.00  0.00     0.000 A 
ATOM      8  C   UNL A   1      34.813  23.965  23.651  1.00  0.00     0.011 A 
ATOM      9  C   UNL A   1      34.369  24.224  26.019  1.00  0.00     0.011 A 
ATOM     10  C   UNL A   1      33.534  24.426  23.362  1.00  0.00     0.016 A 
ATOM     11  C   UNL A   1      33.089  24.707  25.732  1.00  0.00     0.016 A 
BRANCH   7  12
ATOM     12  C   UNL A   1      36.495  23.167  25.275  1.00  0.00     0.075 A 
ATOM     13  N   UNL A   1      36.677  21.803  25.470  1.00  0.00    -0.233 N 
ATOM     14  N   UNL A   1      37.858  21.537  26.083  1.00  0.00    -0.166 NA
ATOM     15  C   UNL A   1      38.522  22.707  26.079  1.00  0.00     0.129 A 
ATOM     16  C   UNL A   1      37.697  23.754  25.610  1.00  0.00     0.060 A 
BRANCH  13  17
ATOM     17  C   UNL A   1      35.805  20.750  25.091  1.00  0.00     0.065 A 
ATOM     18  C   UNL A   1      34.075  18.674  24.424  1.00  0.00     0.082 A 
ATOM     19  C   UNL A   1      33.562  19.955  24.632  1.00  0.00     0.024 A 
ATOM     20  C   UNL A   1      35.448  18.424  24.529  1.00  0.00     0.024 A 
ATOM     21  C   UNL A   1      34.427  20.991  24.981  1.00  0.00     0.030 A 
ATOM     22  C   UNL A   1      36.322  19.474  24.832  1.00  0.00     0.030 A 
BRANCH  18  23
ATOM     23  S   UNL A   1      32.975  17.342  24.050  1.00  0.00     0.238 S 
ATOM     24  O   UNL A   1      31.866  17.371  24.969  1.00  0.00    -0.207 OA
ATOM     25  O   UNL A   1      33.764  16.155  23.799  1.00  0.00    -0.207 OA
BRANCH  23  26
ATOM     26  N   UNL A   1      32.319  17.783  22.561  1.00  0.00    -0.225 NA
ATOM     27  H   UNL A   1      32.888  17.392  21.810  1.00  0.00     0.137 HD
ATOM     28  H   UNL A   1      32.305  18.800  22.484  1.00  0.00     0.137 HD
ENDBRANCH  23  26
ENDBRANCH  18  23
ENDBRANCH  13  17
BRANCH  15  29
ATOM     29  C   UNL A   1      39.941  22.846  26.547  1.00  0.00     0.393 C 
ATOM     30  F   UNL A   1      40.069  23.714  27.585  1.00  0.00    -0.203 F 
ATOM     31  F   UNL A   1      40.445  21.653  26.966  1.00  0.00    -0.203 F 
ENDBRANCH  15  29
ENDBRANCH   7  12
ENDBRANCH   4   6
ENDBRANCH   3   4
ENDBRANCH   2   3
ENDBRANCH   1   2
BRANCH   1  32
ATOM     32  O   UNL A   1      31.649  28.881  25.881  1.00  0.00    -0.374 OA
BRANCH  32  33
ATOM     33  C   UNL A   1      32.633  29.101  26.886  1.00  0.00     0.202 C 
BRANCH  33  34
ATOM     34  C   UNL A   1      33.374  30.428  26.898  1.00  0.00     0.261 C 
BRANCH  34  35
ATOM     35  O   UNL A   1      34.745  30.266  27.225  1.00  0.00    -0.460 OA
BRANCH  35  36
ATOM     36  C   UNL A   1      35.300  31.352  27.810  1.00  0.00     0.338 C 
ATOM     37  O   UNL A   1      35.181  32.518  27.478  1.00  0.00    -0.246 OA
BRANCH  36  38
ATOM     38  C   UNL A   1      36.248  30.886  28.826  1.00  0.00     0.060 A 
ATOM     39  C   UNL A   1      37.342  31.722  29.061  1.00  0.00     0.016 A 
ATOM     40  C   UNL A   1      36.254  29.525  29.162  1.00  0.00     0.016 A 
ATOM     41  C   UNL A   1      38.548  31.127  29.341  1.00  0.00     0.010 A 
ATOM     42  C   UNL A   1      37.461  28.933  29.411  1.00  0.00     0.010 A 
ATOM     43  C   UNL A   1      38.601  29.730  29.385  1.00  0.00    -0.014 A 
BRANCH  43  44
ATOM     44  C   UNL A   1      39.887  29.095  29.532  1.00  0.00     0.031 A 
ATOM     45  C   UNL A   1      40.286  29.045  30.952  1.00  0.00     0.074 A 
ATOM     46  C   UNL A   1      40.539  28.521  28.506  1.00  0.00     0.049 A 
ATOM     47  N   UNL A   1      41.114  29.828  31.556  1.00  0.00    -0.248 NA
ATOM     48  C   UNL A   1      39.469  28.211  31.853  1.00  0.00     0.031 C 
ATOM     49  C   UNL A   1      40.064  28.266  27.143  1.00  0.00     0.029 A 
ATOM     50  N   UNL A   1      41.764  27.939  28.507  1.00  0.00    -0.354 N 
ATOM     51  C   UNL A   1      41.095  29.406  32.878  1.00  0.00     0.074 A 
ATOM     52  C   UNL A   1      39.884  28.647  33.041  1.00  0.00     0.031 C 
ATOM     53  C   UNL A   1      40.889  27.374  26.542  1.00  0.00     0.029 A 
ATOM     54  C   UNL A   1      42.015  27.110  27.422  1.00  0.00     0.049 A 
ATOM     55  H   UNL A   1      42.424  28.093  29.221  1.00  0.00     0.167 HD
ATOM     56  C   UNL A   1      42.239  29.372  33.612  1.00  0.00     0.031 A 
ATOM     57  C   UNL A   1      43.044  26.229  27.317  1.00  0.00     0.031 A 
ATOM     58  C   UNL A   1      43.279  30.154  32.992  1.00  0.00     0.049 A 
ATOM     59  C   UNL A   1      44.059  26.624  28.325  1.00  0.00     0.074 A 
ATOM     60  C   UNL A   1      43.445  31.481  32.655  1.00  0.00     0.029 A 
ATOM     61  N   UNL A   1      44.195  29.447  32.249  1.00  0.00    -0.354 N 
ATOM     62  N   UNL A   1      44.736  27.735  28.267  1.00  0.00    -0.248 NA
ATOM     63  C   UNL A   1      43.984  26.008  29.641  1.00  0.00     0.031 C 
ATOM     64  C   UNL A   1      44.164  31.466  31.424  1.00  0.00     0.029 A 
ATOM     65  C   UNL A   1      44.468  30.141  31.103  1.00  0.00     0.049 A 
ATOM     66  H   UNL A   1      44.589  28.581  32.501  1.00  0.00     0.167 HD
ATOM     67  C   UNL A   1      44.794  28.184  29.579  1.00  0.00     0.074 A 
ATOM     68  C   UNL A   1      44.405  27.031  30.390  1.00  0.00     0.031 C 
ATOM     69  C   UNL A   1      44.863  29.520  29.856  1.00  0.00     0.031 A 
BRANCH  56  70
ATOM     70  C   UNL A   1      42.556  28.239  34.563  1.00  0.00    -0.014 A 
ATOM     71  C   UNL A   1      42.982  27.017  34.018  1.00  0.00     0.009 A 
ATOM     72  C   UNL A   1      42.183  28.224  35.924  1.00  0.00     0.009 A 
ATOM     73  C   UNL A   1      42.959  25.838  34.773  1.00  0.00     0.001 A 
ATOM     74  C   UNL A   1      42.199  27.059  36.692  1.00  0.00     0.001 A 
ATOM     75  C   UNL A   1      42.560  25.858  36.106  1.00  0.00     0.000 A 
ENDBRANCH  56  70
BRANCH  57  76
ATOM     76  C   UNL A   1      43.063  24.883  26.695  1.00  0.00    -0.014 A 
ATOM     77  C   UNL A   1      43.104  24.739  25.296  1.00  0.00     0.009 A 
ATOM     78  C   UNL A   1      43.347  23.746  27.472  1.00  0.00     0.009 A 
ATOM     79  C   UNL A   1      43.458  23.518  24.703  1.00  0.00     0.001 A 
ATOM     80  C   UNL A   1      43.699  22.526  26.880  1.00  0.00     0.001 A 
ATOM     81  C   UNL A   1      43.769  22.417  25.496  1.00  0.00     0.000 A 
ENDBRANCH  57  76
BRANCH  69  82
ATOM     82  C   UNL A   1      45.174  30.461  28.719  1.00  0.00    -0.014 A 
ATOM     83  C   UNL A   1      44.214  30.925  27.802  1.00  0.00     0.009 A 
ATOM     84  C   UNL A   1      46.458  31.026  28.686  1.00  0.00     0.009 A 
ATOM     85  C   UNL A   1      44.539  31.924  26.876  1.00  0.00     0.001 A 
ATOM     86  C   UNL A   1      46.774  32.037  27.777  1.00  0.00     0.001 A 
ATOM     87  C   UNL A   1      45.816  32.484  26.872  1.00  0.00     0.000 A 
ENDBRANCH  69  82
ENDBRANCH  43  44
ENDBRANCH  36  38
ENDBRANCH  35  36
ENDBRANCH  34  35
ENDBRANCH  33  34
ENDBRANCH  32  33
ENDBRANCH   1  32
TORSDOF 19
ENDMDL
MODEL 3
REMARK VINA RESULT:     -11.1      3.749      8.336
REMARK SMILES NS(=O)(=O)c1ccc(-n2nc(C(F)F)cc2-c2ccc(C(=O)OCCOCCOC(=O)c3ccc(-c4c5nc(c(-c6ccccc6)c6ccc([nH]6)c(-c6ccccc6)c6nc(c(-c7ccccc7)c7ccc4[nH]7)C=C6)C=C5)cc3)cc2)cc1
REMARK SMILES IDX 25 1 24 2 23 3 21 4 22 5 20 6 17 7 18 8 81 9 19 10 80 11
REMARK SMILES IDX 16 12 9 13 10 14 11 15 15 16 8 17 5 18 6 19 83 20 7 21 82 22
REMARK SMILES IDX 2 23 3 24 4 25 1 26 12 29 13 30 14 31 26 32 27 33 28 34
REMARK SMILES IDX 29 35 30 36 31 37 32 38 33 39 79 40 34 41 78 42 35 43 36 44
REMARK SMILES IDX 37 45 72 46 38 47 77 48 71 49 73 50 39 51 76 52 70 53 69 54
REMARK SMILES IDX 40 56 62 57 47 58 61 59 48 60 51 61 60 62 74 63 49 64 50 65
REMARK SMILES IDX 59 67 75 68 52 69 41 70 42 71 46 72 43 73 45 74 44 75 63 76
REMARK SMILES IDX 64 77 68 78 65 79 67 80 66 81 53 82 54 83 58 84 55 85 57 86
REMARK SMILES IDX 56 87
REMARK H PARENT 1 27 1 28 73 55 51 66
REMARK Flexibility Score: inf
ROOT
ATOM      1  C   UNL A   1      34.312  21.421  24.937  1.00  0.00     0.202 C 
ENDROOT
BRANCH   1   2
ATOM      2  C   UNL A   1      33.044  21.541  24.090  1.00  0.00     0.261 C 
BRANCH   2   3
ATOM      3  O   UNL A   1      31.980  22.231  24.766  1.00  0.00    -0.460 OA
BRANCH   3   4
ATOM      4  C   UNL A   1      31.573  23.358  24.135  1.00  0.00     0.338 C 
ATOM      5  O   UNL A   1      30.757  23.440  23.232  1.00  0.00    -0.246 OA
BRANCH   4   6
ATOM      6  C   UNL A   1      32.127  24.555  24.800  1.00  0.00     0.060 A 
ATOM      7  C   UNL A   1      32.895  26.971  25.968  1.00  0.00     0.000 A 
ATOM      8  C   UNL A   1      31.794  26.265  26.472  1.00  0.00     0.011 A 
ATOM      9  C   UNL A   1      33.646  26.425  24.916  1.00  0.00     0.011 A 
ATOM     10  C   UNL A   1      31.408  25.066  25.887  1.00  0.00     0.016 A 
ATOM     11  C   UNL A   1      33.271  25.208  24.338  1.00  0.00     0.016 A 
BRANCH   7  12
ATOM     12  C   UNL A   1      33.175  28.314  26.465  1.00  0.00     0.075 A 
ATOM     13  N   UNL A   1      32.671  29.498  25.940  1.00  0.00    -0.233 N 
ATOM     14  N   UNL A   1      33.385  30.575  26.355  1.00  0.00    -0.166 NA
ATOM     15  C   UNL A   1      34.201  30.101  27.313  1.00  0.00     0.129 A 
ATOM     16  C   UNL A   1      34.122  28.693  27.393  1.00  0.00     0.060 A 
BRANCH  13  17
ATOM     17  C   UNL A   1      31.546  29.659  25.088  1.00  0.00     0.065 A 
ATOM     18  C   UNL A   1      29.294  29.958  23.481  1.00  0.00     0.082 A 
ATOM     19  C   UNL A   1      29.725  31.029  24.266  1.00  0.00     0.024 A 
ATOM     20  C   UNL A   1      29.991  28.743  23.479  1.00  0.00     0.024 A 
ATOM     21  C   UNL A   1      30.844  30.874  25.082  1.00  0.00     0.030 A 
ATOM     22  C   UNL A   1      31.141  28.603  24.262  1.00  0.00     0.030 A 
BRANCH  18  23
ATOM     23  S   UNL A   1      27.835  30.126  22.497  1.00  0.00     0.238 S 
ATOM     24  O   UNL A   1      28.169  29.907  21.113  1.00  0.00    -0.207 OA
ATOM     25  O   UNL A   1      27.104  31.286  22.961  1.00  0.00    -0.207 OA
BRANCH  23  26
ATOM     26  N   UNL A   1      26.909  28.790  22.940  1.00  0.00    -0.225 NA
ATOM     27  H   UNL A   1      26.433  28.982  23.821  1.00  0.00     0.137 HD
ATOM     28  H   UNL A   1      27.516  27.977  23.051  1.00  0.00     0.137 HD
ENDBRANCH  23  26
ENDBRANCH  18  23
ENDBRANCH  13  17
BRANCH  15  29
ATOM     29  C   UNL A   1      35.086  30.982  28.145  1.00  0.00     0.393 C 
ATOM     30  F   UNL A   1      34.453  32.104  28.579  1.00  0.00    -0.203 F 
ATOM     31  F   UNL A   1      35.537  30.331  29.252  1.00  0.00    -0.203 F 
ENDBRANCH  15  29
ENDBRANCH   7  12
ENDBRANCH   4   6
ENDBRANCH   3   4
ENDBRANCH   2   3
ENDBRANCH   1   2
BRANCH   1  32
ATOM     32  O   UNL A   1      35.557  21.842  24.383  1.00  0.00    -0.374 OA
BRANCH  32  33
ATOM     33  C   UNL A   1      36.397  22.743  25.094  1.00  0.00     0.202 C 
BRANCH  33  34
ATOM     34  C   UNL A   1      37.718  22.225  25.641  1.00  0.00     0.261 C 
BRANCH  34  35
ATOM     35  O   UNL A   1      38.410  23.217  26.383  1.00  0.00    -0.460 OA
BRANCH  35  36
ATOM     36  C   UNL A   1      39.631  22.827  26.811  1.00  0.00     0.338 C 
ATOM     37  O   UNL A   1      39.967  21.720  27.194  1.00  0.00    -0.246 OA
BRANCH  36  38
ATOM     38  C   UNL A   1      40.476  24.020  26.924  1.00  0.00     0.060 A 
ATOM     39  C   UNL A   1      41.364  24.032  28.002  1.00  0.00     0.016 A 
ATOM     40  C   UNL A   1      40.071  25.191  26.269  1.00  0.00     0.016 A 
ATOM     41  C   UNL A   1      41.599  25.236  28.619  1.00  0.00     0.010 A 
ATOM     42  C   UNL A   1      40.282  26.385  26.903  1.00  0.00     0.010 A 
ATOM     43  C   UNL A   1      40.947  26.370  28.125  1.00  0.00    -0.014 A 
BRANCH  43  44
ATOM     44  C   UNL A   1      41.071  27.608  28.854  1.00  0.00     0.031 A 
ATOM     45  C   UNL A   1      42.281  28.341  28.436  1.00  0.00     0.074 A 
ATOM     46  C   UNL A   1      40.123  28.059  29.694  1.00  0.00     0.049 A 
ATOM     47  N   UNL A   1      43.412  28.393  29.054  1.00  0.00    -0.248 NA
ATOM     48  C   UNL A   1      42.322  28.840  27.049  1.00  0.00     0.031 C 
ATOM     49  C   UNL A   1      38.771  27.537  29.918  1.00  0.00     0.029 A 
ATOM     50  N   UNL A   1      40.144  29.173  30.466  1.00  0.00    -0.354 N 
ATOM     51  C   UNL A   1      44.228  29.152  28.227  1.00  0.00     0.074 A 
ATOM     52  C   UNL A   1      43.616  29.131  26.926  1.00  0.00     0.031 C 
ATOM     53  C   UNL A   1      38.036  28.470  30.572  1.00  0.00     0.029 A 
ATOM     54  C   UNL A   1      38.900  29.582  30.931  1.00  0.00     0.049 A 
ATOM     55  H   UNL A   1      40.975  29.654  30.681  1.00  0.00     0.167 HD
ATOM     56  C   UNL A   1      45.107  30.048  28.752  1.00  0.00     0.031 A 
ATOM     57  C   UNL A   1      38.622  30.784  31.500  1.00  0.00     0.031 A 
ATOM     58  C   UNL A   1      45.323  29.805  30.156  1.00  0.00     0.049 A 
ATOM     59  C   UNL A   1      39.914  31.372  31.929  1.00  0.00     0.074 A 
ATOM     60  C   UNL A   1      45.819  28.763  30.910  1.00  0.00     0.029 A 
ATOM     61  N   UNL A   1      44.599  30.598  31.016  1.00  0.00    -0.354 N 
ATOM     62  N   UNL A   1      40.655  30.867  32.874  1.00  0.00    -0.248 NA
ATOM     63  C   UNL A   1      40.605  32.248  30.995  1.00  0.00     0.031 C 
ATOM     64  C   UNL A   1      45.029  28.751  32.097  1.00  0.00     0.029 A 
ATOM     65  C   UNL A   1      44.139  29.827  32.049  1.00  0.00     0.049 A 
ATOM     66  H   UNL A   1      44.438  31.562  30.907  1.00  0.00     0.167 HD
ATOM     67  C   UNL A   1      41.957  30.996  32.410  1.00  0.00     0.074 A 
ATOM     68  C   UNL A   1      41.870  31.943  31.299  1.00  0.00     0.031 C 
ATOM     69  C   UNL A   1      42.920  30.101  32.780  1.00  0.00     0.031 A 
BRANCH  56  70
ATOM     70  C   UNL A   1      45.335  31.412  28.137  1.00  0.00    -0.014 A 
ATOM     71  C   UNL A   1      44.225  32.251  27.957  1.00  0.00     0.009 A 
ATOM     72  C   UNL A   1      46.521  31.787  27.471  1.00  0.00     0.009 A 
ATOM     73  C   UNL A   1      44.281  33.356  27.098  1.00  0.00     0.001 A 
ATOM     74  C   UNL A   1      46.593  32.911  26.646  1.00  0.00     0.001 A 
ATOM     75  C   UNL A   1      45.462  33.679  26.437  1.00  0.00     0.000 A 
ENDBRANCH  56  70
BRANCH  57  76
ATOM     76  C   UNL A   1      37.403  31.619  31.370  1.00  0.00    -0.014 A 
ATOM     77  C   UNL A   1      36.330  31.467  32.267  1.00  0.00     0.009 A 
ATOM     78  C   UNL A   1      37.413  32.768  30.560  1.00  0.00     0.009 A 
ATOM     79  C   UNL A   1      35.333  32.449  32.378  1.00  0.00     0.001 A 
ATOM     80  C   UNL A   1      36.417  33.748  30.670  1.00  0.00     0.001 A 
ATOM     81  C   UNL A   1      35.386  33.595  31.589  1.00  0.00     0.000 A 
ENDBRANCH  57  76
BRANCH  69  82
ATOM     82  C   UNL A   1      42.611  29.164  33.922  1.00  0.00    -0.014 A 
ATOM     83  C   UNL A   1      42.010  27.903  33.760  1.00  0.00     0.009 A 
ATOM     84  C   UNL A   1      43.107  29.510  35.188  1.00  0.00     0.009 A 
ATOM     85  C   UNL A   1      41.906  27.020  34.842  1.00  0.00     0.001 A 
ATOM     86  C   UNL A   1      43.021  28.621  36.261  1.00  0.00     0.001 A 
ATOM     87  C   UNL A   1      42.420  27.378  36.088  1.00  0.00     0.000 A 
ENDBRANCH  69  82
ENDBRANCH  43  44
ENDBRANCH  36  38
ENDBRANCH  35  36
ENDBRANCH  34  35
ENDBRANCH  33  34
ENDBRANCH  32  33
ENDBRANCH   1  32
TORSDOF 19
ENDMDL
