MODEL 1
REMARK VINA RESULT:     -10.9      0.000      0.000
REMARK SMILES CS(=O)(=O)c1ccc(N2N=C(C(=O)OCCOCCOC(=O)c3ccc(-c4c5nc(c(-c6ccccc6)c6ccc([nH]6)c(-c6ccccc6)c6nc(c(-c7ccccc7)c7ccc4[nH]7)C=C6)C=C5)cc3)C[C@H]2c2cccs2)cc1
REMARK SMILES IDX 17 1 16 2 15 3 14 4 12 5 13 6 11 7 9 8 10 9 72 10 71 11 8 12
REMARK SMILES IDX 5 13 6 14 79 15 7 16 78 17 2 18 1 19 3 20 4 21 73 22 74 23
REMARK SMILES IDX 77 24 75 25 76 26 18 27 19 28 20 29 21 30 22 31 23 32 24 33
REMARK SMILES IDX 70 34 25 35 69 36 26 37 27 38 28 39 63 40 29 41 68 42 62 43
REMARK SMILES IDX 64 44 30 45 67 46 61 47 60 48 31 50 53 51 38 52 52 53 39 54
REMARK SMILES IDX 42 55 51 56 65 57 40 58 41 59 50 61 66 62 43 63 32 64 33 65
REMARK SMILES IDX 37 66 34 67 36 68 35 69 54 70 55 71 59 72 56 73 58 74 57 75
REMARK SMILES IDX 44 76 45 77 49 78 46 79 48 80 47 81
REMARK H PARENT 64 49 42 60
REMARK Flexibility Score: inf
ROOT
ATOM      1  O   UNL A   1      35.658  21.804  24.158  1.00  0.00    -0.374 OA
ENDROOT
BRANCH   1   2
ATOM      2  C   UNL A   1      34.297  22.248  24.171  1.00  0.00     0.202 C 
BRANCH   2   3
ATOM      3  C   UNL A   1      33.653  22.147  25.554  1.00  0.00     0.261 C 
BRANCH   3   4
ATOM      4  O   UNL A   1      33.772  23.427  26.193  1.00  0.00    -0.459 OA
BRANCH   4   5
ATOM      5  C   UNL A   1      32.644  24.160  26.228  1.00  0.00     0.354 C 
ATOM      6  O   UNL A   1      31.538  23.817  26.594  1.00  0.00    -0.245 OA
BRANCH   5   7
ATOM      7  C   UNL A   1      32.996  25.571  25.839  1.00  0.00     0.148 C 
ATOM      8  N   UNL A   1      33.348  27.644  25.945  1.00  0.00    -0.256 N 
ATOM      9  N   UNL A   1      33.037  26.551  26.691  1.00  0.00    -0.169 NA
ATOM     10  C   UNL A   1      33.238  27.414  24.500  1.00  0.00     0.154 C 
ATOM     11  C   UNL A   1      33.446  25.895  24.445  1.00  0.00     0.099 C 
BRANCH   8  12
ATOM     12  C   UNL A   1      33.532  28.876  26.541  1.00  0.00     0.060 A 
ATOM     13  C   UNL A   1      33.954  31.388  27.715  1.00  0.00     0.067 A 
ATOM     14  C   UNL A   1      35.016  30.489  27.608  1.00  0.00     0.022 A 
ATOM     15  C   UNL A   1      32.684  31.048  27.246  1.00  0.00     0.022 A 
ATOM     16  C   UNL A   1      34.796  29.235  27.030  1.00  0.00     0.029 A 
ATOM     17  C   UNL A   1      32.480  29.792  26.667  1.00  0.00     0.029 A 
BRANCH  13  18
ATOM     18  S   UNL A   1      34.242  32.991  28.422  1.00  0.00     0.175 S 
ATOM     19  C   UNL A   1      35.966  33.292  28.139  1.00  0.00     0.163 C 
ATOM     20  O   UNL A   1      34.047  32.886  29.856  1.00  0.00    -0.224 OA
ATOM     21  O   UNL A   1      33.478  33.940  27.634  1.00  0.00    -0.224 OA
ENDBRANCH  13  18
ENDBRANCH   8  12
BRANCH  10  22
ATOM     22  C   UNL A   1      31.945  27.885  23.852  1.00  0.00     0.030 A 
ATOM     23  C   UNL A   1      31.809  28.880  22.898  1.00  0.00     0.017 A 
ATOM     24  S   UNL A   1      30.406  27.241  24.275  1.00  0.00    -0.147 S 
ATOM     25  C   UNL A   1      30.456  29.085  22.501  1.00  0.00     0.012 A 
ATOM     26  C   UNL A   1      29.593  28.237  23.156  1.00  0.00     0.065 A 
ENDBRANCH  10  22
ENDBRANCH   5   7
ENDBRANCH   4   5
ENDBRANCH   3   4
ENDBRANCH   2   3
ENDBRANCH   1   2
BRANCH   1  27
ATOM     27  C   UNL A   1      35.977  20.717  25.028  1.00  0.00     0.202 C 
BRANCH  27  28
ATOM     28  C   UNL A   1      37.457  20.326  25.005  1.00  0.00     0.261 C 
BRANCH  28  29
ATOM     29  O   UNL A   1      38.287  21.471  25.278  1.00  0.00    -0.460 OA
BRANCH  29  30
ATOM     30  C   UNL A   1      39.359  21.213  26.067  1.00  0.00     0.338 C 
ATOM     31  O   UNL A   1      39.999  20.177  26.123  1.00  0.00    -0.246 OA
BRANCH  30  32
ATOM     32  C   UNL A   1      39.766  22.430  26.803  1.00  0.00     0.060 A 
ATOM     33  C   UNL A   1      39.091  23.616  26.489  1.00  0.00     0.016 A 
ATOM     34  C   UNL A   1      40.822  22.444  27.720  1.00  0.00     0.016 A 
ATOM     35  C   UNL A   1      39.513  24.826  27.030  1.00  0.00     0.010 A 
ATOM     36  C   UNL A   1      41.249  23.664  28.264  1.00  0.00     0.010 A 
ATOM     37  C   UNL A   1      40.624  24.864  27.883  1.00  0.00    -0.014 A 
BRANCH  37  38
ATOM     38  C   UNL A   1      41.217  26.182  28.207  1.00  0.00     0.031 A 
ATOM     39  C   UNL A   1      42.544  26.549  27.599  1.00  0.00     0.074 A 
ATOM     40  C   UNL A   1      40.554  27.078  28.959  1.00  0.00     0.049 A 
ATOM     41  N   UNL A   1      43.179  27.694  27.627  1.00  0.00    -0.248 NA
ATOM     42  C   UNL A   1      43.244  25.488  26.858  1.00  0.00     0.031 C 
ATOM     43  C   UNL A   1      39.259  26.858  29.600  1.00  0.00     0.029 A 
ATOM     44  N   UNL A   1      40.883  28.368  29.294  1.00  0.00    -0.354 N 
ATOM     45  C   UNL A   1      44.344  27.494  26.898  1.00  0.00     0.074 A 
ATOM     46  C   UNL A   1      44.347  26.112  26.470  1.00  0.00     0.031 C 
ATOM     47  C   UNL A   1      38.900  27.980  30.251  1.00  0.00     0.029 A 
ATOM     48  C   UNL A   1      39.937  28.994  30.066  1.00  0.00     0.049 A 
ATOM     49  H   UNL A   1      41.719  28.802  29.008  1.00  0.00     0.167 HD
ATOM     50  C   UNL A   1      45.322  28.381  26.598  1.00  0.00     0.031 A 
ATOM     51  C   UNL A   1      39.907  30.246  30.559  1.00  0.00     0.031 A 
ATOM     52  C   UNL A   1      45.338  29.753  27.022  1.00  0.00     0.049 A 
ATOM     53  C   UNL A   1      41.015  31.208  30.229  1.00  0.00     0.074 A 
ATOM     54  C   UNL A   1      46.279  30.730  26.748  1.00  0.00     0.029 A 
ATOM     55  N   UNL A   1      44.368  30.340  27.817  1.00  0.00    -0.354 N 
ATOM     56  N   UNL A   1      42.078  31.021  29.488  1.00  0.00    -0.248 NA
ATOM     57  C   UNL A   1      40.903  32.563  30.791  1.00  0.00     0.031 C 
ATOM     58  C   UNL A   1      45.893  31.904  27.405  1.00  0.00     0.029 A 
ATOM     59  C   UNL A   1      44.697  31.661  28.061  1.00  0.00     0.049 A 
ATOM     60  H   UNL A   1      43.565  29.884  28.159  1.00  0.00     0.167 HD
ATOM     61  C   UNL A   1      42.749  32.238  29.474  1.00  0.00     0.074 A 
ATOM     62  C   UNL A   1      41.968  33.159  30.273  1.00  0.00     0.031 C 
ATOM     63  C   UNL A   1      43.908  32.564  28.854  1.00  0.00     0.031 A 
BRANCH  50  64
ATOM     64  C   UNL A   1      46.469  27.877  25.775  1.00  0.00    -0.014 A 
ATOM     65  C   UNL A   1      47.601  27.317  26.385  1.00  0.00     0.009 A 
ATOM     66  C   UNL A   1      46.406  27.941  24.374  1.00  0.00     0.009 A 
ATOM     67  C   UNL A   1      48.662  26.852  25.608  1.00  0.00     0.001 A 
ATOM     68  C   UNL A   1      47.461  27.461  23.600  1.00  0.00     0.001 A 
ATOM     69  C   UNL A   1      48.591  26.922  24.216  1.00  0.00     0.000 A 
ENDBRANCH  50  64
BRANCH  51  70
ATOM     70  C   UNL A   1      38.774  30.680  31.414  1.00  0.00    -0.014 A 
ATOM     71  C   UNL A   1      37.623  31.244  30.848  1.00  0.00     0.009 A 
ATOM     72  C   UNL A   1      38.861  30.558  32.810  1.00  0.00     0.009 A 
ATOM     73  C   UNL A   1      36.588  31.703  31.665  1.00  0.00     0.001 A 
ATOM     74  C   UNL A   1      37.817  31.002  33.623  1.00  0.00     0.001 A 
ATOM     75  C   UNL A   1      36.685  31.580  33.050  1.00  0.00     0.000 A 
ENDBRANCH  51  70
BRANCH  63  76
ATOM     76  C   UNL A   1      44.386  33.979  28.995  1.00  0.00    -0.014 A 
ATOM     77  C   UNL A   1      45.258  34.347  30.030  1.00  0.00     0.009 A 
ATOM     78  C   UNL A   1      43.987  34.946  28.059  1.00  0.00     0.009 A 
ATOM     79  C   UNL A   1      45.699  35.667  30.142  1.00  0.00     0.001 A 
ATOM     80  C   UNL A   1      44.445  36.260  28.163  1.00  0.00     0.001 A 
ATOM     81  C   UNL A   1      45.295  36.621  29.208  1.00  0.00     0.000 A 
ENDBRANCH  63  76
ENDBRANCH  37  38
ENDBRANCH  30  32
ENDBRANCH  29  30
ENDBRANCH  28  29
ENDBRANCH  27  28
ENDBRANCH   1  27
TORSDOF 17
ENDMDL
MODEL 2
REMARK VINA RESULT:     -10.8      2.300      2.964
REMARK SMILES CS(=O)(=O)c1ccc(N2N=C(C(=O)OCCOCCOC(=O)c3ccc(-c4c5nc(c(-c6ccccc6)c6ccc([nH]6)c(-c6ccccc6)c6nc(c(-c7ccccc7)c7ccc4[nH]7)C=C6)C=C5)cc3)C[C@H]2c2cccs2)cc1
REMARK SMILES IDX 17 1 16 2 15 3 14 4 12 5 13 6 11 7 9 8 10 9 72 10 71 11 8 12
REMARK SMILES IDX 5 13 6 14 79 15 7 16 78 17 2 18 1 19 3 20 4 21 73 22 74 23
REMARK SMILES IDX 77 24 75 25 76 26 18 27 19 28 20 29 21 30 22 31 23 32 24 33
REMARK SMILES IDX 70 34 25 35 69 36 26 37 27 38 28 39 63 40 29 41 68 42 62 43
REMARK SMILES IDX 64 44 30 45 67 46 61 47 60 48 31 50 53 51 38 52 52 53 39 54
REMARK SMILES IDX 42 55 51 56 65 57 40 58 41 59 50 61 66 62 43 63 32 64 33 65
REMARK SMILES IDX 37 66 34 67 36 68 35 69 54 70 55 71 59 72 56 73 58 74 57 75
REMARK SMILES IDX 44 76 45 77 49 78 46 79 48 80 47 81
REMARK H PARENT 64 49 42 60
REMARK Flexibility Score: inf
ROOT
ATOM      1  O   UNL A   1      34.377  21.520  25.587  1.00  0.00    -0.374 OA
ENDROOT
BRANCH   1   2
ATOM      2  C   UNL A   1      33.252  20.938  24.918  1.00  0.00     0.202 C 
BRANCH   2   3
ATOM      3  C   UNL A   1      31.933  21.629  25.263  1.00  0.00     0.261 C 
BRANCH   3   4
ATOM      4  O   UNL A   1      32.209  22.653  26.231  1.00  0.00    -0.459 OA
BRANCH   4   5
ATOM      5  C   UNL A   1      31.188  23.489  26.491  1.00  0.00     0.354 C 
ATOM      6  O   UNL A   1      30.272  23.335  27.273  1.00  0.00    -0.245 OA
BRANCH   5   7
ATOM      7  C   UNL A   1      31.422  24.760  25.717  1.00  0.00     0.148 C 
ATOM      8  N   UNL A   1      31.078  26.561  24.684  1.00  0.00    -0.256 N 
ATOM      9  N   UNL A   1      30.466  25.581  25.400  1.00  0.00    -0.169 NA
ATOM     10  C   UNL A   1      32.449  26.223  24.285  1.00  0.00     0.154 C 
ATOM     11  C   UNL A   1      32.812  25.209  25.377  1.00  0.00     0.099 C 
BRANCH   8  12
ATOM     12  C   UNL A   1      30.363  27.650  24.224  1.00  0.00     0.060 A 
ATOM     13  C   UNL A   1      28.961  29.880  23.262  1.00  0.00     0.067 A 
ATOM     14  C   UNL A   1      30.194  30.059  23.892  1.00  0.00     0.022 A 
ATOM     15  C   UNL A   1      28.419  28.604  23.109  1.00  0.00     0.022 A 
ATOM     16  C   UNL A   1      30.882  28.943  24.378  1.00  0.00     0.029 A 
ATOM     17  C   UNL A   1      29.121  27.497  23.596  1.00  0.00     0.029 A 
BRANCH  13  18
ATOM     18  S   UNL A   1      28.102  31.296  22.619  1.00  0.00     0.175 S 
ATOM     19  C   UNL A   1      29.195  32.654  22.939  1.00  0.00     0.163 C 
ATOM     20  O   UNL A   1      26.910  31.495  23.423  1.00  0.00    -0.224 OA
ATOM     21  O   UNL A   1      28.010  31.112  21.183  1.00  0.00    -0.224 OA
ENDBRANCH  13  18
ENDBRANCH   8  12
BRANCH  10  22
ATOM     22  C   UNL A   1      32.614  25.694  22.869  1.00  0.00     0.030 A 
ATOM     23  C   UNL A   1      32.402  26.392  21.692  1.00  0.00     0.017 A 
ATOM     24  S   UNL A   1      33.065  24.068  22.532  1.00  0.00    -0.147 S 
ATOM     25  C   UNL A   1      32.638  25.602  20.530  1.00  0.00     0.012 A 
ATOM     26  C   UNL A   1      33.032  24.324  20.847  1.00  0.00     0.065 A 
ENDBRANCH  10  22
ENDBRANCH   5   7
ENDBRANCH   4   5
ENDBRANCH   3   4
ENDBRANCH   2   3
ENDBRANCH   1   2
BRANCH   1  27
ATOM     27  C   UNL A   1      35.615  21.504  24.875  1.00  0.00     0.202 C 
BRANCH  27  28
ATOM     28  C   UNL A   1      36.813  21.095  25.736  1.00  0.00     0.261 C 
BRANCH  28  29
ATOM     29  O   UNL A   1      38.043  21.543  25.136  1.00  0.00    -0.460 OA
BRANCH  29  30
ATOM     30  C   UNL A   1      39.154  21.272  25.864  1.00  0.00     0.338 C 
ATOM     31  O   UNL A   1      39.810  20.244  25.850  1.00  0.00    -0.246 OA
BRANCH  30  32
ATOM     32  C   UNL A   1      39.579  22.466  26.626  1.00  0.00     0.060 A 
ATOM     33  C   UNL A   1      38.992  23.686  26.270  1.00  0.00     0.016 A 
ATOM     34  C   UNL A   1      40.573  22.424  27.610  1.00  0.00     0.016 A 
ATOM     35  C   UNL A   1      39.444  24.873  26.840  1.00  0.00     0.010 A 
ATOM     36  C   UNL A   1      41.030  23.620  28.181  1.00  0.00     0.010 A 
ATOM     37  C   UNL A   1      40.498  24.852  27.763  1.00  0.00    -0.014 A 
BRANCH  37  38
ATOM     38  C   UNL A   1      41.140  26.137  28.126  1.00  0.00     0.031 A 
ATOM     39  C   UNL A   1      42.489  26.463  27.544  1.00  0.00     0.074 A 
ATOM     40  C   UNL A   1      40.504  27.041  28.891  1.00  0.00     0.049 A 
ATOM     41  N   UNL A   1      43.170  27.579  27.607  1.00  0.00    -0.248 NA
ATOM     42  C   UNL A   1      43.155  25.391  26.786  1.00  0.00     0.031 C 
ATOM     43  C   UNL A   1      39.193  26.859  29.510  1.00  0.00     0.029 A 
ATOM     44  N   UNL A   1      40.881  28.307  29.262  1.00  0.00    -0.354 N 
ATOM     45  C   UNL A   1      44.336  27.348  26.888  1.00  0.00     0.074 A 
ATOM     46  C   UNL A   1      44.288  25.978  26.427  1.00  0.00     0.031 C 
ATOM     47  C   UNL A   1      38.871  27.979  30.184  1.00  0.00     0.029 A 
ATOM     48  C   UNL A   1      39.952  28.953  30.037  1.00  0.00     0.049 A 
ATOM     49  H   UNL A   1      41.738  28.714  28.996  1.00  0.00     0.167 HD
ATOM     50  C   UNL A   1      45.353  28.201  26.623  1.00  0.00     0.031 A 
ATOM     51  C   UNL A   1      39.966  30.194  30.559  1.00  0.00     0.031 A 
ATOM     52  C   UNL A   1      45.420  29.561  27.080  1.00  0.00     0.049 A 
ATOM     53  C   UNL A   1      41.117  31.117  30.267  1.00  0.00     0.074 A 
ATOM     54  C   UNL A   1      46.403  30.505  26.842  1.00  0.00     0.029 A 
ATOM     55  N   UNL A   1      44.464  30.168  27.877  1.00  0.00    -0.354 N 
ATOM     56  N   UNL A   1      42.182  30.904  29.535  1.00  0.00    -0.248 NA
ATOM     57  C   UNL A   1      41.053  32.462  30.861  1.00  0.00     0.031 C 
ATOM     58  C   UNL A   1      46.057  31.677  27.522  1.00  0.00     0.029 A 
ATOM     59  C   UNL A   1      44.843  31.469  28.157  1.00  0.00     0.049 A 
ATOM     60  H   UNL A   1      43.639  29.738  28.197  1.00  0.00     0.167 HD
ATOM     61  C   UNL A   1      42.902  32.092  29.559  1.00  0.00     0.074 A 
ATOM     62  C   UNL A   1      42.148  33.025  30.370  1.00  0.00     0.031 C 
ATOM     63  C   UNL A   1      44.081  32.385  28.961  1.00  0.00     0.031 A 
BRANCH  50  64
ATOM     64  C   UNL A   1      46.489  27.670  25.802  1.00  0.00    -0.014 A 
ATOM     65  C   UNL A   1      46.532  27.877  24.415  1.00  0.00     0.009 A 
ATOM     66  C   UNL A   1      47.538  26.977  26.425  1.00  0.00     0.009 A 
ATOM     67  C   UNL A   1      47.596  27.378  23.661  1.00  0.00     0.001 A 
ATOM     68  C   UNL A   1      48.607  26.493  25.671  1.00  0.00     0.001 A 
ATOM     69  C   UNL A   1      48.633  26.687  24.290  1.00  0.00     0.000 A 
ENDBRANCH  50  64
BRANCH  51  70
ATOM     70  C   UNL A   1      38.841  30.654  31.411  1.00  0.00    -0.014 A 
ATOM     71  C   UNL A   1      38.921  30.575  32.809  1.00  0.00     0.009 A 
ATOM     72  C   UNL A   1      37.666  31.144  30.820  1.00  0.00     0.009 A 
ATOM     73  C   UNL A   1      37.834  30.954  33.599  1.00  0.00     0.001 A 
ATOM     74  C   UNL A   1      36.588  31.539  31.614  1.00  0.00     0.001 A 
ATOM     75  C   UNL A   1      36.671  31.436  33.002  1.00  0.00     0.000 A 
ENDBRANCH  51  70
BRANCH  63  76
ATOM     76  C   UNL A   1      44.615  33.775  29.143  1.00  0.00    -0.014 A 
ATOM     77  C   UNL A   1      45.443  34.095  30.229  1.00  0.00     0.009 A 
ATOM     78  C   UNL A   1      44.315  34.766  28.196  1.00  0.00     0.009 A 
ATOM     79  C   UNL A   1      45.937  35.392  30.378  1.00  0.00     0.001 A 
ATOM     80  C   UNL A   1      44.826  36.056  28.338  1.00  0.00     0.001 A 
ATOM     81  C   UNL A   1      45.631  36.370  29.432  1.00  0.00     0.000 A 
ENDBRANCH  63  76
ENDBRANCH  37  38
ENDBRANCH  30  32
ENDBRANCH  29  30
ENDBRANCH  28  29
ENDBRANCH  27  28
ENDBRANCH   1  27
TORSDOF 17
ENDMDL
MODEL 3
REMARK VINA RESULT:     -10.7      3.715      9.336
REMARK SMILES CS(=O)(=O)c1ccc(N2N=C(C(=O)OCCOCCOC(=O)c3ccc(-c4c5nc(c(-c6ccccc6)c6ccc([nH]6)c(-c6ccccc6)c6nc(c(-c7ccccc7)c7ccc4[nH]7)C=C6)C=C5)cc3)C[C@H]2c2cccs2)cc1
REMARK SMILES IDX 17 1 16 2 15 3 14 4 12 5 13 6 11 7 9 8 10 9 72 10 71 11 8 12
REMARK SMILES IDX 5 13 6 14 79 15 7 16 78 17 2 18 1 19 3 20 4 21 73 22 74 23
REMARK SMILES IDX 77 24 75 25 76 26 18 27 19 28 20 29 21 30 22 31 23 32 24 33
REMARK SMILES IDX 70 34 25 35 69 36 26 37 27 38 28 39 63 40 29 41 68 42 62 43
REMARK SMILES IDX 64 44 30 45 67 46 61 47 60 48 31 50 53 51 38 52 52 53 39 54
REMARK SMILES IDX 42 55 51 56 65 57 40 58 41 59 50 61 66 62 43 63 32 64 33 65
REMARK SMILES IDX 37 66 34 67 36 68 35 69 54 70 55 71 59 72 56 73 58 74 57 75
REMARK SMILES IDX 44 76 45 77 49 78 46 79 48 80 47 81
REMARK H PARENT 64 49 42 60
REMARK Flexibility Score: inf
ROOT
ATOM      1  O   UNL A   1      31.020  29.323  24.172  1.00  0.00    -0.374 OA
ENDROOT
BRANCH   1   2
ATOM      2  C   UNL A   1      30.842  27.932  24.468  1.00  0.00     0.202 C 
BRANCH   2   3
ATOM      3  C   UNL A   1      31.487  27.018  23.427  1.00  0.00     0.261 C 
BRANCH   3   4
ATOM      4  O   UNL A   1      32.827  26.733  23.857  1.00  0.00    -0.459 OA
BRANCH   4   5
ATOM      5  C   UNL A   1      33.452  25.752  23.181  1.00  0.00     0.354 C 
ATOM      6  O   UNL A   1      33.596  25.642  21.980  1.00  0.00    -0.245 OA
BRANCH   5   7
ATOM      7  C   UNL A   1      34.080  24.824  24.187  1.00  0.00     0.148 C 
ATOM      8  N   UNL A   1      35.470  23.579  25.161  1.00  0.00    -0.256 N 
ATOM      9  N   UNL A   1      35.312  24.419  24.104  1.00  0.00    -0.169 NA
ATOM     10  C   UNL A   1      34.206  23.209  25.807  1.00  0.00     0.154 C 
ATOM     11  C   UNL A   1      33.337  24.413  25.424  1.00  0.00     0.099 C 
BRANCH   8  12
ATOM     12  C   UNL A   1      36.695  22.996  25.422  1.00  0.00     0.060 A 
ATOM     13  C   UNL A   1      39.177  21.830  26.010  1.00  0.00     0.067 A 
ATOM     14  C   UNL A   1      38.914  23.137  26.422  1.00  0.00     0.022 A 
ATOM     15  C   UNL A   1      38.218  21.099  25.307  1.00  0.00     0.022 A 
ATOM     16  C   UNL A   1      37.678  23.715  26.117  1.00  0.00     0.029 A 
ATOM     17  C   UNL A   1      36.986  21.689  25.012  1.00  0.00     0.029 A 
BRANCH  13  18
ATOM     18  S   UNL A   1      40.735  21.086  26.425  1.00  0.00     0.175 S 
ATOM     19  C   UNL A   1      41.138  21.766  28.011  1.00  0.00     0.163 C 
ATOM     20  O   UNL A   1      41.724  21.570  25.478  1.00  0.00    -0.224 OA
ATOM     21  O   UNL A   1      40.492  19.665  26.586  1.00  0.00    -0.224 OA
ENDBRANCH  13  18
ENDBRANCH   8  12
BRANCH  10  22
ATOM     22  C   UNL A   1      33.620  21.868  25.393  1.00  0.00     0.030 A 
ATOM     23  C   UNL A   1      33.615  20.699  26.137  1.00  0.00     0.017 A 
ATOM     24  S   UNL A   1      32.893  21.605  23.856  1.00  0.00    -0.147 S 
ATOM     25  C   UNL A   1      32.993  19.613  25.457  1.00  0.00     0.012 A 
ATOM     26  C   UNL A   1      32.531  19.980  24.215  1.00  0.00     0.065 A 
ENDBRANCH  10  22
ENDBRANCH   5   7
ENDBRANCH   4   5
ENDBRANCH   3   4
ENDBRANCH   2   3
ENDBRANCH   1   2
BRANCH   1  27
ATOM     27  C   UNL A   1      31.339  30.169  25.278  1.00  0.00     0.202 C 
BRANCH  27  28
ATOM     28  C   UNL A   1      32.774  30.002  25.784  1.00  0.00     0.261 C 
BRANCH  28  29
ATOM     29  O   UNL A   1      32.847  30.275  27.196  1.00  0.00    -0.460 OA
BRANCH  29  30
ATOM     30  C   UNL A   1      33.539  31.396  27.517  1.00  0.00     0.338 C 
ATOM     31  O   UNL A   1      33.096  32.526  27.633  1.00  0.00    -0.246 OA
BRANCH  30  32
ATOM     32  C   UNL A   1      34.942  31.063  27.849  1.00  0.00     0.060 A 
ATOM     33  C   UNL A   1      35.236  29.712  28.071  1.00  0.00     0.016 A 
ATOM     34  C   UNL A   1      35.933  32.036  28.015  1.00  0.00     0.016 A 
ATOM     35  C   UNL A   1      36.496  29.337  28.528  1.00  0.00     0.010 A 
ATOM     36  C   UNL A   1      37.201  31.658  28.479  1.00  0.00     0.010 A 
ATOM     37  C   UNL A   1      37.470  30.312  28.781  1.00  0.00    -0.014 A 
BRANCH  37  38
ATOM     38  C   UNL A   1      38.685  29.914  29.531  1.00  0.00     0.031 A 
ATOM     39  C   UNL A   1      38.814  30.328  30.972  1.00  0.00     0.074 A 
ATOM     40  C   UNL A   1      39.620  29.126  28.974  1.00  0.00     0.049 A 
ATOM     41  N   UNL A   1      39.712  29.977  31.857  1.00  0.00    -0.248 NA
ATOM     42  C   UNL A   1      37.793  31.257  31.484  1.00  0.00     0.031 C 
ATOM     43  C   UNL A   1      39.615  28.644  27.594  1.00  0.00     0.029 A 
ATOM     44  N   UNL A   1      40.755  28.579  29.519  1.00  0.00    -0.354 N 
ATOM     45  C   UNL A   1      39.358  30.629  33.031  1.00  0.00     0.074 A 
ATOM     46  C   UNL A   1      38.185  31.424  32.739  1.00  0.00     0.031 C 
ATOM     47  C   UNL A   1      40.696  27.867  27.401  1.00  0.00     0.029 A 
ATOM     48  C   UNL A   1      41.464  27.796  28.644  1.00  0.00     0.049 A 
ATOM     49  H   UNL A   1      41.034  28.734  30.450  1.00  0.00     0.167 HD
ATOM     50  C   UNL A   1      39.946  30.566  34.249  1.00  0.00     0.031 A 
ATOM     51  C   UNL A   1      42.596  27.092  28.827  1.00  0.00     0.031 A 
ATOM     52  C   UNL A   1      41.114  29.789  34.553  1.00  0.00     0.049 A 
ATOM     53  C   UNL A   1      43.243  27.053  30.185  1.00  0.00     0.074 A 
ATOM     54  C   UNL A   1      41.767  29.649  35.765  1.00  0.00     0.029 A 
ATOM     55  N   UNL A   1      41.809  29.024  33.631  1.00  0.00    -0.354 N 
ATOM     56  N   UNL A   1      42.860  27.626  31.299  1.00  0.00    -0.248 NA
ATOM     57  C   UNL A   1      44.469  26.250  30.310  1.00  0.00     0.031 C 
ATOM     58  C   UNL A   1      42.879  28.821  35.569  1.00  0.00     0.029 A 
ATOM     59  C   UNL A   1      42.896  28.424  34.242  1.00  0.00     0.049 A 
ATOM     60  H   UNL A   1      41.567  28.923  32.682  1.00  0.00     0.167 HD
ATOM     61  C   UNL A   1      43.783  27.235  32.261  1.00  0.00     0.074 A 
ATOM     62  C   UNL A   1      44.737  26.368  31.603  1.00  0.00     0.031 C 
ATOM     63  C   UNL A   1      43.833  27.563  33.575  1.00  0.00     0.031 A 
BRANCH  50  64
ATOM     64  C   UNL A   1      39.328  31.380  35.345  1.00  0.00    -0.014 A 
ATOM     65  C   UNL A   1      39.707  32.715  35.550  1.00  0.00     0.009 A 
ATOM     66  C   UNL A   1      38.341  30.814  36.166  1.00  0.00     0.009 A 
ATOM     67  C   UNL A   1      39.125  33.464  36.574  1.00  0.00     0.001 A 
ATOM     68  C   UNL A   1      37.750  31.570  37.178  1.00  0.00     0.001 A 
ATOM     69  C   UNL A   1      38.146  32.891  37.387  1.00  0.00     0.000 A 
ENDBRANCH  50  64
BRANCH  51  70
ATOM     70  C   UNL A   1      43.198  26.345  27.694  1.00  0.00    -0.014 A 
ATOM     71  C   UNL A   1      42.899  24.990  27.489  1.00  0.00     0.009 A 
ATOM     72  C   UNL A   1      44.103  26.984  26.832  1.00  0.00     0.009 A 
ATOM     73  C   UNL A   1      43.516  24.282  26.456  1.00  0.00     0.001 A 
ATOM     74  C   UNL A   1      44.703  26.277  25.790  1.00  0.00     0.001 A 
ATOM     75  C   UNL A   1      44.415  24.925  25.608  1.00  0.00     0.000 A 
ENDBRANCH  51  70
BRANCH  63  76
ATOM     76  C   UNL A   1      44.942  26.963  34.389  1.00  0.00    -0.014 A 
ATOM     77  C   UNL A   1      46.159  27.639  34.560  1.00  0.00     0.009 A 
ATOM     78  C   UNL A   1      44.752  25.724  35.019  1.00  0.00     0.009 A 
ATOM     79  C   UNL A   1      47.177  27.070  35.327  1.00  0.00     0.001 A 
ATOM     80  C   UNL A   1      45.764  25.167  35.801  1.00  0.00     0.001 A 
ATOM     81  C   UNL A   1      46.979  25.837  35.948  1.00  0.00     0.000 A 
ENDBRANCH  63  76
ENDBRANCH  37  38
ENDBRANCH  30  32
ENDBRANCH  29  30
ENDBRANCH  28  29
ENDBRANCH  27  28
ENDBRANCH   1  27
TORSDOF 17
ENDMDL
