MODEL 1
REMARK VINA RESULT:     -10.5      0.000      0.000
REMARK SMILES CO[C@H]1C[C@H](C(=O)OCCOCCOC(=O)c2ccc(-c3c4nc(c(-c5ccccc5)c5ccc([nH]5)c(-c5ccccc5)c5nc(c(-c6ccccc6)c6ccc3[nH]6)C=C5)C=C4)cc2)N(C(=O)c2cc(Cl)c(Cl)n2C)C1
REMARK SMILES IDX 11 1 10 2 9 3 8 4 6 5 7 6 5 7 3 8 4 9 76 10 65 11 2 12 1 13
REMARK SMILES IDX 66 14 67 15 68 16 69 17 74 18 70 19 72 20 75 21 71 22 73 23
REMARK SMILES IDX 12 24 13 25 14 26 15 27 16 28 17 29 18 30 64 31 19 32 63 33
REMARK SMILES IDX 20 34 21 35 22 36 57 37 23 38 62 39 56 40 58 41 24 42 61 43
REMARK SMILES IDX 55 44 54 45 25 47 47 48 32 49 46 50 33 51 36 52 45 53 59 54
REMARK SMILES IDX 34 55 35 56 44 58 60 59 37 60 26 61 27 62 31 63 28 64 30 65
REMARK SMILES IDX 29 66 48 67 49 68 53 69 50 70 52 71 51 72 38 73 39 74 43 75
REMARK SMILES IDX 40 76 42 77 41 78
REMARK H PARENT 58 46 36 57
REMARK Flexibility Score: inf
ROOT
ATOM      1  O   UNL A   1      34.977  21.507  26.519  1.00  0.00    -0.374 OA
ENDROOT
BRANCH   1   2
ATOM      2  C   UNL A   1      34.710  22.905  26.588  1.00  0.00     0.202 C 
BRANCH   2   3
ATOM      3  C   UNL A   1      33.267  23.332  26.314  1.00  0.00     0.261 C 
BRANCH   3   4
ATOM      4  O   UNL A   1      33.140  24.762  26.255  1.00  0.00    -0.462 OA
BRANCH   4   5
ATOM      5  C   UNL A   1      31.866  25.223  26.378  1.00  0.00     0.329 C 
ATOM      6  O   UNL A   1      30.899  24.509  26.623  1.00  0.00    -0.250 OA
BRANCH   5   7
ATOM      7  C   UNL A   1      31.745  26.742  26.165  1.00  0.00     0.198 C 
ATOM      8  C   UNL A   1      33.905  27.834  26.413  1.00  0.00     0.140 C 
ATOM      9  C   UNL A   1      32.535  27.663  27.082  1.00  0.00     0.071 C 
ATOM     10  C   UNL A   1      33.687  27.409  24.950  1.00  0.00     0.153 C 
ATOM     11  N   UNL A   1      32.286  27.045  24.848  1.00  0.00    -0.321 N 
BRANCH   8  12
ATOM     12  O   UNL A   1      34.369  29.186  26.437  1.00  0.00    -0.380 OA
ATOM     13  C   UNL A   1      33.352  30.167  26.574  1.00  0.00     0.195 C 
ENDBRANCH   8  12
BRANCH  11  14
ATOM     14  C   UNL A   1      31.683  26.814  23.626  1.00  0.00     0.271 C 
ATOM     15  O   UNL A   1      32.009  25.862  22.922  1.00  0.00    -0.267 OA
BRANCH  14  16
ATOM     16  C   UNL A   1      30.634  27.732  23.231  1.00  0.00     0.109 A 
ATOM     17  C   UNL A   1      30.757  28.942  22.556  1.00  0.00     0.055 A 
ATOM     18  N   UNL A   1      29.280  27.528  23.447  1.00  0.00    -0.329 N 
ATOM     19  C   UNL A   1      29.466  29.491  22.394  1.00  0.00     0.078 A 
ATOM     20  C   UNL A   1      28.585  28.597  22.942  1.00  0.00     0.128 A 
ATOM     21  C   UNL A   1      28.708  26.401  24.157  1.00  0.00     0.151 C 
ATOM     22  Cl  UNL A   1      29.138  30.981  21.652  1.00  0.00    -0.081 Cl
ATOM     23  Cl  UNL A   1      26.882  28.658  23.051  1.00  0.00    -0.063 Cl
ENDBRANCH  14  16
ENDBRANCH  11  14
ENDBRANCH   5   7
ENDBRANCH   4   5
ENDBRANCH   3   4
ENDBRANCH   2   3
ENDBRANCH   1   2
BRANCH   1  24
ATOM     24  C   UNL A   1      35.299  20.941  25.247  1.00  0.00     0.202 C 
BRANCH  24  25
ATOM     25  C   UNL A   1      36.741  20.461  25.045  1.00  0.00     0.261 C 
BRANCH  25  26
ATOM     26  O   UNL A   1      37.694  21.539  25.135  1.00  0.00    -0.460 OA
BRANCH  26  27
ATOM     27  C   UNL A   1      38.802  21.252  25.862  1.00  0.00     0.338 C 
ATOM     28  O   UNL A   1      39.425  20.200  25.877  1.00  0.00    -0.246 OA
BRANCH  27  29
ATOM     29  C   UNL A   1      39.303  22.457  26.544  1.00  0.00     0.060 A 
ATOM     30  C   UNL A   1      38.720  23.686  26.204  1.00  0.00     0.016 A 
ATOM     31  C   UNL A   1      40.408  22.407  27.394  1.00  0.00     0.016 A 
ATOM     32  C   UNL A   1      39.279  24.876  26.665  1.00  0.00     0.010 A 
ATOM     33  C   UNL A   1      40.976  23.603  27.846  1.00  0.00     0.010 A 
ATOM     34  C   UNL A   1      40.440  24.842  27.447  1.00  0.00    -0.014 A 
BRANCH  34  35
ATOM     35  C   UNL A   1      41.201  26.092  27.680  1.00  0.00     0.031 A 
ATOM     36  C   UNL A   1      40.594  27.155  28.557  1.00  0.00     0.074 A 
ATOM     37  C   UNL A   1      42.425  26.274  27.157  1.00  0.00     0.049 A 
ATOM     38  N   UNL A   1      41.054  28.341  28.865  1.00  0.00    -0.248 NA
ATOM     39  C   UNL A   1      39.295  26.833  29.172  1.00  0.00     0.031 C 
ATOM     40  C   UNL A   1      43.156  25.298  26.350  1.00  0.00     0.029 A 
ATOM     41  N   UNL A   1      43.268  27.353  27.229  1.00  0.00    -0.354 N 
ATOM     42  C   UNL A   1      40.101  28.907  29.703  1.00  0.00     0.074 A 
ATOM     43  C   UNL A   1      39.027  27.947  29.837  1.00  0.00     0.031 C 
ATOM     44  C   UNL A   1      44.341  25.826  25.999  1.00  0.00     0.029 A 
ATOM     45  C   UNL A   1      44.435  27.187  26.525  1.00  0.00     0.049 A 
ATOM     46  H   UNL A   1      43.057  28.169  27.737  1.00  0.00     0.167 HD
ATOM     47  C   UNL A   1      40.117  30.117  30.311  1.00  0.00     0.031 A 
ATOM     48  C   UNL A   1      45.453  28.043  26.315  1.00  0.00     0.031 A 
ATOM     49  C   UNL A   1      41.170  31.083  30.168  1.00  0.00     0.049 A 
ATOM     50  C   UNL A   1      45.401  29.422  26.916  1.00  0.00     0.074 A 
ATOM     51  C   UNL A   1      41.271  32.341  30.735  1.00  0.00     0.029 A 
ATOM     52  N   UNL A   1      42.307  30.897  29.397  1.00  0.00    -0.354 N 
ATOM     53  N   UNL A   1      44.492  29.949  27.699  1.00  0.00    -0.248 NA
ATOM     54  C   UNL A   1      46.519  30.324  26.600  1.00  0.00     0.031 C 
ATOM     55  C   UNL A   1      42.451  32.934  30.272  1.00  0.00     0.029 A 
ATOM     56  C   UNL A   1      43.106  32.025  29.457  1.00  0.00     0.049 A 
ATOM     57  H   UNL A   1      42.515  30.083  28.884  1.00  0.00     0.167 HD
ATOM     58  C   UNL A   1      44.943  31.230  27.997  1.00  0.00     0.074 A 
ATOM     59  C   UNL A   1      46.207  31.400  27.311  1.00  0.00     0.031 C 
ATOM     60  C   UNL A   1      44.365  32.176  28.775  1.00  0.00     0.031 A 
BRANCH  47  61
ATOM     61  C   UNL A   1      38.929  30.472  31.158  1.00  0.00    -0.014 A 
ATOM     62  C   UNL A   1      38.909  30.196  32.534  1.00  0.00     0.009 A 
ATOM     63  C   UNL A   1      37.818  31.098  30.573  1.00  0.00     0.009 A 
ATOM     64  C   UNL A   1      37.786  30.511  33.301  1.00  0.00     0.001 A 
ATOM     65  C   UNL A   1      36.706  31.433  31.346  1.00  0.00     0.001 A 
ATOM     66  C   UNL A   1      36.686  31.130  32.706  1.00  0.00     0.000 A 
ENDBRANCH  47  61
BRANCH  48  67
ATOM     67  C   UNL A   1      46.611  27.630  25.481  1.00  0.00    -0.014 A 
ATOM     68  C   UNL A   1      46.659  27.957  24.118  1.00  0.00     0.009 A 
ATOM     69  C   UNL A   1      47.665  26.893  26.042  1.00  0.00     0.009 A 
ATOM     70  C   UNL A   1      47.733  27.538  23.329  1.00  0.00     0.001 A 
ATOM     71  C   UNL A   1      48.748  26.496  25.257  1.00  0.00     0.001 A 
ATOM     72  C   UNL A   1      48.778  26.811  23.900  1.00  0.00     0.000 A 
ENDBRANCH  48  67
BRANCH  60  73
ATOM     73  C   UNL A   1      45.112  33.463  28.969  1.00  0.00    -0.014 A 
ATOM     74  C   UNL A   1      46.060  33.610  29.992  1.00  0.00     0.009 A 
ATOM     75  C   UNL A   1      44.901  34.526  28.075  1.00  0.00     0.009 A 
ATOM     76  C   UNL A   1      46.769  34.805  30.129  1.00  0.00     0.001 A 
ATOM     77  C   UNL A   1      45.627  35.711  28.202  1.00  0.00     0.001 A 
ATOM     78  C   UNL A   1      46.555  35.852  29.232  1.00  0.00     0.000 A 
ENDBRANCH  60  73
ENDBRANCH  34  35
ENDBRANCH  27  29
ENDBRANCH  26  27
ENDBRANCH  25  26
ENDBRANCH  24  25
ENDBRANCH   1  24
TORSDOF 17
ENDMDL
MODEL 2
REMARK VINA RESULT:     -10.2      2.293      6.515
REMARK SMILES CO[C@H]1C[C@H](C(=O)OCCOCCOC(=O)c2ccc(-c3c4nc(c(-c5ccccc5)c5ccc([nH]5)c(-c5ccccc5)c5nc(c(-c6ccccc6)c6ccc3[nH]6)C=C5)C=C4)cc2)N(C(=O)c2cc(Cl)c(Cl)n2C)C1
REMARK SMILES IDX 11 1 10 2 9 3 8 4 6 5 7 6 5 7 3 8 4 9 76 10 65 11 2 12 1 13
REMARK SMILES IDX 66 14 67 15 68 16 69 17 74 18 70 19 72 20 75 21 71 22 73 23
REMARK SMILES IDX 12 24 13 25 14 26 15 27 16 28 17 29 18 30 64 31 19 32 63 33
REMARK SMILES IDX 20 34 21 35 22 36 57 37 23 38 62 39 56 40 58 41 24 42 61 43
REMARK SMILES IDX 55 44 54 45 25 47 47 48 32 49 46 50 33 51 36 52 45 53 59 54
REMARK SMILES IDX 34 55 35 56 44 58 60 59 37 60 26 61 27 62 31 63 28 64 30 65
REMARK SMILES IDX 29 66 48 67 49 68 53 69 50 70 52 71 51 72 38 73 39 74 43 75
REMARK SMILES IDX 40 76 42 77 41 78
REMARK H PARENT 58 46 36 57
REMARK Flexibility Score: inf
ROOT
ATOM      1  O   UNL A   1      37.513  22.268  25.745  1.00  0.00    -0.374 OA
ENDROOT
BRANCH   1   2
ATOM      2  C   UNL A   1      37.213  23.647  25.550  1.00  0.00     0.202 C 
BRANCH   2   3
ATOM      3  C   UNL A   1      35.732  24.027  25.568  1.00  0.00     0.261 C 
BRANCH   3   4
ATOM      4  O   UNL A   1      34.964  23.217  24.663  1.00  0.00    -0.462 OA
BRANCH   4   5
ATOM      5  C   UNL A   1      33.971  23.879  24.013  1.00  0.00     0.329 C 
ATOM      6  O   UNL A   1      34.124  24.951  23.435  1.00  0.00    -0.250 OA
BRANCH   5   7
ATOM      7  C   UNL A   1      32.613  23.159  24.080  1.00  0.00     0.198 C 
ATOM      8  C   UNL A   1      32.878  20.862  24.836  1.00  0.00     0.140 C 
ATOM      9  C   UNL A   1      32.540  21.715  23.607  1.00  0.00     0.071 C 
ATOM     10  C   UNL A   1      32.668  21.798  26.039  1.00  0.00     0.153 C 
ATOM     11  N   UNL A   1      32.234  23.067  25.483  1.00  0.00    -0.321 N 
BRANCH   8  12
ATOM     12  O   UNL A   1      32.021  19.728  24.978  1.00  0.00    -0.380 OA
ATOM     13  C   UNL A   1      32.682  18.471  24.978  1.00  0.00     0.195 C 
ENDBRANCH   8  12
BRANCH  11  14
ATOM     14  C   UNL A   1      31.748  24.082  26.284  1.00  0.00     0.271 C 
ATOM     15  O   UNL A   1      31.795  24.008  27.508  1.00  0.00    -0.267 OA
BRANCH  14  16
ATOM     16  C   UNL A   1      31.207  25.245  25.608  1.00  0.00     0.109 A 
ATOM     17  C   UNL A   1      30.004  25.360  24.921  1.00  0.00     0.055 A 
ATOM     18  N   UNL A   1      31.817  26.489  25.562  1.00  0.00    -0.329 N 
ATOM     19  C   UNL A   1      29.902  26.678  24.425  1.00  0.00     0.078 A 
ATOM     20  C   UNL A   1      31.023  27.345  24.843  1.00  0.00     0.128 A 
ATOM     21  C   UNL A   1      33.116  26.804  26.123  1.00  0.00     0.151 C 
ATOM     22  Cl  UNL A   1      28.609  27.261  23.494  1.00  0.00    -0.081 Cl
ATOM     23  Cl  UNL A   1      31.494  28.967  24.594  1.00  0.00    -0.063 Cl
ENDBRANCH  14  16
ENDBRANCH  11  14
ENDBRANCH   5   7
ENDBRANCH   4   5
ENDBRANCH   3   4
ENDBRANCH   2   3
ENDBRANCH   1   2
BRANCH   1  24
ATOM     24  C   UNL A   1      38.847  21.910  26.110  1.00  0.00     0.202 C 
BRANCH  24  25
ATOM     25  C   UNL A   1      39.324  20.507  25.715  1.00  0.00     0.261 C 
BRANCH  25  26
ATOM     26  O   UNL A   1      40.329  19.998  26.615  1.00  0.00    -0.460 OA
BRANCH  26  27
ATOM     27  C   UNL A   1      41.597  20.066  26.139  1.00  0.00     0.338 C 
ATOM     28  O   UNL A   1      42.142  19.288  25.369  1.00  0.00    -0.246 OA
BRANCH  27  29
ATOM     29  C   UNL A   1      42.232  21.335  26.534  1.00  0.00     0.060 A 
ATOM     30  C   UNL A   1      42.302  21.629  27.902  1.00  0.00     0.016 A 
ATOM     31  C   UNL A   1      42.627  22.279  25.584  1.00  0.00     0.016 A 
ATOM     32  C   UNL A   1      42.710  22.892  28.326  1.00  0.00     0.010 A 
ATOM     33  C   UNL A   1      43.025  23.550  26.011  1.00  0.00     0.010 A 
ATOM     34  C   UNL A   1      43.025  23.875  27.380  1.00  0.00    -0.014 A 
BRANCH  34  35
ATOM     35  C   UNL A   1      43.161  25.287  27.810  1.00  0.00     0.031 A 
ATOM     36  C   UNL A   1      44.543  25.852  28.008  1.00  0.00     0.074 A 
ATOM     37  C   UNL A   1      42.085  26.070  27.989  1.00  0.00     0.049 A 
ATOM     38  N   UNL A   1      44.903  27.040  28.421  1.00  0.00    -0.248 NA
ATOM     39  C   UNL A   1      45.668  24.955  27.693  1.00  0.00     0.031 C 
ATOM     40  C   UNL A   1      40.697  25.669  27.763  1.00  0.00     0.029 A 
ATOM     41  N   UNL A   1      41.997  27.374  28.406  1.00  0.00    -0.354 N 
ATOM     42  C   UNL A   1      46.293  27.033  28.421  1.00  0.00     0.074 A 
ATOM     43  C   UNL A   1      46.711  25.716  27.990  1.00  0.00     0.031 C 
ATOM     44  C   UNL A   1      39.894  26.708  28.048  1.00  0.00     0.029 A 
ATOM     45  C   UNL A   1      40.707  27.832  28.509  1.00  0.00     0.049 A 
ATOM     46  H   UNL A   1      42.784  27.928  28.612  1.00  0.00     0.167 HD
ATOM     47  C   UNL A   1      47.147  28.031  28.747  1.00  0.00     0.031 A 
ATOM     48  C   UNL A   1      40.238  29.017  28.944  1.00  0.00     0.031 A 
ATOM     49  C   UNL A   1      46.739  29.334  29.193  1.00  0.00     0.049 A 
ATOM     50  C   UNL A   1      41.204  30.077  29.400  1.00  0.00     0.074 A 
ATOM     51  C   UNL A   1      47.530  30.409  29.558  1.00  0.00     0.029 A 
ATOM     52  N   UNL A   1      45.421  29.737  29.339  1.00  0.00    -0.354 N 
ATOM     53  N   UNL A   1      42.514  30.056  29.402  1.00  0.00    -0.248 NA
ATOM     54  C   UNL A   1      40.622  31.326  29.914  1.00  0.00     0.031 C 
ATOM     55  C   UNL A   1      46.690  31.451  29.966  1.00  0.00     0.029 A 
ATOM     56  C   UNL A   1      45.377  31.038  29.808  1.00  0.00     0.049 A 
ATOM     57  H   UNL A   1      44.634  29.181  29.139  1.00  0.00     0.167 HD
ATOM     58  C   UNL A   1      42.913  31.297  29.885  1.00  0.00     0.074 A 
ATOM     59  C   UNL A   1      41.706  32.047  30.165  1.00  0.00     0.031 C 
ATOM     60  C   UNL A   1      44.168  31.774  30.074  1.00  0.00     0.031 A 
BRANCH  47  61
ATOM     61  C   UNL A   1      48.615  27.728  28.666  1.00  0.00    -0.014 A 
ATOM     62  C   UNL A   1      49.304  27.168  29.753  1.00  0.00     0.009 A 
ATOM     63  C   UNL A   1      49.316  27.998  27.481  1.00  0.00     0.009 A 
ATOM     64  C   UNL A   1      50.674  26.916  29.666  1.00  0.00     0.001 A 
ATOM     65  C   UNL A   1      50.682  27.722  27.389  1.00  0.00     0.001 A 
ATOM     66  C   UNL A   1      51.361  27.192  28.484  1.00  0.00     0.000 A 
ENDBRANCH  47  61
BRANCH  48  67
ATOM     67  C   UNL A   1      38.774  29.266  28.986  1.00  0.00    -0.014 A 
ATOM     68  C   UNL A   1      38.093  29.699  27.839  1.00  0.00     0.009 A 
ATOM     69  C   UNL A   1      38.056  29.086  30.177  1.00  0.00     0.009 A 
ATOM     70  C   UNL A   1      36.722  29.964  27.890  1.00  0.00     0.001 A 
ATOM     71  C   UNL A   1      36.682  29.329  30.219  1.00  0.00     0.001 A 
ATOM     72  C   UNL A   1      36.018  29.774  29.079  1.00  0.00     0.000 A 
ENDBRANCH  48  67
BRANCH  60  73
ATOM     73  C   UNL A   1      44.305  33.187  30.560  1.00  0.00    -0.014 A 
ATOM     74  C   UNL A   1      44.400  33.482  31.928  1.00  0.00     0.009 A 
ATOM     75  C   UNL A   1      44.396  34.233  29.627  1.00  0.00     0.009 A 
ATOM     76  C   UNL A   1      44.563  34.802  32.354  1.00  0.00     0.001 A 
ATOM     77  C   UNL A   1      44.581  35.549  30.055  1.00  0.00     0.001 A 
ATOM     78  C   UNL A   1      44.659  35.832  31.418  1.00  0.00     0.000 A 
ENDBRANCH  60  73
ENDBRANCH  34  35
ENDBRANCH  27  29
ENDBRANCH  26  27
ENDBRANCH  25  26
ENDBRANCH  24  25
ENDBRANCH   1  24
TORSDOF 17
ENDMDL
MODEL 3
REMARK VINA RESULT:     -10.2      1.843      2.273
REMARK SMILES CO[C@H]1C[C@H](C(=O)OCCOCCOC(=O)c2ccc(-c3c4nc(c(-c5ccccc5)c5ccc([nH]5)c(-c5ccccc5)c5nc(c(-c6ccccc6)c6ccc3[nH]6)C=C5)C=C4)cc2)N(C(=O)c2cc(Cl)c(Cl)n2C)C1
REMARK SMILES IDX 11 1 10 2 9 3 8 4 6 5 7 6 5 7 3 8 4 9 76 10 65 11 2 12 1 13
REMARK SMILES IDX 66 14 67 15 68 16 69 17 74 18 70 19 72 20 75 21 71 22 73 23
REMARK SMILES IDX 12 24 13 25 14 26 15 27 16 28 17 29 18 30 64 31 19 32 63 33
REMARK SMILES IDX 20 34 21 35 22 36 57 37 23 38 62 39 56 40 58 41 24 42 61 43
REMARK SMILES IDX 55 44 54 45 25 47 47 48 32 49 46 50 33 51 36 52 45 53 59 54
REMARK SMILES IDX 34 55 35 56 44 58 60 59 37 60 26 61 27 62 31 63 28 64 30 65
REMARK SMILES IDX 29 66 48 67 49 68 53 69 50 70 52 71 51 72 38 73 39 74 43 75
REMARK SMILES IDX 40 76 42 77 41 78
REMARK H PARENT 58 46 36 57
REMARK Flexibility Score: inf
ROOT
ATOM      1  O   UNL A   1      34.997  21.745  26.681  1.00  0.00    -0.374 OA
ENDROOT
BRANCH   1   2
ATOM      2  C   UNL A   1      34.641  23.125  26.653  1.00  0.00     0.202 C 
BRANCH   2   3
ATOM      3  C   UNL A   1      33.144  23.437  26.624  1.00  0.00     0.261 C 
BRANCH   3   4
ATOM      4  O   UNL A   1      32.897  24.851  26.565  1.00  0.00    -0.462 OA
BRANCH   4   5
ATOM      5  C   UNL A   1      31.584  25.200  26.617  1.00  0.00     0.329 C 
ATOM      6  O   UNL A   1      30.680  24.428  26.921  1.00  0.00    -0.250 OA
BRANCH   5   7
ATOM      7  C   UNL A   1      31.329  26.670  26.240  1.00  0.00     0.198 C 
ATOM      8  C   UNL A   1      33.075  28.115  27.125  1.00  0.00     0.140 C 
ATOM      9  C   UNL A   1      31.597  27.739  27.288  1.00  0.00     0.071 C 
ATOM     10  C   UNL A   1      33.460  27.612  25.722  1.00  0.00     0.153 C 
ATOM     11  N   UNL A   1      32.256  27.016  25.171  1.00  0.00    -0.321 N 
BRANCH   8  12
ATOM     12  O   UNL A   1      33.299  29.525  27.187  1.00  0.00    -0.380 OA
ATOM     13  C   UNL A   1      32.320  30.318  26.533  1.00  0.00     0.195 C 
ENDBRANCH   8  12
BRANCH  11  14
ATOM     14  C   UNL A   1      32.171  26.648  23.842  1.00  0.00     0.271 C 
ATOM     15  O   UNL A   1      31.631  27.374  23.011  1.00  0.00    -0.267 OA
BRANCH  14  16
ATOM     16  C   UNL A   1      32.774  25.382  23.475  1.00  0.00     0.109 A 
ATOM     17  C   UNL A   1      34.123  25.084  23.317  1.00  0.00     0.055 A 
ATOM     18  N   UNL A   1      32.073  24.209  23.241  1.00  0.00    -0.329 N 
ATOM     19  C   UNL A   1      34.236  23.725  22.950  1.00  0.00     0.078 A 
ATOM     20  C   UNL A   1      32.964  23.217  22.922  1.00  0.00     0.128 A 
ATOM     21  C   UNL A   1      30.629  24.080  23.263  1.00  0.00     0.151 C 
ATOM     22  Cl  UNL A   1      35.699  22.933  22.621  1.00  0.00    -0.081 Cl
ATOM     23  Cl  UNL A   1      32.418  21.637  22.571  1.00  0.00    -0.063 Cl
ENDBRANCH  14  16
ENDBRANCH  11  14
ENDBRANCH   5   7
ENDBRANCH   4   5
ENDBRANCH   3   4
ENDBRANCH   2   3
ENDBRANCH   1   2
BRANCH   1  24
ATOM     24  C   UNL A   1      35.154  21.062  25.435  1.00  0.00     0.202 C 
BRANCH  24  25
ATOM     25  C   UNL A   1      36.546  20.500  25.121  1.00  0.00     0.261 C 
BRANCH  25  26
ATOM     26  O   UNL A   1      37.558  21.527  25.101  1.00  0.00    -0.460 OA
BRANCH  26  27
ATOM     27  C   UNL A   1      38.685  21.220  25.789  1.00  0.00     0.338 C 
ATOM     28  O   UNL A   1      39.304  20.165  25.764  1.00  0.00    -0.246 OA
BRANCH  27  29
ATOM     29  C   UNL A   1      39.211  22.408  26.481  1.00  0.00     0.060 A 
ATOM     30  C   UNL A   1      38.621  23.646  26.188  1.00  0.00     0.016 A 
ATOM     31  C   UNL A   1      40.342  22.337  27.296  1.00  0.00     0.016 A 
ATOM     32  C   UNL A   1      39.199  24.824  26.657  1.00  0.00     0.010 A 
ATOM     33  C   UNL A   1      40.927  23.521  27.755  1.00  0.00     0.010 A 
ATOM     34  C   UNL A   1      40.384  24.769  27.401  1.00  0.00    -0.014 A 
BRANCH  34  35
ATOM     35  C   UNL A   1      41.156  26.013  27.638  1.00  0.00     0.031 A 
ATOM     36  C   UNL A   1      40.558  27.077  28.520  1.00  0.00     0.074 A 
ATOM     37  C   UNL A   1      42.380  26.185  27.113  1.00  0.00     0.049 A 
ATOM     38  N   UNL A   1      41.029  28.258  28.831  1.00  0.00    -0.248 NA
ATOM     39  C   UNL A   1      39.258  26.764  29.135  1.00  0.00     0.031 C 
ATOM     40  C   UNL A   1      43.101  25.206  26.301  1.00  0.00     0.029 A 
ATOM     41  N   UNL A   1      43.233  27.257  27.188  1.00  0.00    -0.354 N 
ATOM     42  C   UNL A   1      40.082  28.829  29.673  1.00  0.00     0.074 A 
ATOM     43  C   UNL A   1      39.001  27.877  29.804  1.00  0.00     0.031 C 
ATOM     44  C   UNL A   1      44.290  25.726  25.951  1.00  0.00     0.029 A 
ATOM     45  C   UNL A   1      44.397  27.084  26.482  1.00  0.00     0.049 A 
ATOM     46  H   UNL A   1      43.029  28.073  27.700  1.00  0.00     0.167 HD
ATOM     47  C   UNL A   1      40.109  30.037  30.285  1.00  0.00     0.031 A 
ATOM     48  C   UNL A   1      45.422  27.932  26.273  1.00  0.00     0.031 A 
ATOM     49  C   UNL A   1      41.171  30.994  30.145  1.00  0.00     0.049 A 
ATOM     50  C   UNL A   1      45.382  29.309  26.879  1.00  0.00     0.074 A 
ATOM     51  C   UNL A   1      41.283  32.249  30.716  1.00  0.00     0.029 A 
ATOM     52  N   UNL A   1      42.305  30.801  29.371  1.00  0.00    -0.354 N 
ATOM     53  N   UNL A   1      44.479  29.841  27.666  1.00  0.00    -0.248 NA
ATOM     54  C   UNL A   1      46.507  30.203  26.565  1.00  0.00     0.031 C 
ATOM     55  C   UNL A   1      42.468  32.834  30.253  1.00  0.00     0.029 A 
ATOM     56  C   UNL A   1      43.113  31.922  29.434  1.00  0.00     0.049 A 
ATOM     57  H   UNL A   1      42.505  29.987  28.855  1.00  0.00     0.167 HD
ATOM     58  C   UNL A   1      44.942  31.117  27.968  1.00  0.00     0.074 A 
ATOM     59  C   UNL A   1      46.206  31.279  27.281  1.00  0.00     0.031 C 
ATOM     60  C   UNL A   1      44.372  32.065  28.751  1.00  0.00     0.031 A 
BRANCH  47  61
ATOM     61  C   UNL A   1      38.926  30.398  31.135  1.00  0.00    -0.014 A 
ATOM     62  C   UNL A   1      38.899  30.101  32.507  1.00  0.00     0.009 A 
ATOM     63  C   UNL A   1      37.828  31.052  30.558  1.00  0.00     0.009 A 
ATOM     64  C   UNL A   1      37.779  30.423  33.277  1.00  0.00     0.001 A 
ATOM     65  C   UNL A   1      36.720  31.394  31.335  1.00  0.00     0.001 A 
ATOM     66  C   UNL A   1      36.691  31.070  32.690  1.00  0.00     0.000 A 
ENDBRANCH  47  61
BRANCH  48  67
ATOM     67  C   UNL A   1      46.574  27.512  25.436  1.00  0.00    -0.014 A 
ATOM     68  C   UNL A   1      47.596  26.719  25.978  1.00  0.00     0.009 A 
ATOM     69  C   UNL A   1      46.665  27.916  24.095  1.00  0.00     0.009 A 
ATOM     70  C   UNL A   1      48.696  26.354  25.197  1.00  0.00     0.001 A 
ATOM     71  C   UNL A   1      47.753  27.529  23.311  1.00  0.00     0.001 A 
ATOM     72  C   UNL A   1      48.771  26.756  23.864  1.00  0.00     0.000 A 
ENDBRANCH  48  67
BRANCH  60  73
ATOM     73  C   UNL A   1      45.131  33.345  28.948  1.00  0.00    -0.014 A 
ATOM     74  C   UNL A   1      46.082  33.479  29.969  1.00  0.00     0.009 A 
ATOM     75  C   UNL A   1      44.927  34.413  28.060  1.00  0.00     0.009 A 
ATOM     76  C   UNL A   1      46.802  34.668  30.110  1.00  0.00     0.001 A 
ATOM     77  C   UNL A   1      45.662  35.592  28.190  1.00  0.00     0.001 A 
ATOM     78  C   UNL A   1      46.594  35.720  29.218  1.00  0.00     0.000 A 
ENDBRANCH  60  73
ENDBRANCH  34  35
ENDBRANCH  27  29
ENDBRANCH  26  27
ENDBRANCH  25  26
ENDBRANCH  24  25
ENDBRANCH   1  24
TORSDOF 17
ENDMDL
