MODEL 1
REMARK VINA RESULT:      -9.9      0.000      0.000
REMARK SMILES O=C(C[C@H]1CCCCO1)N[C@@H](C(=O)OCCOCCOC(=O)c1ccc(-c2c3nc(c(-c4ccccc4)c4ccc([nH]4)c(-c4ccccc4)c4nc(c(-c5ccccc5)c5ccc2[nH]5)C=C4)C=C3)cc1)C1CCCCC1
REMARK SMILES IDX 16 1 15 2 14 3 12 4 13 5 11 6 10 7 1 8 2 9 3 11 4 12 5 13
REMARK SMILES IDX 9 14 6 15 8 16 7 17 71 18 72 19 76 20 73 21 75 22 74 23
REMARK SMILES IDX 17 24 18 25 19 26 20 27 21 28 22 29 23 30 24 31 70 32 25 33
REMARK SMILES IDX 69 34 26 35 27 36 28 37 63 38 29 39 68 40 62 41 64 42 30 43
REMARK SMILES IDX 67 44 61 45 60 46 31 48 53 49 38 50 52 51 39 52 42 53 51 54
REMARK SMILES IDX 65 55 40 56 41 57 50 59 66 60 43 61 32 62 33 63 37 64 34 65
REMARK SMILES IDX 36 66 35 67 54 68 55 69 59 70 56 71 58 72 57 73 44 74 45 75
REMARK SMILES IDX 49 76 46 77 48 78 47 79
REMARK H PARENT 10 10 64 47 42 58
REMARK Flexibility Score: inf
ROOT
ATOM      1  C   UNL A   1      32.978  22.283  26.160  1.00  0.00     0.202 C 
ENDROOT
BRANCH   1   2
ATOM      2  C   UNL A   1      32.903  23.390  25.104  1.00  0.00     0.261 C 
BRANCH   2   3
ATOM      3  O   UNL A   1      32.529  24.650  25.677  1.00  0.00    -0.462 OA
BRANCH   3   4
ATOM      4  C   UNL A   1      32.877  25.743  24.938  1.00  0.00     0.329 C 
ATOM      5  O   UNL A   1      33.796  25.758  24.126  1.00  0.00    -0.250 OA
BRANCH   4   6
ATOM      6  C   UNL A   1      31.896  26.919  25.114  1.00  0.00     0.195 C 
BRANCH   6   7
ATOM      7  N   UNL A   1      31.608  27.653  23.876  1.00  0.00    -0.342 N 
ATOM      8  O   UNL A   1      29.437  26.974  23.613  1.00  0.00    -0.275 OA
ATOM      9  C   UNL A   1      30.385  27.667  23.260  1.00  0.00     0.223 C 
ATOM     10  H   UNL A   1      32.339  28.169  23.463  1.00  0.00     0.164 HD
BRANCH   9  11
ATOM     11  C   UNL A   1      30.297  28.632  22.091  1.00  0.00     0.132 C 
BRANCH  11  12
ATOM     12  C   UNL A   1      29.139  29.632  22.217  1.00  0.00     0.127 C 
ATOM     13  C   UNL A   1      29.240  30.490  23.486  1.00  0.00     0.033 C 
ATOM     14  O   UNL A   1      29.098  30.447  21.030  1.00  0.00    -0.378 OA
ATOM     15  C   UNL A   1      28.146  31.553  23.524  1.00  0.00     0.005 C 
ATOM     16  C   UNL A   1      28.012  31.375  21.037  1.00  0.00     0.160 C 
ATOM     17  C   UNL A   1      28.120  32.331  22.216  1.00  0.00     0.029 C 
ENDBRANCH  11  12
ENDBRANCH   9  11
ENDBRANCH   6   7
BRANCH   6  18
ATOM     18  C   UNL A   1      32.331  27.961  26.195  1.00  0.00     0.023 C 
ATOM     19  C   UNL A   1      33.867  27.929  26.340  1.00  0.00     0.006 C 
ATOM     20  C   UNL A   1      31.837  29.403  25.981  1.00  0.00     0.006 C 
ATOM     21  C   UNL A   1      34.389  28.915  27.380  1.00  0.00     0.000 C 
ATOM     22  C   UNL A   1      32.361  30.355  27.058  1.00  0.00     0.000 C 
ATOM     23  C   UNL A   1      33.882  30.327  27.119  1.00  0.00     0.000 C 
ENDBRANCH   6  18
ENDBRANCH   4   6
ENDBRANCH   3   4
ENDBRANCH   2   3
ENDBRANCH   1   2
BRANCH   1  24
ATOM     24  O   UNL A   1      34.257  22.031  26.737  1.00  0.00    -0.374 OA
BRANCH  24  25
ATOM     25  C   UNL A   1      35.293  22.987  26.503  1.00  0.00     0.202 C 
BRANCH  25  26
ATOM     26  C   UNL A   1      36.325  22.659  25.415  1.00  0.00     0.261 C 
BRANCH  26  27
ATOM     27  O   UNL A   1      37.429  23.586  25.400  1.00  0.00    -0.460 OA
BRANCH  27  28
ATOM     28  C   UNL A   1      38.549  23.156  26.029  1.00  0.00     0.338 C 
ATOM     29  O   UNL A   1      39.068  22.049  25.951  1.00  0.00    -0.246 OA
BRANCH  28  30
ATOM     30  C   UNL A   1      39.201  24.279  26.720  1.00  0.00     0.060 A 
ATOM     31  C   UNL A   1      38.908  24.483  28.076  1.00  0.00     0.016 A 
ATOM     32  C   UNL A   1      40.019  25.172  26.027  1.00  0.00     0.016 A 
ATOM     33  C   UNL A   1      39.424  25.593  28.743  1.00  0.00     0.010 A 
ATOM     34  C   UNL A   1      40.523  26.292  26.694  1.00  0.00     0.010 A 
ATOM     35  C   UNL A   1      40.214  26.518  28.048  1.00  0.00    -0.014 A 
BRANCH  35  36
ATOM     36  C   UNL A   1      40.646  27.774  28.706  1.00  0.00     0.031 A 
ATOM     37  C   UNL A   1      39.666  28.900  28.867  1.00  0.00     0.074 A 
ATOM     38  C   UNL A   1      41.910  27.911  29.145  1.00  0.00     0.049 A 
ATOM     39  N   UNL A   1      39.862  30.109  29.326  1.00  0.00    -0.248 NA
ATOM     40  C   UNL A   1      38.279  28.626  28.456  1.00  0.00     0.031 C 
ATOM     41  C   UNL A   1      42.941  26.875  29.093  1.00  0.00     0.029 A 
ATOM     42  N   UNL A   1      42.544  28.991  29.707  1.00  0.00    -0.354 N 
ATOM     43  C   UNL A   1      38.629  30.744  29.251  1.00  0.00     0.074 A 
ATOM     44  C   UNL A   1      37.695  29.794  28.687  1.00  0.00     0.031 C 
ATOM     45  C   UNL A   1      44.085  27.377  29.587  1.00  0.00     0.029 A 
ATOM     46  C   UNL A   1      43.878  28.777  29.949  1.00  0.00     0.049 A 
ATOM     47  H   UNL A   1      42.085  29.837  29.917  1.00  0.00     0.167 HD
ATOM     48  C   UNL A   1      38.306  32.007  29.619  1.00  0.00     0.031 A 
ATOM     49  C   UNL A   1      44.832  29.625  30.377  1.00  0.00     0.031 A 
ATOM     50  C   UNL A   1      39.239  32.958  30.162  1.00  0.00     0.049 A 
ATOM     51  C   UNL A   1      44.471  31.054  30.675  1.00  0.00     0.074 A 
ATOM     52  C   UNL A   1      39.001  34.253  30.588  1.00  0.00     0.029 A 
ATOM     53  N   UNL A   1      40.592  32.719  30.341  1.00  0.00    -0.354 N 
ATOM     54  N   UNL A   1      43.297  31.637  30.626  1.00  0.00    -0.248 NA
ATOM     55  C   UNL A   1      45.569  31.945  31.080  1.00  0.00     0.031 C 
ATOM     56  C   UNL A   1      40.223  34.818  30.969  1.00  0.00     0.029 A 
ATOM     57  C   UNL A   1      41.210  33.857  30.831  1.00  0.00     0.049 A 
ATOM     58  H   UNL A   1      41.047  31.867  30.149  1.00  0.00     0.167 HD
ATOM     59  C   UNL A   1      43.512  32.956  31.009  1.00  0.00     0.074 A 
ATOM     60  C   UNL A   1      44.925  33.083  31.303  1.00  0.00     0.031 C 
ATOM     61  C   UNL A   1      42.619  33.970  31.109  1.00  0.00     0.031 A 
BRANCH  48  62
ATOM     62  C   UNL A   1      36.886  32.447  29.406  1.00  0.00    -0.014 A 
ATOM     63  C   UNL A   1      35.905  32.248  30.389  1.00  0.00     0.009 A 
ATOM     64  C   UNL A   1      36.535  33.109  28.219  1.00  0.00     0.009 A 
ATOM     65  C   UNL A   1      34.593  32.677  30.175  1.00  0.00     0.001 A 
ATOM     66  C   UNL A   1      35.229  33.559  28.017  1.00  0.00     0.001 A 
ATOM     67  C   UNL A   1      34.258  33.335  28.990  1.00  0.00     0.000 A 
ENDBRANCH  48  62
BRANCH  49  68
ATOM     68  C   UNL A   1      46.238  29.160  30.504  1.00  0.00    -0.014 A 
ATOM     69  C   UNL A   1      46.699  28.591  31.700  1.00  0.00     0.009 A 
ATOM     70  C   UNL A   1      47.131  29.299  29.429  1.00  0.00     0.009 A 
ATOM     71  C   UNL A   1      48.030  28.188  31.824  1.00  0.00     0.001 A 
ATOM     72  C   UNL A   1      48.455  28.870  29.547  1.00  0.00     0.001 A 
ATOM     73  C   UNL A   1      48.905  28.323  30.747  1.00  0.00     0.000 A 
ENDBRANCH  49  68
BRANCH  61  74
ATOM     74  C   UNL A   1      43.136  35.304  31.566  1.00  0.00    -0.014 A 
ATOM     75  C   UNL A   1      43.611  36.250  30.646  1.00  0.00     0.009 A 
ATOM     76  C   UNL A   1      43.095  35.639  32.929  1.00  0.00     0.009 A 
ATOM     77  C   UNL A   1      44.054  37.500  31.085  1.00  0.00     0.001 A 
ATOM     78  C   UNL A   1      43.515  36.898  33.362  1.00  0.00     0.001 A 
ATOM     79  C   UNL A   1      43.999  37.824  32.440  1.00  0.00     0.000 A 
ENDBRANCH  61  74
ENDBRANCH  35  36
ENDBRANCH  28  30
ENDBRANCH  27  28
ENDBRANCH  26  27
ENDBRANCH  25  26
ENDBRANCH  24  25
ENDBRANCH   1  24
TORSDOF 18
ENDMDL
MODEL 2
REMARK VINA RESULT:      -9.7      2.883      8.170
REMARK SMILES O=C(C[C@H]1CCCCO1)N[C@@H](C(=O)OCCOCCOC(=O)c1ccc(-c2c3nc(c(-c4ccccc4)c4ccc([nH]4)c(-c4ccccc4)c4nc(c(-c5ccccc5)c5ccc2[nH]5)C=C4)C=C3)cc1)C1CCCCC1
REMARK SMILES IDX 16 1 15 2 14 3 12 4 13 5 11 6 10 7 1 8 2 9 3 11 4 12 5 13
REMARK SMILES IDX 9 14 6 15 8 16 7 17 71 18 72 19 76 20 73 21 75 22 74 23
REMARK SMILES IDX 17 24 18 25 19 26 20 27 21 28 22 29 23 30 24 31 70 32 25 33
REMARK SMILES IDX 69 34 26 35 27 36 28 37 63 38 29 39 68 40 62 41 64 42 30 43
REMARK SMILES IDX 67 44 61 45 60 46 31 48 53 49 38 50 52 51 39 52 42 53 51 54
REMARK SMILES IDX 65 55 40 56 41 57 50 59 66 60 43 61 32 62 33 63 37 64 34 65
REMARK SMILES IDX 36 66 35 67 54 68 55 69 59 70 56 71 58 72 57 73 44 74 45 75
REMARK SMILES IDX 49 76 46 77 48 78 47 79
REMARK H PARENT 10 10 64 47 42 58
REMARK Flexibility Score: inf
ROOT
ATOM      1  C   UNL A   1      38.094  23.453  25.905  1.00  0.00     0.202 C 
ENDROOT
BRANCH   1   2
ATOM      2  C   UNL A   1      36.592  23.715  25.751  1.00  0.00     0.261 C 
BRANCH   2   3
ATOM      3  O   UNL A   1      36.226  23.928  24.381  1.00  0.00    -0.462 OA
BRANCH   3   4
ATOM      4  C   UNL A   1      34.892  24.115  24.165  1.00  0.00     0.329 C 
ATOM      5  O   UNL A   1      34.417  24.519  23.109  1.00  0.00    -0.250 OA
BRANCH   4   6
ATOM      6  C   UNL A   1      34.022  23.616  25.336  1.00  0.00     0.195 C 
BRANCH   6   7
ATOM      7  N   UNL A   1      33.221  22.425  25.027  1.00  0.00    -0.342 N 
ATOM      8  O   UNL A   1      34.953  20.989  24.604  1.00  0.00    -0.275 OA
ATOM      9  C   UNL A   1      33.753  21.196  24.745  1.00  0.00     0.223 C 
ATOM     10  H   UNL A   1      32.240  22.516  25.024  1.00  0.00     0.164 HD
BRANCH   9  11
ATOM     11  C   UNL A   1      32.719  20.091  24.624  1.00  0.00     0.132 C 
BRANCH  11  12
ATOM     12  C   UNL A   1      33.316  18.684  24.759  1.00  0.00     0.127 C 
ATOM     13  C   UNL A   1      32.537  17.808  25.751  1.00  0.00     0.033 C 
ATOM     14  O   UNL A   1      33.378  18.078  23.454  1.00  0.00    -0.378 OA
ATOM     15  C   UNL A   1      33.079  16.382  25.775  1.00  0.00     0.005 C 
ATOM     16  C   UNL A   1      33.974  16.779  23.478  1.00  0.00     0.160 C 
ATOM     17  C   UNL A   1      33.176  15.830  24.360  1.00  0.00     0.029 C 
ENDBRANCH  11  12
ENDBRANCH   9  11
ENDBRANCH   6   7
BRANCH   6  18
ATOM     18  C   UNL A   1      33.059  24.698  25.926  1.00  0.00     0.023 C 
ATOM     19  C   UNL A   1      33.725  26.084  25.811  1.00  0.00     0.006 C 
ATOM     20  C   UNL A   1      31.637  24.728  25.339  1.00  0.00     0.006 C 
ATOM     21  C   UNL A   1      32.859  27.210  26.366  1.00  0.00     0.000 C 
ATOM     22  C   UNL A   1      30.793  25.854  25.939  1.00  0.00     0.000 C 
ATOM     23  C   UNL A   1      31.467  27.205  25.747  1.00  0.00     0.000 C 
ENDBRANCH   6  18
ENDBRANCH   4   6
ENDBRANCH   3   4
ENDBRANCH   2   3
ENDBRANCH   1   2
BRANCH   1  24
ATOM     24  O   UNL A   1      38.485  22.119  26.220  1.00  0.00    -0.374 OA
BRANCH  24  25
ATOM     25  C   UNL A   1      38.130  21.085  25.299  1.00  0.00     0.202 C 
BRANCH  25  26
ATOM     26  C   UNL A   1      39.135  19.943  25.097  1.00  0.00     0.261 C 
BRANCH  26  27
ATOM     27  O   UNL A   1      39.870  19.631  26.298  1.00  0.00    -0.460 OA
BRANCH  27  28
ATOM     28  C   UNL A   1      41.218  19.654  26.169  1.00  0.00     0.338 C 
ATOM     29  O   UNL A   1      41.929  18.813  25.633  1.00  0.00    -0.246 OA
BRANCH  28  30
ATOM     30  C   UNL A   1      41.745  20.951  26.621  1.00  0.00     0.060 A 
ATOM     31  C   UNL A   1      41.611  21.286  27.976  1.00  0.00     0.016 A 
ATOM     32  C   UNL A   1      42.285  21.863  25.714  1.00  0.00     0.016 A 
ATOM     33  C   UNL A   1      42.005  22.544  28.427  1.00  0.00     0.010 A 
ATOM     34  C   UNL A   1      42.665  23.131  26.166  1.00  0.00     0.010 A 
ATOM     35  C   UNL A   1      42.511  23.483  27.519  1.00  0.00    -0.014 A 
BRANCH  35  36
ATOM     36  C   UNL A   1      42.795  24.870  27.958  1.00  0.00     0.031 A 
ATOM     37  C   UNL A   1      44.200  25.257  28.321  1.00  0.00     0.074 A 
ATOM     38  C   UNL A   1      41.802  25.773  28.044  1.00  0.00     0.049 A 
ATOM     39  N   UNL A   1      44.647  26.383  28.814  1.00  0.00    -0.248 NA
ATOM     40  C   UNL A   1      45.241  24.240  28.096  1.00  0.00     0.031 C 
ATOM     41  C   UNL A   1      40.408  25.535  27.674  1.00  0.00     0.029 A 
ATOM     42  N   UNL A   1      41.817  27.071  28.490  1.00  0.00    -0.354 N 
ATOM     43  C   UNL A   1      46.016  26.209  28.969  1.00  0.00     0.074 A 
ATOM     44  C   UNL A   1      46.325  24.865  28.533  1.00  0.00     0.031 C 
ATOM     45  C   UNL A   1      39.696  26.647  27.925  1.00  0.00     0.029 A 
ATOM     46  C   UNL A   1      40.575  27.656  28.511  1.00  0.00     0.049 A 
ATOM     47  H   UNL A   1      42.639  27.537  28.767  1.00  0.00     0.167 HD
ATOM     48  C   UNL A   1      46.933  27.092  29.433  1.00  0.00     0.031 A 
ATOM     49  C   UNL A   1      40.186  28.855  28.984  1.00  0.00     0.031 A 
ATOM     50  C   UNL A   1      46.623  28.422  29.884  1.00  0.00     0.049 A 
ATOM     51  C   UNL A   1      41.206  29.775  29.597  1.00  0.00     0.074 A 
ATOM     52  C   UNL A   1      47.487  29.398  30.348  1.00  0.00     0.029 A 
ATOM     53  N   UNL A   1      45.346  28.957  29.939  1.00  0.00    -0.354 N 
ATOM     54  N   UNL A   1      42.502  29.611  29.713  1.00  0.00    -0.248 NA
ATOM     55  C   UNL A   1      40.708  31.043  30.151  1.00  0.00     0.031 C 
ATOM     56  C   UNL A   1      46.725  30.504  30.741  1.00  0.00     0.029 A 
ATOM     57  C   UNL A   1      45.393  30.234  30.470  1.00  0.00     0.049 A 
ATOM     58  H   UNL A   1      44.526  28.497  29.644  1.00  0.00     0.167 HD
ATOM     59  C   UNL A   1      42.975  30.759  30.337  1.00  0.00     0.074 A 
ATOM     60  C   UNL A   1      41.830  31.618  30.559  1.00  0.00     0.031 C 
ATOM     61  C   UNL A   1      44.244  31.073  30.694  1.00  0.00     0.031 A 
BRANCH  48  62
ATOM     62  C   UNL A   1      48.359  26.628  29.515  1.00  0.00    -0.014 A 
ATOM     63  C   UNL A   1      49.261  26.848  28.462  1.00  0.00     0.009 A 
ATOM     64  C   UNL A   1      48.818  25.998  30.683  1.00  0.00     0.009 A 
ATOM     65  C   UNL A   1      50.586  26.419  28.566  1.00  0.00     0.001 A 
ATOM     66  C   UNL A   1      50.149  25.592  30.794  1.00  0.00     0.001 A 
ATOM     67  C   UNL A   1      51.029  25.795  29.732  1.00  0.00     0.000 A 
ENDBRANCH  48  62
BRANCH  49  68
ATOM     68  C   UNL A   1      38.751  29.239  28.944  1.00  0.00    -0.014 A 
ATOM     69  C   UNL A   1      37.919  29.018  30.051  1.00  0.00     0.009 A 
ATOM     70  C   UNL A   1      38.203  29.815  27.786  1.00  0.00     0.009 A 
ATOM     71  C   UNL A   1      36.563  29.349  29.994  1.00  0.00     0.001 A 
ATOM     72  C   UNL A   1      36.853  30.170  27.742  1.00  0.00     0.001 A 
ATOM     73  C   UNL A   1      36.033  29.930  28.842  1.00  0.00     0.000 A 
ENDBRANCH  49  68
BRANCH  61  74
ATOM     74  C   UNL A   1      44.468  32.406  31.349  1.00  0.00    -0.014 A 
ATOM     75  C   UNL A   1      44.454  32.537  32.745  1.00  0.00     0.009 A 
ATOM     76  C   UNL A   1      44.753  33.532  30.561  1.00  0.00     0.009 A 
ATOM     77  C   UNL A   1      44.700  33.777  33.340  1.00  0.00     0.001 A 
ATOM     78  C   UNL A   1      45.024  34.764  31.159  1.00  0.00     0.001 A 
ATOM     79  C   UNL A   1      44.991  34.886  32.547  1.00  0.00     0.000 A 
ENDBRANCH  61  74
ENDBRANCH  35  36
ENDBRANCH  28  30
ENDBRANCH  27  28
ENDBRANCH  26  27
ENDBRANCH  25  26
ENDBRANCH  24  25
ENDBRANCH   1  24
TORSDOF 18
ENDMDL
MODEL 3
REMARK VINA RESULT:      -9.7      3.461      8.031
REMARK SMILES O=C(C[C@H]1CCCCO1)N[C@@H](C(=O)OCCOCCOC(=O)c1ccc(-c2c3nc(c(-c4ccccc4)c4ccc([nH]4)c(-c4ccccc4)c4nc(c(-c5ccccc5)c5ccc2[nH]5)C=C4)C=C3)cc1)C1CCCCC1
REMARK SMILES IDX 16 1 15 2 14 3 12 4 13 5 11 6 10 7 1 8 2 9 3 11 4 12 5 13
REMARK SMILES IDX 9 14 6 15 8 16 7 17 71 18 72 19 76 20 73 21 75 22 74 23
REMARK SMILES IDX 17 24 18 25 19 26 20 27 21 28 22 29 23 30 24 31 70 32 25 33
REMARK SMILES IDX 69 34 26 35 27 36 28 37 63 38 29 39 68 40 62 41 64 42 30 43
REMARK SMILES IDX 67 44 61 45 60 46 31 48 53 49 38 50 52 51 39 52 42 53 51 54
REMARK SMILES IDX 65 55 40 56 41 57 50 59 66 60 43 61 32 62 33 63 37 64 34 65
REMARK SMILES IDX 36 66 35 67 54 68 55 69 59 70 56 71 58 72 57 73 44 74 45 75
REMARK SMILES IDX 49 76 46 77 48 78 47 79
REMARK H PARENT 10 10 64 47 42 58
REMARK Flexibility Score: inf
ROOT
ATOM      1  C   UNL A   1      38.978  22.570  26.253  1.00  0.00     0.202 C 
ENDROOT
BRANCH   1   2
ATOM      2  C   UNL A   1      37.487  22.655  25.912  1.00  0.00     0.261 C 
BRANCH   2   3
ATOM      3  O   UNL A   1      37.236  23.575  24.840  1.00  0.00    -0.462 OA
BRANCH   3   4
ATOM      4  C   UNL A   1      36.287  23.171  23.947  1.00  0.00     0.329 C 
ATOM      5  O   UNL A   1      36.528  22.854  22.786  1.00  0.00    -0.250 OA
BRANCH   4   6
ATOM      6  C   UNL A   1      34.896  23.003  24.588  1.00  0.00     0.195 C 
BRANCH   6   7
ATOM      7  N   UNL A   1      34.092  21.920  24.009  1.00  0.00    -0.342 N 
ATOM      8  O   UNL A   1      33.456  20.927  25.971  1.00  0.00    -0.275 OA
ATOM      9  C   UNL A   1      33.390  21.007  24.750  1.00  0.00     0.223 C 
ATOM     10  H   UNL A   1      34.054  21.846  23.027  1.00  0.00     0.164 HD
BRANCH   9  11
ATOM     11  C   UNL A   1      32.507  20.093  23.920  1.00  0.00     0.132 C 
BRANCH  11  12
ATOM     12  C   UNL A   1      32.850  18.605  24.086  1.00  0.00     0.127 C 
ATOM     13  C   UNL A   1      34.361  18.363  24.217  1.00  0.00     0.033 C 
ATOM     14  O   UNL A   1      32.131  18.086  25.220  1.00  0.00    -0.378 OA
ATOM     15  C   UNL A   1      34.663  16.895  24.499  1.00  0.00     0.005 C 
ATOM     16  C   UNL A   1      32.350  16.687  25.417  1.00  0.00     0.160 C 
ATOM     17  C   UNL A   1      33.824  16.397  25.667  1.00  0.00     0.029 C 
ENDBRANCH  11  12
ENDBRANCH   9  11
ENDBRANCH   6   7
BRANCH   6  18
ATOM     18  C   UNL A   1      34.024  24.302  24.577  1.00  0.00     0.023 C 
ATOM     19  C   UNL A   1      34.486  25.231  25.718  1.00  0.00     0.006 C 
ATOM     20  C   UNL A   1      33.969  25.067  23.242  1.00  0.00     0.006 C 
ATOM     21  C   UNL A   1      33.688  26.529  25.791  1.00  0.00     0.000 C 
ATOM     22  C   UNL A   1      33.140  26.348  23.350  1.00  0.00     0.000 C 
ATOM     23  C   UNL A   1      33.673  27.254  24.451  1.00  0.00     0.000 C 
ENDBRANCH   6  18
ENDBRANCH   4   6
ENDBRANCH   3   4
ENDBRANCH   2   3
ENDBRANCH   1   2
BRANCH   1  24
ATOM     24  O   UNL A   1      39.707  21.487  25.681  1.00  0.00    -0.374 OA
BRANCH  24  25
ATOM     25  C   UNL A   1      40.523  20.700  26.551  1.00  0.00     0.202 C 
BRANCH  25  26
ATOM     26  C   UNL A   1      41.970  20.433  26.113  1.00  0.00     0.261 C 
BRANCH  26  27
ATOM     27  O   UNL A   1      42.895  21.412  26.627  1.00  0.00    -0.460 OA
BRANCH  27  28
ATOM     28  C   UNL A   1      42.967  22.564  25.918  1.00  0.00     0.338 C 
ATOM     29  O   UNL A   1      42.949  22.690  24.699  1.00  0.00    -0.246 OA
BRANCH  28  30
ATOM     30  C   UNL A   1      42.897  23.720  26.825  1.00  0.00     0.060 A 
ATOM     31  C   UNL A   1      42.222  23.567  28.043  1.00  0.00     0.016 A 
ATOM     32  C   UNL A   1      43.411  24.961  26.448  1.00  0.00     0.016 A 
ATOM     33  C   UNL A   1      42.045  24.662  28.887  1.00  0.00     0.010 A 
ATOM     34  C   UNL A   1      43.219  26.062  27.288  1.00  0.00     0.010 A 
ATOM     35  C   UNL A   1      42.520  25.922  28.502  1.00  0.00    -0.014 A 
BRANCH  35  36
ATOM     36  C   UNL A   1      42.211  27.119  29.319  1.00  0.00     0.031 A 
ATOM     37  C   UNL A   1      43.133  27.508  30.438  1.00  0.00     0.074 A 
ATOM     38  C   UNL A   1      41.108  27.846  29.068  1.00  0.00     0.049 A 
ATOM     39  N   UNL A   1      43.000  28.459  31.327  1.00  0.00    -0.248 NA
ATOM     40  C   UNL A   1      44.370  26.722  30.574  1.00  0.00     0.031 C 
ATOM     41  C   UNL A   1      40.162  27.602  27.981  1.00  0.00     0.029 A 
ATOM     42  N   UNL A   1      40.590  28.932  29.730  1.00  0.00    -0.354 N 
ATOM     43  C   UNL A   1      44.128  28.380  32.134  1.00  0.00     0.074 A 
ATOM     44  C   UNL A   1      44.927  27.280  31.640  1.00  0.00     0.031 C 
ATOM     45  C   UNL A   1      39.167  28.501  28.060  1.00  0.00     0.029 A 
ATOM     46  C   UNL A   1      39.385  29.355  29.226  1.00  0.00     0.049 A 
ATOM     47  H   UNL A   1      41.039  29.365  30.491  1.00  0.00     0.167 HD
ATOM     48  C   UNL A   1      44.466  29.156  33.191  1.00  0.00     0.031 A 
ATOM     49  C   UNL A   1      38.536  30.298  29.676  1.00  0.00     0.031 A 
ATOM     50  C   UNL A   1      43.663  30.238  33.693  1.00  0.00     0.049 A 
ATOM     51  C   UNL A   1      38.882  31.073  30.918  1.00  0.00     0.074 A 
ATOM     52  C   UNL A   1      43.934  31.098  34.744  1.00  0.00     0.029 A 
ATOM     53  N   UNL A   1      42.425  30.600  33.188  1.00  0.00    -0.354 N 
ATOM     54  N   UNL A   1      39.964  31.009  31.656  1.00  0.00    -0.248 NA
ATOM     55  C   UNL A   1      37.886  32.045  31.393  1.00  0.00     0.031 C 
ATOM     56  C   UNL A   1      42.830  31.941  34.912  1.00  0.00     0.029 A 
ATOM     57  C   UNL A   1      41.898  31.642  33.932  1.00  0.00     0.049 A 
ATOM     58  H   UNL A   1      41.984  30.178  32.414  1.00  0.00     0.167 HD
ATOM     59  C   UNL A   1      39.786  31.941  32.671  1.00  0.00     0.074 A 
ATOM     60  C   UNL A   1      38.500  32.569  32.444  1.00  0.00     0.031 C 
ATOM     61  C   UNL A   1      40.613  32.250  33.699  1.00  0.00     0.031 A 
BRANCH  48  62
ATOM     62  C   UNL A   1      45.749  28.833  33.904  1.00  0.00    -0.014 A 
ATOM     63  C   UNL A   1      45.783  27.916  34.966  1.00  0.00     0.009 A 
ATOM     64  C   UNL A   1      46.948  29.425  33.477  1.00  0.00     0.009 A 
ATOM     65  C   UNL A   1      46.989  27.621  35.605  1.00  0.00     0.001 A 
ATOM     66  C   UNL A   1      48.156  29.110  34.102  1.00  0.00     0.001 A 
ATOM     67  C   UNL A   1      48.174  28.216  35.171  1.00  0.00     0.000 A 
ENDBRANCH  48  62
BRANCH  49  68
ATOM     68  C   UNL A   1      37.246  30.532  28.976  1.00  0.00    -0.014 A 
ATOM     69  C   UNL A   1      36.334  29.484  28.785  1.00  0.00     0.009 A 
ATOM     70  C   UNL A   1      36.929  31.807  28.479  1.00  0.00     0.009 A 
ATOM     71  C   UNL A   1      35.139  29.703  28.096  1.00  0.00     0.001 A 
ATOM     72  C   UNL A   1      35.722  32.029  27.814  1.00  0.00     0.001 A 
ATOM     73  C   UNL A   1      34.832  30.976  27.616  1.00  0.00     0.000 A 
ENDBRANCH  49  68
BRANCH  61  74
ATOM     74  C   UNL A   1      40.164  33.322  34.650  1.00  0.00    -0.014 A 
ATOM     75  C   UNL A   1      39.466  33.002  35.823  1.00  0.00     0.009 A 
ATOM     76  C   UNL A   1      40.494  34.663  34.396  1.00  0.00     0.009 A 
ATOM     77  C   UNL A   1      39.088  34.008  36.716  1.00  0.00     0.001 A 
ATOM     78  C   UNL A   1      40.137  35.663  35.302  1.00  0.00     0.001 A 
ATOM     79  C   UNL A   1      39.429  35.335  36.457  1.00  0.00     0.000 A 
ENDBRANCH  61  74
ENDBRANCH  35  36
ENDBRANCH  28  30
ENDBRANCH  27  28
ENDBRANCH  26  27
ENDBRANCH  25  26
ENDBRANCH  24  25
ENDBRANCH   1  24
TORSDOF 18
ENDMDL
