MODEL 1
REMARK VINA RESULT:     -10.1      0.000      0.000
REMARK SMILES O=C(CSc1ccc2ccccc2n1)NCc1ccc(C(=O)OCCOCCOC(=O)c2ccc(-c3c4nc(c(-c5ccccc5)c5ccc([nH]5)c(-c5ccccc5)c5nc(c(-c6ccccc6)c6ccc3[nH]6)C=C5)C=C4)cc2)cc1
REMARK SMILES IDX 24 1 23 2 21 3 22 4 20 5 17 6 18 7 81 8 19 9 80 10 16 11
REMARK SMILES IDX 15 12 1 13 2 14 3 16 4 17 5 18 6 19 14 20 7 21 13 22 8 23
REMARK SMILES IDX 12 24 9 25 11 26 10 27 25 28 26 29 27 30 28 31 29 32 30 33
REMARK SMILES IDX 31 34 32 35 33 36 79 37 34 38 78 39 35 40 36 41 37 42 72 43
REMARK SMILES IDX 38 44 77 45 71 46 73 47 39 48 76 49 70 50 69 51 40 53 62 54
REMARK SMILES IDX 47 55 61 56 48 57 51 58 60 59 74 60 49 61 50 62 59 64 75 65
REMARK SMILES IDX 52 66 41 67 42 68 46 69 43 70 45 71 44 72 63 73 64 74 68 75
REMARK SMILES IDX 65 76 67 77 66 78 53 79 54 80 58 81 55 82 57 83 56 84
REMARK H PARENT 15 15 73 52 51 63
REMARK Flexibility Score: inf
ROOT
ATOM      1  C   UNL A   1      39.736  21.998  25.971  1.00  0.00     0.261 C 
ENDROOT
BRANCH   1   2
ATOM      2  O   UNL A   1      38.325  22.088  26.230  1.00  0.00    -0.460 OA
BRANCH   2   3
ATOM      3  C   UNL A   1      37.538  21.603  25.240  1.00  0.00     0.338 C 
ATOM      4  O   UNL A   1      37.536  20.463  24.799  1.00  0.00    -0.246 OA
BRANCH   3   5
ATOM      5  C   UNL A   1      36.540  22.612  24.822  1.00  0.00     0.060 A 
ATOM      6  C   UNL A   1      34.750  24.538  23.830  1.00  0.00    -0.029 A 
ATOM      7  C   UNL A   1      35.129  23.442  23.041  1.00  0.00     0.006 A 
ATOM      8  C   UNL A   1      35.219  24.613  25.152  1.00  0.00     0.006 A 
ATOM      9  C   UNL A   1      36.031  22.498  23.524  1.00  0.00     0.016 A 
ATOM     10  C   UNL A   1      36.109  23.652  25.651  1.00  0.00     0.016 A 
BRANCH   6  11
ATOM     11  C   UNL A   1      33.837  25.600  23.263  1.00  0.00     0.151 C 
BRANCH  11  12
ATOM     12  N   UNL A   1      32.448  25.269  23.507  1.00  0.00    -0.351 N 
ATOM     13  O   UNL A   1      31.775  27.391  24.037  1.00  0.00    -0.274 OA
ATOM     14  C   UNL A   1      31.507  26.202  23.887  1.00  0.00     0.230 C 
ATOM     15  H   UNL A   1      32.163  24.333  23.395  1.00  0.00     0.163 HD
BRANCH  14  16
ATOM     16  C   UNL A   1      30.140  25.629  24.235  1.00  0.00     0.176 C 
BRANCH  16  17
ATOM     17  S   UNL A   1      30.012  25.195  25.998  1.00  0.00    -0.096 SA
BRANCH  17  18
ATOM     18  C   UNL A   1      31.182  23.853  26.028  1.00  0.00     0.097 A 
ATOM     19  C   UNL A   1      31.965  23.662  27.155  1.00  0.00     0.036 A 
ATOM     20  N   UNL A   1      31.231  23.051  24.944  1.00  0.00    -0.241 NA
ATOM     21  C   UNL A   1      32.857  22.598  27.165  1.00  0.00     0.013 A 
ATOM     22  C   UNL A   1      32.086  22.011  24.960  1.00  0.00     0.072 A 
ATOM     23  C   UNL A   1      32.929  21.743  26.061  1.00  0.00     0.000 A 
ATOM     24  C   UNL A   1      32.149  21.154  23.869  1.00  0.00     0.029 A 
ATOM     25  C   UNL A   1      33.803  20.643  26.038  1.00  0.00     0.010 A 
ATOM     26  C   UNL A   1      33.014  20.054  23.845  1.00  0.00     0.002 A 
ATOM     27  C   UNL A   1      33.842  19.799  24.931  1.00  0.00     0.001 A 
ENDBRANCH  17  18
ENDBRANCH  16  17
ENDBRANCH  14  16
ENDBRANCH  11  12
ENDBRANCH   6  11
ENDBRANCH   3   5
ENDBRANCH   2   3
ENDBRANCH   1   2
BRANCH   1  28
ATOM     28  C   UNL A   1      40.505  21.552  27.219  1.00  0.00     0.202 C 
BRANCH  28  29
ATOM     29  O   UNL A   1      40.737  20.150  27.343  1.00  0.00    -0.374 OA
BRANCH  29  30
ATOM     30  C   UNL A   1      42.082  19.700  27.164  1.00  0.00     0.202 C 
BRANCH  30  31
ATOM     31  C   UNL A   1      42.481  19.343  25.727  1.00  0.00     0.261 C 
BRANCH  31  32
ATOM     32  O   UNL A   1      43.912  19.263  25.578  1.00  0.00    -0.460 OA
BRANCH  32  33
ATOM     33  C   UNL A   1      44.402  19.868  24.472  1.00  0.00     0.338 C 
ATOM     34  O   UNL A   1      44.385  19.442  23.324  1.00  0.00    -0.246 OA
BRANCH  33  35
ATOM     35  C   UNL A   1      44.831  21.242  24.789  1.00  0.00     0.060 A 
ATOM     36  C   UNL A   1      45.449  21.448  26.029  1.00  0.00     0.016 A 
ATOM     37  C   UNL A   1      44.568  22.320  23.940  1.00  0.00     0.016 A 
ATOM     38  C   UNL A   1      45.743  22.740  26.455  1.00  0.00     0.010 A 
ATOM     39  C   UNL A   1      44.861  23.619  24.372  1.00  0.00     0.010 A 
ATOM     40  C   UNL A   1      45.408  23.837  25.649  1.00  0.00    -0.014 A 
BRANCH  40  41
ATOM     41  C   UNL A   1      45.483  25.200  26.229  1.00  0.00     0.031 A 
ATOM     42  C   UNL A   1      46.794  25.938  26.191  1.00  0.00     0.074 A 
ATOM     43  C   UNL A   1      44.386  25.803  26.719  1.00  0.00     0.049 A 
ATOM     44  N   UNL A   1      47.073  27.155  26.585  1.00  0.00    -0.248 NA
ATOM     45  C   UNL A   1      47.944  25.208  25.632  1.00  0.00     0.031 C 
ATOM     46  C   UNL A   1      43.050  25.213  26.779  1.00  0.00     0.029 A 
ATOM     47  N   UNL A   1      44.227  27.057  27.253  1.00  0.00    -0.354 N 
ATOM     48  C   UNL A   1      48.425  27.336  26.321  1.00  0.00     0.074 A 
ATOM     49  C   UNL A   1      48.919  26.094  25.768  1.00  0.00     0.031 C 
ATOM     50  C   UNL A   1      42.203  26.109  27.316  1.00  0.00     0.029 A 
ATOM     51  C   UNL A   1      42.942  27.324  27.654  1.00  0.00     0.049 A 
ATOM     52  H   UNL A   1      44.964  27.703  27.340  1.00  0.00     0.167 HD
ATOM     53  C   UNL A   1      49.188  28.439  26.510  1.00  0.00     0.031 A 
ATOM     54  C   UNL A   1      42.421  28.423  28.233  1.00  0.00     0.031 A 
ATOM     55  C   UNL A   1      48.706  29.673  27.071  1.00  0.00     0.049 A 
ATOM     56  C   UNL A   1      43.305  29.614  28.495  1.00  0.00     0.074 A 
ATOM     57  C   UNL A   1      49.400  30.850  27.290  1.00  0.00     0.029 A 
ATOM     58  N   UNL A   1      47.409  29.885  27.510  1.00  0.00    -0.354 N 
ATOM     59  N   UNL A   1      44.573  29.782  28.210  1.00  0.00    -0.248 NA
ATOM     60  C   UNL A   1      42.676  30.771  29.147  1.00  0.00     0.031 C 
ATOM     61  C   UNL A   1      48.535  31.759  27.908  1.00  0.00     0.029 A 
ATOM     62  C   UNL A   1      47.288  31.165  28.024  1.00  0.00     0.049 A 
ATOM     63  H   UNL A   1      46.682  29.224  27.464  1.00  0.00     0.167 HD
ATOM     64  C   UNL A   1      44.888  31.070  28.625  1.00  0.00     0.074 A 
ATOM     65  C   UNL A   1      43.672  31.645  29.164  1.00  0.00     0.031 C 
ATOM     66  C   UNL A   1      46.076  31.720  28.566  1.00  0.00     0.031 A 
BRANCH  53  67
ATOM     67  C   UNL A   1      50.639  28.344  26.131  1.00  0.00    -0.014 A 
ATOM     68  C   UNL A   1      51.067  28.611  24.820  1.00  0.00     0.009 A 
ATOM     69  C   UNL A   1      51.592  28.007  27.103  1.00  0.00     0.009 A 
ATOM     70  C   UNL A   1      52.419  28.506  24.485  1.00  0.00     0.001 A 
ATOM     71  C   UNL A   1      52.945  27.928  26.771  1.00  0.00     0.001 A 
ATOM     72  C   UNL A   1      53.357  28.169  25.460  1.00  0.00     0.000 A 
ENDBRANCH  53  67
BRANCH  54  73
ATOM     73  C   UNL A   1      40.986  28.454  28.617  1.00  0.00    -0.014 A 
ATOM     74  C   UNL A   1      40.552  27.860  29.812  1.00  0.00     0.009 A 
ATOM     75  C   UNL A   1      40.040  29.057  27.775  1.00  0.00     0.009 A 
ATOM     76  C   UNL A   1      39.194  27.846  30.142  1.00  0.00     0.001 A 
ATOM     77  C   UNL A   1      38.687  29.065  28.120  1.00  0.00     0.001 A 
ATOM     78  C   UNL A   1      38.264  28.452  29.298  1.00  0.00     0.000 A 
ENDBRANCH  54  73
BRANCH  66  79
ATOM     79  C   UNL A   1      46.109  33.135  29.073  1.00  0.00    -0.014 A 
ATOM     80  C   UNL A   1      46.425  33.423  30.410  1.00  0.00     0.009 A 
ATOM     81  C   UNL A   1      45.842  34.197  28.193  1.00  0.00     0.009 A 
ATOM     82  C   UNL A   1      46.433  34.743  30.866  1.00  0.00     0.001 A 
ATOM     83  C   UNL A   1      45.880  35.517  28.645  1.00  0.00     0.001 A 
ATOM     84  C   UNL A   1      46.164  35.788  29.982  1.00  0.00     0.000 A 
ENDBRANCH  66  79
ENDBRANCH  40  41
ENDBRANCH  33  35
ENDBRANCH  32  33
ENDBRANCH  31  32
ENDBRANCH  30  31
ENDBRANCH  29  30
ENDBRANCH  28  29
ENDBRANCH   1  28
TORSDOF 19
ENDMDL
MODEL 2
REMARK VINA RESULT:     -10.0      6.810     12.891
REMARK SMILES O=C(CSc1ccc2ccccc2n1)NCc1ccc(C(=O)OCCOCCOC(=O)c2ccc(-c3c4nc(c(-c5ccccc5)c5ccc([nH]5)c(-c5ccccc5)c5nc(c(-c6ccccc6)c6ccc3[nH]6)C=C5)C=C4)cc2)cc1
REMARK SMILES IDX 24 1 23 2 21 3 22 4 20 5 17 6 18 7 81 8 19 9 80 10 16 11
REMARK SMILES IDX 15 12 1 13 2 14 3 16 4 17 5 18 6 19 14 20 7 21 13 22 8 23
REMARK SMILES IDX 12 24 9 25 11 26 10 27 25 28 26 29 27 30 28 31 29 32 30 33
REMARK SMILES IDX 31 34 32 35 33 36 79 37 34 38 78 39 35 40 36 41 37 42 72 43
REMARK SMILES IDX 38 44 77 45 71 46 73 47 39 48 76 49 70 50 69 51 40 53 62 54
REMARK SMILES IDX 47 55 61 56 48 57 51 58 60 59 74 60 49 61 50 62 59 64 75 65
REMARK SMILES IDX 52 66 41 67 42 68 46 69 43 70 45 71 44 72 63 73 64 74 68 75
REMARK SMILES IDX 65 76 67 77 66 78 53 79 54 80 58 81 55 82 57 83 56 84
REMARK H PARENT 15 15 73 52 51 63
REMARK Flexibility Score: inf
ROOT
ATOM      1  C   UNL A   1      35.824  34.607  33.752  1.00  0.00     0.261 C 
ENDROOT
BRANCH   1   2
ATOM      2  O   UNL A   1      35.902  33.326  34.399  1.00  0.00    -0.460 OA
BRANCH   2   3
ATOM      3  C   UNL A   1      36.892  33.217  35.317  1.00  0.00     0.338 C 
ATOM      4  O   UNL A   1      36.991  33.842  36.363  1.00  0.00    -0.246 OA
BRANCH   3   5
ATOM      5  C   UNL A   1      37.812  32.112  34.968  1.00  0.00     0.060 A 
ATOM      6  C   UNL A   1      39.727  30.162  34.315  1.00  0.00    -0.029 A 
ATOM      7  C   UNL A   1      39.962  31.074  35.355  1.00  0.00     0.006 A 
ATOM      8  C   UNL A   1      38.486  30.192  33.659  1.00  0.00     0.006 A 
ATOM      9  C   UNL A   1      39.021  32.052  35.666  1.00  0.00     0.016 A 
ATOM     10  C   UNL A   1      37.526  31.160  33.984  1.00  0.00     0.016 A 
BRANCH   6  11
ATOM     11  C   UNL A   1      40.791  29.160  33.932  1.00  0.00     0.151 C 
BRANCH  11  12
ATOM     12  N   UNL A   1      40.916  28.130  34.943  1.00  0.00    -0.351 N 
ATOM     13  O   UNL A   1      43.189  28.271  35.161  1.00  0.00    -0.274 OA
ATOM     14  C   UNL A   1      42.125  27.752  35.487  1.00  0.00     0.230 C 
ATOM     15  H   UNL A   1      40.099  27.679  35.255  1.00  0.00     0.163 HD
BRANCH  14  16
ATOM     16  C   UNL A   1      42.060  26.554  36.424  1.00  0.00     0.176 C 
BRANCH  16  17
ATOM     17  S   UNL A   1      43.643  26.270  37.278  1.00  0.00    -0.096 SA
BRANCH  17  18
ATOM     18  C   UNL A   1      44.081  24.720  36.519  1.00  0.00     0.097 A 
ATOM     19  C   UNL A   1      43.588  24.420  35.259  1.00  0.00     0.036 A 
ATOM     20  N   UNL A   1      44.911  23.908  37.206  1.00  0.00    -0.241 NA
ATOM     21  C   UNL A   1      43.958  23.214  34.677  1.00  0.00     0.013 A 
ATOM     22  C   UNL A   1      45.280  22.746  36.635  1.00  0.00     0.072 A 
ATOM     23  C   UNL A   1      44.823  22.352  35.359  1.00  0.00     0.000 A 
ATOM     24  C   UNL A   1      46.148  21.894  37.305  1.00  0.00     0.029 A 
ATOM     25  C   UNL A   1      45.237  21.132  34.797  1.00  0.00     0.010 A 
ATOM     26  C   UNL A   1      46.569  20.681  36.748  1.00  0.00     0.002 A 
ATOM     27  C   UNL A   1      46.112  20.300  35.492  1.00  0.00     0.001 A 
ENDBRANCH  17  18
ENDBRANCH  16  17
ENDBRANCH  14  16
ENDBRANCH  11  12
ENDBRANCH   6  11
ENDBRANCH   3   5
ENDBRANCH   2   3
ENDBRANCH   1   2
BRANCH   1  28
ATOM     28  C   UNL A   1      34.391  34.923  33.310  1.00  0.00     0.202 C 
BRANCH  28  29
ATOM     29  O   UNL A   1      34.231  36.074  32.482  1.00  0.00    -0.374 OA
BRANCH  29  30
ATOM     30  C   UNL A   1      33.013  36.172  31.741  1.00  0.00     0.202 C 
BRANCH  30  31
ATOM     31  C   UNL A   1      33.141  36.015  30.221  1.00  0.00     0.261 C 
BRANCH  31  32
ATOM     32  O   UNL A   1      32.600  34.758  29.770  1.00  0.00    -0.460 OA
BRANCH  32  33
ATOM     33  C   UNL A   1      33.349  34.118  28.844  1.00  0.00     0.338 C 
ATOM     34  O   UNL A   1      33.103  33.986  27.652  1.00  0.00    -0.246 OA
BRANCH  33  35
ATOM     35  C   UNL A   1      34.645  33.718  29.423  1.00  0.00     0.060 A 
ATOM     36  C   UNL A   1      35.801  34.198  28.796  1.00  0.00     0.016 A 
ATOM     37  C   UNL A   1      34.739  32.833  30.500  1.00  0.00     0.016 A 
ATOM     38  C   UNL A   1      37.054  33.742  29.197  1.00  0.00     0.010 A 
ATOM     39  C   UNL A   1      35.999  32.372  30.900  1.00  0.00     0.010 A 
ATOM     40  C   UNL A   1      37.157  32.790  30.221  1.00  0.00    -0.014 A 
BRANCH  40  41
ATOM     41  C   UNL A   1      38.462  32.124  30.449  1.00  0.00     0.031 A 
ATOM     42  C   UNL A   1      39.450  32.757  31.391  1.00  0.00     0.074 A 
ATOM     43  C   UNL A   1      38.740  30.937  29.881  1.00  0.00     0.049 A 
ATOM     44  N   UNL A   1      40.621  32.321  31.781  1.00  0.00    -0.248 NA
ATOM     45  C   UNL A   1      39.065  34.053  31.974  1.00  0.00     0.031 C 
ATOM     46  C   UNL A   1      37.855  30.201  28.980  1.00  0.00     0.029 A 
ATOM     47  N   UNL A   1      39.852  30.140  29.992  1.00  0.00    -0.354 N 
ATOM     48  C   UNL A   1      41.111  33.286  32.654  1.00  0.00     0.074 A 
ATOM     49  C   UNL A   1      40.128  34.347  32.708  1.00  0.00     0.031 C 
ATOM     50  C   UNL A   1      38.457  29.052  28.623  1.00  0.00     0.029 A 
ATOM     51  C   UNL A   1      39.775  28.985  29.254  1.00  0.00     0.049 A 
ATOM     52  H   UNL A   1      40.630  30.374  30.547  1.00  0.00     0.167 HD
ATOM     53  C   UNL A   1      42.268  33.287  33.356  1.00  0.00     0.031 A 
ATOM     54  C   UNL A   1      40.667  27.988  29.101  1.00  0.00     0.031 A 
ATOM     55  C   UNL A   1      43.255  32.243  33.298  1.00  0.00     0.049 A 
ATOM     56  C   UNL A   1      41.977  28.045  29.842  1.00  0.00     0.074 A 
ATOM     57  C   UNL A   1      44.454  32.149  33.983  1.00  0.00     0.029 A 
ATOM     58  N   UNL A   1      43.161  31.114  32.500  1.00  0.00    -0.354 N 
ATOM     59  N   UNL A   1      42.411  28.947  30.688  1.00  0.00    -0.248 NA
ATOM     60  C   UNL A   1      42.912  26.934  29.613  1.00  0.00     0.031 C 
ATOM     61  C   UNL A   1      45.109  30.987  33.562  1.00  0.00     0.029 A 
ATOM     62  C   UNL A   1      44.292  30.331  32.654  1.00  0.00     0.049 A 
ATOM     63  H   UNL A   1      42.403  30.901  31.910  1.00  0.00     0.167 HD
ATOM     64  C   UNL A   1      43.657  28.501  31.110  1.00  0.00     0.074 A 
ATOM     65  C   UNL A   1      43.901  27.239  30.441  1.00  0.00     0.031 C 
ATOM     66  C   UNL A   1      44.524  29.083  31.975  1.00  0.00     0.031 A 
BRANCH  53  67
ATOM     67  C   UNL A   1      42.539  34.479  34.231  1.00  0.00    -0.014 A 
ATOM     68  C   UNL A   1      42.133  34.505  35.574  1.00  0.00     0.009 A 
ATOM     69  C   UNL A   1      43.232  35.583  33.709  1.00  0.00     0.009 A 
ATOM     70  C   UNL A   1      42.385  35.627  36.367  1.00  0.00     0.001 A 
ATOM     71  C   UNL A   1      43.505  36.692  34.511  1.00  0.00     0.001 A 
ATOM     72  C   UNL A   1      43.073  36.717  35.837  1.00  0.00     0.000 A 
ENDBRANCH  53  67
BRANCH  54  73
ATOM     73  C   UNL A   1      40.363  26.847  28.200  1.00  0.00    -0.014 A 
ATOM     74  C   UNL A   1      40.850  26.822  26.884  1.00  0.00     0.009 A 
ATOM     75  C   UNL A   1      39.558  25.787  28.646  1.00  0.00     0.009 A 
ATOM     76  C   UNL A   1      40.517  25.772  26.026  1.00  0.00     0.001 A 
ATOM     77  C   UNL A   1      39.248  24.725  27.794  1.00  0.00     0.001 A 
ATOM     78  C   UNL A   1      39.719  24.723  26.482  1.00  0.00     0.000 A 
ENDBRANCH  54  73
BRANCH  66  79
ATOM     79  C   UNL A   1      45.802  28.346  32.265  1.00  0.00    -0.014 A 
ATOM     80  C   UNL A   1      46.990  28.652  31.584  1.00  0.00     0.009 A 
ATOM     81  C   UNL A   1      45.821  27.347  33.251  1.00  0.00     0.009 A 
ATOM     82  C   UNL A   1      48.163  27.943  31.856  1.00  0.00     0.001 A 
ATOM     83  C   UNL A   1      47.002  26.660  33.541  1.00  0.00     0.001 A 
ATOM     84  C   UNL A   1      48.167  26.951  32.836  1.00  0.00     0.000 A 
ENDBRANCH  66  79
ENDBRANCH  40  41
ENDBRANCH  33  35
ENDBRANCH  32  33
ENDBRANCH  31  32
ENDBRANCH  30  31
ENDBRANCH  29  30
ENDBRANCH  28  29
ENDBRANCH   1  28
TORSDOF 19
ENDMDL
MODEL 3
REMARK VINA RESULT:      -9.4      8.401     12.776
REMARK SMILES O=C(CSc1ccc2ccccc2n1)NCc1ccc(C(=O)OCCOCCOC(=O)c2ccc(-c3c4nc(c(-c5ccccc5)c5ccc([nH]5)c(-c5ccccc5)c5nc(c(-c6ccccc6)c6ccc3[nH]6)C=C5)C=C4)cc2)cc1
REMARK SMILES IDX 24 1 23 2 21 3 22 4 20 5 17 6 18 7 81 8 19 9 80 10 16 11
REMARK SMILES IDX 15 12 1 13 2 14 3 16 4 17 5 18 6 19 14 20 7 21 13 22 8 23
REMARK SMILES IDX 12 24 9 25 11 26 10 27 25 28 26 29 27 30 28 31 29 32 30 33
REMARK SMILES IDX 31 34 32 35 33 36 79 37 34 38 78 39 35 40 36 41 37 42 72 43
REMARK SMILES IDX 38 44 77 45 71 46 73 47 39 48 76 49 70 50 69 51 40 53 62 54
REMARK SMILES IDX 47 55 61 56 48 57 51 58 60 59 74 60 49 61 50 62 59 64 75 65
REMARK SMILES IDX 52 66 41 67 42 68 46 69 43 70 45 71 44 72 63 73 64 74 68 75
REMARK SMILES IDX 65 76 67 77 66 78 53 79 54 80 58 81 55 82 57 83 56 84
REMARK H PARENT 15 15 73 52 51 63
REMARK Flexibility Score: inf
ROOT
ATOM      1  C   UNL A   1      35.017  33.663  27.832  1.00  0.00     0.261 C 
ENDROOT
BRANCH   1   2
ATOM      2  O   UNL A   1      34.171  32.517  28.023  1.00  0.00    -0.460 OA
BRANCH   2   3
ATOM      3  C   UNL A   1      34.771  31.326  27.784  1.00  0.00     0.338 C 
ATOM      4  O   UNL A   1      35.929  31.027  28.040  1.00  0.00    -0.246 OA
BRANCH   3   5
ATOM      5  C   UNL A   1      33.793  30.337  27.281  1.00  0.00     0.060 A 
ATOM      6  C   UNL A   1      32.103  28.367  26.205  1.00  0.00    -0.029 A 
ATOM      7  C   UNL A   1      33.375  28.029  26.691  1.00  0.00     0.006 A 
ATOM      8  C   UNL A   1      31.659  29.693  26.339  1.00  0.00     0.006 A 
ATOM      9  C   UNL A   1      34.220  29.008  27.206  1.00  0.00     0.016 A 
ATOM     10  C   UNL A   1      32.498  30.678  26.878  1.00  0.00     0.016 A 
BRANCH   6  11
ATOM     11  C   UNL A   1      31.228  27.310  25.572  1.00  0.00     0.151 C 
BRANCH  11  12
ATOM     12  N   UNL A   1      31.826  25.998  25.709  1.00  0.00    -0.351 N 
ATOM     13  O   UNL A   1      30.046  25.024  26.768  1.00  0.00    -0.274 OA
ATOM     14  C   UNL A   1      31.183  24.937  26.311  1.00  0.00     0.230 C 
ATOM     15  H   UNL A   1      32.733  25.857  25.356  1.00  0.00     0.163 HD
BRANCH  14  16
ATOM     16  C   UNL A   1      32.034  23.687  26.487  1.00  0.00     0.176 C 
BRANCH  16  17
ATOM     17  S   UNL A   1      33.788  23.999  26.111  1.00  0.00    -0.096 SA
BRANCH  17  18
ATOM     18  C   UNL A   1      34.246  22.357  25.595  1.00  0.00     0.097 A 
ATOM     19  C   UNL A   1      35.584  21.996  25.596  1.00  0.00     0.036 A 
ATOM     20  N   UNL A   1      33.249  21.517  25.248  1.00  0.00    -0.241 NA
ATOM     21  C   UNL A   1      35.918  20.705  25.209  1.00  0.00     0.013 A 
ATOM     22  C   UNL A   1      33.572  20.261  24.886  1.00  0.00     0.072 A 
ATOM     23  C   UNL A   1      34.908  19.806  24.850  1.00  0.00     0.000 A 
ATOM     24  C   UNL A   1      32.570  19.364  24.541  1.00  0.00     0.029 A 
ATOM     25  C   UNL A   1      35.201  18.485  24.471  1.00  0.00     0.010 A 
ATOM     26  C   UNL A   1      32.857  18.046  24.169  1.00  0.00     0.002 A 
ATOM     27  C   UNL A   1      34.175  17.606  24.133  1.00  0.00     0.001 A 
ENDBRANCH  17  18
ENDBRANCH  16  17
ENDBRANCH  14  16
ENDBRANCH  11  12
ENDBRANCH   6  11
ENDBRANCH   3   5
ENDBRANCH   2   3
ENDBRANCH   1   2
BRANCH   1  28
ATOM     28  C   UNL A   1      34.379  34.930  28.411  1.00  0.00     0.202 C 
BRANCH  28  29
ATOM     29  O   UNL A   1      33.107  34.761  29.034  1.00  0.00    -0.374 OA
BRANCH  29  30
ATOM     30  C   UNL A   1      32.873  35.498  30.236  1.00  0.00     0.202 C 
BRANCH  30  31
ATOM     31  C   UNL A   1      33.929  35.332  31.336  1.00  0.00     0.261 C 
BRANCH  31  32
ATOM     32  O   UNL A   1      33.583  34.271  32.248  1.00  0.00    -0.460 OA
BRANCH  32  33
ATOM     33  C   UNL A   1      34.360  33.168  32.155  1.00  0.00     0.338 C 
ATOM     34  O   UNL A   1      34.440  32.394  31.210  1.00  0.00    -0.246 OA
BRANCH  33  35
ATOM     35  C   UNL A   1      35.273  33.088  33.309  1.00  0.00     0.060 A 
ATOM     36  C   UNL A   1      35.122  34.054  34.312  1.00  0.00     0.016 A 
ATOM     37  C   UNL A   1      36.306  32.149  33.381  1.00  0.00     0.016 A 
ATOM     38  C   UNL A   1      36.043  34.129  35.354  1.00  0.00     0.010 A 
ATOM     39  C   UNL A   1      37.232  32.228  34.427  1.00  0.00     0.010 A 
ATOM     40  C   UNL A   1      37.130  33.246  35.392  1.00  0.00    -0.014 A 
BRANCH  40  41
ATOM     41  C   UNL A   1      38.233  33.510  36.347  1.00  0.00     0.031 A 
ATOM     42  C   UNL A   1      39.413  34.326  35.892  1.00  0.00     0.074 A 
ATOM     43  C   UNL A   1      38.158  33.090  37.622  1.00  0.00     0.049 A 
ATOM     44  N   UNL A   1      40.457  34.726  36.574  1.00  0.00    -0.248 NA
ATOM     45  C   UNL A   1      39.414  34.751  34.482  1.00  0.00     0.031 C 
ATOM     46  C   UNL A   1      37.053  32.325  38.198  1.00  0.00     0.029 A 
ATOM     47  N   UNL A   1      39.032  33.263  38.666  1.00  0.00    -0.354 N 
ATOM     48  C   UNL A   1      41.236  35.449  35.678  1.00  0.00     0.074 A 
ATOM     49  C   UNL A   1      40.565  35.402  34.397  1.00  0.00     0.031 C 
ATOM     50  C   UNL A   1      37.314  32.098  39.499  1.00  0.00     0.029 A 
ATOM     51  C   UNL A   1      38.610  32.683  39.837  1.00  0.00     0.049 A 
ATOM     52  H   UNL A   1      39.880  33.755  38.583  1.00  0.00     0.167 HD
ATOM     53  C   UNL A   1      42.401  36.103  35.901  1.00  0.00     0.031 A 
ATOM     54  C   UNL A   1      39.204  32.628  41.044  1.00  0.00     0.031 A 
ATOM     55  C   UNL A   1      43.080  36.143  37.168  1.00  0.00     0.049 A 
ATOM     56  C   UNL A   1      40.532  33.307  41.249  1.00  0.00     0.074 A 
ATOM     57  C   UNL A   1      44.259  36.791  37.494  1.00  0.00     0.029 A 
ATOM     58  N   UNL A   1      42.645  35.502  38.316  1.00  0.00    -0.354 N 
ATOM     59  N   UNL A   1      41.241  34.013  40.403  1.00  0.00    -0.248 NA
ATOM     60  C   UNL A   1      41.133  33.189  42.586  1.00  0.00     0.031 C 
ATOM     61  C   UNL A   1      44.563  36.500  38.828  1.00  0.00     0.029 A 
ATOM     62  C   UNL A   1      43.544  35.715  39.346  1.00  0.00     0.049 A 
ATOM     63  H   UNL A   1      41.819  34.972  38.388  1.00  0.00     0.167 HD
ATOM     64  C   UNL A   1      42.357  34.444  41.109  1.00  0.00     0.074 A 
ATOM     65  C   UNL A   1      42.221  33.935  42.459  1.00  0.00     0.031 C 
ATOM     66  C   UNL A   1      43.401  35.194  40.680  1.00  0.00     0.031 A 
BRANCH  53  67
ATOM     67  C   UNL A   1      43.029  36.806  34.730  1.00  0.00    -0.014 A 
ATOM     68  C   UNL A   1      43.698  36.090  33.724  1.00  0.00     0.009 A 
ATOM     69  C   UNL A   1      42.929  38.201  34.620  1.00  0.00     0.009 A 
ATOM     70  C   UNL A   1      44.284  36.762  32.650  1.00  0.00     0.001 A 
ATOM     71  C   UNL A   1      43.494  38.868  33.532  1.00  0.00     0.001 A 
ATOM     72  C   UNL A   1      44.179  38.150  32.552  1.00  0.00     0.000 A 
ENDBRANCH  53  67
BRANCH  54  73
ATOM     73  C   UNL A   1      38.556  31.893  42.161  1.00  0.00    -0.014 A 
ATOM     74  C   UNL A   1      38.810  30.528  42.364  1.00  0.00     0.009 A 
ATOM     75  C   UNL A   1      37.657  32.552  43.014  1.00  0.00     0.009 A 
ATOM     76  C   UNL A   1      38.156  29.832  43.384  1.00  0.00     0.001 A 
ATOM     77  C   UNL A   1      37.025  31.858  44.049  1.00  0.00     0.001 A 
ATOM     78  C   UNL A   1      37.268  30.498  44.227  1.00  0.00     0.000 A 
ENDBRANCH  54  73
BRANCH  66  79
ATOM     79  C   UNL A   1      44.464  35.531  41.690  1.00  0.00    -0.014 A 
ATOM     80  C   UNL A   1      44.240  36.488  42.692  1.00  0.00     0.009 A 
ATOM     81  C   UNL A   1      45.697  34.862  41.652  1.00  0.00     0.009 A 
ATOM     82  C   UNL A   1      45.246  36.799  43.609  1.00  0.00     0.001 A 
ATOM     83  C   UNL A   1      46.690  35.154  42.589  1.00  0.00     0.001 A 
ATOM     84  C   UNL A   1      46.468  36.129  43.559  1.00  0.00     0.000 A 
ENDBRANCH  66  79
ENDBRANCH  40  41
ENDBRANCH  33  35
ENDBRANCH  32  33
ENDBRANCH  31  32
ENDBRANCH  30  31
ENDBRANCH  29  30
ENDBRANCH  28  29
ENDBRANCH   1  28
TORSDOF 19
ENDMDL
