MODEL 1
REMARK VINA RESULT:     -12.2      0.000      0.000
REMARK SMILES Cc1ccc(S(=O)(=O)n2cc(C(=O)C(=O)N[C@@H](Cc3cnc[nH]3)C(=O)OCCOCCOC(=O)c3ccc(-c4c5nc(c(-c6ccccc6)c6ccc([nH]6)c(-c6ccccc6)c6nc(c(-c7ccccc7)c7ccc4[nH]7)C=C6)C=C5)cc3)c3ccccc32)cc1
REMARK SMILES IDX 27 1 26 2 24 3 25 4 17 5 16 6 14 7 15 8 12 10 13 11 11 12
REMARK SMILES IDX 9 13 10 14 88 15 83 16 87 17 84 18 86 19 85 20 6 21 7 22
REMARK SMILES IDX 8 23 5 24 1 25 2 26 3 27 90 28 4 29 89 30 18 31 19 32 20 33
REMARK SMILES IDX 23 34 21 35 22 36 28 38 29 39 30 40 31 41 32 42 33 43 34 44
REMARK SMILES IDX 35 45 36 46 82 47 37 48 81 49 38 50 39 51 40 52 75 53 41 54
REMARK SMILES IDX 80 55 74 56 76 57 42 58 79 59 73 60 72 61 43 63 65 64 50 65
REMARK SMILES IDX 64 66 51 67 54 68 63 69 77 70 52 71 53 72 62 74 78 75 55 76
REMARK SMILES IDX 44 77 45 78 49 79 46 80 48 81 47 82 66 83 67 84 71 85 68 86
REMARK SMILES IDX 70 87 69 88 56 89 57 90 61 91 58 92 60 93 59 94
REMARK H PARENT 16 9 23 37 76 62 54 73
REMARK Flexibility Score: inf
ROOT
ATOM      1  C   UNL A   1      31.037  28.293  24.513  1.00  0.00     0.261 C 
ENDROOT
BRANCH   1   2
ATOM      2  O   UNL A   1      32.076  27.446  24.992  1.00  0.00    -0.462 OA
BRANCH   2   3
ATOM      3  C   UNL A   1      31.777  26.699  26.101  1.00  0.00     0.329 C 
ATOM      4  O   UNL A   1      31.090  27.068  27.041  1.00  0.00    -0.250 OA
BRANCH   3   5
ATOM      5  C   UNL A   1      32.599  25.416  26.051  1.00  0.00     0.198 C 
BRANCH   5   6
ATOM      6  N   UNL A   1      31.687  24.348  25.593  1.00  0.00    -0.335 N 
ATOM      7  C   UNL A   1      31.559  23.085  26.106  1.00  0.00     0.293 C 
ATOM      8  O   UNL A   1      30.544  22.427  25.915  1.00  0.00    -0.265 OA
ATOM      9  H   UNL A   1      31.106  24.570  24.831  1.00  0.00     0.164 HD
BRANCH   7  10
ATOM     10  C   UNL A   1      32.704  22.502  26.930  1.00  0.00     0.252 C 
ATOM     11  O   UNL A   1      32.703  22.703  28.140  1.00  0.00    -0.283 OA
BRANCH  10  12
ATOM     12  C   UNL A   1      33.756  21.745  26.264  1.00  0.00     0.054 A 
ATOM     13  N   UNL A   1      35.689  21.198  25.308  1.00  0.00    -0.240 N 
ATOM     14  C   UNL A   1      35.039  22.184  26.000  1.00  0.00     0.117 A 
ATOM     15  C   UNL A   1      34.883  20.093  25.140  1.00  0.00     0.065 A 
ATOM     16  C   UNL A   1      33.656  20.419  25.734  1.00  0.00     0.012 A 
ATOM     17  C   UNL A   1      35.084  18.860  24.495  1.00  0.00     0.028 A 
ATOM     18  C   UNL A   1      32.611  19.471  25.703  1.00  0.00     0.011 A 
ATOM     19  C   UNL A   1      34.020  17.954  24.457  1.00  0.00     0.002 A 
ATOM     20  C   UNL A   1      32.802  18.249  25.059  1.00  0.00     0.001 A 
BRANCH  13  21
ATOM     21  S   UNL A   1      37.235  21.412  24.629  1.00  0.00     0.268 S 
ATOM     22  O   UNL A   1      37.013  22.219  23.437  1.00  0.00    -0.201 OA
ATOM     23  O   UNL A   1      37.828  20.096  24.565  1.00  0.00    -0.201 OA
BRANCH  21  24
ATOM     24  C   UNL A   1      38.197  22.376  25.764  1.00  0.00     0.088 A 
ATOM     25  C   UNL A   1      40.892  24.604  28.263  1.00  0.00     0.044 C 
ATOM     26  C   UNL A   1      39.927  23.823  27.421  1.00  0.00    -0.051 A 
ATOM     27  C   UNL A   1      40.168  22.469  27.161  1.00  0.00     0.005 A 
ATOM     28  C   UNL A   1      38.788  24.432  26.882  1.00  0.00     0.005 A 
ATOM     29  C   UNL A   1      39.310  21.747  26.332  1.00  0.00     0.022 A 
ATOM     30  C   UNL A   1      37.914  23.709  26.065  1.00  0.00     0.022 A 
ENDBRANCH  21  24
ENDBRANCH  13  21
ENDBRANCH  10  12
ENDBRANCH   7  10
ENDBRANCH   5   6
BRANCH   5  31
ATOM     31  C   UNL A   1      33.785  25.637  25.096  1.00  0.00     0.092 C 
BRANCH  31  32
ATOM     32  C   UNL A   1      33.560  25.084  23.725  1.00  0.00     0.037 A 
ATOM     33  C   UNL A   1      33.934  23.879  23.164  1.00  0.00     0.134 A 
ATOM     34  N   UNL A   1      32.837  25.713  22.742  1.00  0.00    -0.348 N 
ATOM     35  N   UNL A   1      33.466  23.769  21.885  1.00  0.00    -0.245 NA
ATOM     36  C   UNL A   1      32.844  24.898  21.646  1.00  0.00     0.196 A 
ATOM     37  H   UNL A   1      32.395  26.589  22.814  1.00  0.00     0.167 HD
ENDBRANCH  31  32
ENDBRANCH   5  31
ENDBRANCH   3   5
ENDBRANCH   2   3
ENDBRANCH   1   2
BRANCH   1  38
ATOM     38  C   UNL A   1      31.517  29.694  24.374  1.00  0.00     0.202 C 
BRANCH  38  39
ATOM     39  O   UNL A   1      30.777  30.474  25.297  1.00  0.00    -0.374 OA
BRANCH  39  40
ATOM     40  C   UNL A   1      31.588  31.215  26.198  1.00  0.00     0.202 C 
BRANCH  40  41
ATOM     41  C   UNL A   1      32.943  30.558  26.535  1.00  0.00     0.261 C 
BRANCH  41  42
ATOM     42  O   UNL A   1      33.290  30.848  27.908  1.00  0.00    -0.460 OA
BRANCH  42  43
ATOM     43  C   UNL A   1      34.027  31.972  28.136  1.00  0.00     0.338 C 
ATOM     44  O   UNL A   1      33.586  33.105  28.236  1.00  0.00    -0.246 OA
BRANCH  43  45
ATOM     45  C   UNL A   1      35.471  31.663  27.907  1.00  0.00     0.060 A 
ATOM     46  C   UNL A   1      35.882  30.335  27.700  1.00  0.00     0.016 A 
ATOM     47  C   UNL A   1      36.408  32.622  28.282  1.00  0.00     0.016 A 
ATOM     48  C   UNL A   1      37.178  29.935  28.062  1.00  0.00     0.010 A 
ATOM     49  C   UNL A   1      37.635  32.200  28.744  1.00  0.00     0.010 A 
ATOM     50  C   UNL A   1      38.012  30.851  28.692  1.00  0.00    -0.014 A 
BRANCH  50  51
ATOM     51  C   UNL A   1      39.275  30.532  29.370  1.00  0.00     0.031 A 
ATOM     52  C   UNL A   1      40.075  29.435  28.802  1.00  0.00     0.074 A 
ATOM     53  C   UNL A   1      39.803  31.301  30.357  1.00  0.00     0.049 A 
ATOM     54  N   UNL A   1      40.912  28.740  29.486  1.00  0.00    -0.248 NA
ATOM     55  C   UNL A   1      39.968  28.989  27.415  1.00  0.00     0.031 C 
ATOM     56  C   UNL A   1      41.161  31.323  30.904  1.00  0.00     0.029 A 
ATOM     57  N   UNL A   1      39.170  32.261  31.147  1.00  0.00    -0.354 N 
ATOM     58  C   UNL A   1      41.697  28.071  28.577  1.00  0.00     0.074 A 
ATOM     59  C   UNL A   1      40.970  28.113  27.338  1.00  0.00     0.031 C 
ATOM     60  C   UNL A   1      41.150  31.942  32.104  1.00  0.00     0.029 A 
ATOM     61  C   UNL A   1      39.761  32.258  32.407  1.00  0.00     0.049 A 
ATOM     62  H   UNL A   1      38.430  32.844  30.861  1.00  0.00     0.167 HD
ATOM     63  C   UNL A   1      42.970  27.741  28.929  1.00  0.00     0.031 A 
ATOM     64  C   UNL A   1      39.025  31.981  33.514  1.00  0.00     0.031 A 
ATOM     65  C   UNL A   1      43.276  28.204  30.294  1.00  0.00     0.049 A 
ATOM     66  C   UNL A   1      39.629  30.750  34.111  1.00  0.00     0.074 A 
ATOM     67  C   UNL A   1      44.085  29.214  30.792  1.00  0.00     0.029 A 
ATOM     68  N   UNL A   1      42.437  27.833  31.348  1.00  0.00    -0.354 N 
ATOM     69  N   UNL A   1      40.247  29.856  33.384  1.00  0.00    -0.248 NA
ATOM     70  C   UNL A   1      39.782  30.535  35.542  1.00  0.00     0.031 C 
ATOM     71  C   UNL A   1      43.706  29.456  32.147  1.00  0.00     0.029 A 
ATOM     72  C   UNL A   1      42.673  28.590  32.480  1.00  0.00     0.049 A 
ATOM     73  H   UNL A   1      41.760  27.120  31.291  1.00  0.00     0.167 HD
ATOM     74  C   UNL A   1      41.030  29.099  34.202  1.00  0.00     0.074 A 
ATOM     75  C   UNL A   1      40.651  29.509  35.547  1.00  0.00     0.031 C 
ATOM     76  C   UNL A   1      42.007  28.265  33.741  1.00  0.00     0.031 A 
BRANCH  63  77
ATOM     77  C   UNL A   1      44.010  27.263  27.934  1.00  0.00    -0.014 A 
ATOM     78  C   UNL A   1      44.548  25.971  28.053  1.00  0.00     0.009 A 
ATOM     79  C   UNL A   1      44.509  28.026  26.859  1.00  0.00     0.009 A 
ATOM     80  C   UNL A   1      45.551  25.496  27.192  1.00  0.00     0.001 A 
ATOM     81  C   UNL A   1      45.536  27.578  26.018  1.00  0.00     0.001 A 
ATOM     82  C   UNL A   1      46.058  26.306  26.184  1.00  0.00     0.000 A 
ENDBRANCH  63  77
BRANCH  64  83
ATOM     83  C   UNL A   1      37.586  32.383  33.361  1.00  0.00    -0.014 A 
ATOM     84  C   UNL A   1      37.307  33.771  33.332  1.00  0.00     0.009 A 
ATOM     85  C   UNL A   1      36.637  31.529  32.792  1.00  0.00     0.009 A 
ATOM     86  C   UNL A   1      36.239  34.298  32.592  1.00  0.00     0.001 A 
ATOM     87  C   UNL A   1      35.539  32.059  32.087  1.00  0.00     0.001 A 
ATOM     88  C   UNL A   1      35.377  33.436  31.931  1.00  0.00     0.000 A 
ENDBRANCH  64  83
BRANCH  76  89
ATOM     89  C   UNL A   1      42.428  27.013  34.462  1.00  0.00    -0.014 A 
ATOM     90  C   UNL A   1      41.547  26.154  35.127  1.00  0.00     0.009 A 
ATOM     91  C   UNL A   1      43.754  26.554  34.298  1.00  0.00     0.009 A 
ATOM     92  C   UNL A   1      41.967  24.913  35.611  1.00  0.00     0.001 A 
ATOM     93  C   UNL A   1      44.161  25.292  34.717  1.00  0.00     0.001 A 
ATOM     94  C   UNL A   1      43.265  24.472  35.384  1.00  0.00     0.000 A 
ENDBRANCH  76  89
ENDBRANCH  50  51
ENDBRANCH  43  45
ENDBRANCH  42  43
ENDBRANCH  41  42
ENDBRANCH  40  41
ENDBRANCH  39  40
ENDBRANCH  38  39
ENDBRANCH   1  38
TORSDOF 21
ENDMDL
MODEL 2
REMARK VINA RESULT:     -12.1      3.197      9.119
REMARK SMILES Cc1ccc(S(=O)(=O)n2cc(C(=O)C(=O)N[C@@H](Cc3cnc[nH]3)C(=O)OCCOCCOC(=O)c3ccc(-c4c5nc(c(-c6ccccc6)c6ccc([nH]6)c(-c6ccccc6)c6nc(c(-c7ccccc7)c7ccc4[nH]7)C=C6)C=C5)cc3)c3ccccc32)cc1
REMARK SMILES IDX 27 1 26 2 24 3 25 4 17 5 16 6 14 7 15 8 12 10 13 11 11 12
REMARK SMILES IDX 9 13 10 14 88 15 83 16 87 17 84 18 86 19 85 20 6 21 7 22
REMARK SMILES IDX 8 23 5 24 1 25 2 26 3 27 90 28 4 29 89 30 18 31 19 32 20 33
REMARK SMILES IDX 23 34 21 35 22 36 28 38 29 39 30 40 31 41 32 42 33 43 34 44
REMARK SMILES IDX 35 45 36 46 82 47 37 48 81 49 38 50 39 51 40 52 75 53 41 54
REMARK SMILES IDX 80 55 74 56 76 57 42 58 79 59 73 60 72 61 43 63 65 64 50 65
REMARK SMILES IDX 64 66 51 67 54 68 63 69 77 70 52 71 53 72 62 74 78 75 55 76
REMARK SMILES IDX 44 77 45 78 49 79 46 80 48 81 47 82 66 83 67 84 71 85 68 86
REMARK SMILES IDX 70 87 69 88 56 89 57 90 61 91 58 92 60 93 59 94
REMARK H PARENT 16 9 23 37 76 62 54 73
REMARK Flexibility Score: inf
ROOT
ATOM      1  C   UNL A   1      37.218  22.999  26.104  1.00  0.00     0.261 C 
ENDROOT
BRANCH   1   2
ATOM      2  O   UNL A   1      35.926  23.298  25.587  1.00  0.00    -0.462 OA
BRANCH   2   3
ATOM      3  C   UNL A   1      34.878  22.632  26.169  1.00  0.00     0.329 C 
ATOM      4  O   UNL A   1      34.605  22.644  27.359  1.00  0.00    -0.250 OA
BRANCH   3   5
ATOM      5  C   UNL A   1      34.238  21.733  25.118  1.00  0.00     0.198 C 
BRANCH   5   6
ATOM      6  N   UNL A   1      34.716  22.212  23.805  1.00  0.00    -0.335 N 
ATOM      7  C   UNL A   1      33.989  22.847  22.834  1.00  0.00     0.293 C 
ATOM      8  O   UNL A   1      34.540  23.524  21.975  1.00  0.00    -0.265 OA
ATOM      9  H   UNL A   1      35.667  22.056  23.605  1.00  0.00     0.164 HD
BRANCH   7  10
ATOM     10  C   UNL A   1      32.469  22.703  22.838  1.00  0.00     0.252 C 
ATOM     11  O   UNL A   1      31.989  21.663  22.399  1.00  0.00    -0.283 OA
BRANCH  10  12
ATOM     12  C   UNL A   1      31.646  23.793  23.344  1.00  0.00     0.054 A 
ATOM     13  N   UNL A   1      30.629  25.763  23.542  1.00  0.00    -0.240 N 
ATOM     14  C   UNL A   1      31.394  24.993  22.707  1.00  0.00     0.117 A 
ATOM     15  C   UNL A   1      30.329  25.087  24.705  1.00  0.00     0.065 A 
ATOM     16  C   UNL A   1      30.964  23.842  24.602  1.00  0.00     0.012 A 
ATOM     17  C   UNL A   1      29.603  25.450  25.854  1.00  0.00     0.028 A 
ATOM     18  C   UNL A   1      30.845  22.926  25.669  1.00  0.00     0.011 A 
ATOM     19  C   UNL A   1      29.528  24.531  26.905  1.00  0.00     0.002 A 
ATOM     20  C   UNL A   1      30.133  23.283  26.813  1.00  0.00     0.001 A 
BRANCH  13  21
ATOM     21  S   UNL A   1      30.253  27.389  23.212  1.00  0.00     0.268 S 
ATOM     22  O   UNL A   1      28.858  27.538  23.601  1.00  0.00    -0.201 OA
ATOM     23  O   UNL A   1      30.704  27.637  21.862  1.00  0.00    -0.201 OA
BRANCH  21  24
ATOM     24  C   UNL A   1      31.228  28.400  24.294  1.00  0.00     0.088 A 
ATOM     25  C   UNL A   1      33.212  30.905  27.169  1.00  0.00     0.044 C 
ATOM     26  C   UNL A   1      32.546  30.041  26.139  1.00  0.00    -0.051 A 
ATOM     27  C   UNL A   1      31.389  30.492  25.494  1.00  0.00     0.005 A 
ATOM     28  C   UNL A   1      33.062  28.780  25.816  1.00  0.00     0.005 A 
ATOM     29  C   UNL A   1      30.727  29.675  24.579  1.00  0.00     0.022 A 
ATOM     30  C   UNL A   1      32.414  27.964  24.886  1.00  0.00     0.022 A 
ENDBRANCH  21  24
ENDBRANCH  13  21
ENDBRANCH  10  12
ENDBRANCH   7  10
ENDBRANCH   5   6
BRANCH   5  31
ATOM     31  C   UNL A   1      34.651  20.279  25.408  1.00  0.00     0.092 C 
BRANCH  31  32
ATOM     32  C   UNL A   1      33.621  19.273  25.004  1.00  0.00     0.037 A 
ATOM     33  C   UNL A   1      32.853  18.410  25.760  1.00  0.00     0.134 A 
ATOM     34  N   UNL A   1      33.198  19.070  23.714  1.00  0.00    -0.348 N 
ATOM     35  N   UNL A   1      31.995  17.699  24.972  1.00  0.00    -0.245 NA
ATOM     36  C   UNL A   1      32.249  18.088  23.746  1.00  0.00     0.196 A 
ATOM     37  H   UNL A   1      33.519  19.544  22.913  1.00  0.00     0.167 HD
ENDBRANCH  31  32
ENDBRANCH   5  31
ENDBRANCH   3   5
ENDBRANCH   2   3
ENDBRANCH   1   2
BRANCH   1  38
ATOM     38  C   UNL A   1      37.950  22.072  25.201  1.00  0.00     0.202 C 
BRANCH  38  39
ATOM     39  O   UNL A   1      38.977  21.474  25.972  1.00  0.00    -0.374 OA
BRANCH  39  40
ATOM     40  C   UNL A   1      39.204  20.107  25.659  1.00  0.00     0.202 C 
BRANCH  40  41
ATOM     41  C   UNL A   1      40.597  19.577  26.058  1.00  0.00     0.261 C 
BRANCH  41  42
ATOM     42  O   UNL A   1      41.362  20.643  26.663  1.00  0.00    -0.460 OA
BRANCH  42  43
ATOM     43  C   UNL A   1      42.578  20.922  26.113  1.00  0.00     0.338 C 
ATOM     44  O   UNL A   1      43.159  20.240  25.285  1.00  0.00    -0.246 OA
BRANCH  43  45
ATOM     45  C   UNL A   1      43.242  21.994  26.915  1.00  0.00     0.060 A 
ATOM     46  C   UNL A   1      43.023  22.073  28.302  1.00  0.00     0.016 A 
ATOM     47  C   UNL A   1      43.742  23.100  26.235  1.00  0.00     0.016 A 
ATOM     48  C   UNL A   1      43.112  23.310  28.959  1.00  0.00     0.010 A 
ATOM     49  C   UNL A   1      43.712  24.327  26.859  1.00  0.00     0.010 A 
ATOM     50  C   UNL A   1      43.346  24.455  28.206  1.00  0.00    -0.014 A 
BRANCH  50  51
ATOM     51  C   UNL A   1      43.202  25.836  28.683  1.00  0.00     0.031 A 
ATOM     52  C   UNL A   1      41.919  26.503  28.410  1.00  0.00     0.074 A 
ATOM     53  C   UNL A   1      44.107  26.438  29.497  1.00  0.00     0.049 A 
ATOM     54  N   UNL A   1      41.785  27.779  28.329  1.00  0.00    -0.248 NA
ATOM     55  C   UNL A   1      40.672  25.786  28.154  1.00  0.00     0.031 C 
ATOM     56  C   UNL A   1      43.977  27.649  30.310  1.00  0.00     0.029 A 
ATOM     57  N   UNL A   1      45.431  26.077  29.746  1.00  0.00    -0.354 N 
ATOM     58  C   UNL A   1      40.438  28.036  28.413  1.00  0.00     0.074 A 
ATOM     59  C   UNL A   1      39.791  26.786  28.123  1.00  0.00     0.031 C 
ATOM     60  C   UNL A   1      45.206  28.097  30.646  1.00  0.00     0.029 A 
ATOM     61  C   UNL A   1      46.171  27.234  29.977  1.00  0.00     0.049 A 
ATOM     62  H   UNL A   1      45.784  25.158  29.758  1.00  0.00     0.167 HD
ATOM     63  C   UNL A   1      40.029  29.229  28.924  1.00  0.00     0.031 A 
ATOM     64  C   UNL A   1      47.220  27.554  29.176  1.00  0.00     0.031 A 
ATOM     65  C   UNL A   1      41.184  30.055  29.321  1.00  0.00     0.049 A 
ATOM     66  C   UNL A   1      46.870  28.865  28.547  1.00  0.00     0.074 A 
ATOM     67  C   UNL A   1      41.698  30.434  30.551  1.00  0.00     0.029 A 
ATOM     68  N   UNL A   1      42.191  30.318  28.389  1.00  0.00    -0.354 N 
ATOM     69  N   UNL A   1      45.631  29.225  28.332  1.00  0.00    -0.248 NA
ATOM     70  C   UNL A   1      47.829  29.935  28.319  1.00  0.00     0.031 C 
ATOM     71  C   UNL A   1      43.030  30.906  30.347  1.00  0.00     0.029 A 
ATOM     72  C   UNL A   1      43.326  30.823  28.993  1.00  0.00     0.049 A 
ATOM     73  H   UNL A   1      42.103  30.161  27.421  1.00  0.00     0.167 HD
ATOM     74  C   UNL A   1      45.598  30.575  28.155  1.00  0.00     0.074 A 
ATOM     75  C   UNL A   1      46.999  30.965  28.080  1.00  0.00     0.031 C 
ATOM     76  C   UNL A   1      44.445  31.305  28.183  1.00  0.00     0.031 A 
BRANCH  63  77
ATOM     77  C   UNL A   1      38.595  29.514  29.325  1.00  0.00    -0.014 A 
ATOM     78  C   UNL A   1      38.222  29.452  30.679  1.00  0.00     0.009 A 
ATOM     79  C   UNL A   1      37.558  29.847  28.431  1.00  0.00     0.009 A 
ATOM     80  C   UNL A   1      36.898  29.654  31.100  1.00  0.00     0.001 A 
ATOM     81  C   UNL A   1      36.227  30.014  28.835  1.00  0.00     0.001 A 
ATOM     82  C   UNL A   1      35.895  29.919  30.176  1.00  0.00     0.000 A 
ENDBRANCH  63  77
BRANCH  64  83
ATOM     83  C   UNL A   1      47.886  26.341  28.593  1.00  0.00    -0.014 A 
ATOM     84  C   UNL A   1      47.827  26.190  27.186  1.00  0.00     0.009 A 
ATOM     85  C   UNL A   1      48.907  25.663  29.266  1.00  0.00     0.009 A 
ATOM     86  C   UNL A   1      48.854  25.567  26.464  1.00  0.00     0.001 A 
ATOM     87  C   UNL A   1      49.914  24.998  28.540  1.00  0.00     0.001 A 
ATOM     88  C   UNL A   1      49.924  25.007  27.144  1.00  0.00     0.000 A 
ENDBRANCH  64  83
BRANCH  76  89
ATOM     89  C   UNL A   1      44.260  32.582  27.407  1.00  0.00    -0.014 A 
ATOM     90  C   UNL A   1      44.263  32.662  26.011  1.00  0.00     0.009 A 
ATOM     91  C   UNL A   1      43.858  33.742  28.107  1.00  0.00     0.009 A 
ATOM     92  C   UNL A   1      43.896  33.836  25.349  1.00  0.00     0.001 A 
ATOM     93  C   UNL A   1      43.427  34.891  27.452  1.00  0.00     0.001 A 
ATOM     94  C   UNL A   1      43.456  34.940  26.068  1.00  0.00     0.000 A 
ENDBRANCH  76  89
ENDBRANCH  50  51
ENDBRANCH  43  45
ENDBRANCH  42  43
ENDBRANCH  41  42
ENDBRANCH  40  41
ENDBRANCH  39  40
ENDBRANCH  38  39
ENDBRANCH   1  38
TORSDOF 21
ENDMDL
MODEL 3
REMARK VINA RESULT:     -12.0      1.934      3.192
REMARK SMILES Cc1ccc(S(=O)(=O)n2cc(C(=O)C(=O)N[C@@H](Cc3cnc[nH]3)C(=O)OCCOCCOC(=O)c3ccc(-c4c5nc(c(-c6ccccc6)c6ccc([nH]6)c(-c6ccccc6)c6nc(c(-c7ccccc7)c7ccc4[nH]7)C=C6)C=C5)cc3)c3ccccc32)cc1
REMARK SMILES IDX 27 1 26 2 24 3 25 4 17 5 16 6 14 7 15 8 12 10 13 11 11 12
REMARK SMILES IDX 9 13 10 14 88 15 83 16 87 17 84 18 86 19 85 20 6 21 7 22
REMARK SMILES IDX 8 23 5 24 1 25 2 26 3 27 90 28 4 29 89 30 18 31 19 32 20 33
REMARK SMILES IDX 23 34 21 35 22 36 28 38 29 39 30 40 31 41 32 42 33 43 34 44
REMARK SMILES IDX 35 45 36 46 82 47 37 48 81 49 38 50 39 51 40 52 75 53 41 54
REMARK SMILES IDX 80 55 74 56 76 57 42 58 79 59 73 60 72 61 43 63 65 64 50 65
REMARK SMILES IDX 64 66 51 67 54 68 63 69 77 70 52 71 53 72 62 74 78 75 55 76
REMARK SMILES IDX 44 77 45 78 49 79 46 80 48 81 47 82 66 83 67 84 71 85 68 86
REMARK SMILES IDX 70 87 69 88 56 89 57 90 61 91 58 92 60 93 59 94
REMARK H PARENT 16 9 23 37 76 62 54 73
REMARK Flexibility Score: inf
ROOT
ATOM      1  C   UNL A   1      31.371  27.603  27.327  1.00  0.00     0.261 C 
ENDROOT
BRANCH   1   2
ATOM      2  O   UNL A   1      31.731  26.414  26.634  1.00  0.00    -0.462 OA
BRANCH   2   3
ATOM      3  C   UNL A   1      30.700  25.719  26.057  1.00  0.00     0.329 C 
ATOM      4  O   UNL A   1      29.550  25.690  26.465  1.00  0.00    -0.250 OA
BRANCH   3   5
ATOM      5  C   UNL A   1      31.272  24.845  24.947  1.00  0.00     0.198 C 
BRANCH   5   6
ATOM      6  N   UNL A   1      30.592  23.537  25.046  1.00  0.00    -0.335 N 
ATOM      7  C   UNL A   1      30.781  22.570  25.996  1.00  0.00     0.293 C 
ATOM      8  O   UNL A   1      29.926  21.718  26.206  1.00  0.00    -0.265 OA
ATOM      9  H   UNL A   1      29.927  23.340  24.347  1.00  0.00     0.164 HD
BRANCH   7  10
ATOM     10  C   UNL A   1      32.078  22.567  26.799  1.00  0.00     0.252 C 
ATOM     11  O   UNL A   1      32.037  22.967  27.959  1.00  0.00    -0.283 OA
BRANCH  10  12
ATOM     12  C   UNL A   1      33.310  22.106  26.173  1.00  0.00     0.054 A 
ATOM     13  N   UNL A   1      35.336  22.081  25.253  1.00  0.00    -0.240 N 
ATOM     14  C   UNL A   1      34.425  22.874  25.897  1.00  0.00     0.117 A 
ATOM     15  C   UNL A   1      34.872  20.789  25.130  1.00  0.00     0.065 A 
ATOM     16  C   UNL A   1      33.592  20.784  25.702  1.00  0.00     0.012 A 
ATOM     17  C   UNL A   1      35.419  19.635  24.542  1.00  0.00     0.028 A 
ATOM     18  C   UNL A   1      32.853  19.582  25.708  1.00  0.00     0.011 A 
ATOM     19  C   UNL A   1      34.651  18.467  24.539  1.00  0.00     0.002 A 
ATOM     20  C   UNL A   1      33.389  18.436  25.120  1.00  0.00     0.001 A 
BRANCH  13  21
ATOM     21  S   UNL A   1      36.773  22.689  24.574  1.00  0.00     0.268 S 
ATOM     22  O   UNL A   1      36.848  24.070  25.030  1.00  0.00    -0.201 OA
ATOM     23  O   UNL A   1      36.727  22.345  23.171  1.00  0.00    -0.201 OA
BRANCH  21  24
ATOM     24  C   UNL A   1      38.130  21.806  25.296  1.00  0.00     0.088 A 
ATOM     25  C   UNL A   1      41.258  19.797  27.453  1.00  0.00     0.044 C 
ATOM     26  C   UNL A   1      40.190  20.500  26.669  1.00  0.00    -0.051 A 
ATOM     27  C   UNL A   1      39.965  21.867  26.868  1.00  0.00     0.005 A 
ATOM     28  C   UNL A   1      39.404  19.805  25.742  1.00  0.00     0.005 A 
ATOM     29  C   UNL A   1      38.936  22.519  26.190  1.00  0.00     0.022 A 
ATOM     30  C   UNL A   1      38.383  20.457  25.044  1.00  0.00     0.022 A 
ENDBRANCH  21  24
ENDBRANCH  13  21
ENDBRANCH  10  12
ENDBRANCH   7  10
ENDBRANCH   5   6
BRANCH   5  31
ATOM     31  C   UNL A   1      31.023  25.546  23.600  1.00  0.00     0.092 C 
BRANCH  31  32
ATOM     32  C   UNL A   1      31.935  26.705  23.351  1.00  0.00     0.037 A 
ATOM     33  C   UNL A   1      33.301  26.830  23.507  1.00  0.00     0.134 A 
ATOM     34  N   UNL A   1      31.535  27.911  22.831  1.00  0.00    -0.348 N 
ATOM     35  N   UNL A   1      33.728  28.063  23.104  1.00  0.00    -0.245 NA
ATOM     36  C   UNL A   1      32.644  28.703  22.739  1.00  0.00     0.196 A 
ATOM     37  H   UNL A   1      30.618  28.158  22.572  1.00  0.00     0.167 HD
ENDBRANCH  31  32
ENDBRANCH   5  31
ENDBRANCH   3   5
ENDBRANCH   2   3
ENDBRANCH   1   2
BRANCH   1  38
ATOM     38  C   UNL A   1      32.158  28.765  26.834  1.00  0.00     0.202 C 
BRANCH  38  39
ATOM     39  O   UNL A   1      33.507  28.338  26.748  1.00  0.00    -0.374 OA
BRANCH  39  40
ATOM     40  C   UNL A   1      34.434  29.404  26.597  1.00  0.00     0.202 C 
BRANCH  40  41
ATOM     41  C   UNL A   1      34.299  30.529  27.645  1.00  0.00     0.261 C 
BRANCH  41  42
ATOM     42  O   UNL A   1      35.493  31.342  27.634  1.00  0.00    -0.460 OA
BRANCH  42  43
ATOM     43  C   UNL A   1      36.286  31.293  28.742  1.00  0.00     0.338 C 
ATOM     44  O   UNL A   1      36.497  32.218  29.509  1.00  0.00    -0.246 OA
BRANCH  43  45
ATOM     45  C   UNL A   1      37.121  30.054  28.690  1.00  0.00     0.060 A 
ATOM     46  C   UNL A   1      37.214  29.221  29.818  1.00  0.00     0.016 A 
ATOM     47  C   UNL A   1      38.076  29.956  27.682  1.00  0.00     0.016 A 
ATOM     48  C   UNL A   1      38.364  28.443  30.025  1.00  0.00     0.010 A 
ATOM     49  C   UNL A   1      39.249  29.285  27.948  1.00  0.00     0.010 A 
ATOM     50  C   UNL A   1      39.429  28.569  29.140  1.00  0.00    -0.014 A 
BRANCH  50  51
ATOM     51  C   UNL A   1      40.784  28.047  29.353  1.00  0.00     0.031 A 
ATOM     52  C   UNL A   1      41.121  26.781  28.683  1.00  0.00     0.074 A 
ATOM     53  C   UNL A   1      41.763  28.752  29.976  1.00  0.00     0.049 A 
ATOM     54  N   UNL A   1      42.030  25.975  29.102  1.00  0.00    -0.248 NA
ATOM     55  C   UNL A   1      40.427  26.283  27.497  1.00  0.00     0.031 C 
ATOM     56  C   UNL A   1      43.211  28.537  29.991  1.00  0.00     0.029 A 
ATOM     57  N   UNL A   1      41.640  29.864  30.810  1.00  0.00    -0.354 N 
ATOM     58  C   UNL A   1      42.294  25.111  28.067  1.00  0.00     0.074 A 
ATOM     59  C   UNL A   1      41.170  25.223  27.179  1.00  0.00     0.031 C 
ATOM     60  C   UNL A   1      43.755  29.216  31.023  1.00  0.00     0.029 A 
ATOM     61  C   UNL A   1      42.654  29.819  31.762  1.00  0.00     0.049 A 
ATOM     62  H   UNL A   1      40.951  30.564  30.736  1.00  0.00     0.167 HD
ATOM     63  C   UNL A   1      43.533  24.556  27.976  1.00  0.00     0.031 A 
ATOM     64  C   UNL A   1      42.356  29.760  33.086  1.00  0.00     0.031 A 
ATOM     65  C   UNL A   1      44.403  25.029  29.069  1.00  0.00     0.049 A 
ATOM     66  C   UNL A   1      42.933  28.471  33.579  1.00  0.00     0.074 A 
ATOM     67  C   UNL A   1      45.492  25.886  29.108  1.00  0.00     0.029 A 
ATOM     68  N   UNL A   1      43.976  24.895  30.392  1.00  0.00    -0.354 N 
ATOM     69  N   UNL A   1      43.076  27.430  32.800  1.00  0.00    -0.248 NA
ATOM     70  C   UNL A   1      43.577  28.315  34.874  1.00  0.00     0.031 C 
ATOM     71  C   UNL A   1      45.698  26.279  30.465  1.00  0.00     0.029 A 
ATOM     72  C   UNL A   1      44.741  25.656  31.255  1.00  0.00     0.049 A 
ATOM     73  H   UNL A   1      43.221  24.329  30.675  1.00  0.00     0.167 HD
ATOM     74  C   UNL A   1      43.976  26.582  33.372  1.00  0.00     0.074 A 
ATOM     75  C   UNL A   1      44.205  27.139  34.698  1.00  0.00     0.031 C 
ATOM     76  C   UNL A   1      44.557  25.546  32.702  1.00  0.00     0.031 A 
BRANCH  63  77
ATOM     77  C   UNL A   1      44.028  23.823  26.745  1.00  0.00    -0.014 A 
ATOM     78  C   UNL A   1      45.010  24.411  25.930  1.00  0.00     0.009 A 
ATOM     79  C   UNL A   1      43.575  22.558  26.323  1.00  0.00     0.009 A 
ATOM     80  C   UNL A   1      45.466  23.801  24.750  1.00  0.00     0.001 A 
ATOM     81  C   UNL A   1      43.994  21.957  25.128  1.00  0.00     0.001 A 
ATOM     82  C   UNL A   1      44.946  22.581  24.339  1.00  0.00     0.000 A 
ENDBRANCH  63  77
BRANCH  64  83
ATOM     83  C   UNL A   1      41.052  30.430  33.410  1.00  0.00    -0.014 A 
ATOM     84  C   UNL A   1      40.976  31.827  33.193  1.00  0.00     0.009 A 
ATOM     85  C   UNL A   1      39.846  29.723  33.443  1.00  0.00     0.009 A 
ATOM     86  C   UNL A   1      39.780  32.457  32.821  1.00  0.00     0.001 A 
ATOM     87  C   UNL A   1      38.638  30.367  33.113  1.00  0.00     0.001 A 
ATOM     88  C   UNL A   1      38.614  31.712  32.739  1.00  0.00     0.000 A 
ENDBRANCH  64  83
BRANCH  76  89
ATOM     89  C   UNL A   1      45.010  24.279  33.379  1.00  0.00    -0.014 A 
ATOM     90  C   UNL A   1      46.287  24.087  33.915  1.00  0.00     0.009 A 
ATOM     91  C   UNL A   1      44.043  23.294  33.680  1.00  0.00     0.009 A 
ATOM     92  C   UNL A   1      46.587  22.969  34.697  1.00  0.00     0.001 A 
ATOM     93  C   UNL A   1      44.317  22.215  34.514  1.00  0.00     0.001 A 
ATOM     94  C   UNL A   1      45.597  22.048  35.016  1.00  0.00     0.000 A 
ENDBRANCH  76  89
ENDBRANCH  50  51
ENDBRANCH  43  45
ENDBRANCH  42  43
ENDBRANCH  41  42
ENDBRANCH  40  41
ENDBRANCH  39  40
ENDBRANCH  38  39
ENDBRANCH   1  38
TORSDOF 21
ENDMDL
